@<TRIPOS>MOLECULE
NONAME
55 58 1 0 0 
SMALL
USER_CHARGES


@<TRIPOS>ATOM
  1 O        1.8160    -0.1250    -0.3390 O.2   1 <1>  -0.5700 
  2 C        2.0370    -1.3070    -0.3170 C.2   1 <1>   0.5690 
  3 N        1.3270    -2.1160     0.4920 N.am  1 <1>  -0.7300 
  4 C        3.1410    -1.8740    -1.1850 C.3   1 <1>  -0.0990 
  5 C        1.2070    -3.5770     0.3610 C.3   1 <1>   0.1400 
  6 C        3.0580    -3.3950    -1.4640 C.3   1 <1>  -0.0800 
  7 C        2.4420    -4.2010    -0.3080 C.3   1 <1>  -0.0800 
  8 C        4.4740    -3.9890    -1.6270 C.3   1 <1>  -0.1600 
  9 C        3.6280    -4.4660     0.6180 C.3   1 <1>  -0.1600 
 10 C        4.7300    -4.8390    -0.3760 C.3   1 <1>   0.4230 
 11 N        6.1380    -4.7600     0.1140 N.4   1 <1>  -0.9590 
 12 C        6.4560    -3.8170     1.2270 C.3   1 <1>   0.4860 
 13 C        6.6660    -6.1170     0.4290 C.3   1 <1>   0.2630 
 14 C        6.4860    -2.3860     0.7270 C.ar  1 <1>  -0.1440 
 15 C        7.2700    -2.0130    -0.3630 C.ar  1 <1>   0.0820 
 16 C        5.7280    -1.4300     1.3860 C.ar  1 <1>  -0.1500 
 17 O        8.0030    -2.9840    -0.9800 O.3   1 <1>  -0.3620 
 18 C        7.2800    -0.6860    -0.7830 C.ar  1 <1>  -0.1500 
 19 C        5.7220    -0.1150     0.9590 C.ar  1 <1>   0.0820 
 20 C        8.9820    -2.6450    -1.9440 C.3   1 <1>   0.0400 
 21 C        6.5240     0.2670    -0.1240 C.ar  1 <1>   0.0820 
 22 O        4.8860     0.7300     1.6150 O.3   1 <1>  -0.3620 
 23 O        6.6270     1.5440    -0.5760 O.3   1 <1>  -0.3620 
 24 C        4.1920     1.6780     0.8310 C.3   1 <1>   0.1200 
 25 C        6.5270     2.5960     0.3610 C.3   1 <1>   0.1200 
 26 C        5.0570     2.9240     0.6370 C.3   1 <1>  -0.1600 
 27 H        0.6050    -1.6450     1.0440 H     1 <1>   0.3700 
 28 H        3.1460    -1.3410    -2.1190 H     1 <1>   0.0800 
 29 H        4.0550    -1.6330    -0.6850 H     1 <1>   0.0800 
 30 H        1.0510    -4.0140     1.3330 H     1 <1>   0.0800 
 31 H        0.3370    -3.7860    -0.2390 H     1 <1>   0.0800 
 32 H        2.4700    -3.5440    -2.3550 H     1 <1>   0.0800 
 33 H        2.1280    -5.1560    -0.6990 H     1 <1>   0.0800 
 34 H        5.2130    -3.2210    -1.7610 H     1 <1>   0.0800 
 35 H        4.4940    -4.6300    -2.4910 H     1 <1>   0.0800 
 36 H        3.4210    -5.2660     1.3060 H     1 <1>   0.0800 
 37 H        3.8420    -3.5600     1.1530 H     1 <1>   0.0800 
 38 H        4.5370    -5.8570    -0.6730 H     1 <1>   0.0800 
 39 H        6.6980    -4.3720    -0.6670 H     1 <1>   0.4500 
 40 H        5.7440    -3.9220     2.0270 H     1 <1>   0.0800 
 41 H        7.4340    -4.0440     1.6200 H     1 <1>   0.0800 
 42 H        6.1310    -6.5440     1.2620 H     1 <1>   0.0800 
 43 H        7.7130    -6.0630     0.6800 H     1 <1>   0.0800 
 44 H        6.5540    -6.7680    -0.4230 H     1 <1>   0.0800 
 45 H        5.1160    -1.6830     2.2350 H     1 <1>   0.1500 
 46 H        7.8690    -0.3540    -1.6160 H     1 <1>   0.1500 
 47 H        9.5010    -3.5410    -2.2320 H     1 <1>   0.0800 
 48 H        9.6780    -1.9480    -1.5080 H     1 <1>   0.0800 
 49 H        8.4990    -2.2140    -2.8030 H     1 <1>   0.0800 
 50 H        3.9520     1.2290    -0.1170 H     1 <1>   0.0800 
 51 H        3.2740     1.9220     1.3360 H     1 <1>   0.0800 
 52 H        7.0330     2.2960     1.2630 H     1 <1>   0.0800 
 53 H        7.0320     3.4520    -0.0500 H     1 <1>   0.0800 
 54 H        4.9960     3.5370     1.5180 H     1 <1>   0.0800 
 55 H        4.6600     3.4990    -0.1790 H     1 <1>   0.0800 
@<TRIPOS>BOND
  1   1   2  2   
  2   2   3  am  
  3   2   4  1   
  4   3   5  1   
  5   3  27  1   
  6   4   6  1   
  7   4  28  1   
  8   4  29  1   
  9   5   7  1   
 10   5  30  1   
 11   5  31  1   
 12   6   7  1   
 13   6   8  1   
 14   6  32  1   
 15   7   9  1   
 16   7  33  1   
 17   8  10  1   
 18   8  34  1   
 19   8  35  1   
 20   9  10  1   
 21   9  36  1   
 22   9  37  1   
 23  10  11  1   
 24  10  38  1   
 25  11  12  1   
 26  11  13  1   
 27  11  39  1   
 28  12  14  1   
 29  12  40  1   
 30  12  41  1   
 31  13  42  1   
 32  13  43  1   
 33  13  44  1   
 34  14  15  ar  
 35  14  16  ar  
 36  15  17  1   
 37  15  18  ar  
 38  16  19  ar  
 39  16  45  1   
 40  17  20  1   
 41  18  21  ar  
 42  18  46  1   
 43  19  21  ar  
 44  19  22  1   
 45  20  47  1   
 46  20  48  1   
 47  20  49  1   
 48  21  23  1   
 49  22  24  1   
 50  23  25  1   
 51  24  26  1   
 52  24  50  1   
 53  24  51  1   
 54  25  26  1   
 55  25  52  1   
 56  25  53  1   
 57  26  54  1   
 58  26  55  1   
@<TRIPOS>SUBSTRUCTURE
  1 ****  16 GROUP 4 **** **** 0

# MOE 2024.06 (io_trps.svl 2023.06)
