@<TRIPOS>MOLECULE
NONAME
55 58 1 0 0 
SMALL
USER_CHARGES


@<TRIPOS>ATOM
  1 O        1.2240     1.3090     1.4710 O.2   1 <1>  -0.5700 
  2 C        1.4990     0.9550     0.3370 C.2   1 <1>   0.5440 
  3 N        0.5940     1.2410    -0.6540 N.am  1 <1>  -0.7300 
  4 C        2.7700     0.3180     0.0220 C.ar  1 <1>   0.3960 
  5 C       -0.3440     2.3960    -0.6160 C.3   1 <1>   0.1400 
  6 N        2.7040    -0.9520    -0.4230 N.ar  1 <1>  -0.6200 
  7 C        4.0070     0.9980     0.1590 C.ar  1 <1>   0.0830 
  8 C       -1.8150     1.9920    -0.3980 C.3   1 <1>   0.2200 
  9 C        3.8420    -1.5730    -0.6550 C.ar  1 <1>   0.1600 
 10 O        4.2050     2.3080     0.4850 O.3   1 <1>  -0.3630 
 11 C        5.1780     0.3060    -0.0840 C.ar  1 <1>  -0.1500 
 12 N       -2.8380     3.0710    -0.6490 N.am  1 <1>  -0.6600 
 13 C       -2.0810     1.3990     0.9950 C.3   1 <1>  -0.1600 
 14 C        5.0910    -1.0020    -0.4950 C.ar  1 <1>  -0.1500 
 15 C        3.2160     3.3100     0.3640 C.3   1 <1>   0.1200 
 16 C       -2.7170     4.4470    -0.6470 C.2   1 <1>   0.5690 
 17 C       -4.2060     2.4790    -0.7250 C.3   1 <1>   0.1400 
 18 C       -3.5100     0.8390     1.0950 C.3   1 <1>  -0.1600 
 19 C        3.8490     4.6960     0.3940 C.3   1 <1>   0.0960 
 20 O       -3.6040     5.1510    -1.0720 O.2   1 <1>  -0.5700 
 21 C       -1.4900     5.1530    -0.0780 C.3   1 <1>  -0.0990 
 22 C       -4.5530     1.8740     0.6410 C.3   1 <1>  -0.1600 
 23 N        2.7670     5.6780     0.2210 N.pl3 1 <1>   0.3140 
 24 C       -1.5990     6.6840     0.0850 C.3   1 <1>  -0.1600 
 25 N        2.5290     6.2950    -0.9390 N.2   1 <1>  -0.4180 
 26 C        1.7750     5.9410     1.0740 C.2   1 <1>  -0.3020 
 27 C       -0.4050     7.2880     0.8500 C.3   1 <1>   0.0210 
 28 N        1.4220     6.9470    -0.8350 N.2   1 <1>  -0.2270 
 29 C        0.9330     6.7310     0.3910 C.2   1 <1>   0.0460 
 30 H        0.7010     0.7630    -1.5540 H     1 <1>   0.3700 
 31 H       -0.2610     2.9240    -1.5500 H     1 <1>   0.0800 
 32 H       -0.0320     3.0420     0.1830 H     1 <1>   0.0800 
 33 H       -2.0050     1.2160    -1.1200 H     1 <1>   0.0800 
 34 H        3.7830    -2.5960    -0.9910 H     1 <1>   0.1500 
 35 H        6.1320     0.7900     0.0380 H     1 <1>   0.1500 
 36 H       -1.9260     2.1590     1.7400 H     1 <1>   0.0800 
 37 H       -1.3830     0.6040     1.1920 H     1 <1>   0.0800 
 38 H        5.9780    -1.5760    -0.6960 H     1 <1>   0.1500 
 39 H        2.5480     3.2220     1.2000 H     1 <1>   0.0800 
 40 H        2.6960     3.1670    -0.5680 H     1 <1>   0.0800 
 41 H       -4.2270     1.7190    -1.4870 H     1 <1>   0.0800 
 42 H       -4.9410     3.2220    -0.9840 H     1 <1>   0.0800 
 43 H       -3.7120     0.5370     2.1080 H     1 <1>   0.0800 
 44 H       -3.5880    -0.0340     0.4700 H     1 <1>   0.0800 
 45 H        4.5500     4.8070    -0.4130 H     1 <1>   0.0800 
 46 H        4.3350     4.8720     1.3350 H     1 <1>   0.0800 
 47 H       -0.6730     4.9710    -0.7470 H     1 <1>   0.0800 
 48 H       -1.2770     4.7200     0.8820 H     1 <1>   0.0800 
 49 H       -5.5220     1.4120     0.5890 H     1 <1>   0.0800 
 50 H       -4.6090     2.6700     1.3630 H     1 <1>   0.0800 
 51 H       -2.5100     6.9320     0.6020 H     1 <1>   0.0800 
 52 H       -1.6500     7.1280    -0.8950 H     1 <1>   0.0800 
 53 H        1.7160     5.5490     2.0710 H     1 <1>   0.1500 
 54 H       -0.5200     7.0760     1.8980 H     1 <1>   0.0800 
 55 H       -0.4030     8.3570     0.7300 H     1 <1>   0.0800 
@<TRIPOS>BOND
  1   1   2  2   
  2   2   3  am  
  3   2   4  1   
  4   3   5  1   
  5   3  30  1   
  6   4   6  ar  
  7   4   7  ar  
  8   5   8  1   
  9   5  31  1   
 10   5  32  1   
 11   6   9  ar  
 12   7  10  1   
 13   7  11  ar  
 14   8  12  1   
 15   8  13  1   
 16   8  33  1   
 17   9  14  ar  
 18   9  34  1   
 19  10  15  1   
 20  11  14  ar  
 21  11  35  1   
 22  12  16  am  
 23  12  17  1   
 24  13  18  1   
 25  13  36  1   
 26  13  37  1   
 27  14  38  1   
 28  15  19  1   
 29  15  39  1   
 30  15  40  1   
 31  16  20  2   
 32  16  21  1   
 33  17  22  1   
 34  17  41  1   
 35  17  42  1   
 36  18  22  1   
 37  18  43  1   
 38  18  44  1   
 39  19  23  1   
 40  19  45  1   
 41  19  46  1   
 42  21  24  1   
 43  21  47  1   
 44  21  48  1   
 45  22  49  1   
 46  22  50  1   
 47  23  25  1   
 48  23  26  1   
 49  24  27  1   
 50  24  51  1   
 51  24  52  1   
 52  25  28  2   
 53  26  29  2   
 54  26  53  1   
 55  27  29  1   
 56  27  54  1   
 57  27  55  1   
 58  28  29  1   
@<TRIPOS>SUBSTRUCTURE
  1 ****   5 GROUP 4 **** **** 0

# MOE 2024.06 (io_trps.svl 2023.06)
