@<TRIPOS>MOLECULE
NONAME
41 42 1 0 0 
SMALL
USER_CHARGES


@<TRIPOS>ATOM
  1 O        0.0510    -0.0600    -0.5860 O.2   1 <1>  -0.5700 
  2 C        1.0590    -0.5990    -0.1600 C.2   1 <1>   0.7160 
  3 N        2.1860     0.1580     0.0780 N.am  1 <1>  -0.4940 
  4 C        1.1210    -2.0270     0.1170 C.2   1 <1>   0.2030 
  5 C        2.4400     1.5490    -0.0160 C.2   1 <1>  -0.0880 
  6 N        0.5770    -2.9980    -0.5930 N.2   1 <1>  -0.7070 
  7 C        1.8110    -2.5710     1.2100 C.2   1 <1>  -0.1500 
  8 N        1.5800     2.5790     0.2350 N.pl3 1 <1>   0.3140 
  9 C        3.6230     2.1190    -0.3500 C.2   1 <1>  -0.1810 
 10 N        0.9000    -4.1410     0.0270 N.pl3 1 <1>   0.3140 
 11 C        1.6520    -3.9050     1.1210 C.2   1 <1>  -0.3020 
 12 N        2.1880     3.7750     0.0800 N.2   1 <1>  -0.7070 
 13 C        0.1900     2.5330     0.7080 C.3   1 <1>   0.0160 
 14 C        3.4000     3.4920    -0.2730 C.2   1 <1>   0.1080 
 15 C        4.9290     1.4440    -0.7340 C.3   1 <1>  -0.0590 
 16 C        0.4450    -5.4650    -0.4830 C.3   1 <1>   0.1760 
 17 C        4.4240     4.5770    -0.5560 C.3   1 <1>   0.0210 
 18 C       -0.4520    -6.1660     0.5460 C.3   1 <1>  -0.2400 
 19 C        1.6440    -6.3470    -0.8600 C.3   1 <1>  -0.2400 
 20 C        5.2200     4.9300     0.7050 C.3   1 <1>  -0.2400 
 21 H        3.0220    -0.4070     0.2040 H     1 <1>   0.3700 
 22 H        2.3440    -2.0160     1.9610 H     1 <1>   0.1500 
 23 H        2.0170    -4.6870     1.7600 H     1 <1>   0.1500 
 24 H        0.0680     1.7110     1.3860 H     1 <1>   0.0800 
 25 H       -0.4610     2.4110    -0.1380 H     1 <1>   0.0800 
 26 H       -0.0420     3.4540     1.2100 H     1 <1>   0.0800 
 27 H        4.8200     0.3760    -0.7460 H     1 <1>   0.0800 
 28 H        5.6980     1.7070    -0.0310 H     1 <1>   0.0800 
 29 H        5.2280     1.7650    -1.7150 H     1 <1>   0.0800 
 30 H       -0.1350    -5.2780    -1.3710 H     1 <1>   0.0800 
 31 H        3.9080     5.4520    -0.9090 H     1 <1>   0.0800 
 32 H        5.0910     4.2520    -1.3330 H     1 <1>   0.0800 
 33 H        0.0950    -6.3870     1.4450 H     1 <1>   0.0800 
 34 H       -0.8270    -7.0880     0.1390 H     1 <1>   0.0800 
 35 H       -1.2920    -5.5380     0.7870 H     1 <1>   0.0800 
 36 H        2.2420    -6.5700     0.0050 H     1 <1>   0.0800 
 37 H        2.2520    -5.8450    -1.5920 H     1 <1>   0.0800 
 38 H        1.3000    -7.2720    -1.2850 H     1 <1>   0.0800 
 39 H        4.5480     5.2710     1.4730 H     1 <1>   0.0800 
 40 H        5.9290     5.7090     0.4920 H     1 <1>   0.0800 
 41 H        5.7460     4.0660     1.0690 H     1 <1>   0.0800 
@<TRIPOS>BOND
  1   1   2  2   
  2   2   3  am  
  3   2   4  1   
  4   3   5  1   
  5   3  21  1   
  6   4   6  2   
  7   4   7  1   
  8   5   8  1   
  9   5   9  2   
 10   6  10  1   
 11   7  11  2   
 12   7  22  1   
 13   8  12  1   
 14   8  13  1   
 15   9  14  1   
 16   9  15  1   
 17  10  11  1   
 18  10  16  1   
 19  11  23  1   
 20  12  14  2   
 21  13  24  1   
 22  13  25  1   
 23  13  26  1   
 24  14  17  1   
 25  15  27  1   
 26  15  28  1   
 27  15  29  1   
 28  16  18  1   
 29  16  19  1   
 30  16  30  1   
 31  17  20  1   
 32  17  31  1   
 33  17  32  1   
 34  18  33  1   
 35  18  34  1   
 36  18  35  1   
 37  19  36  1   
 38  19  37  1   
 39  19  38  1   
 40  20  39  1   
 41  20  40  1   
 42  20  41  1   
@<TRIPOS>SUBSTRUCTURE
  1 ****   3 GROUP 4 **** **** 0

# MOE 2024.06 (io_trps.svl 2023.06)
