@<TRIPOS>MOLECULE
NONAME
52 54 1 0 0 
SMALL
USER_CHARGES


@<TRIPOS>ATOM
  1 O       -2.1770    -0.8990    -2.5380 O.2   1 <1>  -0.5700 
  2 C       -1.7190    -1.1890    -1.4590 C.2   1 <1>   0.5690 
  3 N       -2.0290    -2.3650    -0.8300 N.am  1 <1>  -0.6600 
  4 C       -0.7710    -0.1940    -0.8100 C.3   1 <1>  -0.0990 
  5 C       -1.6230    -2.6940     0.5650 C.3   1 <1>   0.1400 
  6 C       -2.9710    -3.3590    -1.4580 C.3   1 <1>   0.2010 
  7 C       -0.6380    -0.3750     0.7080 C.3   1 <1>  -0.1600 
  8 C       -0.4270    -1.8570     1.0270 C.3   1 <1>  -0.1600 
  9 C       -4.2280    -3.6390    -0.6240 C.2   1 <1>   0.5690 
 10 O       -4.3230    -4.7400    -0.1280 O.2   1 <1>  -0.5700 
 11 N       -5.1920    -2.6760    -0.4350 N.am  1 <1>  -0.6600 
 12 C       -6.3610    -2.9240     0.4600 C.3   1 <1>   0.1400 
 13 C       -5.0790    -1.3020    -1.0140 C.3   1 <1>   0.1400 
 14 C       -6.6220    -1.6880     1.3240 C.3   1 <1>  -0.1600 
 15 C       -6.4220    -0.5720    -0.9630 C.3   1 <1>  -0.1600 
 16 C       -6.9390    -0.4250     0.4850 C.3   1 <1>   0.2800 
 17 O       -6.1620     0.6110     1.0510 O.3   1 <1>  -0.5600 
 18 C       -8.4640    -0.0940     0.5470 C.3   1 <1>   0.2000 
 19 C       -6.7840     1.7790     1.5080 C.3   1 <1>   0.1200 
 20 O       -9.2490    -1.0640    -0.0900 O.3   1 <1>  -0.6800 
 21 C       -8.8150     1.3440     0.0600 C.3   1 <1>   0.2800 
 22 C       -7.6890     2.3340     0.4060 C.3   1 <1>  -0.1600 
 23 O       -9.9400     1.7360     0.7630 O.3   1 <1>  -0.6800 
 24 C       -9.2090     1.4670    -1.4200 C.3   1 <1>  -0.2400 
 25 H        0.1920    -0.3180    -1.2710 H     1 <1>   0.0800 
 26 H       -1.1120     0.8020    -1.0260 H     1 <1>   0.0800 
 27 H       -2.4600    -2.5070     1.2170 H     1 <1>   0.0800 
 28 H       -1.3760    -3.7400     0.6320 H     1 <1>   0.0800 
 29 H       -3.2770    -3.0280    -2.4330 H     1 <1>   0.0800 
 30 H       -2.4450    -4.2860    -1.5910 H     1 <1>   0.0800 
 31 H        0.1880     0.2090     1.0750 H     1 <1>   0.0800 
 32 H       -1.5380    -0.0290     1.1900 H     1 <1>   0.0800 
 33 H       -0.2950    -1.9870     2.0860 H     1 <1>   0.0800 
 34 H        0.4650    -2.2140     0.5410 H     1 <1>   0.0800 
 35 H       -7.2270    -3.1450    -0.1400 H     1 <1>   0.0800 
 36 H       -6.1710    -3.7710     1.0970 H     1 <1>   0.0800 
 37 H       -4.3500    -0.7430    -0.4520 H     1 <1>   0.0800 
 38 H       -4.7490    -1.3600    -2.0370 H     1 <1>   0.0800 
 39 H       -5.7470    -1.5220     1.9270 H     1 <1>   0.0800 
 40 H       -7.4340    -1.9100     1.9900 H     1 <1>   0.0800 
 41 H       -7.1230    -1.1270    -1.5600 H     1 <1>   0.0800 
 42 H       -6.3080     0.3950    -1.4130 H     1 <1>   0.0800 
 43 H       -8.7370    -0.1450     1.5870 H     1 <1>   0.0800 
 44 H       -7.3410     1.5500     2.4010 H     1 <1>   0.0800 
 45 H       -6.0090     2.4840     1.7530 H     1 <1>   0.0800 
 46 H      -10.1870    -0.8050     0.0050 H     1 <1>   0.4000 
 47 H       -7.0690     2.5070    -0.4560 H     1 <1>   0.0800 
 48 H       -8.0910     3.2850     0.7060 H     1 <1>   0.0800 
 49 H      -10.2470     2.6010     0.4340 H     1 <1>   0.4000 
 50 H       -8.4130     1.1200    -2.0500 H     1 <1>   0.0800 
 51 H       -9.4100     2.4920    -1.6760 H     1 <1>   0.0800 
 52 H      -10.0810     0.8760    -1.6360 H     1 <1>   0.0800 
@<TRIPOS>BOND
  1   1   2  2   
  2   2   3  am  
  3   2   4  1   
  4   3   5  1   
  5   3   6  1   
  6   4   7  1   
  7   4  25  1   
  8   4  26  1   
  9   5   8  1   
 10   5  27  1   
 11   5  28  1   
 12   6   9  1   
 13   6  29  1   
 14   6  30  1   
 15   7   8  1   
 16   7  31  1   
 17   7  32  1   
 18   8  33  1   
 19   8  34  1   
 20   9  10  2   
 21   9  11  am  
 22  11  12  1   
 23  11  13  1   
 24  12  14  1   
 25  12  35  1   
 26  12  36  1   
 27  13  15  1   
 28  13  37  1   
 29  13  38  1   
 30  14  16  1   
 31  14  39  1   
 32  14  40  1   
 33  15  16  1   
 34  15  41  1   
 35  15  42  1   
 36  16  17  1   
 37  16  18  1   
 38  17  19  1   
 39  18  20  1   
 40  18  21  1   
 41  18  43  1   
 42  19  22  1   
 43  19  44  1   
 44  19  45  1   
 45  20  46  1   
 46  21  22  1   
 47  21  23  1   
 48  21  24  1   
 49  22  47  1   
 50  22  48  1   
 51  23  49  1   
 52  24  50  1   
 53  24  51  1   
 54  24  52  1   
@<TRIPOS>SUBSTRUCTURE
  1 ****  13 GROUP 4 **** **** 0

# MOE 2024.06 (io_trps.svl 2023.06)
