@<TRIPOS>MOLECULE
NONAME
48 50 1 0 0 
SMALL
USER_CHARGES


@<TRIPOS>ATOM
  1 O       -3.1080     1.0400     2.5890 O.2   1 <1>  -0.5700 
  2 C       -2.8700     1.5190     1.5060 C.2   1 <1>   0.5690 
  3 N       -2.9700     0.7700     0.3640 N.am  1 <1>  -0.6600 
  4 C       -2.4650     2.9870     1.4510 C.3   1 <1>   0.0440 
  5 C       -2.6940     1.2240    -1.0230 C.3   1 <1>   0.1400 
  6 C       -3.1910    -0.6980     0.3900 C.3   1 <1>   0.1400 
  7 C       -1.1140     3.2130     0.7760 C.ar  1 <1>  -0.1440 
  8 C       -3.1500     0.0630    -1.9020 C.3   1 <1>   0.2000 
  9 C       -2.9130    -1.1820    -1.0430 C.3   1 <1>  -0.0800 
 10 C       -0.9810     4.1500    -0.2370 C.ar  1 <1>  -0.1500 
 11 C       -0.0090     2.4690     1.1630 C.ar  1 <1>  -0.1500 
 12 O       -4.5140     0.1820    -2.1130 O.3   1 <1>  -0.6800 
 13 C       -1.4670    -1.6920    -1.2110 C.3   1 <1>  -0.0170 
 14 C        0.2390     4.3290    -0.8630 C.ar  1 <1>  -0.1500 
 15 C        1.2130     2.6470     0.5380 C.ar  1 <1>  -0.1500 
 16 C       -1.2350    -3.0070    -0.4820 C.ar  1 <1>   0.1670 
 17 C        1.3420     3.5810    -0.4850 C.ar  1 <1>   0.0830 
 18 N       -0.6860    -2.9330     0.7190 N.ar  1 <1>  -0.6200 
 19 C       -1.5980    -4.2090    -1.0880 C.ar  1 <1>   0.1600 
 20 O        2.4970     3.8160    -1.1550 O.3   1 <1>  -0.3630 
 21 C       -0.5300    -4.1250     1.2700 C.ar  1 <1>   0.1600 
 22 N       -1.4420    -5.4030    -0.5400 N.ar  1 <1>  -0.6200 
 23 C        3.6910     3.1550    -0.8070 C.3   1 <1>   0.1200 
 24 C       -0.8960    -5.3190     0.6620 C.ar  1 <1>   0.1600 
 25 C        4.7970     3.6650    -1.7250 C.3   1 <1>  -0.2400 
 26 H       -3.2370     3.5280     0.9390 H     1 <1>   0.0800 
 27 H       -2.4140     3.3670     2.4550 H     1 <1>   0.0800 
 28 H       -3.2150     2.1360    -1.2610 H     1 <1>   0.0800 
 29 H       -1.6340     1.3720    -1.1400 H     1 <1>   0.0800 
 30 H       -2.5500    -1.1620     1.1200 H     1 <1>   0.0800 
 31 H       -4.2150    -0.8900     0.6600 H     1 <1>   0.0800 
 32 H       -2.6610     0.0380    -2.8610 H     1 <1>   0.0800 
 33 H       -3.5900    -1.9720    -1.3180 H     1 <1>   0.0800 
 34 H       -1.8230     4.7450    -0.5470 H     1 <1>   0.1500 
 35 H       -0.0980     1.7410     1.9530 H     1 <1>   0.1500 
 36 H       -4.9520     0.3330    -1.2510 H     1 <1>   0.4000 
 37 H       -0.7670    -0.9590    -0.8470 H     1 <1>   0.0800 
 38 H       -1.2600    -1.8430    -2.2560 H     1 <1>   0.0800 
 39 H        0.3470     5.0530    -1.6510 H     1 <1>   0.1500 
 40 H        2.0450     2.0510     0.8610 H     1 <1>   0.1500 
 41 H       -2.0370    -4.1820    -2.0690 H     1 <1>   0.1500 
 42 H       -0.0920    -4.1580     2.2520 H     1 <1>   0.1500 
 43 H        3.9160     3.3770     0.2220 H     1 <1>   0.0800 
 44 H        3.5450     2.0970    -0.9390 H     1 <1>   0.0800 
 45 H       -0.7300    -6.2400     1.1910 H     1 <1>   0.1500 
 46 H        4.9230     4.7260    -1.5970 H     1 <1>   0.0800 
 47 H        4.5540     3.4530    -2.7500 H     1 <1>   0.0800 
 48 H        5.7250     3.1780    -1.4830 H     1 <1>   0.0800 
@<TRIPOS>BOND
  1   1   2  2   
  2   2   3  am  
  3   2   4  1   
  4   3   5  1   
  5   3   6  1   
  6   4   7  1   
  7   4  26  1   
  8   4  27  1   
  9   5   8  1   
 10   5  28  1   
 11   5  29  1   
 12   6   9  1   
 13   6  30  1   
 14   6  31  1   
 15   7  10  ar  
 16   7  11  ar  
 17   8   9  1   
 18   8  12  1   
 19   8  32  1   
 20   9  13  1   
 21   9  33  1   
 22  10  14  ar  
 23  10  34  1   
 24  11  15  ar  
 25  11  35  1   
 26  12  36  1   
 27  13  16  1   
 28  13  37  1   
 29  13  38  1   
 30  14  17  ar  
 31  14  39  1   
 32  15  17  ar  
 33  15  40  1   
 34  16  18  ar  
 35  16  19  ar  
 36  17  20  1   
 37  18  21  ar  
 38  19  22  ar  
 39  19  41  1   
 40  20  23  1   
 41  21  24  ar  
 42  21  42  1   
 43  22  24  ar  
 44  23  25  1   
 45  23  43  1   
 46  23  44  1   
 47  24  45  1   
 48  25  46  1   
 49  25  47  1   
 50  25  48  1   
@<TRIPOS>SUBSTRUCTURE
  1 ****   3 GROUP 4 **** **** 0

# MOE 2024.06 (io_trps.svl 2023.06)
