@<TRIPOS>MOLECULE
NONAME
42 44 1 0 0 
SMALL
USER_CHARGES


@<TRIPOS>ATOM
  1 S        0.1550     0.1560     1.3220 S.o2  1 <1>   1.4470 
  2 O        0.7540    -0.9810     1.9870 O.2   1 <1>  -0.6500 
  3 O       -0.4840     1.1830     2.1150 O.2   1 <1>  -0.6500 
  4 N        1.3840     0.8970     0.4180 N.am  1 <1>  -0.8490 
  5 C       -1.0090    -0.4130     0.0470 C.ar  1 <1>  -0.0090 
  6 C        2.1510     1.8860     1.2070 C.3   1 <1>   0.1960 
  7 C        2.2360    -0.0830    -0.2770 C.3   1 <1>   0.1960 
  8 C       -1.7390    -1.5820     0.2160 C.ar  1 <1>  -0.1500 
  9 C       -1.2130     0.3090    -1.1230 C.ar  1 <1>  -0.1500 
 10 C        3.0670     2.8330     0.3840 C.3   1 <1>   0.2200 
 11 C        3.1220     0.5250    -1.3820 C.3   1 <1>  -0.0190 
 12 C       -2.6340    -2.0190    -0.7460 C.ar  1 <1>  -0.1500 
 13 C       -2.1040    -0.1210    -2.0910 C.ar  1 <1>  -0.1500 
 14 N        2.6480     2.9590    -1.0490 N.am  1 <1>  -0.6600 
 15 C        4.5560     2.4500     0.4900 C.3   1 <1>   0.1200 
 16 C        2.6160     1.8680    -1.8770 C.2   1 <1>   0.5690 
 17 C        4.6060     0.6060    -0.9950 C.3   1 <1>   0.1200 
 18 C       -2.8320    -1.2930    -1.9160 C.ar  1 <1>  -0.1430 
 19 C        2.1170     4.2850    -1.4670 C.3   1 <1>   0.0600 
 20 O        4.7800     1.0830     0.3030 O.3   1 <1>  -0.5600 
 21 O        2.2090     1.9310    -3.0150 O.2   1 <1>  -0.5700 
 22 C       -3.8220    -1.7820    -2.9860 C.3   1 <1>   1.1640 
 23 F       -4.3210    -0.7950    -3.7220 F     1 <1>  -0.3400 
 24 F       -4.8650    -2.4170    -2.4660 F     1 <1>  -0.3400 
 25 F       -3.2550    -2.6300    -3.8340 F     1 <1>  -0.3400 
 26 H        1.4580     2.5230     1.7260 H     1 <1>   0.0800 
 27 H        2.7280     1.3780     1.9630 H     1 <1>   0.0800 
 28 H        2.8430    -0.6140     0.4390 H     1 <1>   0.0800 
 29 H        1.5980    -0.8100    -0.7500 H     1 <1>   0.0800 
 30 H       -1.6030    -2.1600     1.1150 H     1 <1>   0.1500 
 31 H       -0.6640     1.2240    -1.2840 H     1 <1>   0.1500 
 32 H        2.9870     3.8080     0.8330 H     1 <1>   0.0800 
 33 H        3.0790    -0.1450    -2.2210 H     1 <1>   0.0800 
 34 H       -3.1770    -2.9350    -0.5750 H     1 <1>   0.1500 
 35 H       -2.2230     0.4700    -2.9850 H     1 <1>   0.1500 
 36 H        4.9060     2.6800     1.4810 H     1 <1>   0.0800 
 37 H        5.1490     3.0080    -0.2140 H     1 <1>   0.0800 
 38 H        5.1570     1.2270    -1.6810 H     1 <1>   0.0800 
 39 H        5.0330    -0.3820    -1.0180 H     1 <1>   0.0800 
 40 H        2.8650     5.0430    -1.3150 H     1 <1>   0.0800 
 41 H        1.2420     4.5240    -0.8880 H     1 <1>   0.0800 
 42 H        1.8470     4.2770    -2.5090 H     1 <1>   0.0800 
@<TRIPOS>BOND
  1   1   2  2   
  2   1   3  2   
  3   1   4  am  
  4   1   5  1   
  5   4   6  1   
  6   4   7  1   
  7   5   8  ar  
  8   5   9  ar  
  9   6  10  1   
 10   6  26  1   
 11   6  27  1   
 12   7  11  1   
 13   7  28  1   
 14   7  29  1   
 15   8  12  ar  
 16   8  30  1   
 17   9  13  ar  
 18   9  31  1   
 19  10  14  1   
 20  10  15  1   
 21  10  32  1   
 22  11  16  1   
 23  11  17  1   
 24  11  33  1   
 25  12  18  ar  
 26  12  34  1   
 27  13  18  ar  
 28  13  35  1   
 29  14  16  am  
 30  14  19  1   
 31  15  20  1   
 32  15  36  1   
 33  15  37  1   
 34  16  21  2   
 35  17  20  1   
 36  17  38  1   
 37  17  39  1   
 38  18  22  1   
 39  19  40  1   
 40  19  41  1   
 41  19  42  1   
 42  22  23  1   
 43  22  24  1   
 44  22  25  1   
@<TRIPOS>SUBSTRUCTURE
  1 ****   9 GROUP 4 **** **** 0

# MOE 2024.06 (io_trps.svl 2023.06)
