@<TRIPOS>MOLECULE
NONAME
47 49 1 0 0 
SMALL
USER_CHARGES


@<TRIPOS>ATOM
  1 S       -1.6850    -0.6090     0.1940 S.o2  1 <1>   1.0900 
  2 O       -0.9190     0.3320    -0.5890 O.2   1 <1>  -0.6500 
  3 O       -2.1890    -0.2810     1.5070 O.2   1 <1>  -0.6500 
  4 C       -0.8010    -2.1470     0.2720 C.3   1 <1>  -0.0550 
  5 C       -3.0110    -1.2310    -0.8230 C.3   1 <1>  -0.0550 
  6 C       -1.2870    -3.0030    -0.9000 C.3   1 <1>   0.1900 
  7 C       -2.8000    -2.7380    -1.0020 C.3   1 <1>  -0.1600 
  8 N       -0.9660    -4.4240    -0.6530 N.3   1 <1>  -0.8100 
  9 C       -1.6490    -5.3570    -1.5950 C.3   1 <1>   0.2900 
 10 C        0.5040    -4.6610    -0.7030 C.3   1 <1>   0.1100 
 11 C       -1.3900    -6.8190    -1.2490 C.2   1 <1>   0.0060 
 12 C        0.9810    -5.3590     0.5730 C.3   1 <1>   0.1200 
 13 N       -0.7150    -7.6230    -2.0090 N.2   1 <1>  -0.5650 
 14 N       -1.8500    -7.4020    -0.1130 N.pl3 1 <1>   0.0480 
 15 O        2.3530    -5.5380     0.5080 O.3   1 <1>  -0.6800 
 16 C       -0.7350    -8.7910    -1.3440 C.2   1 <1>   0.0770 
 17 C       -1.4200    -8.6760    -0.1860 C.2   1 <1>  -0.3020 
 18 C       -2.6050    -6.7910     1.0060 C.3   1 <1>   0.2390 
 19 C       -3.9910    -6.2990     0.5970 C.ar  1 <1>  -0.1430 
 20 C       -4.7320    -6.9270    -0.3960 C.ar  1 <1>  -0.1500 
 21 C       -4.5290    -5.1950     1.2430 C.ar  1 <1>  -0.1500 
 22 C       -5.9830    -6.4480    -0.7450 C.ar  1 <1>  -0.1500 
 23 C       -5.7810    -4.7160     0.8940 C.ar  1 <1>  -0.1500 
 24 C       -6.5080    -5.3420    -0.1020 C.ar  1 <1>  -0.1500 
 25 H       -1.0460    -2.6470     1.1900 H     1 <1>   0.0800 
 26 H        0.2560    -1.9770     0.2310 H     1 <1>   0.0800 
 27 H       -2.9720    -0.7510    -1.7830 H     1 <1>   0.0800 
 28 H       -3.9680    -1.0300    -0.3800 H     1 <1>   0.0800 
 29 H       -0.8130    -2.6690    -1.8100 H     1 <1>   0.0800 
 30 H       -3.2040    -3.0550    -1.9470 H     1 <1>   0.0800 
 31 H       -3.3040    -3.2520    -0.2040 H     1 <1>   0.0800 
 32 H       -1.3120    -5.1700    -2.6000 H     1 <1>   0.0800 
 33 H       -2.7130    -5.2100    -1.5710 H     1 <1>   0.0800 
 34 H        1.0420    -3.7350    -0.7990 H     1 <1>   0.0800 
 35 H        0.7620    -5.2690    -1.5550 H     1 <1>   0.0800 
 36 H        0.5250    -6.3270     0.6830 H     1 <1>   0.0800 
 37 H        0.7680    -4.7520     1.4350 H     1 <1>   0.0800 
 38 H        2.5720    -6.1990    -0.1800 H     1 <1>   0.4000 
 39 H       -0.2480    -9.6670    -1.7390 H     1 <1>   0.1500 
 40 H       -1.6170    -9.4170     0.5670 H     1 <1>   0.1500 
 41 H       -2.0260    -5.9690     1.3860 H     1 <1>   0.0800 
 42 H       -2.7070    -7.5200     1.7890 H     1 <1>   0.0800 
 43 H       -4.3450    -7.7920    -0.9080 H     1 <1>   0.1500 
 44 H       -3.9780    -4.6970     2.0220 H     1 <1>   0.1500 
 45 H       -6.5500    -6.9400    -1.5170 H     1 <1>   0.1500 
 46 H       -6.1900    -3.8590     1.4010 H     1 <1>   0.1500 
 47 H       -7.4820    -4.9720    -0.3730 H     1 <1>   0.1500 
@<TRIPOS>BOND
  1   1   2  2   
  2   1   3  2   
  3   1   4  1   
  4   1   5  1   
  5   4   6  1   
  6   4  25  1   
  7   4  26  1   
  8   5   7  1   
  9   5  27  1   
 10   5  28  1   
 11   6   7  1   
 12   6   8  1   
 13   6  29  1   
 14   7  30  1   
 15   7  31  1   
 16   8   9  1   
 17   8  10  1   
 18   9  11  1   
 19   9  32  1   
 20   9  33  1   
 21  10  12  1   
 22  10  34  1   
 23  10  35  1   
 24  11  13  2   
 25  11  14  1   
 26  12  15  1   
 27  12  36  1   
 28  12  37  1   
 29  13  16  1   
 30  14  17  1   
 31  14  18  1   
 32  15  38  1   
 33  16  17  2   
 34  16  39  1   
 35  17  40  1   
 36  18  19  1   
 37  18  41  1   
 38  18  42  1   
 39  19  20  ar  
 40  19  21  ar  
 41  20  22  ar  
 42  20  43  1   
 43  21  23  ar  
 44  21  44  1   
 45  22  24  ar  
 46  22  45  1   
 47  23  24  ar  
 48  23  46  1   
 49  24  47  1   
@<TRIPOS>SUBSTRUCTURE
  1 ****   8 GROUP 4 **** **** 0

# MOE 2024.06 (io_trps.svl 2023.06)
