@<TRIPOS>MOLECULE
NONAME
50 52 1 0 0 
SMALL
USER_CHARGES


@<TRIPOS>ATOM
  1 S        0.5190     0.2680     1.0740 S.o2  1 <1>   1.4470 
  2 O        1.4930    -0.5980     1.7060 O.2   1 <1>  -0.6500 
  3 O       -0.0800     1.3030     1.8930 O.2   1 <1>  -0.6500 
  4 N       -0.7280    -0.7210     0.4860 N.am  1 <1>  -0.8490 
  5 C        1.2800     0.9680    -0.4210 C.ar  1 <1>  -0.0090 
  6 C       -0.2360    -1.8130    -0.3770 C.3   1 <1>   0.1960 
  7 C       -1.8270     0.0210    -0.1230 C.3   1 <1>   0.1960 
  8 C        0.7940     2.1110    -1.0510 C.ar  1 <1>   0.0820 
  9 C        2.3750     0.3350    -1.0020 C.ar  1 <1>  -0.1500 
 10 C       -1.3190    -2.8500    -0.7400 C.3   1 <1>  -0.1060 
 11 C       -3.0070    -0.9100    -0.3930 C.3   1 <1>  -0.1600 
 12 O       -0.2910     2.7560    -0.5780 O.3   1 <1>  -0.3630 
 13 C        1.3860     2.6010    -2.2060 C.ar  1 <1>  -0.1500 
 14 C        2.9730     0.8130    -2.1560 C.ar  1 <1>  -0.1430 
 15 C       -0.8060    -3.6650    -1.9280 C.2   1 <1>   0.9060 
 16 C       -2.5600    -2.0880    -1.2560 C.3   1 <1>   0.2000 
 17 C       -1.5510    -3.8800     0.4110 C.3   1 <1>  -0.0650 
 18 C       -0.0520     3.9360     0.1560 C.3   1 <1>   0.0400 
 19 C        2.4750     1.9550    -2.7570 C.ar  1 <1>  -0.1500 
 20 C        4.1530     0.0650    -2.7510 C.3   1 <1>  -0.0960 
 21 O        0.3830    -3.5990    -2.2600 O.co2 1 <1>  -0.9000 
 22 O       -1.6110    -4.3800    -2.5440 O.co2 1 <1>  -0.9000 
 23 O       -3.6200    -2.9540    -1.4290 O.3   1 <1>  -0.6800 
 24 C       -2.0370    -3.3740     1.7780 C.3   1 <1>  -0.1950 
 25 C       -1.0930    -2.8490     2.8120 C.3   1 <1>  -0.2000 
 26 C       -1.7560    -4.1810     3.0060 C.3   1 <1>  -0.2000 
 27 H        0.1500    -1.3820    -1.2870 H     1 <1>   0.0800 
 28 H        0.5790    -2.3270     0.1050 H     1 <1>   0.0800 
 29 H       -2.1490     0.8070     0.5410 H     1 <1>   0.0800 
 30 H       -1.5010     0.4670    -1.0470 H     1 <1>   0.0800 
 31 H        2.7630    -0.5600    -0.5440 H     1 <1>   0.1500 
 32 H       -3.7710    -0.3640    -0.9130 H     1 <1>   0.0800 
 33 H       -3.4130    -1.2430     0.5400 H     1 <1>   0.0800 
 34 H        0.9850     3.4810    -2.6760 H     1 <1>   0.1500 
 35 H       -2.3240    -1.7010    -2.2350 H     1 <1>   0.0800 
 36 H       -2.2580    -4.6170     0.0710 H     1 <1>   0.0800 
 37 H       -0.6240    -4.4060     0.5620 H     1 <1>   0.0800 
 38 H       -0.9950     4.3030     0.5180 H     1 <1>   0.0800 
 39 H        0.4090     4.6640    -0.4860 H     1 <1>   0.0800 
 40 H        0.5910     3.7050     0.9880 H     1 <1>   0.0800 
 41 H        2.9260     2.3390    -3.6560 H     1 <1>   0.1500 
 42 H        4.5430     0.5800    -3.6100 H     1 <1>   0.0800 
 43 H        3.8410    -0.9200    -3.0520 H     1 <1>   0.0800 
 44 H        4.9360    -0.0280    -2.0200 H     1 <1>   0.0800 
 45 H       -3.2400    -3.7240    -1.9370 H     1 <1>   0.4000 
 46 H       -3.0300    -2.9700     1.7310 H     1 <1>   0.1000 
 47 H       -0.0440    -2.8110     2.5740 H     1 <1>   0.1000 
 48 H       -1.4110    -1.9920     3.3810 H     1 <1>   0.1000 
 49 H       -2.5260    -4.2700     3.7520 H     1 <1>   0.1000 
 50 H       -1.1540    -5.0690     2.9230 H     1 <1>   0.1000 
@<TRIPOS>BOND
  1   1   2  2   
  2   1   3  2   
  3   1   4  am  
  4   1   5  1   
  5   4   6  1   
  6   4   7  1   
  7   5   8  ar  
  8   5   9  ar  
  9   6  10  1   
 10   6  27  1   
 11   6  28  1   
 12   7  11  1   
 13   7  29  1   
 14   7  30  1   
 15   8  12  1   
 16   8  13  ar  
 17   9  14  ar  
 18   9  31  1   
 19  10  15  1   
 20  10  16  1   
 21  10  17  1   
 22  11  16  1   
 23  11  32  1   
 24  11  33  1   
 25  12  18  1   
 26  13  19  ar  
 27  13  34  1   
 28  14  19  ar  
 29  14  20  1   
 30  15  21  ar  
 31  15  22  ar  
 32  16  23  1   
 33  16  35  1   
 34  17  24  1   
 35  17  36  1   
 36  17  37  1   
 37  18  38  1   
 38  18  39  1   
 39  18  40  1   
 40  19  41  1   
 41  20  42  1   
 42  20  43  1   
 43  20  44  1   
 44  23  45  1   
 45  24  25  1   
 46  24  26  1   
 47  24  46  1   
 48  25  26  1   
 49  25  47  1   
 50  25  48  1   
 51  26  49  1   
 52  26  50  1   
@<TRIPOS>SUBSTRUCTURE
  1 ****   6 GROUP 4 **** **** 0

# MOE 2024.06 (io_trps.svl 2023.06)
