@<TRIPOS>MOLECULE
NONAME
47 48 1 0 0 
SMALL
USER_CHARGES


@<TRIPOS>ATOM
  1 S       -0.0790     0.0300     0.3150 S.o2  1 <1>   1.3330 
  2 O        0.1410    -0.9030     1.3970 O.2   1 <1>  -0.6500 
  3 O       -0.6340     1.3340     0.5980 O.2   1 <1>  -0.6500 
  4 N       -1.0670    -0.7330    -0.8360 N.am  1 <1>  -0.8490 
  5 C        1.4490     0.2720    -0.5910 C.3   1 <1>  -0.0550 
  6 C       -2.4860    -0.4110    -0.6540 C.3   1 <1>   0.1160 
  7 C       -0.8890    -2.1880    -0.8860 C.3   1 <1>   0.1160 
  8 C        2.5150     1.0460     0.2090 C.3   1 <1>  -0.0800 
  9 C        3.6930     1.4270    -0.6720 C.3   1 <1>   0.2200 
 10 C        3.1710     0.1790     1.2950 C.3   1 <1>   0.1200 
 11 N        4.3380     2.6270    -0.1030 N.am  1 <1>  -0.7300 
 12 C        4.6120     0.2260    -0.4990 C.3   1 <1>   0.1200 
 13 O        4.4300    -0.1950     0.8180 O.3   1 <1>  -0.5600 
 14 C        4.4100     3.8490    -0.7010 C.2   1 <1>   0.7160 
 15 O        3.9830     3.9690    -1.8330 O.2   1 <1>  -0.5700 
 16 C        4.9820     4.9680     0.0020 C.2   1 <1>  -0.0860 
 17 C        5.3060     5.0290     1.3600 C.2   1 <1>   0.1390 
 18 C        5.3310     6.2040    -0.4490 C.2   1 <1>  -0.3020 
 19 N        5.8050     6.1700     1.7130 N.2   1 <1>  -0.7070 
 20 N        5.8210     6.9060     0.5860 N.pl3 1 <1>   0.3140 
 21 C        6.3280     8.3060     0.5730 C.3   1 <1>   0.1760 
 22 C        5.2170     9.2830     0.1640 C.3   1 <1>  -0.2400 
 23 C        7.5440     8.4350    -0.3550 C.3   1 <1>  -0.2400 
 24 H        1.8420    -0.6780    -0.8940 H     1 <1>   0.0800 
 25 H        1.2180     0.8300    -1.4780 H     1 <1>   0.0800 
 26 H       -3.0800    -0.8970    -1.4080 H     1 <1>   0.0800 
 27 H       -2.6380     0.6520    -0.7430 H     1 <1>   0.0800 
 28 H       -2.8200    -0.7270     0.3210 H     1 <1>   0.0800 
 29 H       -1.4670    -2.6040    -1.6930 H     1 <1>   0.0800 
 30 H       -1.2060    -2.6390     0.0410 H     1 <1>   0.0800 
 31 H        0.1470    -2.4310    -1.0490 H     1 <1>   0.0800 
 32 H        2.0540     1.9210     0.6360 H     1 <1>   0.0800 
 33 H        3.4250     1.5890    -1.7030 H     1 <1>   0.0800 
 34 H        2.6150    -0.7140     1.5220 H     1 <1>   0.0800 
 35 H        3.3190     0.7430     2.2000 H     1 <1>   0.0800 
 36 H        4.8020     2.4720     0.7920 H     1 <1>   0.3700 
 37 H        5.6470     0.4660    -0.6650 H     1 <1>   0.0800 
 38 H        4.3150    -0.5810    -1.1460 H     1 <1>   0.0800 
 39 H        5.1570     4.2220     2.0560 H     1 <1>   0.1500 
 40 H        5.2470     6.5940    -1.4460 H     1 <1>   0.1500 
 41 H        6.6370     8.5390     1.5780 H     1 <1>   0.0800 
 42 H        4.8920     9.0920    -0.8430 H     1 <1>   0.0800 
 43 H        5.5780    10.2950     0.2210 H     1 <1>   0.0800 
 44 H        4.3800     9.1850     0.8320 H     1 <1>   0.0800 
 45 H        7.2720     8.2240    -1.3730 H     1 <1>   0.0800 
 46 H        8.3150     7.7510    -0.0450 H     1 <1>   0.0800 
 47 H        7.9400     9.4340    -0.3060 H     1 <1>   0.0800 
@<TRIPOS>BOND
  1   1   2  2   
  2   1   3  2   
  3   1   4  am  
  4   1   5  1   
  5   4   6  1   
  6   4   7  1   
  7   5   8  1   
  8   5  24  1   
  9   5  25  1   
 10   6  26  1   
 11   6  27  1   
 12   6  28  1   
 13   7  29  1   
 14   7  30  1   
 15   7  31  1   
 16   8   9  1   
 17   8  10  1   
 18   8  32  1   
 19   9  11  1   
 20   9  12  1   
 21   9  33  1   
 22  10  13  1   
 23  10  34  1   
 24  10  35  1   
 25  11  14  am  
 26  11  36  1   
 27  12  13  1   
 28  12  37  1   
 29  12  38  1   
 30  14  15  2   
 31  14  16  1   
 32  16  17  1   
 33  16  18  2   
 34  17  19  2   
 35  17  39  1   
 36  18  20  1   
 37  18  40  1   
 38  19  20  1   
 39  20  21  1   
 40  21  22  1   
 41  21  23  1   
 42  21  41  1   
 43  22  42  1   
 44  22  43  1   
 45  22  44  1   
 46  23  45  1   
 47  23  46  1   
 48  23  47  1   
@<TRIPOS>SUBSTRUCTURE
  1 ****  11 GROUP 4 **** **** 0

# MOE 2024.06 (io_trps.svl 2023.06)
