@<TRIPOS>MOLECULE
NONAME
48 51 1 0 0 
SMALL
USER_CHARGES


@<TRIPOS>ATOM
  1 O       -1.2320     0.3300     1.6460 O.2   1 <1>  -0.5700 
  2 C       -1.7550     0.7400     0.6190 C.2   1 <1>   0.7160 
  3 N       -2.8010    -0.0020     0.1170 N.am  1 <1>  -0.6600 
  4 C       -1.2970     1.9700    -0.0320 C.2   1 <1>   0.2030 
  5 C       -2.7090    -1.4960     0.1220 C.3   1 <1>   0.3640 
  6 C       -4.1550     0.6000     0.0150 C.3   1 <1>   0.1400 
  7 N       -1.8980     2.5920    -1.0410 N.2   1 <1>  -0.7070 
  8 C       -0.1300     2.6760     0.3150 C.2   1 <1>  -0.1810 
  9 C       -1.3700    -1.8940    -0.5140 C.ar  1 <1>  -0.1440 
 10 C       -3.8690    -2.2030    -0.6490 C.3   1 <1>   0.2000 
 11 C       -5.0190    -0.1750    -0.9790 C.3   1 <1>   0.1200 
 12 N       -1.1390     3.6620    -1.3160 N.pl3 1 <1>   0.3000 
 13 C       -0.0700     3.7360    -0.5050 C.2   1 <1>  -0.3320 
 14 C        0.9170     2.3840     1.3780 C.3   1 <1>   0.0210 
 15 C       -1.0200    -1.4390    -1.7790 C.ar  1 <1>  -0.1500 
 16 C       -0.4840    -2.7110     0.1730 C.ar  1 <1>  -0.1500 
 17 O       -5.0890    -1.5080    -0.5790 O.3   1 <1>  -0.5600 
 18 C       -4.1690    -3.6240    -0.1380 C.3   1 <1>   0.1200 
 19 C        1.0140     4.7970    -0.5100 C.3   1 <1>   0.0200 
 20 C        2.1810     3.2310     1.1380 C.3   1 <1>  -0.1600 
 21 C        0.1850    -1.8070    -2.3520 C.ar  1 <1>  -0.1500 
 22 C        0.7210    -3.0810    -0.3980 C.ar  1 <1>  -0.1500 
 23 O       -3.0260    -4.4090    -0.0310 O.3   1 <1>  -0.6800 
 24 C        1.8410     4.6930     0.7850 C.3   1 <1>  -0.1600 
 25 C        1.0560    -2.6310    -1.6630 C.ar  1 <1>  -0.1500 
 26 H       -2.7300    -1.8260     1.1460 H     1 <1>   0.0800 
 27 H       -4.6250     0.5780     0.9830 H     1 <1>   0.0800 
 28 H       -4.0890     1.6260    -0.2980 H     1 <1>   0.0800 
 29 H       -3.6130    -2.2660    -1.6910 H     1 <1>   0.0800 
 30 H       -4.6100    -0.1190    -1.9730 H     1 <1>   0.0800 
 31 H       -6.0190     0.2200    -0.9870 H     1 <1>   0.0800 
 32 H       -1.3700     4.3280    -2.0630 H     1 <1>   0.2700 
 33 H        0.4990     2.6110     2.3430 H     1 <1>   0.0800 
 34 H        1.1780     1.3400     1.3610 H     1 <1>   0.0800 
 35 H       -1.6820    -0.7840    -2.3190 H     1 <1>   0.1500 
 36 H       -0.7310    -3.0640     1.1600 H     1 <1>   0.1500 
 37 H       -4.8470    -4.1180    -0.8110 H     1 <1>   0.0800 
 38 H       -4.6160    -3.5760     0.8410 H     1 <1>   0.0800 
 39 H        1.6540     4.6400    -1.3610 H     1 <1>   0.0800 
 40 H        0.5800     5.7790    -0.5820 H     1 <1>   0.0800 
 41 H        2.8010     3.2000     2.0170 H     1 <1>   0.0800 
 42 H        2.7380     2.7980     0.3250 H     1 <1>   0.0800 
 43 H        0.4460    -1.4470    -3.3320 H     1 <1>   0.1500 
 44 H        1.3990    -3.7170     0.1450 H     1 <1>   0.1500 
 45 H       -2.4600    -4.3290    -0.8270 H     1 <1>   0.4000 
 46 H        2.7460     5.2650     0.6780 H     1 <1>   0.0800 
 47 H        1.2740     5.1200     1.5940 H     1 <1>   0.0800 
 48 H        1.9930    -2.9170    -2.1060 H     1 <1>   0.1500 
@<TRIPOS>BOND
  1   1   2  2   
  2   2   3  am  
  3   2   4  1   
  4   3   5  1   
  5   3   6  1   
  6   4   7  2   
  7   4   8  1   
  8   5   9  1   
  9   5  10  1   
 10   5  26  1   
 11   6  11  1   
 12   6  27  1   
 13   6  28  1   
 14   7  12  1   
 15   8  13  2   
 16   8  14  1   
 17   9  15  ar  
 18   9  16  ar  
 19  10  17  1   
 20  10  18  1   
 21  10  29  1   
 22  11  17  1   
 23  11  30  1   
 24  11  31  1   
 25  12  13  1   
 26  12  32  1   
 27  13  19  1   
 28  14  20  1   
 29  14  33  1   
 30  14  34  1   
 31  15  21  ar  
 32  15  35  1   
 33  16  22  ar  
 34  16  36  1   
 35  18  23  1   
 36  18  37  1   
 37  18  38  1   
 38  19  24  1   
 39  19  39  1   
 40  19  40  1   
 41  20  24  1   
 42  20  41  1   
 43  20  42  1   
 44  21  25  ar  
 45  21  43  1   
 46  22  25  ar  
 47  22  44  1   
 48  23  45  1   
 49  24  46  1   
 50  24  47  1   
 51  25  48  1   
@<TRIPOS>SUBSTRUCTURE
  1 ****   2 GROUP 4 **** **** 0

# MOE 2024.06 (io_trps.svl 2023.06)
