@<TRIPOS>MOLECULE
NONAME
53 56 1 0 0 
SMALL
USER_CHARGES


@<TRIPOS>ATOM
  1 N       -0.2100    -0.6900    -2.5860 N.ar  1 <1>  -0.1790 
  2 C        0.3430     0.1130    -1.6220 C.ar  1 <1>   0.7710 
  3 C       -0.7800    -1.8710    -2.3130 C.ar  1 <1>   0.4610 
  4 N        0.3580    -0.2080    -0.3560 N.ar  1 <1>  -0.5670 
  5 N        0.9110     1.2920    -2.0160 N.pl3 1 <1>  -0.8690 
  6 N       -1.3050    -2.6190    -3.2980 N.pl3 1 <1>  -0.9000 
  7 C       -0.7820    -2.2450    -0.9660 C.ar  1 <1>   0.0000 
  8 C       -0.2160    -1.3990    -0.0410 C.ar  1 <1>   0.1050 
  9 C        1.3910     2.3670    -1.0700 C.3   1 <1>   0.2090 
 10 C       -1.2360    -3.3320    -0.2060 C.2   1 <1>   0.1390 
 11 N       -0.3590    -2.0010     1.1680 N.pl3 1 <1>   0.3140 
 12 C        2.9340     2.4000    -0.7980 C.3   1 <1>   0.5030 
 13 N       -0.9890    -3.1930     1.0520 N.2   1 <1>  -0.7070 
 14 C        0.0690    -1.5100     2.4860 C.3   1 <1>   0.0160 
 15 N        3.3220     3.4680     0.1960 N.4   1 <1>  -0.9590 
 16 C        3.5160     1.0600    -0.3130 C.3   1 <1>  -0.1600 
 17 C        3.7690     2.5910    -2.0770 C.3   1 <1>  -0.1600 
 18 C        2.7550     3.2730     1.5730 C.3   1 <1>   0.3430 
 19 C        3.0920     4.8810    -0.2600 C.3   1 <1>   0.3430 
 20 C        5.0260     1.1410    -0.5680 C.3   1 <1>  -0.1600 
 21 C        5.1910     2.1370    -1.7220 C.3   1 <1>  -0.1600 
 22 C        3.4450     4.2130     2.5610 C.3   1 <1>  -0.1600 
 23 C        3.7860     5.8570     0.6910 C.3   1 <1>  -0.1600 
 24 C        3.3130     5.6790     2.1370 C.3   1 <1>  -0.1600 
 25 H       -0.1900    -0.3640    -3.5410 H     1 <1>   0.4570 
 26 H        0.9380     1.5700    -3.0020 H     1 <1>   0.4000 
 27 H       -1.7490    -3.5290    -3.1090 H     1 <1>   0.4000 
 28 H       -1.3340    -2.4010    -4.3010 H     1 <1>   0.4000 
 29 H        0.8810     2.2530    -0.1300 H     1 <1>   0.0800 
 30 H        1.0960     3.3180    -1.4780 H     1 <1>   0.0800 
 31 H       -1.7370    -4.1950    -0.6160 H     1 <1>   0.1500 
 32 H        0.5320    -0.5470     2.3860 H     1 <1>   0.0800 
 33 H        0.7680    -2.2090     2.9080 H     1 <1>   0.0800 
 34 H       -0.7900    -1.4370     3.1270 H     1 <1>   0.0800 
 35 H        4.3400     3.3610     0.2900 H     1 <1>   0.4500 
 36 H        3.1360     0.2670    -0.9320 H     1 <1>   0.0800 
 37 H        3.2800     0.7980     0.7010 H     1 <1>   0.0800 
 38 H        3.7450     3.5790    -2.4970 H     1 <1>   0.0800 
 39 H        3.4010     1.9230    -2.8360 H     1 <1>   0.0800 
 40 H        2.9010     2.2620     1.9090 H     1 <1>   0.0800 
 41 H        1.6970     3.4780     1.5670 H     1 <1>   0.0800 
 42 H        2.0360     5.0940    -0.2800 H     1 <1>   0.0800 
 43 H        3.4880     5.0360    -1.2480 H     1 <1>   0.0800 
 44 H        5.4260     0.1730    -0.8270 H     1 <1>   0.0800 
 45 H        5.5440     1.4960     0.3070 H     1 <1>   0.0800 
 46 H        5.7930     2.9730    -1.4080 H     1 <1>   0.0800 
 47 H        5.6710     1.6760    -2.5710 H     1 <1>   0.0800 
 48 H        4.4840     3.9460     2.6450 H     1 <1>   0.0800 
 49 H        3.0030     4.0860     3.5350 H     1 <1>   0.0800 
 50 H        3.5790     6.8640     0.3720 H     1 <1>   0.0800 
 51 H        4.8520     5.7160     0.6330 H     1 <1>   0.0800 
 52 H        3.8950     6.3050     2.7930 H     1 <1>   0.0800 
 53 H        2.2840     5.9890     2.2200 H     1 <1>   0.0800 
@<TRIPOS>BOND
  1   1   2  ar  
  2   1   3  ar  
  3   1  25  1   
  4   2   4  ar  
  5   2   5  1   
  6   3   6  1   
  7   3   7  ar  
  8   4   8  ar  
  9   5   9  1   
 10   5  26  1   
 11   6  27  1   
 12   6  28  1   
 13   7   8  ar  
 14   7  10  1   
 15   8  11  1   
 16   9  12  1   
 17   9  29  1   
 18   9  30  1   
 19  10  13  2   
 20  10  31  1   
 21  11  13  1   
 22  11  14  1   
 23  12  15  1   
 24  12  16  1   
 25  12  17  1   
 26  14  32  1   
 27  14  33  1   
 28  14  34  1   
 29  15  18  1   
 30  15  19  1   
 31  15  35  1   
 32  16  20  1   
 33  16  36  1   
 34  16  37  1   
 35  17  21  1   
 36  17  38  1   
 37  17  39  1   
 38  18  22  1   
 39  18  40  1   
 40  18  41  1   
 41  19  23  1   
 42  19  42  1   
 43  19  43  1   
 44  20  21  1   
 45  20  44  1   
 46  20  45  1   
 47  21  46  1   
 48  21  47  1   
 49  22  24  1   
 50  22  48  1   
 51  22  49  1   
 52  23  24  1   
 53  23  50  1   
 54  23  51  1   
 55  24  52  1   
 56  24  53  1   
@<TRIPOS>SUBSTRUCTURE
  1 ****   4 GROUP 4 **** **** 0

# MOE 2024.06 (io_trps.svl 2023.06)
