@<TRIPOS>MOLECULE
NONAME
40 42 1 0 0 
SMALL
USER_CHARGES


@<TRIPOS>ATOM
  1 N       -0.6570    -0.5710     1.3720 N.2   1 <1>  -0.2680 
  2 N       -1.9510    -0.7060     0.9500 N.pl3 1 <1>  -0.4640 
  3 C       -0.1310    -1.7180     1.1780 C.2   1 <1>   0.4790 
  4 C       -2.1640    -1.9540     0.5070 C.cat 1 <1>   1.0690 
  5 C       -2.8410     0.4790     1.0330 C.3   1 <1>   0.2660 
  6 N       -1.0220    -2.5980     0.6500 N.pl3 1 <1>  -0.7040 
  7 C        1.3000    -2.1050     1.4810 C.3   1 <1>  -0.0820 
  8 N       -3.2940    -2.5220     0.0070 N.pl3 1 <1>  -0.5970 
  9 C       -3.2870    -3.8620    -0.6440 C.3   1 <1>   0.2540 
 10 C       -4.5450    -1.7830    -0.3200 C.3   1 <1>   0.2540 
 11 C       -4.6740    -4.0380    -1.2490 C.3   1 <1>  -0.2040 
 12 C       -5.4510    -2.7810    -1.0380 C.3   1 <1>  -0.2040 
 13 C       -5.9720    -4.0840    -0.5000 C.3   1 <1>  -0.2040 
 14 C       -6.0720    -4.4180     0.9930 C.3   1 <1>   0.4310 
 15 N       -7.4600    -4.1670     1.4660 N.4   1 <1>  -0.9610 
 16 C       -7.8570    -2.7300     1.3940 C.3   1 <1>   0.2550 
 17 C       -7.6620    -4.6990     2.8460 C.3   1 <1>   0.2550 
 18 H       -3.7190     0.2450     1.6080 H     1 <1>   0.0700 
 19 H       -3.1230     0.7990     0.0450 H     1 <1>   0.0700 
 20 H       -2.3230     1.2900     1.5180 H     1 <1>   0.0700 
 21 H       -0.8230    -3.5630     0.4120 H     1 <1>   0.4430 
 22 H        1.3230    -2.9080     2.1940 H     1 <1>   0.0700 
 23 H        1.8300    -1.2640     1.8920 H     1 <1>   0.0700 
 24 H        1.7970    -2.4160     0.5800 H     1 <1>   0.0700 
 25 H       -2.5470    -3.8820    -1.4280 H     1 <1>   0.0700 
 26 H       -3.0800    -4.6410     0.0700 H     1 <1>   0.0700 
 27 H       -5.0200    -1.4140     0.5720 H     1 <1>   0.0700 
 28 H       -4.3190    -0.9640    -0.9830 H     1 <1>   0.0700 
 29 H       -4.6600    -4.4980    -2.2240 H     1 <1>   0.0910 
 30 H       -5.9930    -2.3480    -1.8640 H     1 <1>   0.0910 
 31 H       -6.7680    -4.5620    -1.0480 H     1 <1>   0.0910 
 32 H       -5.3690    -3.8300     1.5590 H     1 <1>   0.0700 
 33 H       -5.8360    -5.4610     1.1320 H     1 <1>   0.0700 
 34 H       -8.0830    -4.6920     0.8330 H     1 <1>   0.4430 
 35 H       -7.2280    -2.1350     2.0350 H     1 <1>   0.0700 
 36 H       -8.8810    -2.6130     1.7100 H     1 <1>   0.0700 
 37 H       -7.7690    -2.3690     0.3820 H     1 <1>   0.0700 
 38 H       -7.0250    -4.1830     3.5440 H     1 <1>   0.0700 
 39 H       -7.4320    -5.7520     2.8780 H     1 <1>   0.0700 
 40 H       -8.6870    -4.5640     3.1490 H     1 <1>   0.0700 
@<TRIPOS>BOND
  1   1   2  1   
  2   1   3  2   
  3   2   4  ar  
  4   2   5  1   
  5   3   6  1   
  6   3   7  1   
  7   4   6  ar  
  8   4   8  ar  
  9   5  18  1   
 10   5  19  1   
 11   5  20  1   
 12   6  21  1   
 13   7  22  1   
 14   7  23  1   
 15   7  24  1   
 16   8   9  1   
 17   8  10  1   
 18   9  11  1   
 19   9  25  1   
 20   9  26  1   
 21  10  12  1   
 22  10  27  1   
 23  10  28  1   
 24  11  12  1   
 25  11  13  1   
 26  11  29  1   
 27  12  13  1   
 28  12  30  1   
 29  13  14  1   
 30  13  31  1   
 31  14  15  1   
 32  14  32  1   
 33  14  33  1   
 34  15  16  1   
 35  15  17  1   
 36  15  34  1   
 37  16  35  1   
 38  16  36  1   
 39  16  37  1   
 40  17  38  1   
 41  17  39  1   
 42  17  40  1   
@<TRIPOS>SUBSTRUCTURE
  1 ****   8 GROUP 4 **** **** 0

# MOE 2024.06 (io_trps.svl 2023.06)
