@<TRIPOS>MOLECULE
NONAME
46 48 1 0 0 
SMALL
USER_CHARGES


@<TRIPOS>ATOM
  1 O        0.2620    -0.4220    -1.7590 O.2   1 <1>  -0.5700 
  2 C       -0.5010     0.4000    -1.3070 C.2   1 <1>   0.5690 
  3 N       -1.6400     0.0170    -0.6490 N.am  1 <1>  -0.6600 
  4 C       -0.1580     1.8710    -1.5190 C.3   1 <1>   0.0820 
  5 C       -2.6130     0.9120     0.0270 C.3   1 <1>   0.1400 
  6 C       -2.0080    -1.4060    -0.4490 C.3   1 <1>   0.1400 
  7 C       -0.1140     2.7010    -0.2390 C.2   1 <1>  -0.1810 
  8 C       -3.7620    -0.0060     0.4390 C.3   1 <1>   0.2000 
  9 C       -3.1390    -1.3930     0.5810 C.3   1 <1>  -0.0800 
 10 C        0.5870     2.3810     0.9240 C.2   1 <1>   0.1080 
 11 C       -0.7250     3.8760     0.0410 C.2   1 <1>  -0.3320 
 12 O       -4.3310     0.3960     1.6360 O.3   1 <1>  -0.6800 
 13 C       -4.1570    -2.5290     0.3940 C.3   1 <1>   0.0210 
 14 N        0.4240     3.2680     1.8540 N.2   1 <1>  -0.7070 
 15 C        1.4470     1.1550     1.1370 C.3   1 <1>  -0.0590 
 16 N       -0.3800     4.1940     1.3060 N.pl3 1 <1>   0.3000 
 17 C       -1.6320     4.7570    -0.8040 C.3   1 <1>  -0.0600 
 18 C       -3.4770    -3.8840     0.4150 C.2   1 <1>   0.1080 
 19 N       -2.9460    -4.3900     1.4830 N.2   1 <1>  -0.7070 
 20 C       -3.3400    -4.7210    -0.6880 C.2   1 <1>  -0.1500 
 21 N       -2.4500    -5.5780     1.0880 N.pl3 1 <1>   0.3000 
 22 C       -2.6740    -5.8000    -0.2250 C.2   1 <1>  -0.3320 
 23 C       -2.2320    -7.0480    -0.9660 C.3   1 <1>  -0.0600 
 24 H        0.8040     1.9320    -1.9930 H     1 <1>   0.0800 
 25 H       -0.8770     2.2790    -2.2010 H     1 <1>   0.0800 
 26 H       -2.1490     1.3460     0.8950 H     1 <1>   0.0800 
 27 H       -2.9530     1.6830    -0.6410 H     1 <1>   0.0800 
 28 H       -2.3420    -1.8130    -1.3880 H     1 <1>   0.0800 
 29 H       -1.1640    -1.9760    -0.0970 H     1 <1>   0.0800 
 30 H       -4.5250     0.0070    -0.3210 H     1 <1>   0.0800 
 31 H       -2.6820    -1.4880     1.5510 H     1 <1>   0.0800 
 32 H       -3.6810     0.3120     2.3620 H     1 <1>   0.4000 
 33 H       -4.6790    -2.4090    -0.5380 H     1 <1>   0.0800 
 34 H       -4.8810    -2.4950     1.1890 H     1 <1>   0.0800 
 35 H        2.0160     0.9380     0.2520 H     1 <1>   0.0800 
 36 H        0.8240     0.3120     1.3720 H     1 <1>   0.0800 
 37 H        2.1270     1.3240     1.9520 H     1 <1>   0.0800 
 38 H       -0.6720     5.0320     1.8220 H     1 <1>   0.2700 
 39 H       -1.7610     4.3480    -1.7880 H     1 <1>   0.0800 
 40 H       -1.2030     5.7390    -0.9020 H     1 <1>   0.0800 
 41 H       -2.5990     4.8450    -0.3410 H     1 <1>   0.0800 
 42 H       -3.6950    -4.5260    -1.6840 H     1 <1>   0.1500 
 43 H       -1.9670    -6.2120     1.7350 H     1 <1>   0.2700 
 44 H       -2.5280    -6.9880    -1.9990 H     1 <1>   0.0800 
 45 H       -2.6860    -7.9200    -0.5300 H     1 <1>   0.0800 
 46 H       -1.1620    -7.1480    -0.9220 H     1 <1>   0.0800 
@<TRIPOS>BOND
  1   1   2  2   
  2   2   3  am  
  3   2   4  1   
  4   3   5  1   
  5   3   6  1   
  6   4   7  1   
  7   4  24  1   
  8   4  25  1   
  9   5   8  1   
 10   5  26  1   
 11   5  27  1   
 12   6   9  1   
 13   6  28  1   
 14   6  29  1   
 15   7  10  1   
 16   7  11  2   
 17   8   9  1   
 18   8  12  1   
 19   8  30  1   
 20   9  13  1   
 21   9  31  1   
 22  10  14  2   
 23  10  15  1   
 24  11  16  1   
 25  11  17  1   
 26  12  32  1   
 27  13  18  1   
 28  13  33  1   
 29  13  34  1   
 30  14  16  1   
 31  15  35  1   
 32  15  36  1   
 33  15  37  1   
 34  16  38  1   
 35  17  39  1   
 36  17  40  1   
 37  17  41  1   
 38  18  19  2   
 39  18  20  1   
 40  19  21  1   
 41  20  22  2   
 42  20  42  1   
 43  21  22  1   
 44  21  43  1   
 45  22  23  1   
 46  23  44  1   
 47  23  45  1   
 48  23  46  1   
@<TRIPOS>SUBSTRUCTURE
  1 ****   3 GROUP 4 **** **** 0

# MOE 2024.06 (io_trps.svl 2023.06)
