@<TRIPOS>MOLECULE
NONAME
45 47 1 0 0 
SMALL
USER_CHARGES


@<TRIPOS>ATOM
  1 O       -1.2900     0.1290     2.1520 O.2   1 <1>  -0.5700 
  2 C       -2.0040     0.7170     1.3640 C.2   1 <1>   0.7160 
  3 N       -3.1530     0.1090     0.9170 N.am  1 <1>  -0.6600 
  4 C       -1.6280     2.0170     0.8770 C.2   1 <1>  -0.0860 
  5 C       -3.9020     0.5470    -0.2920 C.3   1 <1>   0.1400 
  6 C       -3.5110    -1.2920     1.2620 C.3   1 <1>   0.1400 
  7 C       -0.4760     2.3390     0.1800 C.2   1 <1>   0.1080 
  8 C       -2.2450     3.2160     0.9360 C.2   1 <1>  -0.0400 
  9 C       -4.9330    -0.5570    -0.5400 C.3   1 <1>   0.2000 
 10 C       -4.2950    -1.8150     0.0520 C.3   1 <1>  -0.0800 
 11 N       -0.4730     3.5810    -0.1320 N.2   1 <1>  -0.4100 
 12 C        0.6430     1.3740    -0.1760 C.3   1 <1>   0.0210 
 13 O       -1.5640     4.1540     0.3250 O.3   1 <1>  -0.0190 
 14 C       -3.5540     3.5990     1.5980 C.3   1 <1>  -0.0600 
 15 O       -6.0730    -0.2610     0.1910 O.3   1 <1>  -0.6800 
 16 C       -3.3670    -2.4940    -0.9740 C.3   1 <1>   0.0210 
 17 C        0.2210     0.4000    -1.2830 C.3   1 <1>  -0.2400 
 18 C       -2.7070    -3.7290    -0.3930 C.2   1 <1>   0.1080 
 19 N       -3.3630    -4.8150    -0.1290 N.2   1 <1>  -0.7070 
 20 C       -1.3570    -3.8380    -0.0750 C.2   1 <1>  -0.1500 
 21 N       -2.4390    -5.6580     0.3680 N.pl3 1 <1>   0.3000 
 22 C       -1.2160    -5.0880     0.4120 C.2   1 <1>  -0.3320 
 23 C        0.0310    -5.7830     0.9280 C.3   1 <1>  -0.0600 
 24 H       -4.3780     1.5000    -0.1460 H     1 <1>   0.0800 
 25 H       -3.2230     0.6100    -1.1240 H     1 <1>   0.0800 
 26 H       -2.6360    -1.8830     1.4740 H     1 <1>   0.0800 
 27 H       -4.1390    -1.2860     2.1370 H     1 <1>   0.0800 
 28 H       -5.2120    -0.6520    -1.5750 H     1 <1>   0.0800 
 29 H       -5.0420    -2.5300     0.3540 H     1 <1>   0.0800 
 30 H        1.4970     1.9390    -0.5060 H     1 <1>   0.0800 
 31 H        0.9320     0.8260     0.7030 H     1 <1>   0.0800 
 32 H       -3.9940     2.7510     2.0910 H     1 <1>   0.0800 
 33 H       -4.2410     3.9730     0.8610 H     1 <1>   0.0800 
 34 H       -3.3770     4.3690     2.3280 H     1 <1>   0.0800 
 35 H       -5.8350    -0.1550     1.1320 H     1 <1>   0.4000 
 36 H       -2.6050    -1.8140    -1.3070 H     1 <1>   0.0800 
 37 H       -3.9420    -2.7980    -1.8310 H     1 <1>   0.0800 
 38 H       -0.0880     0.9480    -2.1560 H     1 <1>   0.0800 
 39 H       -0.5920    -0.2190    -0.9510 H     1 <1>   0.0800 
 40 H        1.0480    -0.2340    -1.5480 H     1 <1>   0.0800 
 41 H       -0.6100    -3.0740    -0.1970 H     1 <1>   0.1500 
 42 H       -2.6750    -6.6120     0.6680 H     1 <1>   0.2700 
 43 H        0.8760    -5.1200     0.8650 H     1 <1>   0.0800 
 44 H        0.2390    -6.6600     0.3400 H     1 <1>   0.0800 
 45 H       -0.1020    -6.0710     1.9560 H     1 <1>   0.0800 
@<TRIPOS>BOND
  1   1   2  2   
  2   2   3  am  
  3   2   4  1   
  4   3   5  1   
  5   3   6  1   
  6   4   7  1   
  7   4   8  2   
  8   5   9  1   
  9   5  24  1   
 10   5  25  1   
 11   6  10  1   
 12   6  26  1   
 13   6  27  1   
 14   7  11  2   
 15   7  12  1   
 16   8  13  1   
 17   8  14  1   
 18   9  10  1   
 19   9  15  1   
 20   9  28  1   
 21  10  16  1   
 22  10  29  1   
 23  11  13  1   
 24  12  17  1   
 25  12  30  1   
 26  12  31  1   
 27  14  32  1   
 28  14  33  1   
 29  14  34  1   
 30  15  35  1   
 31  16  18  1   
 32  16  36  1   
 33  16  37  1   
 34  17  38  1   
 35  17  39  1   
 36  17  40  1   
 37  18  19  2   
 38  18  20  1   
 39  19  21  1   
 40  20  22  2   
 41  20  41  1   
 42  21  22  1   
 43  21  42  1   
 44  22  23  1   
 45  23  43  1   
 46  23  44  1   
 47  23  45  1   
@<TRIPOS>SUBSTRUCTURE
  1 ****   3 GROUP 4 **** **** 0

# MOE 2024.06 (io_trps.svl 2023.06)
