@<TRIPOS>MOLECULE
NONAME
51 53 1 0 0 
SMALL
USER_CHARGES


@<TRIPOS>ATOM
  1 O       -0.4120     1.3390     1.5220 O.2   1 <1>  -0.5700 
  2 C       -0.1590     2.3900     0.9460 C.2   1 <1>   0.5440 
  3 N       -1.2240     3.1960     0.5680 N.am  1 <1>  -0.6600 
  4 C        1.2020     2.7530     0.6700 C.ar  1 <1>   0.0860 
  5 C       -2.6070     2.9680     1.0780 C.3   1 <1>   0.1400 
  6 C       -1.1420     4.1850    -0.5430 C.3   1 <1>   0.1400 
  7 C        1.6920     4.0340     0.9420 C.ar  1 <1>  -0.1500 
  8 C        2.1030     1.8470     0.1070 C.ar  1 <1>  -0.1500 
  9 C       -3.5280     2.4530    -0.0430 C.3   1 <1>   0.0000 
 10 C       -2.0440     3.7450    -1.7020 C.3   1 <1>  -0.1600 
 11 C        2.9690     4.4260     0.6280 C.ar  1 <1>   0.0820 
 12 C        3.3910     2.1890    -0.2250 C.ar  1 <1>   0.0820 
 13 C       -4.9530     2.2360     0.4970 C.3   1 <1>   0.2000 
 14 C       -3.4820     3.4430    -1.2410 C.3   1 <1>  -0.1600 
 15 C       -3.1610     1.0270    -0.4910 C.3   1 <1>  -0.1600 
 16 O        3.2530     5.7260     0.9770 O.3   1 <1>  -0.3630 
 17 C        3.8680     3.5170    -0.0080 C.ar  1 <1>  -0.1710 
 18 O        4.1220     1.1570    -0.7650 O.3   1 <1>  -0.3630 
 19 O       -5.6750     3.4300     0.5610 O.3   1 <1>  -0.5600 
 20 C       -5.6050     1.2320    -0.4580 C.3   1 <1>  -0.1600 
 21 C       -4.4490     0.4220    -1.0620 C.3   1 <1>  -0.1600 
 22 C        4.5960     6.1320     1.1020 C.3   1 <1>   0.0400 
 23 O        5.0210     3.8810    -0.3880 O.3   1 <1>  -0.8290 
 24 C        5.5280     1.2140    -0.7290 C.3   1 <1>   0.0400 
 25 C       -6.8520     3.3670     1.3010 C.3   1 <1>   0.0400 
 26 H       -2.5930     2.2690     1.8970 H     1 <1>   0.0800 
 27 H       -2.9920     3.9000     1.4530 H     1 <1>   0.0800 
 28 H       -1.4590     5.1460    -0.1770 H     1 <1>   0.0800 
 29 H       -0.1330     4.2810    -0.9050 H     1 <1>   0.0800 
 30 H        1.0410     4.7420     1.4160 H     1 <1>   0.1500 
 31 H        1.7690     0.8440    -0.0760 H     1 <1>   0.1500 
 32 H       -2.0630     4.5230    -2.4430 H     1 <1>   0.0800 
 33 H       -1.6090     2.8780    -2.1650 H     1 <1>   0.0800 
 34 H       -4.8930     1.8100     1.4850 H     1 <1>   0.0800 
 35 H       -4.0530     3.0630    -2.0680 H     1 <1>   0.0800 
 36 H       -3.9310     4.3740    -0.9440 H     1 <1>   0.0800 
 37 H       -2.3520     0.9970    -1.1980 H     1 <1>   0.0800 
 38 H       -2.8600     0.4530     0.3700 H     1 <1>   0.0800 
 39 H       -6.2880     0.5920     0.0700 H     1 <1>   0.0800 
 40 H       -6.1250     1.7550    -1.2410 H     1 <1>   0.0800 
 41 H       -4.5230    -0.6220    -0.8090 H     1 <1>   0.0800 
 42 H       -4.4580     0.5220    -2.1340 H     1 <1>   0.0800 
 43 H        4.6230     7.0720     1.6170 H     1 <1>   0.0800 
 44 H        5.0130     6.2340     0.1160 H     1 <1>   0.0800 
 45 H        5.1350     5.3810     1.6530 H     1 <1>   0.0800 
 46 H        5.9150     0.2340    -0.9310 H     1 <1>   0.0800 
 47 H        5.8360     1.5510     0.2460 H     1 <1>   0.0800 
 48 H        5.8590     1.9090    -1.4800 H     1 <1>   0.0800 
 49 H       -7.2990     4.3460     1.2990 H     1 <1>   0.0800 
 50 H       -6.6230     3.0760     2.3110 H     1 <1>   0.0800 
 51 H       -7.5260     2.6630     0.8450 H     1 <1>   0.0800 
@<TRIPOS>BOND
  1   1   2  2   
  2   2   3  am  
  3   2   4  1   
  4   3   5  1   
  5   3   6  1   
  6   4   7  ar  
  7   4   8  ar  
  8   5   9  1   
  9   5  26  1   
 10   5  27  1   
 11   6  10  1   
 12   6  28  1   
 13   6  29  1   
 14   7  11  ar  
 15   7  30  1   
 16   8  12  ar  
 17   8  31  1   
 18   9  13  1   
 19   9  14  1   
 20   9  15  1   
 21  10  14  1   
 22  10  32  1   
 23  10  33  1   
 24  11  16  1   
 25  11  17  ar  
 26  12  17  ar  
 27  12  18  1   
 28  13  19  1   
 29  13  20  1   
 30  13  34  1   
 31  14  35  1   
 32  14  36  1   
 33  15  21  1   
 34  15  37  1   
 35  15  38  1   
 36  16  22  1   
 37  17  23  1   
 38  18  24  1   
 39  19  25  1   
 40  20  21  1   
 41  20  39  1   
 42  20  40  1   
 43  21  41  1   
 44  21  42  1   
 45  22  43  1   
 46  22  44  1   
 47  22  45  1   
 48  24  46  1   
 49  24  47  1   
 50  24  48  1   
 51  25  49  1   
 52  25  50  1   
 53  25  51  1   
@<TRIPOS>SUBSTRUCTURE
  1 ****   2 GROUP 4 **** **** 0

# MOE 2024.06 (io_trps.svl 2023.06)
