@<TRIPOS>MOLECULE
NONAME
41 43 1 0 0 
SMALL
USER_CHARGES


@<TRIPOS>ATOM
  1 O       -0.2870     0.1160     0.1640 O.2   1 <1>  -0.5700 
  2 C       -1.3260     0.7110     0.0060 C.2   1 <1>   0.5690 
  3 N       -2.4970     0.0500    -0.2350 N.am  1 <1>  -0.6600 
  4 C       -1.3310     2.2300     0.0840 C.3   1 <1>  -0.0990 
  5 C       -3.8420     0.6590    -0.3850 C.3   1 <1>   0.1400 
  6 C       -2.5810    -1.4280    -0.3080 C.3   1 <1>   0.1400 
  7 C        0.0680     2.8430     0.2310 C.3   1 <1>   0.0210 
  8 C       -4.8000    -0.5230    -0.5510 C.3   1 <1>   0.2000 
  9 C       -4.0500    -1.7500    -0.0330 C.3   1 <1>  -0.0800 
 10 C       -0.0260     4.3560     0.2850 C.2   1 <1>  -0.1810 
 11 O       -5.9640    -0.3410     0.1770 O.3   1 <1>  -0.6800 
 12 C       -4.5440    -3.0570    -0.6760 C.3   1 <1>  -0.0170 
 13 C       -0.4670     5.1250     1.3580 C.2   1 <1>   0.1390 
 14 C        0.2870     5.2540    -0.6730 C.2   1 <1>  -0.3020 
 15 C       -3.8130    -4.2710    -0.1260 C.ar  1 <1>   0.1670 
 16 N       -0.4400     6.3960     1.0970 N.2   1 <1>  -0.7070 
 17 N        0.0310     6.4740    -0.1610 N.pl3 1 <1>   0.3000 
 18 N       -2.6340    -4.5440    -0.6620 N.ar  1 <1>  -0.6200 
 19 C       -4.3890    -5.0300     0.8920 C.ar  1 <1>   0.1600 
 20 C       -2.0740    -5.6110    -0.1150 C.ar  1 <1>   0.1600 
 21 N       -3.8310    -6.0970     1.4400 N.ar  1 <1>  -0.6200 
 22 C       -2.6530    -6.3610     0.9020 C.ar  1 <1>   0.1600 
 23 H       -1.7820     2.6180    -0.8110 H     1 <1>   0.0800 
 24 H       -1.9330     2.5240     0.9220 H     1 <1>   0.0800 
 25 H       -4.0790     1.2280     0.4970 H     1 <1>   0.0800 
 26 H       -3.8690     1.2910    -1.2560 H     1 <1>   0.0800 
 27 H       -2.2930    -1.7470    -1.2960 H     1 <1>   0.0800 
 28 H       -1.9300    -1.8920     0.4150 H     1 <1>   0.0800 
 29 H        0.6800     2.5510    -0.6040 H     1 <1>   0.0800 
 30 H        0.5380     2.4810     1.1290 H     1 <1>   0.0800 
 31 H       -5.0630    -0.6330    -1.5900 H     1 <1>   0.0800 
 32 H       -4.1630    -1.8140     1.0360 H     1 <1>   0.0800 
 33 H       -5.7590    -0.2350     1.1270 H     1 <1>   0.4000 
 34 H       -4.4020    -3.0190    -1.7430 H     1 <1>   0.0800 
 35 H       -5.5990    -3.1620    -0.4960 H     1 <1>   0.0800 
 36 H       -0.7960     4.7230     2.3020 H     1 <1>   0.1500 
 37 H        0.6690     5.0980    -1.6650 H     1 <1>   0.1500 
 38 H        0.1670     7.3740    -0.6390 H     1 <1>   0.2700 
 39 H       -5.3530    -4.7410     1.2720 H     1 <1>   0.1500 
 40 H       -1.1100    -5.9050    -0.4890 H     1 <1>   0.1500 
 41 H       -2.1190    -7.2130     1.2830 H     1 <1>   0.1500 
@<TRIPOS>BOND
  1   1   2  2   
  2   2   3  am  
  3   2   4  1   
  4   3   5  1   
  5   3   6  1   
  6   4   7  1   
  7   4  23  1   
  8   4  24  1   
  9   5   8  1   
 10   5  25  1   
 11   5  26  1   
 12   6   9  1   
 13   6  27  1   
 14   6  28  1   
 15   7  10  1   
 16   7  29  1   
 17   7  30  1   
 18   8   9  1   
 19   8  11  1   
 20   8  31  1   
 21   9  12  1   
 22   9  32  1   
 23  10  13  1   
 24  10  14  2   
 25  11  33  1   
 26  12  15  1   
 27  12  34  1   
 28  12  35  1   
 29  13  16  2   
 30  13  36  1   
 31  14  17  1   
 32  14  37  1   
 33  15  18  ar  
 34  15  19  ar  
 35  16  17  1   
 36  17  38  1   
 37  18  20  ar  
 38  19  21  ar  
 39  19  39  1   
 40  20  22  ar  
 41  20  40  1   
 42  21  22  ar  
 43  22  41  1   
@<TRIPOS>SUBSTRUCTURE
  1 ****   3 GROUP 4 **** **** 0

# MOE 2024.06 (io_trps.svl 2023.06)
