@<TRIPOS>MOLECULE
NONAME
44 46 1 0 0 
SMALL
USER_CHARGES


@<TRIPOS>ATOM
  1 O        0.5970     0.0050    -0.0910 O.3   1 <1>  -0.6800 
  2 C        1.9300    -0.1030    -0.4720 C.3   1 <1>   0.2000 
  3 C        2.5220    -1.4250     0.0130 C.3   1 <1>  -0.0800 
  4 C        2.7950     0.9720     0.1820 C.3   1 <1>   0.2090 
  5 C        4.0230    -1.1350     0.1100 C.3   1 <1>   0.2090 
  6 C        2.1750    -2.6180    -0.8930 C.3   1 <1>  -0.0170 
  7 N        4.1170     0.3220     0.3720 N.pl3 1 <1>  -0.8380 
  8 C        2.8080    -3.9050    -0.3920 C.ar  1 <1>   0.1660 
  9 C        5.3060     1.0100     0.3630 C.ar  1 <1>   0.7200 
 10 N        4.0040    -4.1980    -0.8770 N.ar  1 <1>  -0.6200 
 11 C        2.1280    -4.6940     0.5250 C.ar  1 <1>  -0.1500 
 12 N        5.2350     2.3360     0.4190 N.ar  1 <1>  -0.6200 
 13 N        6.4190     0.2860     0.3010 N.ar  1 <1>  -0.6200 
 14 C        4.5460    -5.3200    -0.4310 C.ar  1 <1>   0.1600 
 15 C        2.7030    -5.8610     0.9800 C.ar  1 <1>  -0.1500 
 16 C        6.3700     2.9940     0.4140 C.ar  1 <1>   0.1670 
 17 C        7.5400     0.9620     0.2960 C.ar  1 <1>   0.1600 
 18 C        3.9490    -6.1740     0.4810 C.ar  1 <1>  -0.1500 
 19 C        7.5850     2.3370     0.3500 C.ar  1 <1>  -0.1430 
 20 C        6.2540     4.5120     0.4810 C.3   1 <1>  -0.0170 
 21 C        8.9300     3.0560     0.3340 C.3   1 <1>  -0.0970 
 22 C        6.0550     5.1190    -0.9130 C.3   1 <1>  -0.2400 
 23 H        0.0530    -0.6560    -0.5570 H     1 <1>   0.4000 
 24 H        1.9960    -0.0100    -1.5420 H     1 <1>   0.0800 
 25 H        2.1750    -1.6160     1.0130 H     1 <1>   0.0800 
 26 H        2.4000     1.2480     1.1440 H     1 <1>   0.0800 
 27 H        2.8740     1.8380    -0.4520 H     1 <1>   0.0800 
 28 H        4.5210    -1.3620    -0.8190 H     1 <1>   0.0800 
 29 H        4.4840    -1.6980     0.9040 H     1 <1>   0.0800 
 30 H        2.5160    -2.4290    -1.8960 H     1 <1>   0.0800 
 31 H        1.1090    -2.7440    -0.9300 H     1 <1>   0.0800 
 32 H        1.1590    -4.3980     0.8830 H     1 <1>   0.1500 
 33 H        5.5200    -5.5730    -0.8130 H     1 <1>   0.1500 
 34 H        2.2040    -6.4970     1.6910 H     1 <1>   0.1500 
 35 H        8.4530     0.3960     0.2460 H     1 <1>   0.1500 
 36 H        4.4550    -7.0690     0.7940 H     1 <1>   0.1500 
 37 H        5.4100     4.7650     1.0990 H     1 <1>   0.0800 
 38 H        7.1240     4.9390     0.9430 H     1 <1>   0.0800 
 39 H        9.7320     2.3650     0.1430 H     1 <1>   0.0800 
 40 H        9.1060     3.5260     1.2850 H     1 <1>   0.0800 
 41 H        8.9420     3.8050    -0.4370 H     1 <1>   0.0800 
 42 H        5.1630     4.7180    -1.3610 H     1 <1>   0.0800 
 43 H        6.8920     4.8850    -1.5470 H     1 <1>   0.0800 
 44 H        5.9570     6.1870    -0.8430 H     1 <1>   0.0800 
@<TRIPOS>BOND
  1   1   2  1   
  2   1  23  1   
  3   2   3  1   
  4   2   4  1   
  5   2  24  1   
  6   3   5  1   
  7   3   6  1   
  8   3  25  1   
  9   4   7  1   
 10   4  26  1   
 11   4  27  1   
 12   5   7  1   
 13   5  28  1   
 14   5  29  1   
 15   6   8  1   
 16   6  30  1   
 17   6  31  1   
 18   7   9  1   
 19   8  10  ar  
 20   8  11  ar  
 21   9  12  ar  
 22   9  13  ar  
 23  10  14  ar  
 24  11  15  ar  
 25  11  32  1   
 26  12  16  ar  
 27  13  17  ar  
 28  14  18  ar  
 29  14  33  1   
 30  15  18  ar  
 31  15  34  1   
 32  16  19  ar  
 33  16  20  1   
 34  17  19  ar  
 35  17  35  1   
 36  18  36  1   
 37  19  21  1   
 38  20  22  1   
 39  20  37  1   
 40  20  38  1   
 41  21  39  1   
 42  21  40  1   
 43  21  41  1   
 44  22  42  1   
 45  22  43  1   
 46  22  44  1   
@<TRIPOS>SUBSTRUCTURE
  1 ****   5 GROUP 4 **** **** 0

# MOE 2024.06 (io_trps.svl 2023.06)
