@<TRIPOS>MOLECULE
NONAME
48 50 1 0 0 
SMALL
USER_CHARGES


@<TRIPOS>ATOM
  1 S        0.3270    -2.0380    -1.2890 S.3   1 <1>  -0.2860 
  2 C       -1.0680    -3.0780    -0.8420 C.2   1 <1>   0.2420 
  3 C        1.6900    -3.2540    -1.5560 C.3   1 <1>  -0.0100 
  4 N       -0.9860    -4.3640    -0.7740 N.2   1 <1>  -0.5650 
  5 N       -2.2810    -2.5510    -0.5590 N.pl3 1 <1>   0.0480 
  6 C       -2.2360    -4.7160    -0.4190 C.2   1 <1>   0.0770 
  7 C       -3.0460    -3.6350    -0.2910 C.2   1 <1>  -0.3320 
  8 C       -2.6590    -1.1230    -0.5520 C.3   1 <1>   0.0160 
  9 C       -4.5140    -3.5540     0.0810 C.3   1 <1>   0.3200 
 10 N       -5.0980    -4.8980     0.0000 N.am  1 <1>  -0.7300 
 11 C       -5.9440    -5.4240     0.9140 C.2   1 <1>   0.5690 
 12 O       -6.3590    -4.7900     1.8520 O.2   1 <1>  -0.5700 
 13 C       -6.3610    -6.8660     0.7640 C.3   1 <1>  -0.0990 
 14 C       -5.4120    -7.7780     1.5450 C.3   1 <1>   0.0200 
 15 C       -5.7780    -9.2300     1.3210 C.2   1 <1>   0.0060 
 16 N       -5.3080    -9.9400     0.3580 N.2   1 <1>  -0.5650 
 17 N       -6.6450    -9.8980     2.1220 N.pl3 1 <1>   0.0330 
 18 C       -5.8910   -11.1670     0.5160 C.ar  1 <1>   0.2270 
 19 C       -6.7280   -11.1520     1.6150 C.ar  1 <1>  -0.1520 
 20 C       -5.7440   -12.3330    -0.2470 C.ar  1 <1>  -0.1430 
 21 C       -7.4450   -12.2850     1.9960 C.ar  1 <1>  -0.1500 
 22 C       -6.4460   -13.4670     0.1320 C.ar  1 <1>  -0.1430 
 23 C       -4.8110   -12.2880    -1.4520 C.3   1 <1>  -0.0970 
 24 C       -7.2950   -13.4300     1.2490 C.ar  1 <1>  -0.1500 
 25 C       -6.3290   -14.7800    -0.6290 C.3   1 <1>  -0.0970 
 26 H        2.5740    -2.7070    -1.8280 H     1 <1>   0.0800 
 27 H        1.3840    -3.9190    -2.3430 H     1 <1>   0.0800 
 28 H        1.8310    -3.7930    -0.6360 H     1 <1>   0.0800 
 29 H       -2.4890    -5.7530    -0.2700 H     1 <1>   0.1500 
 30 H       -1.8300    -0.5340    -0.2050 H     1 <1>   0.0800 
 31 H       -3.4950    -0.9680     0.1050 H     1 <1>   0.0800 
 32 H       -2.9190    -0.8220    -1.5500 H     1 <1>   0.0800 
 33 H       -5.0360    -2.9100    -0.6060 H     1 <1>   0.0800 
 34 H       -4.6230    -3.1580     1.0770 H     1 <1>   0.0800 
 35 H       -4.7660    -5.4580    -0.7850 H     1 <1>   0.3700 
 36 H       -6.3530    -7.1400    -0.2760 H     1 <1>   0.0800 
 37 H       -7.3650    -6.9800     1.1310 H     1 <1>   0.0800 
 38 H       -5.4470    -7.5420     2.5940 H     1 <1>   0.0800 
 39 H       -4.4030    -7.6230     1.2040 H     1 <1>   0.0800 
 40 H       -7.1380    -9.5390     2.9420 H     1 <1>   0.2700 
 41 H       -8.0950   -12.2580     2.8520 H     1 <1>   0.1500 
 42 H       -4.8630   -11.3220    -1.9220 H     1 <1>   0.0800 
 43 H       -5.0720   -13.0240    -2.1880 H     1 <1>   0.0800 
 44 H       -3.8000   -12.4550    -1.1290 H     1 <1>   0.0800 
 45 H       -7.8380   -14.3150     1.5290 H     1 <1>   0.1500 
 46 H       -5.2950   -15.0190    -0.8020 H     1 <1>   0.0800 
 47 H       -6.8350   -14.6990    -1.5750 H     1 <1>   0.0800 
 48 H       -6.7690   -15.5900    -0.0750 H     1 <1>   0.0800 
@<TRIPOS>BOND
  1   1   2  1   
  2   1   3  1   
  3   2   4  2   
  4   2   5  1   
  5   3  26  1   
  6   3  27  1   
  7   3  28  1   
  8   4   6  1   
  9   5   7  1   
 10   5   8  1   
 11   6   7  2   
 12   6  29  1   
 13   7   9  1   
 14   8  30  1   
 15   8  31  1   
 16   8  32  1   
 17   9  10  1   
 18   9  33  1   
 19   9  34  1   
 20  10  11  am  
 21  10  35  1   
 22  11  12  2   
 23  11  13  1   
 24  13  14  1   
 25  13  36  1   
 26  13  37  1   
 27  14  15  1   
 28  14  38  1   
 29  14  39  1   
 30  15  16  2   
 31  15  17  1   
 32  16  18  1   
 33  17  19  1   
 34  17  40  1   
 35  18  19  ar  
 36  18  20  ar  
 37  19  21  ar  
 38  20  22  ar  
 39  20  23  1   
 40  21  24  ar  
 41  21  41  1   
 42  22  24  ar  
 43  22  25  1   
 44  23  42  1   
 45  23  43  1   
 46  23  44  1   
 47  24  45  1   
 48  25  46  1   
 49  25  47  1   
 50  25  48  1   
@<TRIPOS>SUBSTRUCTURE
  1 ****  14 GROUP 4 **** **** 0

# MOE 2024.06 (io_trps.svl 2023.06)
