@<TRIPOS>MOLECULE
NONAME
64 68 1 0 0 
SMALL
USER_CHARGES


@<TRIPOS>ATOM
  1 S       -0.3740     0.6540     1.0340 S.3   1 <1>  -0.0800 
  2 C       -0.0080    -1.0630     1.0620 C.2   1 <1>  -0.1400 
  3 C        1.3290     1.0660     0.9810 C.2   1 <1>  -0.1100 
  4 C        1.3250    -1.2550     1.0210 C.2   1 <1>  -0.1500 
  5 C       -1.1770    -2.0290     1.1380 C.3   1 <1>   0.5230 
  6 C        2.0980    -0.0440     0.9770 C.2   1 <1>  -0.1810 
  7 N       -2.0330    -1.8140    -0.0550 N.4   1 <1>  -0.9590 
  8 C        3.6210    -0.1310     0.9600 C.3   1 <1>   0.5240 
  9 C       -3.2820    -1.0620     0.3150 C.3   1 <1>   0.3430 
 10 C       -2.3570    -3.0910    -0.7530 C.3   1 <1>   0.3430 
 11 N        4.2310     1.2010     0.7090 N.4   1 <1>  -0.9590 
 12 C       -4.1390    -0.7190    -0.9160 C.3   1 <1>   0.1430 
 13 C       -3.1480    -2.7950    -2.0300 C.3   1 <1>  -0.1600 
 14 C        4.0640     1.6830    -0.6850 C.3   1 <1>   0.3430 
 15 C        5.6880     1.2360     0.9770 C.3   1 <1>   0.3430 
 16 C       -5.4290    -0.1100    -0.4280 C.ar  1 <1>   0.1670 
 17 C       -4.4280    -1.9900    -1.7430 C.3   1 <1>  -0.1600 
 18 C       -3.5350     0.4200    -1.7820 C.3   1 <1>  -0.1600 
 19 C        5.1240     2.7650    -0.8370 C.3   1 <1>  -0.1600 
 20 C        6.1760     2.4740     0.2380 C.3   1 <1>  -0.1600 
 21 N       -6.1600    -0.6090     0.5340 N.ar  1 <1>  -0.6200 
 22 C       -5.7340     1.0370    -1.0930 C.ar  1 <1>  -0.1430 
 23 C       -4.6990     1.3670    -2.1380 C.3   1 <1>  -0.0170 
 24 C       -7.2590     0.0950     0.8250 C.ar  1 <1>   0.7200 
 25 C       -6.8810     1.6930    -0.7250 C.ar  1 <1>   0.1600 
 26 N       -7.6470     1.2300     0.2350 N.ar  1 <1>  -0.6200 
 27 N       -8.0590    -0.3930     1.8360 N.pl3 1 <1>  -0.8380 
 28 C       -8.1120    -1.8390     2.1840 C.3   1 <1>   0.1290 
 29 C       -9.0980     0.4540     2.4850 C.3   1 <1>   0.1290 
 30 H        1.5560     2.1180     0.9670 H     1 <1>   0.1500 
 31 H        1.8090    -2.2200     1.0300 H     1 <1>   0.1500 
 32 H       -1.7370    -1.8600     2.0430 H     1 <1>   0.0800 
 33 H       -0.8000    -3.0380     1.1520 H     1 <1>   0.0800 
 34 H       -1.4880    -1.2220    -0.6950 H     1 <1>   0.4500 
 35 H        3.9360    -0.8230     0.1960 H     1 <1>   0.0800 
 36 H        3.9550    -0.5090     1.9130 H     1 <1>   0.0800 
 37 H       -3.0340    -0.1490     0.8310 H     1 <1>   0.0800 
 38 H       -3.8800    -1.6620     0.9830 H     1 <1>   0.0800 
 39 H       -2.9480    -3.7210    -0.1060 H     1 <1>   0.0800 
 40 H       -1.4510    -3.6180    -1.0060 H     1 <1>   0.0800 
 41 H        3.7840     1.8790     1.3380 H     1 <1>   0.4500 
 42 H       -3.4190    -3.7280    -2.4940 H     1 <1>   0.0800 
 43 H       -2.5200    -2.2670    -2.7270 H     1 <1>   0.0800 
 44 H        3.0720     2.0680    -0.8640 H     1 <1>   0.0800 
 45 H        4.2680     0.8830    -1.3780 H     1 <1>   0.0800 
 46 H        6.1610     0.3610     0.5590 H     1 <1>   0.0800 
 47 H        5.9020     1.2910     2.0330 H     1 <1>   0.0800 
 48 H       -4.9180    -1.7280    -2.6660 H     1 <1>   0.0800 
 49 H       -5.1100    -2.6140    -1.1900 H     1 <1>   0.0800 
 50 H       -3.0460     0.0610    -2.6700 H     1 <1>   0.0800 
 51 H       -2.8220     0.9790    -1.2010 H     1 <1>   0.0800 
 52 H        4.6820     3.7340    -0.6780 H     1 <1>   0.0800 
 53 H        5.5460     2.7420    -1.8270 H     1 <1>   0.0800 
 54 H        7.1470     2.2960    -0.1910 H     1 <1>   0.0800 
 55 H        6.2540     3.3020     0.9220 H     1 <1>   0.0800 
 56 H       -5.0900     1.1430    -3.1160 H     1 <1>   0.0800 
 57 H       -4.4020     2.4010    -2.0930 H     1 <1>   0.0800 
 58 H       -7.1750     2.6040    -1.2180 H     1 <1>   0.1500 
 59 H       -7.6540    -2.4360     1.4150 H     1 <1>   0.0800 
 60 H       -9.1360    -2.1540     2.2870 H     1 <1>   0.0800 
 61 H       -7.5960    -2.0050     3.1130 H     1 <1>   0.0800 
 62 H       -8.7840     1.4840     2.5060 H     1 <1>   0.0800 
 63 H       -9.2630     0.1290     3.4970 H     1 <1>   0.0800 
 64 H      -10.0190     0.3820     1.9320 H     1 <1>   0.0800 
@<TRIPOS>BOND
  1   1   2  1   
  2   1   3  1   
  3   2   4  2   
  4   2   5  1   
  5   3   6  2   
  6   3  30  1   
  7   4   6  1   
  8   4  31  1   
  9   5   7  1   
 10   5  32  1   
 11   5  33  1   
 12   6   8  1   
 13   7   9  1   
 14   7  10  1   
 15   7  34  1   
 16   8  11  1   
 17   8  35  1   
 18   8  36  1   
 19   9  12  1   
 20   9  37  1   
 21   9  38  1   
 22  10  13  1   
 23  10  39  1   
 24  10  40  1   
 25  11  14  1   
 26  11  15  1   
 27  11  41  1   
 28  12  16  1   
 29  12  17  1   
 30  12  18  1   
 31  13  17  1   
 32  13  42  1   
 33  13  43  1   
 34  14  19  1   
 35  14  44  1   
 36  14  45  1   
 37  15  20  1   
 38  15  46  1   
 39  15  47  1   
 40  16  21  ar  
 41  16  22  ar  
 42  17  48  1   
 43  17  49  1   
 44  18  23  1   
 45  18  50  1   
 46  18  51  1   
 47  19  20  1   
 48  19  52  1   
 49  19  53  1   
 50  20  54  1   
 51  20  55  1   
 52  21  24  ar  
 53  22  23  1   
 54  22  25  ar  
 55  23  56  1   
 56  23  57  1   
 57  24  26  ar  
 58  24  27  1   
 59  25  26  ar  
 60  25  58  1   
 61  27  28  1   
 62  27  29  1   
 63  28  59  1   
 64  28  60  1   
 65  28  61  1   
 66  29  62  1   
 67  29  63  1   
 68  29  64  1   
@<TRIPOS>SUBSTRUCTURE
  1 ****   9 GROUP 4 **** **** 0

# MOE 2024.06 (io_trps.svl 2023.06)
