@<TRIPOS>MOLECULE
NONAME
50 53 1 0 0 
SMALL
USER_CHARGES


@<TRIPOS>ATOM
  1 O       -0.1680    -0.0070     0.6590 O.2   1 <1>  -0.5700 
  2 C       -1.2180     0.6190     0.6630 C.2   1 <1>   0.7160 
  3 N       -2.3540    -0.0630     1.0660 N.am  1 <1>  -0.6600 
  4 C       -1.2400     2.0200     0.2370 C.2   1 <1>   0.2030 
  5 C       -2.4880    -1.5400     0.8790 C.3   1 <1>   0.1400 
  6 C       -3.6770     0.5860     1.3080 C.3   1 <1>   0.1400 
  7 N       -2.1920     2.5880    -0.4890 N.2   1 <1>  -0.7070 
  8 C       -0.2390     2.9660     0.5300 C.2   1 <1>  -0.1810 
  9 C       -3.5520    -1.8520    -0.1940 C.3   1 <1>   0.3440 
 10 C       -4.6610     0.1980     0.1900 C.3   1 <1>   0.2950 
 11 N       -1.8020     3.8570    -0.6590 N.pl3 1 <1>   0.3000 
 12 C       -0.6300     4.1180    -0.0510 C.2   1 <1>  -0.3320 
 13 C        1.0200     2.6960     1.3400 C.3   1 <1>  -0.0590 
 14 O       -4.7610    -1.1970     0.1040 O.3   1 <1>  -0.5600 
 15 C       -3.7950    -3.3560    -0.2870 C.ar  1 <1>  -0.1430 
 16 C       -6.0650     0.7470     0.4590 C.3   1 <1>  -0.1950 
 17 C        0.0220     5.4910    -0.0940 C.3   1 <1>   0.0200 
 18 C       -3.0540    -4.1160    -1.1820 C.ar  1 <1>  -0.1500 
 19 C       -4.7330    -3.9900     0.5170 C.ar  1 <1>  -0.1500 
 20 C       -7.0400     0.9610    -0.6550 C.3   1 <1>  -0.2000 
 21 C       -6.4310     2.1400     0.0510 C.3   1 <1>  -0.2000 
 22 C        0.5370     5.7930    -1.5010 C.3   1 <1>  -0.2400 
 23 C       -3.2460    -5.4840    -1.2710 C.ar  1 <1>  -0.1500 
 24 C       -4.9270    -5.3580     0.4290 C.ar  1 <1>  -0.1500 
 25 C       -4.1830    -6.1060    -0.4650 C.ar  1 <1>  -0.1500 
 26 H       -1.5510    -1.9750     0.5790 H     1 <1>   0.0800 
 27 H       -2.7770    -1.9950     1.8090 H     1 <1>   0.0800 
 28 H       -4.0670     0.2490     2.2520 H     1 <1>   0.0800 
 29 H       -3.5850     1.6550     1.3630 H     1 <1>   0.0800 
 30 H       -3.2130    -1.4900    -1.1490 H     1 <1>   0.0800 
 31 H       -4.3020     0.5730    -0.7540 H     1 <1>   0.0800 
 32 H       -2.3510     4.5350    -1.2020 H     1 <1>   0.2700 
 33 H        0.7600     2.2710     2.2930 H     1 <1>   0.0800 
 34 H        1.5780     3.5970     1.5080 H     1 <1>   0.0800 
 35 H        1.6480     2.0000     0.8130 H     1 <1>   0.0800 
 36 H       -6.4620     0.3930     1.3950 H     1 <1>   0.1000 
 37 H       -0.6900     6.2410     0.2060 H     1 <1>   0.0800 
 38 H        0.8440     5.5310     0.5970 H     1 <1>   0.0800 
 39 H       -2.3210    -3.6460    -1.8150 H     1 <1>   0.1500 
 40 H       -5.3200    -3.4150     1.2130 H     1 <1>   0.1500 
 41 H       -6.7300     0.7330    -1.6600 H     1 <1>   0.1000 
 42 H       -8.0740     0.7210    -0.4800 H     1 <1>   0.1000 
 43 H       -7.0520     2.7260     0.7060 H     1 <1>   0.1000 
 44 H       -5.7080     2.7380    -0.4780 H     1 <1>   0.1000 
 45 H       -0.2730     5.8100    -2.2080 H     1 <1>   0.0800 
 46 H        1.2430     5.0390    -1.8020 H     1 <1>   0.0800 
 47 H        1.0290     6.7500    -1.5160 H     1 <1>   0.0800 
 48 H       -2.6680    -6.0640    -1.9680 H     1 <1>   0.1500 
 49 H       -5.6580    -5.8370     1.0560 H     1 <1>   0.1500 
 50 H       -4.3330    -7.1690    -0.5340 H     1 <1>   0.1500 
@<TRIPOS>BOND
  1   1   2  2   
  2   2   3  am  
  3   2   4  1   
  4   3   5  1   
  5   3   6  1   
  6   4   7  2   
  7   4   8  1   
  8   5   9  1   
  9   5  26  1   
 10   5  27  1   
 11   6  10  1   
 12   6  28  1   
 13   6  29  1   
 14   7  11  1   
 15   8  12  2   
 16   8  13  1   
 17   9  14  1   
 18   9  15  1   
 19   9  30  1   
 20  10  14  1   
 21  10  16  1   
 22  10  31  1   
 23  11  12  1   
 24  11  32  1   
 25  12  17  1   
 26  13  33  1   
 27  13  34  1   
 28  13  35  1   
 29  15  18  ar  
 30  15  19  ar  
 31  16  20  1   
 32  16  21  1   
 33  16  36  1   
 34  17  22  1   
 35  17  37  1   
 36  17  38  1   
 37  18  23  ar  
 38  18  39  1   
 39  19  24  ar  
 40  19  40  1   
 41  20  21  1   
 42  20  41  1   
 43  20  42  1   
 44  21  43  1   
 45  21  44  1   
 46  22  45  1   
 47  22  46  1   
 48  22  47  1   
 49  23  25  ar  
 50  23  48  1   
 51  24  25  ar  
 52  24  49  1   
 53  25  50  1   
@<TRIPOS>SUBSTRUCTURE
  1 ****   3 GROUP 4 **** **** 0

# MOE 2024.06 (io_trps.svl 2023.06)
