@<TRIPOS>MOLECULE
NONAME
48 51 1 0 0 
SMALL
USER_CHARGES


@<TRIPOS>ATOM
  1 S       -0.2260    -0.5390     1.2140 S.3   1 <1>  -0.0800 
  2 C       -1.7560    -1.2390     0.7260 C.2   1 <1>  -0.1400 
  3 C       -1.0630     0.7060     2.1300 C.2   1 <1>  -0.1100 
  4 C       -2.7940    -0.5640     1.2410 C.2   1 <1>  -0.1810 
  5 C       -1.8290    -2.4550    -0.1650 C.3   1 <1>   0.0200 
  6 C       -2.3990     0.5550     2.0440 C.2   1 <1>  -0.1500 
  7 C       -4.2370    -0.9760     0.9870 C.3   1 <1>   0.3210 
  8 C       -3.2440    -2.5240    -0.7600 C.3   1 <1>   0.1400 
  9 N       -4.2900    -2.3140     0.3000 N.am  1 <1>  -0.6600 
 10 C       -5.1540    -3.2860     0.7500 C.2   1 <1>   0.5690 
 11 O       -5.8950    -3.0620     1.6820 O.2   1 <1>  -0.5700 
 12 C       -5.2020    -4.6750     0.0850 C.3   1 <1>   0.2610 
 13 O       -4.0230    -5.4000     0.3910 O.3   1 <1>  -0.5600 
 14 C       -6.4860    -5.4760     0.4510 C.3   1 <1>   0.3640 
 15 C       -3.9120    -6.6310    -0.2770 C.3   1 <1>   0.1810 
 16 N       -6.3470    -6.9550     0.2220 N.am  1 <1>  -0.6600 
 17 C       -7.6850    -4.9650    -0.3680 C.ar  1 <1>  -0.1440 
 18 C       -5.1450    -7.5190    -0.1110 C.2   1 <1>   0.5690 
 19 C       -7.5660    -7.7790     0.4710 C.3   1 <1>   0.0600 
 20 C       -8.8130    -4.3840     0.2160 C.ar  1 <1>  -0.1440 
 21 C       -7.6470    -5.1060    -1.7520 C.ar  1 <1>  -0.1500 
 22 O       -5.0170    -8.7050    -0.3070 O.2   1 <1>  -0.5700 
 23 C       -9.8450    -3.9300    -0.5920 C.ar  1 <1>  -0.1500 
 24 C       -8.9790    -4.2270     1.7230 C.3   1 <1>  -0.0970 
 25 C       -8.6820    -4.6540    -2.5480 C.ar  1 <1>  -0.1500 
 26 C       -9.7830    -4.0600    -1.9660 C.ar  1 <1>  -0.1500 
 27 H       -0.4560     1.4290     2.6450 H     1 <1>   0.1500 
 28 H       -1.1040    -2.3810    -0.9550 H     1 <1>   0.0800 
 29 H       -1.6260    -3.3400     0.4110 H     1 <1>   0.0800 
 30 H       -3.1300     1.1870     2.5170 H     1 <1>   0.1500 
 31 H       -4.7180    -0.2410     0.3670 H     1 <1>   0.0800 
 32 H       -4.7550    -1.0120     1.9300 H     1 <1>   0.0800 
 33 H       -3.3660    -3.4640    -1.2630 H     1 <1>   0.0800 
 34 H       -3.3490    -1.7440    -1.4950 H     1 <1>   0.0800 
 35 H       -5.2040    -4.5150    -0.9750 H     1 <1>   0.0800 
 36 H       -6.6660    -5.3420     1.5000 H     1 <1>   0.0800 
 37 H       -3.7450    -6.4420    -1.3210 H     1 <1>   0.0800 
 38 H       -3.0550    -7.1420     0.1230 H     1 <1>   0.0800 
 39 H       -7.9900    -7.5260     1.4270 H     1 <1>   0.0800 
 40 H       -7.3250    -8.8280     0.4700 H     1 <1>   0.0800 
 41 H       -8.2970    -7.5950    -0.2980 H     1 <1>   0.0800 
 42 H       -6.8060    -5.5820    -2.2260 H     1 <1>   0.1500 
 43 H      -10.7140    -3.4700    -0.1530 H     1 <1>   0.1500 
 44 H       -9.9940    -3.9750     1.9720 H     1 <1>   0.0800 
 45 H       -8.3450    -3.4400     2.0890 H     1 <1>   0.0800 
 46 H       -8.7380    -5.1420     2.2320 H     1 <1>   0.0800 
 47 H       -8.6340    -4.7690    -3.6170 H     1 <1>   0.1500 
 48 H      -10.5930    -3.7030    -2.5790 H     1 <1>   0.1500 
@<TRIPOS>BOND
  1   1   2  1   
  2   1   3  1   
  3   2   4  2   
  4   2   5  1   
  5   3   6  2   
  6   3  27  1   
  7   4   6  1   
  8   4   7  1   
  9   5   8  1   
 10   5  28  1   
 11   5  29  1   
 12   6  30  1   
 13   7   9  1   
 14   7  31  1   
 15   7  32  1   
 16   8   9  1   
 17   8  33  1   
 18   8  34  1   
 19   9  10  am  
 20  10  11  2   
 21  10  12  1   
 22  12  13  1   
 23  12  14  1   
 24  12  35  1   
 25  13  15  1   
 26  14  16  1   
 27  14  17  1   
 28  14  36  1   
 29  15  18  1   
 30  15  37  1   
 31  15  38  1   
 32  16  18  am  
 33  16  19  1   
 34  17  20  ar  
 35  17  21  ar  
 36  18  22  2   
 37  19  39  1   
 38  19  40  1   
 39  19  41  1   
 40  20  23  ar  
 41  20  24  1   
 42  21  25  ar  
 43  21  42  1   
 44  23  26  ar  
 45  23  43  1   
 46  24  44  1   
 47  24  45  1   
 48  24  46  1   
 49  25  26  ar  
 50  25  47  1   
 51  26  48  1   
@<TRIPOS>SUBSTRUCTURE
  1 ****  10 GROUP 4 **** **** 0

# MOE 2024.06 (io_trps.svl 2023.06)
