@<TRIPOS>MOLECULE
NONAME
41 43 1 0 0 
SMALL
USER_CHARGES


@<TRIPOS>ATOM
  1 O        0.1600    -0.2620     0.9660 O.2   1 <1>  -0.5700 
  2 C        1.1470    -0.8130     0.5200 C.2   1 <1>   0.5440 
  3 N        2.2100    -0.0700     0.0590 N.am  1 <1>  -0.4940 
  4 C        1.2120    -2.2580     0.4570 C.ar  1 <1>   0.0860 
  5 C        2.4510     1.3260     0.0520 C.2   1 <1>  -0.0880 
  6 C        0.0910    -3.0050     0.1220 C.ar  1 <1>  -0.1500 
  7 C        2.4140    -2.9500     0.7310 C.ar  1 <1>  -0.1500 
  8 N        1.5490     2.3280    -0.1560 N.pl3 1 <1>   0.3140 
  9 C        3.6530     1.9300     0.2210 C.2   1 <1>  -0.1810 
 10 C        0.1660    -4.3890     0.0360 C.ar  1 <1>   0.2270 
 11 C        2.5010    -4.3210     0.6530 C.ar  1 <1>  -0.1500 
 12 N        2.1460     3.5400    -0.1290 N.2   1 <1>  -0.7070 
 13 C        0.1220     2.2340    -0.4900 C.3   1 <1>   0.0160 
 14 C        3.3960     3.2930     0.1000 C.2   1 <1>   0.1080 
 15 C        5.0060     1.2930     0.4890 C.3   1 <1>  -0.0590 
 16 N       -0.8030    -5.2890    -0.2880 N.2   1 <1>  -0.5650 
 17 C        1.3580    -5.0370     0.2970 C.ar  1 <1>  -0.1520 
 18 C        4.4230     4.4060     0.2110 C.3   1 <1>   0.0210 
 19 C       -0.2160    -6.4310    -0.2210 C.2   1 <1>   0.0060 
 20 N        1.0940    -6.3550     0.1280 N.pl3 1 <1>   0.0330 
 21 C        5.0610     4.7090    -1.1480 C.3   1 <1>  -0.2400 
 22 C       -0.9060    -7.7500    -0.5000 C.3   1 <1>  -0.0600 
 23 H        2.9900    -0.6220    -0.2890 H     1 <1>   0.3700 
 24 H       -0.8510    -2.5290    -0.0790 H     1 <1>   0.1500 
 25 H        3.2830    -2.3860     1.0210 H     1 <1>   0.1500 
 26 H        3.4200    -4.8390     0.8640 H     1 <1>   0.1500 
 27 H       -0.0470     1.3620    -1.0900 H     1 <1>   0.0800 
 28 H       -0.1710     3.1110    -1.0340 H     1 <1>   0.0800 
 29 H       -0.4430     2.1670     0.4200 H     1 <1>   0.0800 
 30 H        4.9200     0.2250     0.5570 H     1 <1>   0.0800 
 31 H        5.4030     1.6620     1.4170 H     1 <1>   0.0800 
 32 H        5.6880     1.5360    -0.3050 H     1 <1>   0.0800 
 33 H        5.1810     4.1300     0.9210 H     1 <1>   0.0800 
 34 H        3.9320     5.2890     0.5810 H     1 <1>   0.0800 
 35 H        1.7470    -7.1320     0.2450 H     1 <1>   0.2700 
 36 H        5.5620     3.8380    -1.5280 H     1 <1>   0.0800 
 37 H        5.7710     5.5110    -1.0550 H     1 <1>   0.0800 
 38 H        4.2970     5.0000    -1.8480 H     1 <1>   0.0800 
 39 H       -1.9350    -7.5730    -0.7560 H     1 <1>   0.0800 
 40 H       -0.8710    -8.3780     0.3710 H     1 <1>   0.0800 
 41 H       -0.4280    -8.2500    -1.3230 H     1 <1>   0.0800 
@<TRIPOS>BOND
  1   1   2  2   
  2   2   3  am  
  3   2   4  1   
  4   3   5  1   
  5   3  23  1   
  6   4   6  ar  
  7   4   7  ar  
  8   5   8  1   
  9   5   9  2   
 10   6  10  ar  
 11   6  24  1   
 12   7  11  ar  
 13   7  25  1   
 14   8  12  1   
 15   8  13  1   
 16   9  14  1   
 17   9  15  1   
 18  10  16  1   
 19  10  17  ar  
 20  11  17  ar  
 21  11  26  1   
 22  12  14  2   
 23  13  27  1   
 24  13  28  1   
 25  13  29  1   
 26  14  18  1   
 27  15  30  1   
 28  15  31  1   
 29  15  32  1   
 30  16  19  2   
 31  17  20  1   
 32  18  21  1   
 33  18  33  1   
 34  18  34  1   
 35  19  20  1   
 36  19  22  1   
 37  20  35  1   
 38  21  36  1   
 39  21  37  1   
 40  21  38  1   
 41  22  39  1   
 42  22  40  1   
 43  22  41  1   
@<TRIPOS>SUBSTRUCTURE
  1 ****   2 GROUP 4 **** **** 0

# MOE 2024.06 (io_trps.svl 2023.06)
