@<TRIPOS>MOLECULE
NONAME
41 42 1 0 0 
SMALL
USER_CHARGES


@<TRIPOS>ATOM
  1 O        0.2500     1.1170    -0.1330 O.2   1 <1>  -0.5700 
  2 C        0.0890     2.3110    -0.1250 C.2   1 <1>   0.5690 
  3 N       -0.8390     2.8780     0.6740 N.am  1 <1>  -0.7300 
  4 C        0.9100     3.2050    -1.0540 C.3   1 <1>   0.1810 
  5 C       -1.1480     4.3310     0.6870 C.3   1 <1>   0.3640 
  6 O        0.9380     4.5470    -0.6240 O.3   1 <1>  -0.5600 
  7 C       -2.6530     4.4870     0.4650 C.ar  1 <1>  -0.1440 
  8 C       -0.3390     5.1270    -0.3780 C.3   1 <1>   0.2610 
  9 C       -3.3090     3.7940    -0.5460 C.ar  1 <1>  -0.1500 
 10 C       -3.3890     5.3360     1.2790 C.ar  1 <1>  -0.1500 
 11 C       -0.1640     6.6000     0.0180 C.2   1 <1>   0.5690 
 12 C       -4.6710     3.9460    -0.7360 C.ar  1 <1>  -0.1500 
 13 C       -4.7510     5.4890     1.0910 C.ar  1 <1>  -0.1500 
 14 O       -0.8230     7.0870     0.9090 O.2   1 <1>  -0.5700 
 15 N        0.7620     7.3380    -0.6490 N.am  1 <1>  -0.7300 
 16 C       -5.3940     4.7940     0.0830 C.ar  1 <1>  -0.1500 
 17 C        1.1720     8.7320    -0.3360 C.3   1 <1>   0.1400 
 18 C        2.6920     8.8320    -0.0700 C.3   1 <1>   0.2800 
 19 O        3.3670     8.2690    -1.1330 O.3   1 <1>  -0.6800 
 20 C        3.1120     8.0540     1.1790 C.3   1 <1>  -0.2400 
 21 C        3.1470    10.2880     0.0190 C.3   1 <1>  -0.2400 
 22 H       -1.4210     2.2770     1.2590 H     1 <1>   0.3700 
 23 H        0.4990     3.1710    -2.0460 H     1 <1>   0.0800 
 24 H        1.9240     2.8500    -1.0840 H     1 <1>   0.0800 
 25 H       -0.8950     4.7060     1.6640 H     1 <1>   0.0800 
 26 H       -0.8790     5.1090    -1.3070 H     1 <1>   0.0800 
 27 H       -2.7650     3.1260    -1.1920 H     1 <1>   0.1500 
 28 H       -2.9040     5.8920     2.0650 H     1 <1>   0.1500 
 29 H       -5.1700     3.4030    -1.5210 H     1 <1>   0.1500 
 30 H       -5.3100     6.1520     1.7280 H     1 <1>   0.1500 
 31 H        1.4330     6.8520    -1.2550 H     1 <1>   0.3700 
 32 H       -6.4530     4.9130    -0.0640 H     1 <1>   0.1500 
 33 H        0.9160     9.3630    -1.1690 H     1 <1>   0.0800 
 34 H        0.6320     9.0880     0.5240 H     1 <1>   0.0800 
 35 H        4.3250     8.2960    -0.9560 H     1 <1>   0.4000 
 36 H        2.5890     8.4360     2.0380 H     1 <1>   0.0800 
 37 H        4.1670     8.1490     1.3570 H     1 <1>   0.0800 
 38 H        2.8620     7.0130     1.0760 H     1 <1>   0.0800 
 39 H        2.6460    10.7780     0.8350 H     1 <1>   0.0800 
 40 H        2.9030    10.8110    -0.8890 H     1 <1>   0.0800 
 41 H        4.2060    10.3500     0.1880 H     1 <1>   0.0800 
@<TRIPOS>BOND
  1   1   2  2   
  2   2   3  am  
  3   2   4  1   
  4   3   5  1   
  5   3  22  1   
  6   4   6  1   
  7   4  23  1   
  8   4  24  1   
  9   5   7  1   
 10   5   8  1   
 11   5  25  1   
 12   6   8  1   
 13   7   9  ar  
 14   7  10  ar  
 15   8  11  1   
 16   8  26  1   
 17   9  12  ar  
 18   9  27  1   
 19  10  13  ar  
 20  10  28  1   
 21  11  14  2   
 22  11  15  am  
 23  12  16  ar  
 24  12  29  1   
 25  13  16  ar  
 26  13  30  1   
 27  15  17  1   
 28  15  31  1   
 29  16  32  1   
 30  17  18  1   
 31  17  33  1   
 32  17  34  1   
 33  18  19  1   
 34  18  20  1   
 35  18  21  1   
 36  19  35  1   
 37  20  36  1   
 38  20  37  1   
 39  20  38  1   
 40  21  39  1   
 41  21  40  1   
 42  21  41  1   
@<TRIPOS>SUBSTRUCTURE
  1 ****   8 GROUP 4 **** **** 0

# MOE 2024.06 (io_trps.svl 2023.06)
