@<TRIPOS>MOLECULE
NONAME
46 48 1 0 0 
SMALL
USER_CHARGES


@<TRIPOS>ATOM
  1 O       -0.7840    -0.3520    -0.1770 O.2   1 <1>  -0.5700 
  2 C       -1.6330     0.4870    -0.0280 C.2   1 <1>   0.5690 
  3 N       -2.6720     0.2990     0.8190 N.am  1 <1>  -0.5470 
  4 C       -1.5660     1.7910    -0.7880 C.3   1 <1>  -0.0990 
  5 C       -3.6490     1.2570     1.0940 C.ar  1 <1>   0.1170 
  6 C       -2.0770     2.9480     0.0920 C.3   1 <1>   0.1250 
  7 C       -3.4290     2.5860     0.7310 C.ar  1 <1>  -0.1430 
  8 C       -4.8360     0.8930     1.7160 C.ar  1 <1>  -0.1500 
  9 C       -2.0790     4.2760    -0.6680 C.2   1 <1>   0.5690 
 10 C       -4.4180     3.5280     0.9840 C.ar  1 <1>  -0.1500 
 11 C       -5.8110     1.8400     1.9670 C.ar  1 <1>  -0.1500 
 12 O       -2.3460     4.2820    -1.8470 O.2   1 <1>  -0.5700 
 13 N       -1.7640     5.4070     0.0310 N.am  1 <1>  -0.4930 
 14 C       -5.6020     3.1560     1.5980 C.ar  1 <1>  -0.1500 
 15 C       -1.6620     6.7490    -0.4140 C.2   1 <1>   0.0630 
 16 C       -2.4720     7.4730    -1.2950 C.2   1 <1>   0.1080 
 17 C       -0.7190     7.6300    -0.0110 C.2   1 <1>  -0.3320 
 18 N       -2.0700     8.6980    -1.4320 N.2   1 <1>  -0.7070 
 19 C       -3.6960     6.9670    -2.0260 C.3   1 <1>  -0.0590 
 20 N       -0.9870     8.8010    -0.6450 N.pl3 1 <1>   0.3140 
 21 C        0.4470     7.4270     0.9470 C.3   1 <1>  -0.0600 
 22 C       -0.2420    10.0740    -0.5500 C.3   1 <1>   0.0960 
 23 C       -0.7630    10.9310     0.6130 C.3   1 <1>  -0.1600 
 24 C        0.0120    12.2480     0.7280 C.3   1 <1>  -0.2400 
 25 H       -2.7240    -0.6210     1.2540 H     1 <1>   0.3700 
 26 H       -2.1790     1.6960    -1.6660 H     1 <1>   0.0800 
 27 H       -0.5550     1.9770    -1.1000 H     1 <1>   0.0800 
 28 H       -1.3760     3.0480     0.9010 H     1 <1>   0.0800 
 29 H       -5.0010    -0.1310     1.9980 H     1 <1>   0.1500 
 30 H       -4.2930     4.5620     0.7120 H     1 <1>   0.1500 
 31 H       -6.7320     1.5540     2.4470 H     1 <1>   0.1500 
 32 H       -1.5140     5.2890     1.0090 H     1 <1>   0.3700 
 33 H       -6.3640     3.8940     1.7880 H     1 <1>   0.1500 
 34 H       -4.2180     6.2460    -1.4260 H     1 <1>   0.0800 
 35 H       -3.3950     6.5090    -2.9500 H     1 <1>   0.0800 
 36 H       -4.3570     7.7860    -2.2410 H     1 <1>   0.0800 
 37 H        0.4770     6.4140     1.3030 H     1 <1>   0.0800 
 38 H        0.3530     8.0840     1.7930 H     1 <1>   0.0800 
 39 H        1.3760     7.6320     0.4460 H     1 <1>   0.0800 
 40 H       -0.3680    10.6010    -1.4780 H     1 <1>   0.0800 
 41 H        0.8010     9.8560    -0.4210 H     1 <1>   0.0800 
 42 H       -0.6720    10.3840     1.5350 H     1 <1>   0.0800 
 43 H       -1.8060    11.1470     0.4470 H     1 <1>   0.0800 
 44 H        1.0560    12.0600     0.9100 H     1 <1>   0.0800 
 45 H       -0.3760    12.8320     1.5440 H     1 <1>   0.0800 
 46 H       -0.0850    12.8220    -0.1770 H     1 <1>   0.0800 
@<TRIPOS>BOND
  1   1   2  2   
  2   2   3  am  
  3   2   4  1   
  4   3   5  1   
  5   3  25  1   
  6   4   6  1   
  7   4  26  1   
  8   4  27  1   
  9   5   7  ar  
 10   5   8  ar  
 11   6   7  1   
 12   6   9  1   
 13   6  28  1   
 14   7  10  ar  
 15   8  11  ar  
 16   8  29  1   
 17   9  12  2   
 18   9  13  am  
 19  10  14  ar  
 20  10  30  1   
 21  11  14  ar  
 22  11  31  1   
 23  13  15  1   
 24  13  32  1   
 25  14  33  1   
 26  15  16  1   
 27  15  17  2   
 28  16  18  2   
 29  16  19  1   
 30  17  20  1   
 31  17  21  1   
 32  18  20  1   
 33  19  34  1   
 34  19  35  1   
 35  19  36  1   
 36  20  22  1   
 37  21  37  1   
 38  21  38  1   
 39  21  39  1   
 40  22  23  1   
 41  22  40  1   
 42  22  41  1   
 43  23  24  1   
 44  23  42  1   
 45  23  43  1   
 46  24  44  1   
 47  24  45  1   
 48  24  46  1   
@<TRIPOS>SUBSTRUCTURE
  1 ****  13 GROUP 4 **** **** 0

# MOE 2024.06 (io_trps.svl 2023.06)
