@<TRIPOS>MOLECULE
NONAME
49 52 1 0 0 
SMALL
USER_CHARGES


@<TRIPOS>ATOM
  1 O       -0.3350     0.8380    -1.3410 O.2   1 <1>  -0.5700 
  2 C       -0.2760     1.9830    -0.9540 C.2   1 <1>   0.5690 
  3 N       -1.3270     2.6180    -0.3430 N.am  1 <1>  -0.5090 
  4 C        1.0270     2.7450    -1.2030 C.3   1 <1>   0.1810 
  5 C       -1.2780     4.0810    -0.0280 C.3   1 <1>   0.3640 
  6 C       -2.5610     1.9020     0.0690 C.3   1 <1>   0.0490 
  7 O        1.1200     3.9480    -0.4780 O.3   1 <1>  -0.5600 
  8 C       -2.5200     4.7870    -0.5740 C.ar  1 <1>  -0.1440 
  9 C       -0.0170     4.7780    -0.5940 C.3   1 <1>   0.2610 
 10 C       -2.9720     1.9390     1.5090 C.3   1 <1>  -0.2000 
 11 C       -2.4500     0.6710     0.9130 C.3   1 <1>  -0.2000 
 12 C       -3.1920     5.7070     0.2180 C.ar  1 <1>   0.1600 
 13 C       -2.9930     4.5470    -1.8530 C.ar  1 <1>  -0.1500 
 14 C        0.2190     6.1410     0.0810 C.2   1 <1>   0.5690 
 15 N       -4.2650     6.3870    -0.1530 N.ar  1 <1>  -0.6200 
 16 C       -4.1110     5.2450    -2.2520 C.ar  1 <1>  -0.1500 
 17 O       -0.2190     6.3130     1.1980 O.2   1 <1>  -0.5700 
 18 N        0.8840     7.1510    -0.5760 N.am  1 <1>  -0.6600 
 19 C       -4.7010     6.1390    -1.3760 C.ar  1 <1>   0.1600 
 20 C        0.9630     8.5150     0.0220 C.3   1 <1>   0.2840 
 21 C        1.6520     6.9740    -1.8440 C.3   1 <1>   0.0600 
 22 C        2.3680     8.7860     0.5340 C.ar  1 <1>  -0.1440 
 23 C        3.1440     9.7890    -0.0270 C.ar  1 <1>   0.1600 
 24 C        2.8970     8.0360     1.5660 C.ar  1 <1>  -0.1500 
 25 N        4.3770    10.0940     0.3460 N.ar  1 <1>  -0.6200 
 26 C        4.1790     8.3410     1.9700 C.ar  1 <1>  -0.1500 
 27 C        4.8640     9.3630     1.3360 C.ar  1 <1>   0.1600 
 28 H        1.1140     2.9710    -2.2500 H     1 <1>   0.0800 
 29 H        1.8570     2.1270    -0.9140 H     1 <1>   0.0800 
 30 H       -1.2670     4.1680     1.0440 H     1 <1>   0.0800 
 31 H       -3.3280     1.9270    -0.6870 H     1 <1>   0.1000 
 32 H       -0.1760     4.9570    -1.6410 H     1 <1>   0.0800 
 33 H       -2.3560     2.4370     2.2370 H     1 <1>   0.1000 
 34 H       -4.0200     1.9960     1.7450 H     1 <1>   0.1000 
 35 H       -3.1380    -0.1350     0.7330 H     1 <1>   0.1000 
 36 H       -1.4690     0.3240     1.1860 H     1 <1>   0.1000 
 37 H       -2.8260     5.9040     1.2140 H     1 <1>   0.1500 
 38 H       -2.5190     3.8400    -2.5140 H     1 <1>   0.1500 
 39 H       -4.5280     5.0980    -3.2320 H     1 <1>   0.1500 
 40 H       -5.5760     6.6780    -1.6980 H     1 <1>   0.1500 
 41 H        0.6890     9.2410    -0.7230 H     1 <1>   0.0800 
 42 H        0.2670     8.6150     0.8380 H     1 <1>   0.0800 
 43 H        2.6150     7.4490    -1.7610 H     1 <1>   0.0800 
 44 H        1.1130     7.4200    -2.6610 H     1 <1>   0.0800 
 45 H        1.8220     5.9350    -2.0560 H     1 <1>   0.0800 
 46 H        2.7330    10.3770    -0.8290 H     1 <1>   0.1500 
 47 H        2.3310     7.2460     2.0320 H     1 <1>   0.1500 
 48 H        4.6440     7.7920     2.7680 H     1 <1>   0.1500 
 49 H        5.8650     9.5910     1.6600 H     1 <1>   0.1500 
@<TRIPOS>BOND
  1   1   2  2   
  2   2   3  am  
  3   2   4  1   
  4   3   5  1   
  5   3   6  1   
  6   4   7  1   
  7   4  28  1   
  8   4  29  1   
  9   5   8  1   
 10   5   9  1   
 11   5  30  1   
 12   6  10  1   
 13   6  11  1   
 14   6  31  1   
 15   7   9  1   
 16   8  12  ar  
 17   8  13  ar  
 18   9  14  1   
 19   9  32  1   
 20  10  11  1   
 21  10  33  1   
 22  10  34  1   
 23  11  35  1   
 24  11  36  1   
 25  12  15  ar  
 26  12  37  1   
 27  13  16  ar  
 28  13  38  1   
 29  14  17  2   
 30  14  18  am  
 31  15  19  ar  
 32  16  19  ar  
 33  16  39  1   
 34  18  20  1   
 35  18  21  1   
 36  19  40  1   
 37  20  22  1   
 38  20  41  1   
 39  20  42  1   
 40  21  43  1   
 41  21  44  1   
 42  21  45  1   
 43  22  23  ar  
 44  22  24  ar  
 45  23  25  ar  
 46  23  46  1   
 47  24  26  ar  
 48  24  47  1   
 49  25  27  ar  
 50  26  27  ar  
 51  26  48  1   
 52  27  49  1   
@<TRIPOS>SUBSTRUCTURE
  1 ****  14 GROUP 4 **** **** 0

# MOE 2024.06 (io_trps.svl 2023.06)
