@<TRIPOS>MOLECULE
NONAME
48 51 1 0 0 
SMALL
USER_CHARGES


@<TRIPOS>ATOM
  1 O       -0.3170     1.2270     1.0420 O.2   1 <1>  -0.5700 
  2 C       -0.0860     2.3880     0.7320 C.2   1 <1>   0.7160 
  3 N       -1.1750     3.2220     0.5230 N.am  1 <1>  -0.6600 
  4 C        1.3070     2.8140     0.5810 C.2   1 <1>   0.2030 
  5 C       -2.5470     2.8700     1.0040 C.3   1 <1>   0.1400 
  6 C       -1.1090     4.5080    -0.2220 C.3   1 <1>   0.1400 
  7 N        1.8110     4.0290     0.7670 N.2   1 <1>  -0.7070 
  8 C        2.3430     1.9380     0.2210 C.2   1 <1>  -0.1810 
  9 C       -3.5450     2.7820    -0.1760 C.3   1 <1>   0.0000 
 10 C       -2.0930     4.4840    -1.3990 C.3   1 <1>  -0.1600 
 11 N        3.1280     3.9220     0.5310 N.pl3 1 <1>   0.3000 
 12 C        3.4670     2.6640     0.2050 C.2   1 <1>  -0.3320 
 13 C        2.3180     0.4520    -0.1040 C.3   1 <1>   0.3010 
 14 C       -4.9630     2.4420     0.3160 C.3   1 <1>   0.2000 
 15 C       -3.5190     4.1110    -0.9610 C.3   1 <1>  -0.1600 
 16 C       -3.2260     1.5670    -1.0650 C.3   1 <1>  -0.1600 
 17 C        4.8140     2.0650    -0.1410 C.3   1 <1>   0.0200 
 18 O        3.5290     0.0870    -0.7280 O.3   1 <1>  -0.5600 
 19 O       -5.2710     3.1180     1.4990 O.3   1 <1>  -0.5600 
 20 C       -4.9810     0.9230     0.5210 C.3   1 <1>  -0.1600 
 21 C       -3.8500     0.3630    -0.3530 C.3   1 <1>  -0.1600 
 22 C        4.6960     0.5270    -0.0800 C.3   1 <1>   0.1200 
 23 C       -6.6200     3.1140     1.8440 C.3   1 <1>   0.0400 
 24 H       -2.5340     1.9430     1.5500 H     1 <1>   0.0800 
 25 H       -2.8670     3.6360     1.6890 H     1 <1>   0.0800 
 26 H       -1.3550     5.3120     0.4500 H     1 <1>   0.0800 
 27 H       -0.1220     4.6840    -0.6080 H     1 <1>   0.0800 
 28 H       -2.1040     5.4530    -1.8650 H     1 <1>   0.0800 
 29 H       -1.7380     3.7790    -2.1290 H     1 <1>   0.0800 
 30 H        3.7700     4.7210     0.6030 H     1 <1>   0.2700 
 31 H        1.5150     0.2230    -0.7820 H     1 <1>   0.0800 
 32 H        2.2010    -0.1300     0.7930 H     1 <1>   0.0800 
 33 H       -5.6750     2.7180    -0.4440 H     1 <1>   0.0800 
 34 H       -4.1570     4.0470    -1.8240 H     1 <1>   0.0800 
 35 H       -3.9030     4.8920    -0.3270 H     1 <1>   0.0800 
 36 H       -3.6980     1.6860    -2.0240 H     1 <1>   0.0800 
 37 H       -2.1700     1.4280    -1.2200 H     1 <1>   0.0800 
 38 H        5.5670     2.3930     0.5520 H     1 <1>   0.0800 
 39 H        5.1040     2.3630    -1.1320 H     1 <1>   0.0800 
 40 H       -4.7880     0.6840     1.5520 H     1 <1>   0.0800 
 41 H       -5.9310     0.5150     0.2250 H     1 <1>   0.0800 
 42 H       -3.1100    -0.1070     0.2740 H     1 <1>   0.0800 
 43 H       -4.2130    -0.3610    -1.0620 H     1 <1>   0.0800 
 44 H        4.6570     0.1910     0.9420 H     1 <1>   0.0800 
 45 H        5.5380     0.0660    -0.5670 H     1 <1>   0.0800 
 46 H       -6.7330     3.6770     2.7540 H     1 <1>   0.0800 
 47 H       -6.9480     2.1020     2.0040 H     1 <1>   0.0800 
 48 H       -7.1900     3.5790     1.0580 H     1 <1>   0.0800 
@<TRIPOS>BOND
  1   1   2  2   
  2   2   3  am  
  3   2   4  1   
  4   3   5  1   
  5   3   6  1   
  6   4   7  2   
  7   4   8  1   
  8   5   9  1   
  9   5  24  1   
 10   5  25  1   
 11   6  10  1   
 12   6  26  1   
 13   6  27  1   
 14   7  11  1   
 15   8  12  2   
 16   8  13  1   
 17   9  14  1   
 18   9  15  1   
 19   9  16  1   
 20  10  15  1   
 21  10  28  1   
 22  10  29  1   
 23  11  12  1   
 24  11  30  1   
 25  12  17  1   
 26  13  18  1   
 27  13  31  1   
 28  13  32  1   
 29  14  19  1   
 30  14  20  1   
 31  14  33  1   
 32  15  34  1   
 33  15  35  1   
 34  16  21  1   
 35  16  36  1   
 36  16  37  1   
 37  17  22  1   
 38  17  38  1   
 39  17  39  1   
 40  18  22  1   
 41  19  23  1   
 42  20  21  1   
 43  20  40  1   
 44  20  41  1   
 45  21  42  1   
 46  21  43  1   
 47  22  44  1   
 48  22  45  1   
 49  23  46  1   
 50  23  47  1   
 51  23  48  1   
@<TRIPOS>SUBSTRUCTURE
  1 ****   2 GROUP 4 **** **** 0

# MOE 2024.06 (io_trps.svl 2023.06)
