@<TRIPOS>MOLECULE
NONAME
47 48 1 0 0 
SMALL
USER_CHARGES


@<TRIPOS>ATOM
  1 S        0.6760     0.8140     0.8220 S.o2  1 <1>   1.3330 
  2 O       -0.0160    -0.0760    -0.0840 O.2   1 <1>  -0.6500 
  3 O       -0.0720     1.5470     1.8170 O.2   1 <1>  -0.6500 
  4 N        1.8510    -0.0960     1.6450 N.am  1 <1>  -0.8490 
  5 C        1.6340     1.9690    -0.1610 C.3   1 <1>  -0.0550 
  6 C        2.4220     0.6060     2.8010 C.3   1 <1>   0.1160 
  7 C        1.3360    -1.4010     2.0670 C.3   1 <1>   0.1160 
  8 C        2.4200     1.3220    -1.3230 C.3   1 <1>  -0.0800 
  9 C        3.1180     2.3100    -2.2450 C.3   1 <1>   0.2200 
 10 C        3.5640     0.3930    -0.8980 C.3   1 <1>   0.1200 
 11 N        3.7810     3.3670    -1.4520 N.am  1 <1>  -0.7300 
 12 C        4.1870     1.4150    -2.8550 C.3   1 <1>   0.1200 
 13 O        4.6070     0.5910    -1.8100 O.3   1 <1>  -0.5600 
 14 C        3.3470     4.6410    -1.2910 C.2   1 <1>   0.5690 
 15 O        2.3730     5.0560    -1.8690 O.2   1 <1>  -0.5700 
 16 C        4.0930     5.5540    -0.3330 C.3   1 <1>   0.0440 
 17 C        4.7330     4.7700     0.8170 C.ar  1 <1>  -0.1440 
 18 C        6.0410     4.2830     0.7610 C.ar  1 <1>  -0.1440 
 19 C        3.9600     4.5210     1.9430 C.ar  1 <1>  -0.1500 
 20 C        6.5570     3.5550     1.8260 C.ar  1 <1>  -0.1500 
 21 C        6.9430     4.5270    -0.4430 C.3   1 <1>  -0.0970 
 22 C        4.5010     3.7950     2.9840 C.ar  1 <1>   0.1900 
 23 C        5.7890     3.3040     2.9490 C.ar  1 <1>  -0.1500 
 24 F        3.7640     3.5550     4.0360 F     1 <1>  -0.1900 
 25 H        0.9600     2.6910    -0.5820 H     1 <1>   0.0800 
 26 H        2.3060     2.5010     0.4820 H     1 <1>   0.0800 
 27 H        3.2110     0.0190     3.2390 H     1 <1>   0.0800 
 28 H        1.6650     0.7860     3.5480 H     1 <1>   0.0800 
 29 H        2.8340     1.5500     2.4950 H     1 <1>   0.0800 
 30 H        2.1040    -1.9610     2.5720 H     1 <1>   0.0800 
 31 H        1.0170    -1.9670     1.2080 H     1 <1>   0.0800 
 32 H        0.4940    -1.2760     2.7290 H     1 <1>   0.0800 
 33 H        1.7340     0.7430    -1.9170 H     1 <1>   0.0800 
 34 H        2.4610     2.7380    -2.9850 H     1 <1>   0.0800 
 35 H        3.2690    -0.6420    -0.9190 H     1 <1>   0.0800 
 36 H        3.9410     0.6430     0.0790 H     1 <1>   0.0800 
 37 H        4.5740     3.0360    -0.8920 H     1 <1>   0.3700 
 38 H        5.0240     1.9680    -3.2430 H     1 <1>   0.0800 
 39 H        3.7690     0.7880    -3.6240 H     1 <1>   0.0800 
 40 H        4.8260     6.1090    -0.8850 H     1 <1>   0.0800 
 41 H        3.3950     6.2680     0.0650 H     1 <1>   0.0800 
 42 H        2.9490     4.8800     2.0210 H     1 <1>   0.1500 
 43 H        7.5650     3.1780     1.7900 H     1 <1>   0.1500 
 44 H        7.8550     3.9620    -0.3630 H     1 <1>   0.0800 
 45 H        7.2000     5.5700    -0.5020 H     1 <1>   0.0800 
 46 H        6.4550     4.2350    -1.3550 H     1 <1>   0.0800 
 47 H        6.1790     2.7430     3.7790 H     1 <1>   0.1500 
@<TRIPOS>BOND
  1   1   2  2   
  2   1   3  2   
  3   1   4  am  
  4   1   5  1   
  5   4   6  1   
  6   4   7  1   
  7   5   8  1   
  8   5  25  1   
  9   5  26  1   
 10   6  27  1   
 11   6  28  1   
 12   6  29  1   
 13   7  30  1   
 14   7  31  1   
 15   7  32  1   
 16   8   9  1   
 17   8  10  1   
 18   8  33  1   
 19   9  11  1   
 20   9  12  1   
 21   9  34  1   
 22  10  13  1   
 23  10  35  1   
 24  10  36  1   
 25  11  14  am  
 26  11  37  1   
 27  12  13  1   
 28  12  38  1   
 29  12  39  1   
 30  14  15  2   
 31  14  16  1   
 32  16  17  1   
 33  16  40  1   
 34  16  41  1   
 35  17  18  ar  
 36  17  19  ar  
 37  18  20  ar  
 38  18  21  1   
 39  19  22  ar  
 40  19  42  1   
 41  20  23  ar  
 42  20  43  1   
 43  21  44  1   
 44  21  45  1   
 45  21  46  1   
 46  22  23  ar  
 47  22  24  1   
 48  23  47  1   
@<TRIPOS>SUBSTRUCTURE
  1 ****   5 GROUP 4 **** **** 0

# MOE 2024.06 (io_trps.svl 2023.06)
