@<TRIPOS>MOLECULE
NONAME
50 53 1 0 0 
SMALL
USER_CHARGES


@<TRIPOS>ATOM
  1 O       -0.1710     0.3330    -1.1720 O.2   1 <1>  -0.5700 
  2 C       -1.1160     0.9860    -0.7980 C.2   1 <1>   0.5690 
  3 N       -2.2620     0.3880    -0.3590 N.am  1 <1>  -0.6600 
  4 C       -1.0240     2.5020    -0.8320 C.3   1 <1>  -0.0990 
  5 C       -3.5270     1.0620     0.0290 C.3   1 <1>   0.1400 
  6 C       -2.4070    -1.0860    -0.2890 C.3   1 <1>   0.1400 
  7 C        0.4070     3.0150    -1.0620 C.3   1 <1>   0.0200 
  8 C       -4.5500    -0.0690     0.1390 C.3   1 <1>   0.2000 
  9 C       -3.7350    -1.3260     0.4320 C.3   1 <1>  -0.0800 
 10 C        0.4490     4.5290    -1.0580 C.2   1 <1>   0.2980 
 11 O       -5.4600     0.1610     1.1580 O.3   1 <1>  -0.6800 
 12 C       -4.4440    -2.6180     0.0010 C.3   1 <1>   0.0200 
 13 O       -0.0770     5.1770    -2.0630 O.3   1 <1>  -0.0190 
 14 N        0.9520     5.2530    -0.1460 N.2   1 <1>  -0.5650 
 15 C       -3.5630    -3.8280     0.2440 C.2   1 <1>  -0.0400 
 16 N        0.1060     6.4240    -1.7660 N.2   1 <1>  -0.4100 
 17 C        0.7170     6.4760    -0.6340 C.2   1 <1>   0.4620 
 18 O       -3.1980    -4.1360     1.4600 O.3   1 <1>  -0.0190 
 19 C       -3.0210    -4.7270    -0.5900 C.2   1 <1>  -0.1500 
 20 C        1.1160     7.6900     0.0600 C.ar  1 <1>   0.0540 
 21 N       -2.4380    -5.1920     1.4840 N.2   1 <1>  -0.4100 
 22 C       -2.3140    -5.5700     0.2620 C.2   1 <1>   0.1080 
 23 C        1.7820     7.6490     1.2870 C.ar  1 <1>  -0.1500 
 24 C        0.8470     8.9520    -0.4740 C.ar  1 <1>  -0.1500 
 25 C       -1.5040    -6.7690    -0.1780 C.3   1 <1>  -0.0590 
 26 C        2.1600     8.8050     1.9470 C.ar  1 <1>  -0.1500 
 27 C        1.2220    10.1120     0.1790 C.ar  1 <1>  -0.1500 
 28 C        1.8800    10.0410     1.3930 C.ar  1 <1>  -0.1500 
 29 H       -1.6630     2.8620    -1.6170 H     1 <1>   0.0800 
 30 H       -1.3810     2.8910     0.1040 H     1 <1>   0.0800 
 31 H       -3.3910     1.5490     0.9790 H     1 <1>   0.0800 
 32 H       -3.8260     1.7740    -0.7210 H     1 <1>   0.0800 
 33 H       -2.4310    -1.4810    -1.2910 H     1 <1>   0.0800 
 34 H       -1.5820    -1.5280     0.2460 H     1 <1>   0.0800 
 35 H        0.7820     2.6580    -2.0050 H     1 <1>   0.0800 
 36 H        1.0510     2.6430    -0.2850 H     1 <1>   0.0800 
 37 H       -5.0920    -0.1580    -0.7870 H     1 <1>   0.0800 
 38 H       -3.5160    -1.3750     1.4850 H     1 <1>   0.0800 
 39 H       -5.0150     0.1420     2.0270 H     1 <1>   0.4000 
 40 H       -4.6970    -2.5700    -1.0430 H     1 <1>   0.0800 
 41 H       -5.3570    -2.7320     0.5600 H     1 <1>   0.0800 
 42 H       -3.0890    -4.8100    -1.6590 H     1 <1>   0.1500 
 43 H        2.0090     6.6960     1.7330 H     1 <1>   0.1500 
 44 H        0.3360     9.0260    -1.4190 H     1 <1>   0.1500 
 45 H       -2.1360    -7.4650    -0.6990 H     1 <1>   0.0800 
 46 H       -1.0790    -7.2590     0.6790 H     1 <1>   0.0800 
 47 H       -0.7100    -6.4530    -0.8290 H     1 <1>   0.0800 
 48 H        2.6720     8.7430     2.8910 H     1 <1>   0.1500 
 49 H        1.0010    11.0710    -0.2570 H     1 <1>   0.1500 
 50 H        2.1720    10.9420     1.9040 H     1 <1>   0.1500 
@<TRIPOS>BOND
  1   1   2  2   
  2   2   3  am  
  3   2   4  1   
  4   3   5  1   
  5   3   6  1   
  6   4   7  1   
  7   4  29  1   
  8   4  30  1   
  9   5   8  1   
 10   5  31  1   
 11   5  32  1   
 12   6   9  1   
 13   6  33  1   
 14   6  34  1   
 15   7  10  1   
 16   7  35  1   
 17   7  36  1   
 18   8   9  1   
 19   8  11  1   
 20   8  37  1   
 21   9  12  1   
 22   9  38  1   
 23  10  13  1   
 24  10  14  2   
 25  11  39  1   
 26  12  15  1   
 27  12  40  1   
 28  12  41  1   
 29  13  16  1   
 30  14  17  1   
 31  15  18  1   
 32  15  19  2   
 33  16  17  2   
 34  17  20  1   
 35  18  21  1   
 36  19  22  1   
 37  19  42  1   
 38  20  23  ar  
 39  20  24  ar  
 40  21  22  2   
 41  22  25  1   
 42  23  26  ar  
 43  23  43  1   
 44  24  27  ar  
 45  24  44  1   
 46  25  45  1   
 47  25  46  1   
 48  25  47  1   
 49  26  28  ar  
 50  26  48  1   
 51  27  28  ar  
 52  27  49  1   
 53  28  50  1   
@<TRIPOS>SUBSTRUCTURE
  1 ****   4 GROUP 4 **** **** 0

# MOE 2024.06 (io_trps.svl 2023.06)
