@<TRIPOS>MOLECULE
NONAME
52 54 1 0 0 
SMALL
USER_CHARGES


@<TRIPOS>ATOM
  1 O        0.4960     1.1020    -2.4440 O.2   1 <1>  -0.5700 
  2 C        0.2860     2.2540    -2.1380 C.2   1 <1>   0.5690 
  3 N       -0.9960     2.7430    -2.0300 N.am  1 <1>  -0.6600 
  4 C        1.5080     3.1340    -1.8780 C.3   1 <1>   0.1810 
  5 C       -2.1820     1.8510    -2.1050 C.3   1 <1>   0.1400 
  6 C       -1.3570     4.1340    -1.6550 C.3   1 <1>   0.1400 
  7 O        1.4730     3.7150    -0.5800 O.3   1 <1>  -0.3620 
  8 C       -2.8350     1.7940    -0.7210 C.3   1 <1>  -0.1600 
  9 C       -1.9790     4.1140    -0.2570 C.3   1 <1>  -0.1600 
 10 C        2.4920     3.4130     0.2510 C.ar  1 <1>   0.0820 
 11 C       -3.2130     3.1870    -0.1840 C.3   1 <1>   0.2800 
 12 C        2.5080     2.2230     0.9740 C.ar  1 <1>  -0.1440 
 13 C        3.5240     4.3300     0.3770 C.ar  1 <1>  -0.1500 
 14 O       -4.1810     3.6720    -1.0690 O.3   1 <1>  -0.5600 
 15 C       -3.7770     3.0490     1.2570 C.3   1 <1>  -0.1600 
 16 C        3.5860     1.9620     1.8060 C.ar  1 <1>  -0.1500 
 17 C        1.3790     1.2070     0.8790 C.3   1 <1>  -0.0970 
 18 C        4.5920     4.0590     1.2130 C.ar  1 <1>  -0.1500 
 19 C       -4.9210     4.8340    -0.7740 C.3   1 <1>   0.1200 
 20 C       -5.1650     3.6710     1.4840 C.3   1 <1>   0.2800 
 21 C        4.6230     2.8730     1.9260 C.ar  1 <1>  -0.1500 
 22 C       -5.2660     5.0100     0.7180 C.3   1 <1>   0.2000 
 23 O       -6.1200     2.8040     0.9870 O.3   1 <1>  -0.6800 
 24 C       -5.4800     3.8080     2.9770 C.3   1 <1>  -0.2400 
 25 O       -4.3940     5.9540     1.2700 O.3   1 <1>  -0.6800 
 26 H        1.5380     3.9310    -2.5960 H     1 <1>   0.0800 
 27 H        2.4020     2.5430    -1.9750 H     1 <1>   0.0800 
 28 H       -2.8780     2.2420    -2.8270 H     1 <1>   0.0800 
 29 H       -1.8980     0.8600    -2.4170 H     1 <1>   0.0800 
 30 H       -0.5000     4.7810    -1.6700 H     1 <1>   0.0800 
 31 H       -2.0700     4.5160    -2.3670 H     1 <1>   0.0800 
 32 H       -2.1450     1.3180    -0.0470 H     1 <1>   0.0800 
 33 H       -3.7170     1.1810    -0.7720 H     1 <1>   0.0800 
 34 H       -2.2330     5.1170     0.0230 H     1 <1>   0.0800 
 35 H       -1.2290     3.7700     0.4340 H     1 <1>   0.0800 
 36 H        3.4880     5.2480    -0.1790 H     1 <1>   0.1500 
 37 H       -3.8020     2.0170     1.5590 H     1 <1>   0.0800 
 38 H       -3.0840     3.5200     1.9290 H     1 <1>   0.0800 
 39 H        3.6240     1.0460     2.3690 H     1 <1>   0.1500 
 40 H        1.3390     0.5980     1.7630 H     1 <1>   0.0800 
 41 H        1.5340     0.5680     0.0280 H     1 <1>   0.0800 
 42 H        0.4320     1.7050     0.7720 H     1 <1>   0.0800 
 43 H        5.3960     4.7670     1.3100 H     1 <1>   0.1500 
 44 H       -4.3870     5.6880    -1.1500 H     1 <1>   0.0800 
 45 H       -5.8390     4.7440    -1.3260 H     1 <1>   0.0800 
 46 H        5.4530     2.6580     2.5750 H     1 <1>   0.1500 
 47 H       -6.2560     5.4160     0.8180 H     1 <1>   0.0800 
 48 H       -6.0360     1.9350     1.4200 H     1 <1>   0.4000 
 49 H       -4.7780     4.4730     3.4480 H     1 <1>   0.0800 
 50 H       -5.4230     2.8550     3.4710 H     1 <1>   0.0800 
 51 H       -6.4640     4.2200     3.1100 H     1 <1>   0.0800 
 52 H       -3.4790     5.6200     1.2260 H     1 <1>   0.4000 
@<TRIPOS>BOND
  1   1   2  2   
  2   2   3  am  
  3   2   4  1   
  4   3   5  1   
  5   3   6  1   
  6   4   7  1   
  7   4  26  1   
  8   4  27  1   
  9   5   8  1   
 10   5  28  1   
 11   5  29  1   
 12   6   9  1   
 13   6  30  1   
 14   6  31  1   
 15   7  10  1   
 16   8  11  1   
 17   8  32  1   
 18   8  33  1   
 19   9  11  1   
 20   9  34  1   
 21   9  35  1   
 22  10  12  ar  
 23  10  13  ar  
 24  11  14  1   
 25  11  15  1   
 26  12  16  ar  
 27  12  17  1   
 28  13  18  ar  
 29  13  36  1   
 30  14  19  1   
 31  15  20  1   
 32  15  37  1   
 33  15  38  1   
 34  16  21  ar  
 35  16  39  1   
 36  17  40  1   
 37  17  41  1   
 38  17  42  1   
 39  18  21  ar  
 40  18  43  1   
 41  19  22  1   
 42  19  44  1   
 43  19  45  1   
 44  20  22  1   
 45  20  23  1   
 46  20  24  1   
 47  21  46  1   
 48  22  25  1   
 49  22  47  1   
 50  23  48  1   
 51  24  49  1   
 52  24  50  1   
 53  24  51  1   
 54  25  52  1   
@<TRIPOS>SUBSTRUCTURE
  1 ****   9 GROUP 4 **** **** 0

# MOE 2024.06 (io_trps.svl 2023.06)
