@<TRIPOS>MOLECULE
NONAME
41 43 1 0 0 
SMALL
USER_CHARGES


@<TRIPOS>ATOM
  1 S       -2.0370    -1.5870     1.5890 S.3   1 <1>  -0.0800 
  2 C       -1.4760    -2.0680    -0.0060 C.2   1 <1>  -0.1400 
  3 C       -3.2410    -0.5190     0.8920 C.2   1 <1>  -0.1100 
  4 C       -2.1780    -1.4330    -0.9640 C.2   1 <1>  -0.1500 
  5 C       -0.3420    -3.0680    -0.0690 C.3   1 <1>   0.5230 
  6 C       -3.1840    -0.5530    -0.4520 C.2   1 <1>  -0.1500 
  7 N       -0.9050    -4.4140    -0.3320 N.4   1 <1>  -0.9590 
  8 C       -1.8170    -4.9310     0.7250 C.3   1 <1>   0.3430 
  9 C        0.0810    -5.4420    -0.7220 C.3   1 <1>   0.3430 
 10 C       -3.1070    -5.4280     0.0540 C.3   1 <1>   0.1100 
 11 C       -0.5210    -6.3120    -1.8260 C.3   1 <1>  -0.1600 
 12 N       -2.9140    -5.8410    -1.3700 N.3   1 <1>  -0.8100 
 13 C       -1.8970    -6.9100    -1.5110 C.3   1 <1>   0.1100 
 14 C       -4.2260    -6.3080    -1.9340 C.3   1 <1>   0.2900 
 15 C       -4.8350    -7.5710    -1.3050 C.2   1 <1>   0.2980 
 16 O       -5.9970    -7.9860    -1.7490 O.3   1 <1>  -0.2800 
 17 N       -4.3430    -8.2990    -0.3700 N.2   1 <1>  -0.5650 
 18 C       -6.2760    -9.0510    -1.0500 C.2   1 <1>  -0.0100 
 19 C       -5.2780    -9.2870    -0.1740 C.2   1 <1>  -0.0060 
 20 C       -5.2220   -10.3830     0.7930 C.2   1 <1>   1.0330 
 21 O       -6.1400   -11.2260     0.8150 O.co2 1 <1>  -0.9000 
 22 O       -4.2860   -10.4990     1.6090 O.co2 1 <1>  -0.9000 
 23 H       -3.8710     0.0310     1.5700 H     1 <1>   0.1500 
 24 H       -2.0430    -1.5350    -2.0280 H     1 <1>   0.1500 
 25 H        0.2130    -3.0610     0.8550 H     1 <1>   0.0800 
 26 H        0.3210    -2.7920    -0.8720 H     1 <1>   0.0800 
 27 H       -3.8160     0.0130    -1.1160 H     1 <1>   0.1500 
 28 H       -1.5540    -4.3540    -1.1410 H     1 <1>   0.4500 
 29 H       -2.0630    -4.1700     1.4450 H     1 <1>   0.0800 
 30 H       -1.3540    -5.7500     1.2520 H     1 <1>   0.0800 
 31 H        0.3380    -6.0510     0.1300 H     1 <1>   0.0800 
 32 H        0.9800    -4.9780    -1.0940 H     1 <1>   0.0800 
 33 H       -3.8280    -4.6290     0.0860 H     1 <1>   0.0800 
 34 H       -3.5020    -6.2320     0.6500 H     1 <1>   0.0800 
 35 H        0.1590    -7.1250    -2.0130 H     1 <1>   0.0800 
 36 H       -0.5850    -5.7470    -2.7390 H     1 <1>   0.0800 
 37 H       -1.8560    -7.5200    -0.6210 H     1 <1>   0.0800 
 38 H       -2.1650    -7.5640    -2.3260 H     1 <1>   0.0800 
 39 H       -4.1010    -6.4960    -2.9850 H     1 <1>   0.0800 
 40 H       -4.9460    -5.5150    -1.8410 H     1 <1>   0.0800 
 41 H       -7.1880    -9.5980    -1.2120 H     1 <1>   0.1500 
@<TRIPOS>BOND
  1   1   2  1   
  2   1   3  1   
  3   2   4  2   
  4   2   5  1   
  5   3   6  2   
  6   3  23  1   
  7   4   6  1   
  8   4  24  1   
  9   5   7  1   
 10   5  25  1   
 11   5  26  1   
 12   6  27  1   
 13   7   8  1   
 14   7   9  1   
 15   7  28  1   
 16   8  10  1   
 17   8  29  1   
 18   8  30  1   
 19   9  11  1   
 20   9  31  1   
 21   9  32  1   
 22  10  12  1   
 23  10  33  1   
 24  10  34  1   
 25  11  13  1   
 26  11  35  1   
 27  11  36  1   
 28  12  13  1   
 29  12  14  1   
 30  13  37  1   
 31  13  38  1   
 32  14  15  1   
 33  14  39  1   
 34  14  40  1   
 35  15  16  1   
 36  15  17  2   
 37  16  18  1   
 38  17  19  1   
 39  18  19  2   
 40  18  41  1   
 41  19  20  1   
 42  20  21  ar  
 43  20  22  ar  
@<TRIPOS>SUBSTRUCTURE
  1 ****  10 GROUP 4 **** **** 0

# MOE 2024.06 (io_trps.svl 2023.06)
