@<TRIPOS>MOLECULE
NONAME
53 54 1 0 0 
SMALL
USER_CHARGES


@<TRIPOS>ATOM
  1 S        0.1380     0.1780    -1.3950 S.o2  1 <1>   1.3330 
  2 O       -0.7930    -0.9080    -1.5970 O.2   1 <1>  -0.6500 
  3 O        0.7550     0.8120    -2.5370 O.2   1 <1>  -0.6500 
  4 N        1.3730    -0.3820    -0.3710 N.am  1 <1>  -0.8490 
  5 C       -0.6600     1.4540    -0.4180 C.3   1 <1>  -0.0550 
  6 C        2.5090    -0.9250    -1.1230 C.3   1 <1>   0.1160 
  7 C        0.9080    -1.3690     0.6100 C.3   1 <1>   0.1160 
  8 C        0.2910     2.5550     0.0890 C.3   1 <1>  -0.0800 
  9 C       -0.4140     3.5300     1.0260 C.3   1 <1>   0.2000 
 10 C        0.8720     3.4530    -1.0050 C.3   1 <1>   0.1400 
 11 O       -0.4390     3.0130     2.3110 O.3   1 <1>  -0.6800 
 12 C        0.3890     4.8280     0.9530 C.3   1 <1>   0.1400 
 13 N        1.1040     4.7620    -0.3460 N.am  1 <1>  -0.6600 
 14 C        1.7960     5.7700    -0.9720 C.2   1 <1>   0.5690 
 15 O        2.1410     5.6500    -2.1240 O.2   1 <1>  -0.5700 
 16 C        2.0980     7.0860    -0.2600 C.3   1 <1>   0.0440 
 17 C        3.5980     7.4130    -0.1710 C.ar  1 <1>  -0.1430 
 18 C        4.3820     6.8610     0.8440 C.ar  1 <1>  -0.1430 
 19 C        4.1960     8.2710    -1.0970 C.ar  1 <1>  -0.1430 
 20 C        5.7260     7.1850     0.9350 C.ar  1 <1>  -0.1500 
 21 C        3.8230     5.8860     1.8720 C.3   1 <1>  -0.0970 
 22 C        5.5420     8.5810    -0.9840 C.ar  1 <1>  -0.1500 
 23 C        3.4290     8.8900    -2.2600 C.3   1 <1>  -0.0970 
 24 C        6.3130     8.0480     0.0300 C.ar  1 <1>  -0.1430 
 25 C        7.7860     8.3940     0.1400 C.3   1 <1>  -0.0970 
 26 H       -1.4420     1.9010    -1.0000 H     1 <1>   0.0800 
 27 H       -1.1210     0.9910     0.4330 H     1 <1>   0.0800 
 28 H        3.2770    -1.2620    -0.4490 H     1 <1>   0.0800 
 29 H        2.9290    -0.1630    -1.7580 H     1 <1>   0.0800 
 30 H        2.1900    -1.7500    -1.7400 H     1 <1>   0.0800 
 31 H        1.7080    -1.6250     1.2840 H     1 <1>   0.0800 
 32 H        0.5680    -2.2630     0.1140 H     1 <1>   0.0800 
 33 H        0.0940    -0.9640     1.1880 H     1 <1>   0.0800 
 34 H        1.1230     2.1090     0.6050 H     1 <1>   0.0800 
 35 H       -1.4290     3.7140     0.7130 H     1 <1>   0.0800 
 36 H        0.1740     3.5870    -1.8150 H     1 <1>   0.0800 
 37 H        1.7940     3.0560    -1.4000 H     1 <1>   0.0800 
 38 H        0.4660     2.7930     2.6080 H     1 <1>   0.4000 
 39 H        1.1040     4.8770     1.7550 H     1 <1>   0.0800 
 40 H       -0.2660     5.6800     0.9810 H     1 <1>   0.0800 
 41 H        1.5740     7.8580    -0.7850 H     1 <1>   0.0800 
 42 H        1.6850     7.0870     0.7260 H     1 <1>   0.0800 
 43 H        6.3300     6.7600     1.7160 H     1 <1>   0.1500 
 44 H        4.5900     5.5620     2.5520 H     1 <1>   0.0800 
 45 H        3.4360     5.0170     1.3740 H     1 <1>   0.0800 
 46 H        3.0470     6.3550     2.4480 H     1 <1>   0.0800 
 47 H        6.0010     9.2440    -1.6950 H     1 <1>   0.1500 
 48 H        4.0920     9.3980    -2.9350 H     1 <1>   0.0800 
 49 H        2.7110     9.6000    -1.8940 H     1 <1>   0.0800 
 50 H        2.9210     8.1230    -2.8170 H     1 <1>   0.0800 
 51 H        8.1060     8.3560     1.1660 H     1 <1>   0.0800 
 52 H        7.9670     9.3860    -0.2340 H     1 <1>   0.0800 
 53 H        8.3660     7.6940    -0.4330 H     1 <1>   0.0800 
@<TRIPOS>BOND
  1   1   2  2   
  2   1   3  2   
  3   1   4  am  
  4   1   5  1   
  5   4   6  1   
  6   4   7  1   
  7   5   8  1   
  8   5  26  1   
  9   5  27  1   
 10   6  28  1   
 11   6  29  1   
 12   6  30  1   
 13   7  31  1   
 14   7  32  1   
 15   7  33  1   
 16   8   9  1   
 17   8  10  1   
 18   8  34  1   
 19   9  11  1   
 20   9  12  1   
 21   9  35  1   
 22  10  13  1   
 23  10  36  1   
 24  10  37  1   
 25  11  38  1   
 26  12  13  1   
 27  12  39  1   
 28  12  40  1   
 29  13  14  am  
 30  14  15  2   
 31  14  16  1   
 32  16  17  1   
 33  16  41  1   
 34  16  42  1   
 35  17  18  ar  
 36  17  19  ar  
 37  18  20  ar  
 38  18  21  1   
 39  19  22  ar  
 40  19  23  1   
 41  20  24  ar  
 42  20  43  1   
 43  21  44  1   
 44  21  45  1   
 45  21  46  1   
 46  22  24  ar  
 47  22  47  1   
 48  23  48  1   
 49  23  49  1   
 50  23  50  1   
 51  24  25  1   
 52  25  51  1   
 53  25  52  1   
 54  25  53  1   
@<TRIPOS>SUBSTRUCTURE
  1 ****  13 GROUP 4 **** **** 0

# MOE 2024.06 (io_trps.svl 2023.06)
