@<TRIPOS>MOLECULE
NONAME
50 53 1 0 0 
SMALL
USER_CHARGES


@<TRIPOS>ATOM
  1 O       -0.0130    -0.4790    -0.7600 O.2   1 <1>  -0.5700 
  2 C        1.0850    -1.0020    -0.7870 C.2   1 <1>   0.5440 
  3 N        2.2100    -0.2330    -0.5660 N.am  1 <1>  -0.6600 
  4 C        1.1720    -2.4230    -1.0470 C.ar  1 <1>   0.0860 
  5 C        3.5510    -0.7980    -0.2440 C.3   1 <1>   0.1400 
  6 C        2.1330     1.2520    -0.4510 C.3   1 <1>   0.1400 
  7 C        0.5580    -3.3580    -0.2360 C.ar  1 <1>  -0.1500 
  8 C        1.8720    -2.9460    -2.1260 C.ar  1 <1>  -0.1500 
  9 C        3.9580    -0.3840     1.1750 C.3   1 <1>  -0.1600 
 10 C        2.5240     1.6810     0.9660 C.3   1 <1>  -0.1600 
 11 C        0.6670    -4.7140    -0.5020 C.ar  1 <1>   0.4100 
 12 C        1.9280    -4.3120    -2.3130 C.ar  1 <1>   0.1600 
 13 C        3.9050     1.1390     1.3600 C.3   1 <1>  -0.1600 
 14 N        1.3510    -5.2020    -1.5280 N.ar  1 <1>  -0.6200 
 15 N        0.0520    -5.6090     0.3350 N.pl3 1 <1>  -0.8690 
 16 C       -0.3780    -6.9460    -0.1140 C.3   1 <1>   0.4330 
 17 C       -1.8620    -7.1150     0.2270 C.ar  1 <1>  -0.1430 
 18 C        0.5270    -7.9760     0.5710 C.3   1 <1>  -0.1600 
 19 C       -2.3400    -8.2360     0.9010 C.ar  1 <1>  -0.1430 
 20 C       -2.7600    -6.1310    -0.1700 C.ar  1 <1>  -0.1500 
 21 C       -0.1000    -9.3730     0.5570 C.3   1 <1>  -0.1600 
 22 C       -3.6930    -8.3440     1.1840 C.ar  1 <1>  -0.1500 
 23 C       -1.4130    -9.3610     1.3460 C.3   1 <1>  -0.0170 
 24 C       -4.1080    -6.2450     0.1130 C.ar  1 <1>  -0.1500 
 25 C       -4.5760    -7.3530     0.7940 C.ar  1 <1>  -0.1500 
 26 H        3.5480    -1.8710    -0.3070 H     1 <1>   0.0800 
 27 H        4.2680    -0.4220    -0.9530 H     1 <1>   0.0800 
 28 H        2.8070     1.6920    -1.1660 H     1 <1>   0.0800 
 29 H        1.1400     1.6030    -0.6750 H     1 <1>   0.0800 
 30 H       -0.0110    -3.0270     0.6110 H     1 <1>   0.1500 
 31 H        2.3640    -2.2810    -2.8110 H     1 <1>   0.1500 
 32 H        3.2920    -0.8560     1.8770 H     1 <1>   0.0800 
 33 H        4.9530    -0.7380     1.3780 H     1 <1>   0.0800 
 34 H        2.5250     2.7550     1.0250 H     1 <1>   0.0800 
 35 H        1.7790     1.3160     1.6530 H     1 <1>   0.0800 
 36 H        2.4780    -4.6970    -3.1560 H     1 <1>   0.1500 
 37 H        4.6580     1.6010     0.7450 H     1 <1>   0.0800 
 38 H        4.1150     1.3890     2.3860 H     1 <1>   0.0800 
 39 H       -0.6370    -5.2250     0.9820 H     1 <1>   0.4000 
 40 H       -0.2740    -7.0430    -1.1820 H     1 <1>   0.0800 
 41 H        1.4740    -7.9910     0.0620 H     1 <1>   0.0800 
 42 H        0.6950    -7.6800     1.5910 H     1 <1>   0.0800 
 43 H       -2.4090    -5.2680    -0.7110 H     1 <1>   0.1500 
 44 H       -0.2930    -9.6730    -0.4590 H     1 <1>   0.0800 
 45 H        0.5780   -10.0840     0.9950 H     1 <1>   0.0800 
 46 H       -4.0680    -9.2040     1.7100 H     1 <1>   0.1500 
 47 H       -1.1990    -9.2320     2.3930 H     1 <1>   0.0800 
 48 H       -1.9060   -10.3090     1.2240 H     1 <1>   0.0800 
 49 H       -4.7910    -5.4740    -0.1970 H     1 <1>   0.1500 
 50 H       -5.6240    -7.4450     1.0180 H     1 <1>   0.1500 
@<TRIPOS>BOND
  1   1   2  2   
  2   2   3  am  
  3   2   4  1   
  4   3   5  1   
  5   3   6  1   
  6   4   7  ar  
  7   4   8  ar  
  8   5   9  1   
  9   5  26  1   
 10   5  27  1   
 11   6  10  1   
 12   6  28  1   
 13   6  29  1   
 14   7  11  ar  
 15   7  30  1   
 16   8  12  ar  
 17   8  31  1   
 18   9  13  1   
 19   9  32  1   
 20   9  33  1   
 21  10  13  1   
 22  10  34  1   
 23  10  35  1   
 24  11  14  ar  
 25  11  15  1   
 26  12  14  ar  
 27  12  36  1   
 28  13  37  1   
 29  13  38  1   
 30  15  16  1   
 31  15  39  1   
 32  16  17  1   
 33  16  18  1   
 34  16  40  1   
 35  17  19  ar  
 36  17  20  ar  
 37  18  21  1   
 38  18  41  1   
 39  18  42  1   
 40  19  22  ar  
 41  19  23  1   
 42  20  24  ar  
 43  20  43  1   
 44  21  23  1   
 45  21  44  1   
 46  21  45  1   
 47  22  25  ar  
 48  22  46  1   
 49  23  47  1   
 50  23  48  1   
 51  24  25  ar  
 52  24  49  1   
 53  25  50  1   
@<TRIPOS>SUBSTRUCTURE
  1 ****  11 GROUP 4 **** **** 0

# MOE 2024.06 (io_trps.svl 2023.06)
