@<TRIPOS>MOLECULE
NONAME
44 46 1 0 0 
SMALL
USER_CHARGES


@<TRIPOS>ATOM
  1 O        1.6600    -0.6200     1.6510 O.2   1 <1>  -0.5700 
  2 C        1.1670    -1.4480     0.9070 C.2   1 <1>   0.5440 
  3 N        1.9770    -2.4460     0.4290 N.am  1 <1>  -0.6600 
  4 C       -0.2520    -1.4200     0.5860 C.ar  1 <1>   0.0860 
  5 C        3.3500    -2.1390    -0.1290 C.3   1 <1>   0.2810 
  6 C        1.8200    -3.7840     1.0570 C.3   1 <1>   0.1400 
  7 C       -1.1610    -0.7320     1.3920 C.ar  1 <1>  -0.1500 
  8 C       -0.7640    -2.0760    -0.5350 C.ar  1 <1>  -0.1500 
  9 C        3.4710    -0.7760    -0.8670 C.2   1 <1>   0.5690 
 10 C        3.8040    -3.2990    -1.0430 C.3   1 <1>  -0.1600 
 11 C        2.2510    -4.8950     0.1000 C.3   1 <1>  -0.1600 
 12 C       -2.5130    -0.7090     1.1020 C.ar  1 <1>  -0.1500 
 13 C       -2.1150    -2.0580    -0.8310 C.ar  1 <1>  -0.1500 
 14 O        3.5390    -0.7310    -2.0750 O.2   1 <1>  -0.5700 
 15 N        3.5260     0.3690    -0.1450 N.am  1 <1>  -0.7300 
 16 C        3.6880    -4.6760    -0.3790 C.3   1 <1>  -0.1600 
 17 C       -2.9930    -1.3750    -0.0110 C.ar  1 <1>  -0.1500 
 18 C        3.6440     1.7330    -0.7190 C.3   1 <1>   0.3210 
 19 C        4.2430     2.7450     0.2590 C.2   1 <1>   0.3350 
 20 N        4.5440     2.5260     1.4800 N.2   1 <1>  -0.4100 
 21 N        4.4960     3.9920    -0.1250 N.2   1 <1>  -0.5650 
 22 O        5.0190     3.6320     1.9650 O.3   1 <1>  -0.0190 
 23 C        4.9640     4.4660     0.9580 C.2   1 <1>   0.2980 
 24 C        5.4460     5.8840     1.1600 C.3   1 <1>  -0.0600 
 25 H        4.0270    -2.0960     0.7050 H     1 <1>   0.0800 
 26 H        0.7930    -3.9350     1.3450 H     1 <1>   0.0800 
 27 H        2.4240    -3.8200     1.9490 H     1 <1>   0.0800 
 28 H       -0.7950    -0.2090     2.2590 H     1 <1>   0.1500 
 29 H       -0.0900    -2.6060    -1.1870 H     1 <1>   0.1500 
 30 H        4.8240    -3.1310    -1.3400 H     1 <1>   0.0800 
 31 H        3.2060    -3.2900    -1.9380 H     1 <1>   0.0800 
 32 H        1.5800    -4.9160    -0.7420 H     1 <1>   0.0800 
 33 H        2.1780    -5.8440     0.6010 H     1 <1>   0.0800 
 34 H       -3.1920    -0.1710     1.7420 H     1 <1>   0.1500 
 35 H       -2.4840    -2.5740    -1.7010 H     1 <1>   0.1500 
 36 H        3.2150     0.3370     0.8390 H     1 <1>   0.3700 
 37 H        4.3640    -4.7330     0.4580 H     1 <1>   0.0800 
 38 H        3.9590    -5.4430    -1.0830 H     1 <1>   0.0800 
 39 H       -4.0450    -1.3590    -0.2380 H     1 <1>   0.1500 
 40 H        2.6660     2.0730    -1.0090 H     1 <1>   0.0800 
 41 H        4.2600     1.6970    -1.6000 H     1 <1>   0.0800 
 42 H        5.3380     6.4410     0.2470 H     1 <1>   0.0800 
 43 H        6.4810     5.8760     1.4460 H     1 <1>   0.0800 
 44 H        4.8680     6.3570     1.9310 H     1 <1>   0.0800 
@<TRIPOS>BOND
  1   1   2  2   
  2   2   3  am  
  3   2   4  1   
  4   3   5  1   
  5   3   6  1   
  6   4   7  ar  
  7   4   8  ar  
  8   5   9  1   
  9   5  10  1   
 10   5  25  1   
 11   6  11  1   
 12   6  26  1   
 13   6  27  1   
 14   7  12  ar  
 15   7  28  1   
 16   8  13  ar  
 17   8  29  1   
 18   9  14  2   
 19   9  15  am  
 20  10  16  1   
 21  10  30  1   
 22  10  31  1   
 23  11  16  1   
 24  11  32  1   
 25  11  33  1   
 26  12  17  ar  
 27  12  34  1   
 28  13  17  ar  
 29  13  35  1   
 30  15  18  1   
 31  15  36  1   
 32  16  37  1   
 33  16  38  1   
 34  17  39  1   
 35  18  19  1   
 36  18  40  1   
 37  18  41  1   
 38  19  20  2   
 39  19  21  1   
 40  20  22  1   
 41  21  23  2   
 42  22  23  1   
 43  23  24  1   
 44  24  42  1   
 45  24  43  1   
 46  24  44  1   
@<TRIPOS>SUBSTRUCTURE
  1 ****   1 GROUP 4 **** **** 0

# MOE 2024.06 (io_trps.svl 2023.06)
