@<TRIPOS>MOLECULE
NONAME
47 50 1 0 0 
SMALL
USER_CHARGES


@<TRIPOS>ATOM
  1 F        1.6640    -1.3380    -0.3900 F     1 <1>  -0.1900 
  2 C        0.8600    -2.3670    -0.3990 C.ar  1 <1>   0.1900 
  3 C        0.8920    -3.2720     0.6500 C.ar  1 <1>  -0.1440 
  4 C       -0.0010    -2.5130    -1.4680 C.ar  1 <1>  -0.1500 
  5 C        0.0220    -4.3490     0.6040 C.ar  1 <1>  -0.1500 
  6 C        1.8520    -3.0920     1.8180 C.3   1 <1>  -0.0960 
  7 C       -0.8590    -3.5980    -1.4910 C.ar  1 <1>  -0.1500 
  8 C       -0.8720    -4.5410    -0.4560 C.ar  1 <1>   0.0860 
  9 C       -1.7760    -5.6810    -0.4700 C.2   1 <1>   0.5440 
 10 O       -1.7280    -6.5560     0.3770 O.2   1 <1>  -0.5700 
 11 N       -2.7630    -5.8180    -1.4160 N.am  1 <1>  -0.6600 
 12 C       -4.1400    -5.3810    -1.0240 C.3   1 <1>   0.1400 
 13 C       -2.7730    -7.0830    -2.2240 C.3   1 <1>   0.1400 
 14 C       -4.8650    -6.4650    -0.1780 C.3   1 <1>   0.4230 
 15 C       -3.7460    -8.1430    -1.6500 C.3   1 <1>   0.3430 
 16 N       -4.1570    -7.7980    -0.2460 N.4   1 <1>  -0.9590 
 17 C       -6.3500    -6.6050    -0.5840 C.3   1 <1>   0.1200 
 18 C       -4.9140    -8.8430     0.5030 C.3   1 <1>   0.5180 
 19 O       -6.9790    -7.6090     0.1640 O.3   1 <1>  -0.5600 
 20 C       -4.2240   -10.2040     0.3480 C.3   1 <1>  -0.1950 
 21 C       -6.3960    -8.8830     0.0690 C.3   1 <1>   0.1200 
 22 C       -4.1020   -11.1220     1.5250 C.3   1 <1>  -0.2000 
 23 C       -2.8780   -10.4690     0.9520 C.3   1 <1>  -0.2000 
 24 H        0.0090    -1.7890    -2.2640 H     1 <1>   0.1500 
 25 H        0.0320    -5.0660     1.4080 H     1 <1>   0.1500 
 26 H        1.7540    -3.8910     2.5290 H     1 <1>   0.0800 
 27 H        1.6500    -2.1610     2.3180 H     1 <1>   0.0800 
 28 H        2.8660    -3.0770     1.4590 H     1 <1>   0.0800 
 29 H       -1.5260    -3.7120    -2.3270 H     1 <1>   0.1500 
 30 H       -4.0840    -4.4680    -0.4550 H     1 <1>   0.0800 
 31 H       -4.7020    -5.1650    -1.9170 H     1 <1>   0.0800 
 32 H       -3.0370    -6.8600    -3.2430 H     1 <1>   0.0800 
 33 H       -1.7790    -7.4990    -2.2360 H     1 <1>   0.0800 
 34 H       -4.8510    -6.1290     0.8460 H     1 <1>   0.0800 
 35 H       -3.2550    -9.1020    -1.6720 H     1 <1>   0.0800 
 36 H       -4.6170    -8.2050    -2.2800 H     1 <1>   0.0800 
 37 H       -3.2540    -7.6370     0.2480 H     1 <1>   0.4500 
 38 H       -6.4510    -6.8440    -1.6290 H     1 <1>   0.0800 
 39 H       -6.8760    -5.6850    -0.3930 H     1 <1>   0.0800 
 40 H       -4.8940    -8.5860     1.5490 H     1 <1>   0.0800 
 41 H       -4.4580   -10.6860    -0.5860 H     1 <1>   0.1000 
 42 H       -6.9470    -9.5430     0.7160 H     1 <1>   0.0800 
 43 H       -6.4960    -9.2350    -0.9430 H     1 <1>   0.0800 
 44 H       -4.4310   -10.8050     2.5010 H     1 <1>   0.1000 
 45 H       -4.2260   -12.1830     1.3810 H     1 <1>   0.1000 
 46 H       -2.1740   -11.0890     0.4240 H     1 <1>   0.1000 
 47 H       -2.3880    -9.7110     1.5410 H     1 <1>   0.1000 
@<TRIPOS>BOND
  1   1   2  1   
  2   2   3  ar  
  3   2   4  ar  
  4   3   5  ar  
  5   3   6  1   
  6   4   7  ar  
  7   4  24  1   
  8   5   8  ar  
  9   5  25  1   
 10   6  26  1   
 11   6  27  1   
 12   6  28  1   
 13   7   8  ar  
 14   7  29  1   
 15   8   9  1   
 16   9  10  2   
 17   9  11  am  
 18  11  12  1   
 19  11  13  1   
 20  12  14  1   
 21  12  30  1   
 22  12  31  1   
 23  13  15  1   
 24  13  32  1   
 25  13  33  1   
 26  14  16  1   
 27  14  17  1   
 28  14  34  1   
 29  15  16  1   
 30  15  35  1   
 31  15  36  1   
 32  16  18  1   
 33  16  37  1   
 34  17  19  1   
 35  17  38  1   
 36  17  39  1   
 37  18  20  1   
 38  18  21  1   
 39  18  40  1   
 40  19  21  1   
 41  20  22  1   
 42  20  23  1   
 43  20  41  1   
 44  21  42  1   
 45  21  43  1   
 46  22  23  1   
 47  22  44  1   
 48  22  45  1   
 49  23  46  1   
 50  23  47  1   
@<TRIPOS>SUBSTRUCTURE
  1 ****   9 GROUP 4 **** **** 0

# MOE 2024.06 (io_trps.svl 2023.06)
