@<TRIPOS>MOLECULE
NONAME
56 59 1 0 0 
SMALL
USER_CHARGES


@<TRIPOS>ATOM
  1 O        0.4950     1.9180     1.5100 O.2   1 <1>  -0.5700 
  2 C       -0.3040     2.4280     0.7440 C.2   1 <1>   0.5440 
  3 N       -1.6520     2.2890     1.0010 N.am  1 <1>  -0.6600 
  4 C        0.1770     3.1710    -0.4030 C.ar  1 <1>   0.0860 
  5 C       -2.7020     2.9030     0.1170 C.3   1 <1>   0.1400 
  6 C       -2.1300     1.5050     2.1790 C.3   1 <1>   0.1400 
  7 C        0.0650     2.6690    -1.7120 C.ar  1 <1>   0.0830 
  8 C        0.7350     4.4470    -0.2350 C.ar  1 <1>  -0.1440 
  9 C       -3.9580     3.3040     0.9130 C.3   1 <1>   0.1440 
 10 C       -3.5430     0.9620     1.9400 C.3   1 <1>  -0.1600 
 11 O       -0.4280     1.4440    -2.0150 O.3   1 <1>  -0.3620 
 12 C        0.4550     3.4370    -2.7970 C.ar  1 <1>  -0.1500 
 13 C        1.1360     5.1940    -1.3310 C.ar  1 <1>  -0.1500 
 14 C        0.9050     5.0430     1.1580 C.3   1 <1>  -0.0970 
 15 C       -4.9280     3.9800    -0.0420 C.ar  1 <1>   0.1670 
 16 C       -4.5740     2.0610     1.6120 C.3   1 <1>  -0.1600 
 17 C       -3.6370     4.4520     1.9150 C.3   1 <1>  -0.1600 
 18 C        0.0050     0.2980    -1.3120 C.3   1 <1>   0.0400 
 19 C        0.9910     4.6950    -2.6120 C.ar  1 <1>  -0.1500 
 20 N       -5.6470     3.3700    -0.9520 N.ar  1 <1>  -0.6200 
 21 C       -4.9550     5.3290     0.1370 C.ar  1 <1>  -0.1430 
 22 C       -4.0130     5.7740     1.2250 C.3   1 <1>  -0.0170 
 23 C       -6.4300     4.1620    -1.6900 C.ar  1 <1>   0.7200 
 24 C       -5.7880     6.0640    -0.6670 C.ar  1 <1>   0.1600 
 25 N       -6.5330     5.4910    -1.5820 N.ar  1 <1>  -0.6200 
 26 N       -7.2030     3.5480    -2.6560 N.pl3 1 <1>  -0.8380 
 27 C       -8.3210     4.2540    -3.3390 C.3   1 <1>   0.1290 
 28 C       -6.9460     2.1520    -3.1040 C.3   1 <1>   0.1290 
 29 H       -2.9770     2.1900    -0.6410 H     1 <1>   0.0800 
 30 H       -2.3100     3.7740    -0.3790 H     1 <1>   0.0800 
 31 H       -2.1230     2.1390     3.0480 H     1 <1>   0.0800 
 32 H       -1.4590     0.6820     2.3620 H     1 <1>   0.0800 
 33 H       -3.8670     0.4090     2.8040 H     1 <1>   0.0800 
 34 H       -3.4930     0.2670     1.1190 H     1 <1>   0.0800 
 35 H        0.3400     3.0380    -3.7880 H     1 <1>   0.1500 
 36 H        1.5640     6.1720    -1.1980 H     1 <1>   0.1500 
 37 H        1.5770     4.4330     1.7360 H     1 <1>   0.0800 
 38 H       -0.0430     5.0850     1.6620 H     1 <1>   0.0800 
 39 H        1.3100     6.0380     1.1110 H     1 <1>   0.0800 
 40 H       -5.3160     1.6200     0.9690 H     1 <1>   0.0800 
 41 H       -5.0890     2.3560     2.5080 H     1 <1>   0.0800 
 42 H       -2.6080     4.4570     2.2290 H     1 <1>   0.0800 
 43 H       -4.2500     4.3570     2.7930 H     1 <1>   0.0800 
 44 H       -0.0490    -0.5440    -1.9780 H     1 <1>   0.0800 
 45 H       -0.6470     0.1340    -0.4720 H     1 <1>   0.0800 
 46 H        1.0190     0.4410    -0.9810 H     1 <1>   0.0800 
 47 H        1.2960     5.2830    -3.4600 H     1 <1>   0.1500 
 48 H       -3.1450     6.2340     0.7850 H     1 <1>   0.0800 
 49 H       -4.4850     6.4580     1.9080 H     1 <1>   0.0800 
 50 H       -5.8440     7.1340    -0.5610 H     1 <1>   0.1500 
 51 H       -8.7490     4.9990    -2.6900 H     1 <1>   0.0800 
 52 H       -9.0940     3.5540    -3.6050 H     1 <1>   0.0800 
 53 H       -7.9530     4.7350    -4.2280 H     1 <1>   0.0800 
 54 H       -5.9030     1.9070    -2.9960 H     1 <1>   0.0800 
 55 H       -7.2130     2.0390    -4.1400 H     1 <1>   0.0800 
 56 H       -7.5290     1.4710    -2.5090 H     1 <1>   0.0800 
@<TRIPOS>BOND
  1   1   2  2   
  2   2   3  am  
  3   2   4  1   
  4   3   5  1   
  5   3   6  1   
  6   4   7  ar  
  7   4   8  ar  
  8   5   9  1   
  9   5  29  1   
 10   5  30  1   
 11   6  10  1   
 12   6  31  1   
 13   6  32  1   
 14   7  11  1   
 15   7  12  ar  
 16   8  13  ar  
 17   8  14  1   
 18   9  15  1   
 19   9  16  1   
 20   9  17  1   
 21  10  16  1   
 22  10  33  1   
 23  10  34  1   
 24  11  18  1   
 25  12  19  ar  
 26  12  35  1   
 27  13  19  ar  
 28  13  36  1   
 29  14  37  1   
 30  14  38  1   
 31  14  39  1   
 32  15  20  ar  
 33  15  21  ar  
 34  16  40  1   
 35  16  41  1   
 36  17  22  1   
 37  17  42  1   
 38  17  43  1   
 39  18  44  1   
 40  18  45  1   
 41  18  46  1   
 42  19  47  1   
 43  20  23  ar  
 44  21  22  1   
 45  21  24  ar  
 46  22  48  1   
 47  22  49  1   
 48  23  25  ar  
 49  23  26  1   
 50  24  25  ar  
 51  24  50  1   
 52  26  27  1   
 53  26  28  1   
 54  27  51  1   
 55  27  52  1   
 56  27  53  1   
 57  28  54  1   
 58  28  55  1   
 59  28  56  1   
@<TRIPOS>SUBSTRUCTURE
  1 ****   5 GROUP 4 **** **** 0

# MOE 2024.06 (io_trps.svl 2023.06)
