@<TRIPOS>MOLECULE
NONAME
34 34 1 0 0 
SMALL
USER_CHARGES


@<TRIPOS>ATOM
  1 O       -0.3380    -0.6570    -1.4710 O.3   1 <1>  -0.6800 
  2 C       -0.1170    -1.5950    -0.4740 C.3   1 <1>   0.1200 
  3 C        1.3420    -2.0960    -0.5200 C.3   1 <1>  -0.0800 
  4 C        2.2960    -1.4160     0.5130 C.3   1 <1>  -0.0800 
  5 C        1.3070    -3.6260    -0.3040 C.3   1 <1>  -0.1600 
  6 C        2.5090     0.1250     0.4000 C.3   1 <1>  -0.0800 
  7 C        3.6830    -2.1010     0.4830 C.3   1 <1>  -0.1600 
  8 C        2.7000    -4.2650    -0.3440 C.3   1 <1>  -0.0800 
  9 C        1.3610     0.9580     0.9880 C.3   1 <1>  -0.2400 
 10 C        2.8370     0.6140    -1.0200 C.3   1 <1>  -0.2400 
 11 C        3.6000    -3.6140     0.7080 C.3   1 <1>  -0.1600 
 12 C        2.6070    -5.7770    -0.1090 C.3   1 <1>  -0.2400 
 13 H       -1.2570    -0.3310    -1.4410 H     1 <1>   0.4000 
 14 H       -0.3490    -1.1570     0.4810 H     1 <1>   0.0800 
 15 H       -0.8060    -2.4030    -0.6540 H     1 <1>   0.0800 
 16 H        1.7280    -1.9320    -1.5120 H     1 <1>   0.0800 
 17 H        1.8900    -1.6060     1.4920 H     1 <1>   0.0800 
 18 H        0.8490    -3.8390     0.6460 H     1 <1>   0.0800 
 19 H        0.7020    -4.0770    -1.0720 H     1 <1>   0.0800 
 20 H        3.3640     0.3660     1.0100 H     1 <1>   0.0800 
 21 H        4.1570    -1.9220    -0.4660 H     1 <1>   0.0800 
 22 H        4.3140    -1.6820     1.2470 H     1 <1>   0.0800 
 23 H        3.1280    -4.0970    -1.3190 H     1 <1>   0.0800 
 24 H        0.5040     0.9600     0.3430 H     1 <1>   0.0800 
 25 H        1.6790     1.9790     1.1060 H     1 <1>   0.0800 
 26 H        1.0750     0.5830     1.9540 H     1 <1>   0.0800 
 27 H        2.0030     0.4650    -1.6810 H     1 <1>   0.0800 
 28 H        3.6870     0.0940    -1.4210 H     1 <1>   0.0800 
 29 H        3.0660     1.6640    -1.0040 H     1 <1>   0.0800 
 30 H        3.2130    -3.8080     1.6930 H     1 <1>   0.0800 
 31 H        4.5890    -4.0350     0.6500 H     1 <1>   0.0800 
 32 H        2.1820    -5.9860     0.8570 H     1 <1>   0.0800 
 33 H        3.5850    -6.2220    -0.1590 H     1 <1>   0.0800 
 34 H        1.9890    -6.2330    -0.8630 H     1 <1>   0.0800 
@<TRIPOS>BOND
  1   1   2  1   
  2   1  13  1   
  3   2   3  1   
  4   2  14  1   
  5   2  15  1   
  6   3   4  1   
  7   3   5  1   
  8   3  16  1   
  9   4   6  1   
 10   4   7  1   
 11   4  17  1   
 12   5   8  1   
 13   5  18  1   
 14   5  19  1   
 15   6   9  1   
 16   6  10  1   
 17   6  20  1   
 18   7  11  1   
 19   7  21  1   
 20   7  22  1   
 21   8  11  1   
 22   8  12  1   
 23   8  23  1   
 24   9  24  1   
 25   9  25  1   
 26   9  26  1   
 27  10  27  1   
 28  10  28  1   
 29  10  29  1   
 30  11  30  1   
 31  11  31  1   
 32  12  32  1   
 33  12  33  1   
 34  12  34  1   
@<TRIPOS>SUBSTRUCTURE
  1 ****   3 GROUP 4 **** **** 0

# MOE 2024.06 (io_trps.svl 2023.06)
