@<TRIPOS>MOLECULE
NONAME
58 60 1 0 0 
SMALL
USER_CHARGES


@<TRIPOS>ATOM
  1 S       -0.8690     0.1780     0.3450 S.o2  1 <1>   1.0900 
  2 O        0.5250    -0.1440     0.1500 O.2   1 <1>  -0.6500 
  3 O       -1.2880     1.3650     1.0510 O.2   1 <1>  -0.6500 
  4 C       -1.6560    -1.2590     1.0130 C.3   1 <1>  -0.0550 
  5 C       -1.6860     0.0650    -1.2400 C.3   1 <1>  -0.0550 
  6 C       -1.8020    -2.1920    -0.1870 C.3   1 <1>   0.1760 
  7 C       -2.3040    -1.3390    -1.3710 C.3   1 <1>  -0.1600 
  8 N       -2.7240    -3.3190     0.1030 N.pl3 1 <1>   0.3140 
  9 N       -3.9240    -3.1030     0.6710 N.2   1 <1>  -0.7070 
 10 C       -2.5400    -4.6330    -0.1850 C.2   1 <1>  -0.3320 
 11 C       -4.4840    -4.2700     0.7290 C.2   1 <1>   0.1080 
 12 C       -3.6650    -5.2740     0.2040 C.2   1 <1>   0.0630 
 13 C       -1.2900    -5.2040    -0.8400 C.3   1 <1>  -0.0600 
 14 C       -5.8640    -4.4520     1.3220 C.3   1 <1>  -0.0590 
 15 N       -3.9030    -6.6680     0.0960 N.am  1 <1>  -0.4930 
 16 C       -5.0240    -7.3110    -0.3300 C.2   1 <1>   0.5690 
 17 O       -6.0350    -6.7460    -0.6720 O.2   1 <1>  -0.5700 
 18 C       -5.0130    -8.8230    -0.3760 C.3   1 <1>  -0.0990 
 19 C       -5.8230    -9.4150     0.7870 C.3   1 <1>  -0.0990 
 20 C       -5.8510   -10.9260     0.7130 C.2   1 <1>   0.5690 
 21 O       -4.9210   -11.5280     1.1850 O.2   1 <1>  -0.5700 
 22 N       -6.9280   -11.5080     0.1050 N.am  1 <1>  -0.5470 
 23 C       -7.2570   -12.8550    -0.1340 C.ar  1 <1>   0.1170 
 24 C       -8.5940   -13.2180    -0.3420 C.ar  1 <1>  -0.1440 
 25 C       -6.2730   -13.8390    -0.1900 C.ar  1 <1>  -0.1500 
 26 C       -8.9000   -14.5500    -0.6010 C.ar  1 <1>  -0.1500 
 27 C       -9.6880   -12.1420    -0.2780 C.3   1 <1>  -0.0170 
 28 C       -6.5920   -15.1580    -0.4430 C.ar  1 <1>  -0.1500 
 29 C       -7.9100   -15.5140    -0.6500 C.ar  1 <1>  -0.1500 
 30 C      -11.1340   -12.6430    -0.3780 C.3   1 <1>  -0.2400 
 31 H       -2.6250    -0.9930     1.3920 H     1 <1>   0.0800 
 32 H       -1.0700    -1.7040     1.7920 H     1 <1>   0.0800 
 33 H       -0.9790     0.2410    -2.0280 H     1 <1>   0.0800 
 34 H       -2.4620     0.8040    -1.3090 H     1 <1>   0.0800 
 35 H       -0.8310    -2.5880    -0.4250 H     1 <1>   0.0800 
 36 H       -2.0380    -1.7940    -2.3090 H     1 <1>   0.0800 
 37 H       -3.3770    -1.2490    -1.3200 H     1 <1>   0.0800 
 38 H       -1.1190    -4.7300    -1.7910 H     1 <1>   0.0800 
 39 H       -1.3970    -6.2600    -1.0090 H     1 <1>   0.0800 
 40 H       -0.4330    -5.0460    -0.2100 H     1 <1>   0.0800 
 41 H       -6.0540    -3.6830     2.0480 H     1 <1>   0.0800 
 42 H       -5.9420    -5.4100     1.7990 H     1 <1>   0.0800 
 43 H       -6.5990    -4.3840     0.5420 H     1 <1>   0.0800 
 44 H       -3.0900    -7.2450     0.3020 H     1 <1>   0.3700 
 45 H       -4.0020    -9.1880    -0.3380 H     1 <1>   0.0800 
 46 H       -5.4410    -9.1340    -1.3120 H     1 <1>   0.0800 
 47 H       -6.8280    -9.0310     0.7680 H     1 <1>   0.0800 
 48 H       -5.3790    -9.1270     1.7230 H     1 <1>   0.0800 
 49 H       -7.6460   -10.8560    -0.2020 H     1 <1>   0.3700 
 50 H       -5.2420   -13.5800    -0.0400 H     1 <1>   0.1500 
 51 H       -9.9110   -14.8700    -0.7680 H     1 <1>   0.1500 
 52 H       -9.5220   -11.4380    -1.0740 H     1 <1>   0.0800 
 53 H       -9.5910   -11.6160     0.6560 H     1 <1>   0.0800 
 54 H       -5.8170   -15.9030    -0.4800 H     1 <1>   0.1500 
 55 H       -8.1650   -16.5400    -0.8490 H     1 <1>   0.1500 
 56 H      -11.3060   -13.1120    -1.3310 H     1 <1>   0.0800 
 57 H      -11.8150   -11.8150    -0.2830 H     1 <1>   0.0800 
 58 H      -11.3430   -13.3450     0.4090 H     1 <1>   0.0800 
@<TRIPOS>BOND
  1   1   2  2   
  2   1   3  2   
  3   1   4  1   
  4   1   5  1   
  5   4   6  1   
  6   4  31  1   
  7   4  32  1   
  8   5   7  1   
  9   5  33  1   
 10   5  34  1   
 11   6   7  1   
 12   6   8  1   
 13   6  35  1   
 14   7  36  1   
 15   7  37  1   
 16   8   9  1   
 17   8  10  1   
 18   9  11  2   
 19  10  12  2   
 20  10  13  1   
 21  11  12  1   
 22  11  14  1   
 23  12  15  1   
 24  13  38  1   
 25  13  39  1   
 26  13  40  1   
 27  14  41  1   
 28  14  42  1   
 29  14  43  1   
 30  15  16  am  
 31  15  44  1   
 32  16  17  2   
 33  16  18  1   
 34  18  19  1   
 35  18  45  1   
 36  18  46  1   
 37  19  20  1   
 38  19  47  1   
 39  19  48  1   
 40  20  21  2   
 41  20  22  am  
 42  22  23  1   
 43  22  49  1   
 44  23  24  ar  
 45  23  25  ar  
 46  24  26  ar  
 47  24  27  1   
 48  25  28  ar  
 49  25  50  1   
 50  26  29  ar  
 51  26  51  1   
 52  27  30  1   
 53  27  52  1   
 54  27  53  1   
 55  28  29  ar  
 56  28  54  1   
 57  29  55  1   
 58  30  56  1   
 59  30  57  1   
 60  30  58  1   
@<TRIPOS>SUBSTRUCTURE
  1 ****  16 GROUP 4 **** **** 0

# MOE 2024.06 (io_trps.svl 2023.06)
