@<TRIPOS>MOLECULE
NONAME
46 47 1 0 0 
SMALL
USER_CHARGES


@<TRIPOS>ATOM
  1 CL       2.0800    -1.8590     1.9030 Cl    1 <1>  -0.1770 
  2 C        0.8540    -3.0270     1.4780 C.ar  1 <1>   0.1770 
  3 C        1.2010    -4.1230     0.7090 C.ar  1 <1>  -0.1500 
  4 C       -0.4430    -2.8330     1.9150 C.ar  1 <1>  -0.1500 
  5 C        0.2360    -5.0580     0.3650 C.ar  1 <1>  -0.1440 
  6 C       -1.4100    -3.7640     1.5790 C.ar  1 <1>  -0.1500 
  7 C       -1.0700    -4.8740     0.8190 C.ar  1 <1>   0.0830 
  8 C        0.6280    -6.2470    -0.5030 C.3   1 <1>  -0.0960 
  9 O       -2.0450    -5.7600     0.5220 O.3   1 <1>  -0.3630 
 10 C       -2.0660    -6.9700     1.2650 C.3   1 <1>   0.2610 
 11 C       -2.0910    -8.2020     0.3370 C.2   1 <1>   0.5690 
 12 C       -3.2370    -6.9100     2.2560 C.3   1 <1>  -0.2400 
 13 O       -1.2750    -9.0650     0.5860 O.2   1 <1>  -0.5700 
 14 N       -2.9820    -8.3720    -0.7040 N.am  1 <1>  -0.6600 
 15 C       -2.8450    -9.5440    -1.6120 C.3   1 <1>   0.3200 
 16 C       -4.1110    -7.4520    -1.0490 C.3   1 <1>   0.1400 
 17 C       -3.5190   -10.7440    -0.9840 C.2   1 <1>  -0.3320 
 18 C       -5.4640    -8.0740    -0.6850 C.3   1 <1>   0.1200 
 19 N       -3.0950   -11.2710     0.1770 N.pl3 1 <1>   0.0330 
 20 C       -4.5700   -11.4960    -1.3790 C.2   1 <1>   0.0770 
 21 O       -6.4680    -7.1390    -0.8970 O.3   1 <1>  -0.6800 
 22 C       -3.9210   -12.3100     0.4210 C.2   1 <1>   0.0060 
 23 N       -4.8210   -12.4770    -0.4910 N.2   1 <1>  -0.5650 
 24 C       -3.7920   -13.1850     1.6490 C.3   1 <1>  -0.0600 
 25 H        2.2200    -4.2320     0.3850 H     1 <1>   0.1500 
 26 H       -0.6860    -1.9690     2.5060 H     1 <1>   0.1500 
 27 H       -2.4270    -3.6330     1.9030 H     1 <1>   0.1500 
 28 H        1.5330    -6.0420    -1.0440 H     1 <1>   0.0800 
 29 H       -0.1470    -6.4600    -1.2170 H     1 <1>   0.0800 
 30 H        0.7850    -7.1160     0.1110 H     1 <1>   0.0800 
 31 H       -1.1530    -7.0220     1.8320 H     1 <1>   0.0800 
 32 H       -4.1730    -6.7940     1.7450 H     1 <1>   0.0800 
 33 H       -3.0970    -6.0900     2.9370 H     1 <1>   0.0800 
 34 H       -3.2700    -7.8210     2.8270 H     1 <1>   0.0800 
 35 H       -1.8020    -9.7590    -1.7760 H     1 <1>   0.0800 
 36 H       -3.2910    -9.3290    -2.5680 H     1 <1>   0.0800 
 37 H       -4.0880    -7.2450    -2.1050 H     1 <1>   0.0800 
 38 H       -4.0110    -6.5170    -0.5340 H     1 <1>   0.0800 
 39 H       -5.4920    -8.3770     0.3470 H     1 <1>   0.0800 
 40 H       -5.6730    -8.9220    -1.3130 H     1 <1>   0.0800 
 41 H       -2.3080   -10.9200     0.7390 H     1 <1>   0.2700 
 42 H       -5.1710   -11.3860    -2.2660 H     1 <1>   0.1500 
 43 H       -6.4370    -6.4290    -0.2270 H     1 <1>   0.4000 
 44 H       -2.8300   -13.6640     1.6600 H     1 <1>   0.0800 
 45 H       -4.5550   -13.9420     1.6360 H     1 <1>   0.0800 
 46 H       -3.9070   -12.5930     2.5370 H     1 <1>   0.0800 
@<TRIPOS>BOND
  1   1   2  1   
  2   2   3  ar  
  3   2   4  ar  
  4   3   5  ar  
  5   3  25  1   
  6   4   6  ar  
  7   4  26  1   
  8   5   7  ar  
  9   5   8  1   
 10   6   7  ar  
 11   6  27  1   
 12   7   9  1   
 13   8  28  1   
 14   8  29  1   
 15   8  30  1   
 16   9  10  1   
 17  10  11  1   
 18  10  12  1   
 19  10  31  1   
 20  11  13  2   
 21  11  14  am  
 22  12  32  1   
 23  12  33  1   
 24  12  34  1   
 25  14  15  1   
 26  14  16  1   
 27  15  17  1   
 28  15  35  1   
 29  15  36  1   
 30  16  18  1   
 31  16  37  1   
 32  16  38  1   
 33  17  19  1   
 34  17  20  2   
 35  18  21  1   
 36  18  39  1   
 37  18  40  1   
 38  19  22  1   
 39  19  41  1   
 40  20  23  1   
 41  20  42  1   
 42  21  43  1   
 43  22  23  2   
 44  22  24  1   
 45  24  44  1   
 46  24  45  1   
 47  24  46  1   
@<TRIPOS>SUBSTRUCTURE
  1 ****  11 GROUP 4 **** **** 0

# MOE 2024.06 (io_trps.svl 2023.06)
