@<TRIPOS>MOLECULE
NONAME
49 51 1 0 0 
SMALL
USER_CHARGES


@<TRIPOS>ATOM
  1 S       -0.8230     0.6760     0.8940 S.o2  1 <1>   1.4470 
  2 O       -0.6630    -0.3810     1.8700 O.2   1 <1>  -0.6500 
  3 O       -1.6050     1.8430     1.2480 O.2   1 <1>  -0.6500 
  4 N       -1.5030     0.0190    -0.5140 N.am  1 <1>  -0.8490 
  5 C        0.8130     1.2240     0.3300 C.ar  1 <1>  -0.0090 
  6 C       -0.8400    -1.2030    -1.0260 C.3   1 <1>   0.1960 
  7 C       -2.9610    -0.0690    -0.5260 C.3   1 <1>   0.1960 
  8 C        0.9590     1.9560    -0.8420 C.ar  1 <1>  -0.1500 
  9 C        1.9620     0.9290     1.0550 C.ar  1 <1>  -0.1500 
 10 C       -1.6550    -2.5190    -0.9090 C.3   1 <1>  -0.1060 
 11 C       -3.4620    -1.1960     0.3820 C.3   1 <1>  -0.1600 
 12 C        2.2040     2.3750    -1.2790 C.ar  1 <1>  -0.1500 
 13 C        3.2100     1.3450     0.6250 C.ar  1 <1>  -0.1500 
 14 C       -2.4850    -2.6940    -2.1900 C.2   1 <1>   0.9060 
 15 C       -2.5570    -2.4380     0.3500 C.3   1 <1>   0.2000 
 16 C       -0.6930    -3.7400    -0.8440 C.3   1 <1>  -0.0650 
 17 C        3.3390     2.0700    -0.5470 C.ar  1 <1>  -0.1440 
 18 O       -3.6660    -3.0720    -2.1250 O.co2 1 <1>  -0.9000 
 19 O       -1.9480    -2.4910    -3.2840 O.co2 1 <1>  -0.9000 
 20 O       -3.3700    -3.5520     0.4190 O.3   1 <1>  -0.6800 
 21 C        0.2740    -3.7860     0.3540 C.3   1 <1>  -0.1950 
 22 C        4.7080     2.5280    -1.0230 C.3   1 <1>  -0.0170 
 23 C        1.6500    -3.2000     0.2930 C.3   1 <1>  -0.2000 
 24 C        1.4660    -4.6890     0.3040 C.3   1 <1>  -0.2000 
 25 C        5.0420     3.9060    -0.4500 C.3   1 <1>  -0.2400 
 26 H       -0.5710    -1.0320    -2.0540 H     1 <1>   0.0800 
 27 H        0.0880    -1.3180    -0.5020 H     1 <1>   0.0800 
 28 H       -3.3960     0.8700    -0.2260 H     1 <1>   0.0800 
 29 H       -3.2850    -0.2590    -1.5370 H     1 <1>   0.0800 
 30 H        0.0820     2.1960    -1.4200 H     1 <1>   0.1500 
 31 H        1.8770     0.3630     1.9680 H     1 <1>   0.1500 
 32 H       -4.4580    -1.4500     0.0630 H     1 <1>   0.0800 
 33 H       -3.5210    -0.8370     1.3920 H     1 <1>   0.0800 
 34 H        2.2830     2.9390    -2.1910 H     1 <1>   0.1500 
 35 H        4.0810     1.1020     1.2090 H     1 <1>   0.1500 
 36 H       -1.9500    -2.4340     1.2360 H     1 <1>   0.0800 
 37 H       -1.2880    -4.6370    -0.8240 H     1 <1>   0.0800 
 38 H       -0.1210    -3.7740    -1.7570 H     1 <1>   0.0800 
 39 H       -3.7670    -3.6290    -0.4980 H     1 <1>   0.4000 
 40 H       -0.2400    -3.7630     1.3000 H     1 <1>   0.1000 
 41 H        5.4560     1.8180    -0.7160 H     1 <1>   0.0800 
 42 H        4.7220     2.5710    -2.0990 H     1 <1>   0.0800 
 43 H        1.9880    -2.7360    -0.6180 H     1 <1>   0.1000 
 44 H        2.0280    -2.7070     1.1720 H     1 <1>   0.1000 
 45 H        1.7280    -5.2400     1.1900 H     1 <1>   0.1000 
 46 H        1.6600    -5.2410    -0.5990 H     1 <1>   0.1000 
 47 H        5.0460     3.8700     0.6260 H     1 <1>   0.0800 
 48 H        4.3090     4.6270    -0.7660 H     1 <1>   0.0800 
 49 H        6.0110     4.2250    -0.7890 H     1 <1>   0.0800 
@<TRIPOS>BOND
  1   1   2  2   
  2   1   3  2   
  3   1   4  am  
  4   1   5  1   
  5   4   6  1   
  6   4   7  1   
  7   5   8  ar  
  8   5   9  ar  
  9   6  10  1   
 10   6  26  1   
 11   6  27  1   
 12   7  11  1   
 13   7  28  1   
 14   7  29  1   
 15   8  12  ar  
 16   8  30  1   
 17   9  13  ar  
 18   9  31  1   
 19  10  14  1   
 20  10  15  1   
 21  10  16  1   
 22  11  15  1   
 23  11  32  1   
 24  11  33  1   
 25  12  17  ar  
 26  12  34  1   
 27  13  17  ar  
 28  13  35  1   
 29  14  18  ar  
 30  14  19  ar  
 31  15  20  1   
 32  15  36  1   
 33  16  21  1   
 34  16  37  1   
 35  16  38  1   
 36  17  22  1   
 37  20  39  1   
 38  21  23  1   
 39  21  24  1   
 40  21  40  1   
 41  22  25  1   
 42  22  41  1   
 43  22  42  1   
 44  23  24  1   
 45  23  43  1   
 46  23  44  1   
 47  24  45  1   
 48  24  46  1   
 49  25  47  1   
 50  25  48  1   
 51  25  49  1   
@<TRIPOS>SUBSTRUCTURE
  1 ****   6 GROUP 4 **** **** 0

# MOE 2024.06 (io_trps.svl 2023.06)
