@<TRIPOS>MOLECULE
NONAME
50 53 1 0 0 
SMALL
USER_CHARGES


@<TRIPOS>ATOM
  1 F        3.0960     0.4740    -2.3500 F     1 <1>  -0.1900 
  2 C        2.8650    -0.4610    -1.4680 C.ar  1 <1>   0.1900 
  3 C        2.7740    -1.7690    -1.8920 C.ar  1 <1>  -0.1500 
  4 C        2.7150    -0.0990    -0.1430 C.ar  1 <1>  -0.1500 
  5 C        2.5180    -2.7850    -0.9710 C.ar  1 <1>   0.0860 
  6 C        2.4780    -1.0970     0.7830 C.ar  1 <1>  -0.1500 
  7 C        2.3960    -2.4260     0.3840 C.ar  1 <1>   0.0830 
  8 C        2.3730    -4.1410    -1.4510 C.2   1 <1>   0.5440 
  9 O        2.1800    -3.3260     1.3690 O.3   1 <1>  -0.3630 
 10 O        3.3540    -4.7190    -1.8790 O.2   1 <1>  -0.5700 
 11 N        1.1590    -4.7970    -1.4420 N.am  1 <1>  -0.6600 
 12 C        3.0490    -4.4350     1.5000 C.3   1 <1>   0.0400 
 13 C       -0.1090    -4.2240    -0.8950 C.3   1 <1>   0.1400 
 14 C        1.0170    -6.2310    -1.8380 C.3   1 <1>   0.1400 
 15 C       -0.6330    -5.0890     0.2660 C.3   1 <1>   0.1900 
 16 C        0.4350    -7.0620    -0.6810 C.3   1 <1>   0.1100 
 17 N       -0.8360    -6.4920    -0.1800 N.3   1 <1>  -0.8100 
 18 C       -1.9420    -4.5010     0.8290 C.3   1 <1>   0.1200 
 19 C       -1.4080    -7.2940     0.9280 C.3   1 <1>   0.3330 
 20 O       -2.4290    -5.2940     1.8730 O.3   1 <1>  -0.5600 
 21 C       -1.7500    -8.7100     0.4650 C.ar  1 <1>  -0.1430 
 22 C       -2.6780    -6.6210     1.4910 C.3   1 <1>   0.1200 
 23 C       -2.4460    -8.9240    -0.7170 C.ar  1 <1>  -0.1500 
 24 C       -1.3710    -9.8040     1.2300 C.ar  1 <1>  -0.1500 
 25 C       -2.7600   -10.2080    -1.1280 C.ar  1 <1>  -0.1500 
 26 C       -1.6830   -11.0890     0.8210 C.ar  1 <1>  -0.1500 
 27 C       -2.3780   -11.2920    -0.3580 C.ar  1 <1>  -0.1500 
 28 H        2.8970    -2.0080    -2.9340 H     1 <1>   0.1500 
 29 H        2.7860     0.9340     0.1480 H     1 <1>   0.1500 
 30 H        2.3610    -0.8540     1.8250 H     1 <1>   0.1500 
 31 H        3.0540    -4.7370     2.5310 H     1 <1>   0.0800 
 32 H        4.0420    -4.1490     1.1970 H     1 <1>   0.0800 
 33 H        2.6880    -5.2430     0.8900 H     1 <1>   0.0800 
 34 H        0.0380    -3.2170    -0.5510 H     1 <1>   0.0800 
 35 H       -0.8470    -4.2000    -1.6770 H     1 <1>   0.0800 
 36 H        0.3590    -6.2990    -2.6860 H     1 <1>   0.0800 
 37 H        1.9680    -6.6440    -2.1260 H     1 <1>   0.0800 
 38 H        0.1000    -5.0650     1.0550 H     1 <1>   0.0800 
 39 H        1.1580    -7.1090     0.1160 H     1 <1>   0.0800 
 40 H        0.2700    -8.0650    -1.0370 H     1 <1>   0.0800 
 41 H       -2.6940    -4.4430     0.0610 H     1 <1>   0.0800 
 42 H       -1.7680    -3.5160     1.2230 H     1 <1>   0.0800 
 43 H       -0.6860    -7.3530     1.7250 H     1 <1>   0.0800 
 44 H       -3.0220    -7.1550     2.3580 H     1 <1>   0.0800 
 45 H       -3.4600    -6.6240     0.7520 H     1 <1>   0.0800 
 46 H       -2.7400    -8.0830    -1.3220 H     1 <1>   0.1500 
 47 H       -0.8310    -9.6620     2.1500 H     1 <1>   0.1500 
 48 H       -3.2990   -10.3620    -2.0460 H     1 <1>   0.1500 
 49 H       -1.3860   -11.9320     1.4210 H     1 <1>   0.1500 
 50 H       -2.6210   -12.2910    -0.6750 H     1 <1>   0.1500 
@<TRIPOS>BOND
  1   1   2  1   
  2   2   3  ar  
  3   2   4  ar  
  4   3   5  ar  
  5   3  28  1   
  6   4   6  ar  
  7   4  29  1   
  8   5   7  ar  
  9   5   8  1   
 10   6   7  ar  
 11   6  30  1   
 12   7   9  1   
 13   8  10  2   
 14   8  11  am  
 15   9  12  1   
 16  11  13  1   
 17  11  14  1   
 18  12  31  1   
 19  12  32  1   
 20  12  33  1   
 21  13  15  1   
 22  13  34  1   
 23  13  35  1   
 24  14  16  1   
 25  14  36  1   
 26  14  37  1   
 27  15  17  1   
 28  15  18  1   
 29  15  38  1   
 30  16  17  1   
 31  16  39  1   
 32  16  40  1   
 33  17  19  1   
 34  18  20  1   
 35  18  41  1   
 36  18  42  1   
 37  19  21  1   
 38  19  22  1   
 39  19  43  1   
 40  20  22  1   
 41  21  23  ar  
 42  21  24  ar  
 43  22  44  1   
 44  22  45  1   
 45  23  25  ar  
 46  23  46  1   
 47  24  26  ar  
 48  24  47  1   
 49  25  27  ar  
 50  25  48  1   
 51  26  27  ar  
 52  26  49  1   
 53  27  50  1   
@<TRIPOS>SUBSTRUCTURE
  1 ****  15 GROUP 4 **** **** 0

# MOE 2024.06 (io_trps.svl 2023.06)
