@<TRIPOS>MOLECULE
NONAME
45 48 1 0 0 
SMALL
USER_CHARGES


@<TRIPOS>ATOM
  1 O       -3.4220    -0.5760     0.7330 O.2   1 <1>  -0.5700 
  2 C       -3.1310     0.2310    -0.1450 C.2   1 <1>   0.5650 
  3 N       -2.8380     1.5840     0.1850 N.pl3 1 <1>   0.5610 
  4 C       -3.0830    -0.1320    -1.5370 C.2   1 <1>   0.0290 
  5 N       -2.7990     2.1990     1.4140 N.2   1 <1>  -0.7070 
  6 C       -2.5420     2.5030    -0.7880 C.2   1 <1>  -0.0680 
  7 C       -3.3540    -1.4840    -1.9480 C.2   1 <1>   0.6160 
  8 C       -2.7890     0.8310    -2.4750 C.2   1 <1>  -0.0500 
  9 C       -2.4910     3.4330     1.1750 C.2   1 <1>   0.1080 
 10 N       -2.5200     2.1230    -2.1350 N.pl3 1 <1>  -0.5840 
 11 C       -2.3170     3.6880    -0.1810 C.2   1 <1>  -0.1500 
 12 O       -3.7320    -1.7110    -3.0830 O.2   1 <1>  -0.5700 
 13 N       -3.2000    -2.5530    -1.1140 N.am  1 <1>  -0.7300 
 14 C       -2.3460     4.4540     2.2790 C.3   1 <1>  -0.0590 
 15 C       -3.6410    -3.9410    -1.3800 C.3   1 <1>   0.2200 
 16 C       -4.8730    -4.2830    -0.5520 C.3   1 <1>  -0.0800 
 17 C       -2.6260    -4.9090    -0.7870 C.3   1 <1>   0.1200 
 18 C       -4.2710    -4.6610     0.8040 C.3   1 <1>   0.1200 
 19 C       -5.9610    -3.1950    -0.4760 C.3   1 <1>  -0.0170 
 20 O       -2.9360    -5.0050     0.5720 O.3   1 <1>  -0.5600 
 21 C       -7.1350    -3.6570     0.3730 C.ar  1 <1>  -0.1430 
 22 C       -8.1030    -4.5090    -0.1190 C.ar  1 <1>  -0.1500 
 23 C       -7.2920    -3.2460     1.6810 C.ar  1 <1>  -0.1500 
 24 C       -9.1490    -4.9020     0.7000 C.ar  1 <1>   0.1600 
 25 C       -8.3750    -3.6980     2.4160 C.ar  1 <1>   0.1600 
 26 N       -9.3070    -4.5180     1.9570 N.ar  1 <1>  -0.6200 
 27 H       -2.7620     0.5800    -3.5260 H     1 <1>   0.1500 
 28 H       -2.3030     2.8350    -2.8490 H     1 <1>   0.4000 
 29 H       -2.0600     4.6330    -0.6230 H     1 <1>   0.1500 
 30 H       -3.0190    -2.3610    -0.1190 H     1 <1>   0.3700 
 31 H       -2.0980     5.4180     1.8730 H     1 <1>   0.0800 
 32 H       -1.5680     4.1460     2.9540 H     1 <1>   0.0800 
 33 H       -3.2690     4.5270     2.8240 H     1 <1>   0.0800 
 34 H       -3.7870    -4.1040    -2.4350 H     1 <1>   0.0800 
 35 H       -5.3140    -5.1730    -0.9660 H     1 <1>   0.0800 
 36 H       -1.6110    -4.5710    -0.9040 H     1 <1>   0.0800 
 37 H       -2.7390    -5.8890    -1.2170 H     1 <1>   0.0800 
 38 H       -4.7800    -5.4970     1.2530 H     1 <1>   0.0800 
 39 H       -4.2760    -3.8260     1.4830 H     1 <1>   0.0800 
 40 H       -6.3050    -2.9620    -1.4680 H     1 <1>   0.0800 
 41 H       -5.5630    -2.2910    -0.0510 H     1 <1>   0.0800 
 42 H       -8.0550    -4.8710    -1.1300 H     1 <1>   0.1500 
 43 H       -6.5820    -2.5790     2.1370 H     1 <1>   0.1500 
 44 H       -9.8950    -5.5670     0.3010 H     1 <1>   0.1500 
 45 H       -8.4800    -3.3670     3.4350 H     1 <1>   0.1500 
@<TRIPOS>BOND
  1   1   2  2   
  2   2   3  1   
  3   2   4  1   
  4   3   5  1   
  5   3   6  1   
  6   4   7  1   
  7   4   8  2   
  8   5   9  2   
  9   6  10  1   
 10   6  11  2   
 11   7  12  2   
 12   7  13  am  
 13   8  10  1   
 14   8  27  1   
 15   9  11  1   
 16   9  14  1   
 17  10  28  1   
 18  11  29  1   
 19  13  15  1   
 20  13  30  1   
 21  14  31  1   
 22  14  32  1   
 23  14  33  1   
 24  15  16  1   
 25  15  17  1   
 26  15  34  1   
 27  16  18  1   
 28  16  19  1   
 29  16  35  1   
 30  17  20  1   
 31  17  36  1   
 32  17  37  1   
 33  18  20  1   
 34  18  38  1   
 35  18  39  1   
 36  19  21  1   
 37  19  40  1   
 38  19  41  1   
 39  21  22  ar  
 40  21  23  ar  
 41  22  24  ar  
 42  22  42  1   
 43  23  25  ar  
 44  23  43  1   
 45  24  26  ar  
 46  24  44  1   
 47  25  26  ar  
 48  25  45  1   
@<TRIPOS>SUBSTRUCTURE
  1 ****   1 GROUP 4 **** **** 0

# MOE 2024.06 (io_trps.svl 2023.06)
