@<TRIPOS>MOLECULE
NONAME
26 26 1 0 0 
SMALL
USER_CHARGES


@<TRIPOS>ATOM
  1 S       -0.0680     0.6030     1.0120 S.o2  1 <1>   1.3330 
  2 O        0.7310     0.4250     2.1960 O.2   1 <1>  -0.6500 
  3 O       -0.1270     1.8750     0.3420 O.2   1 <1>  -0.6500 
  4 N        0.7070    -0.3600    -0.0850 N.am  1 <1>  -0.9780 
  5 C       -1.6810    -0.1350     1.1970 C.3   1 <1>  -0.0550 
  6 C       -2.4850    -0.0440    -0.0950 C.3   1 <1>   0.1400 
  7 N       -3.7580    -0.8010     0.0620 N.am  1 <1>  -0.4690 
  8 C       -4.8350    -0.1700     0.7110 C.2   1 <1>   0.6160 
  9 C       -3.9180    -2.1200    -0.3830 C.2   1 <1>  -0.0290 
 10 O       -4.6690     0.9920     1.1360 O.2   1 <1>  -0.5700 
 11 C       -6.0370    -0.8500     0.8800 C.2   1 <1>  -0.1360 
 12 C       -5.0970    -2.7690    -0.2030 C.2   1 <1>  -0.1500 
 13 C       -2.7610    -2.8280    -1.0700 C.3   1 <1>  -0.1020 
 14 C       -6.2040    -2.1500     0.4360 C.2   1 <1>  -0.1500 
 15 O       -7.2690    -2.7720     0.5830 O.3   1 <1>  -0.8500 
 16 H        1.4740    -0.7560     0.4560 H     1 <1>   0.4200 
 17 H        1.1380     0.3110    -0.7180 H     1 <1>   0.4200 
 18 H       -2.2190     0.3740     1.9730 H     1 <1>   0.0800 
 19 H       -1.5740    -1.1650     1.4760 H     1 <1>   0.0800 
 20 H       -1.9170    -0.4320    -0.9200 H     1 <1>   0.0800 
 21 H       -2.7040     0.9870    -0.3180 H     1 <1>   0.0800 
 22 H       -6.8550    -0.3650     1.3690 H     1 <1>   0.1500 
 23 H       -5.2710    -3.7770    -0.5270 H     1 <1>   0.1500 
 24 H       -1.8980    -2.8430    -0.4310 H     1 <1>   0.0800 
 25 H       -2.5220    -2.3330    -1.9930 H     1 <1>   0.0800 
 26 H       -3.0300    -3.8440    -1.2960 H     1 <1>   0.0800 
@<TRIPOS>BOND
  1   1   2  2   
  2   1   3  2   
  3   1   4  am  
  4   1   5  1   
  5   4  16  1   
  6   4  17  1   
  7   5   6  1   
  8   5  18  1   
  9   5  19  1   
 10   6   7  1   
 11   6  20  1   
 12   6  21  1   
 13   7   8  am  
 14   7   9  1   
 15   8  10  2   
 16   8  11  1   
 17   9  12  2   
 18   9  13  1   
 19  11  14  2   
 20  11  22  1   
 21  12  14  1   
 22  12  23  1   
 23  13  24  1   
 24  13  25  1   
 25  13  26  1   
 26  14  15  1   
@<TRIPOS>SUBSTRUCTURE
  1 ****   7 GROUP 4 **** **** 0

# MOE 2024.06 (io_trps.svl 2023.06)
