@<TRIPOS>MOLECULE
NONAME
58 60 1 0 0 
SMALL
USER_CHARGES


@<TRIPOS>ATOM
  1 O       -1.4900    -0.1970    -1.2690 O.3   1 <1>  -0.5600 
  2 C       -0.6860    -1.2110    -0.7550 C.3   1 <1>   0.2800 
  3 C       -2.2310     0.5760    -0.3650 C.3   1 <1>   0.1200 
  4 C       -1.5660    -2.1830     0.0720 C.3   1 <1>  -0.1600 
  5 C        0.5010    -0.5770    -0.0030 C.3   1 <1>  -0.1600 
  6 C       -0.1200    -1.9340    -1.9830 C.3   1 <1>  -0.1600 
  7 C       -3.2030    -0.3150     0.4120 C.3   1 <1>  -0.1600 
  8 C       -2.4890    -1.4940     1.0780 C.3   1 <1>   0.2800 
  9 C        1.5220    -1.6310     0.3990 C.3   1 <1>   0.3430 
 10 C        0.9210    -2.9780    -1.5880 C.3   1 <1>   0.3430 
 11 O       -1.7170    -1.0240     2.1130 O.3   1 <1>  -0.6800 
 12 C       -3.4810    -2.4740     1.6990 C.3   1 <1>  -0.2400 
 13 N        2.0270    -2.3340    -0.8210 N.4   1 <1>  -0.9590 
 14 C        3.0820    -3.3330    -0.4930 C.3   1 <1>   0.3430 
 15 C        4.3740    -2.6310    -0.0660 C.3   1 <1>  -0.1600 
 16 C        5.5440    -3.6190     0.1160 C.3   1 <1>  -0.0800 
 17 C        5.2880    -4.5740     1.3050 C.3   1 <1>  -0.1600 
 18 C        6.8460    -2.8070     0.2600 C.3   1 <1>  -0.1600 
 19 C        6.2300    -5.7870     1.3070 C.3   1 <1>  -0.1600 
 20 C        8.1270    -3.6320     0.4620 C.3   1 <1>  -0.1600 
 21 C        7.5500    -5.5770     2.0630 C.3   1 <1>  -0.1600 
 22 C        8.2350    -4.2160     1.8760 C.3   1 <1>  -0.1600 
 23 H       -2.7760     1.3070    -0.9360 H     1 <1>   0.0800 
 24 H       -1.5610     1.0950     0.2970 H     1 <1>   0.0800 
 25 H       -0.9720    -2.9180     0.5820 H     1 <1>   0.0800 
 26 H       -2.1940    -2.7190    -0.6170 H     1 <1>   0.0800 
 27 H        0.1820    -0.0740     0.8870 H     1 <1>   0.0800 
 28 H        0.9770     0.1560    -0.6290 H     1 <1>   0.0800 
 29 H        0.3310    -1.2200    -2.6500 H     1 <1>   0.0800 
 30 H       -0.9160    -2.4170    -2.5200 H     1 <1>   0.0800 
 31 H       -3.9320    -0.6890    -0.2850 H     1 <1>   0.0800 
 32 H       -3.7310     0.2680     1.1450 H     1 <1>   0.0800 
 33 H        1.0640    -2.3370     1.0740 H     1 <1>   0.0800 
 34 H        2.3360    -1.1510     0.9170 H     1 <1>   0.0800 
 35 H        1.3130    -3.4430    -2.4790 H     1 <1>   0.0800 
 36 H        0.4550    -3.7410    -0.9860 H     1 <1>   0.0800 
 37 H       -2.3000    -0.6660     2.8100 H     1 <1>   0.4000 
 38 H       -4.1080    -2.8990     0.9350 H     1 <1>   0.0800 
 39 H       -4.1170    -1.9770     2.4100 H     1 <1>   0.0800 
 40 H       -2.9610    -3.2780     2.1900 H     1 <1>   0.0800 
 41 H        2.4460    -1.6200    -1.4320 H     1 <1>   0.4500 
 42 H        3.2910    -3.9330    -1.3640 H     1 <1>   0.0800 
 43 H        2.7370    -3.9880     0.2900 H     1 <1>   0.0800 
 44 H        4.2270    -2.1020     0.8590 H     1 <1>   0.0800 
 45 H        4.6420    -1.9200    -0.8270 H     1 <1>   0.0800 
 46 H        5.6270    -4.2060    -0.7840 H     1 <1>   0.0800 
 47 H        4.2910    -4.9670     1.2430 H     1 <1>   0.0800 
 48 H        5.3600    -4.0450     2.2410 H     1 <1>   0.0800 
 49 H        6.7500    -2.1090     1.0750 H     1 <1>   0.0800 
 50 H        6.9810    -2.2240    -0.6350 H     1 <1>   0.0800 
 51 H        6.4430    -6.0850     0.2950 H     1 <1>   0.0800 
 52 H        5.7240    -6.6170     1.7700 H     1 <1>   0.0800 
 53 H        8.9630    -2.9680     0.3200 H     1 <1>   0.0800 
 54 H        8.2100    -4.4060    -0.2810 H     1 <1>   0.0800 
 55 H        8.2330    -6.3510     1.7540 H     1 <1>   0.0800 
 56 H        7.3760    -5.7190     3.1160 H     1 <1>   0.0800 
 57 H        7.8350    -3.5130     2.5870 H     1 <1>   0.0800 
 58 H        9.2760    -4.3380     2.1200 H     1 <1>   0.0800 
@<TRIPOS>BOND
  1   1   2  1   
  2   1   3  1   
  3   2   4  1   
  4   2   5  1   
  5   2   6  1   
  6   3   7  1   
  7   3  23  1   
  8   3  24  1   
  9   4   8  1   
 10   4  25  1   
 11   4  26  1   
 12   5   9  1   
 13   5  27  1   
 14   5  28  1   
 15   6  10  1   
 16   6  29  1   
 17   6  30  1   
 18   7   8  1   
 19   7  31  1   
 20   7  32  1   
 21   8  11  1   
 22   8  12  1   
 23   9  13  1   
 24   9  33  1   
 25   9  34  1   
 26  10  13  1   
 27  10  35  1   
 28  10  36  1   
 29  11  37  1   
 30  12  38  1   
 31  12  39  1   
 32  12  40  1   
 33  13  14  1   
 34  13  41  1   
 35  14  15  1   
 36  14  42  1   
 37  14  43  1   
 38  15  16  1   
 39  15  44  1   
 40  15  45  1   
 41  16  17  1   
 42  16  18  1   
 43  16  46  1   
 44  17  19  1   
 45  17  47  1   
 46  17  48  1   
 47  18  20  1   
 48  18  49  1   
 49  18  50  1   
 50  19  21  1   
 51  19  51  1   
 52  19  52  1   
 53  20  22  1   
 54  20  53  1   
 55  20  54  1   
 56  21  22  1   
 57  21  55  1   
 58  21  56  1   
 59  22  57  1   
 60  22  58  1   
@<TRIPOS>SUBSTRUCTURE
  1 ****   9 GROUP 4 **** **** 0

# MOE 2024.06 (io_trps.svl 2023.06)
