@<TRIPOS>MOLECULE
NONAME
50 51 1 0 0 
SMALL
USER_CHARGES


@<TRIPOS>ATOM
  1 S        0.5330     0.0820    -0.3870 S.o2  1 <1>   1.3330 
  2 O       -0.0140    -0.1300    -1.7060 O.2   1 <1>  -0.6500 
  3 O        1.9350     0.4040    -0.2430 O.2   1 <1>  -0.6500 
  4 N        0.1380    -1.2210     0.6200 N.am  1 <1>  -0.8490 
  5 C       -0.3540     1.4570     0.3420 C.3   1 <1>  -0.0550 
  6 C       -1.0900    -1.9190     0.2170 C.3   1 <1>   0.1160 
  7 C        1.2350    -2.1870     0.7470 C.3   1 <1>   0.1160 
  8 C       -0.2050     2.7500    -0.4930 C.3   1 <1>  -0.0800 
  9 C       -0.8650     3.9970     0.0940 C.3   1 <1>   0.2000 
 10 C        1.2590     3.1630    -0.7230 C.3   1 <1>   0.3430 
 11 O       -0.5870     4.0760     1.4560 O.3   1 <1>  -0.6800 
 12 C       -0.1160     5.1260    -0.6190 C.3   1 <1>   0.3430 
 13 N        1.3030     4.6560    -0.7380 N.4   1 <1>  -0.9590 
 14 C        2.1370     5.1520     0.3970 C.3   1 <1>   0.4860 
 15 C        2.1980     6.6620     0.3500 C.ar  1 <1>  -0.1440 
 16 C        2.9920     7.3050    -0.5840 C.ar  1 <1>   0.1600 
 17 C        1.4600     7.4270     1.2350 C.ar  1 <1>  -0.1500 
 18 N        3.0850     8.6120    -0.7240 N.ar  1 <1>  -0.6200 
 19 C        1.5600     8.7910     1.1060 C.ar  1 <1>  -0.1500 
 20 C        2.3700     9.3480     0.1190 C.ar  1 <1>   0.4100 
 21 N        2.4490    10.7230    -0.0080 N.pl3 1 <1>  -0.8380 
 22 C        3.7030    11.3330    -0.5290 C.3   1 <1>   0.1290 
 23 C        1.2170    11.4930    -0.3180 C.3   1 <1>   0.1290 
 24 H       -1.3940     1.2050     0.4160 H     1 <1>   0.0800 
 25 H        0.0200     1.6110     1.3360 H     1 <1>   0.0800 
 26 H       -1.3370    -2.6800     0.9380 H     1 <1>   0.0800 
 27 H       -0.9610    -2.3810    -0.7480 H     1 <1>   0.0800 
 28 H       -1.9120    -1.2260     0.1610 H     1 <1>   0.0800 
 29 H        0.9550    -2.9860     1.4120 H     1 <1>   0.0800 
 30 H        2.1090    -1.7050     1.1530 H     1 <1>   0.0800 
 31 H        1.4860    -2.6010    -0.2170 H     1 <1>   0.0800 
 32 H       -0.6370     2.5700    -1.4630 H     1 <1>   0.0800 
 33 H       -1.9310     4.0470    -0.0560 H     1 <1>   0.0800 
 34 H        1.6250     2.7510    -1.6510 H     1 <1>   0.0800 
 35 H        1.8720     2.7850     0.0810 H     1 <1>   0.0800 
 36 H       -1.2830     3.6340     1.9890 H     1 <1>   0.4000 
 37 H       -0.2040     6.0560    -0.0820 H     1 <1>   0.0800 
 38 H       -0.5330     5.2530    -1.6050 H     1 <1>   0.0800 
 39 H        1.7100     5.0060    -1.6150 H     1 <1>   0.4500 
 40 H        1.7100     4.8360     1.3350 H     1 <1>   0.0800 
 41 H        3.1360     4.7510     0.3270 H     1 <1>   0.0800 
 42 H        3.5890     6.7220    -1.2650 H     1 <1>   0.1500 
 43 H        0.8370     6.9880     1.9970 H     1 <1>   0.1500 
 44 H        1.0270     9.4510     1.7640 H     1 <1>   0.1500 
 45 H        3.7880    12.3490    -0.1860 H     1 <1>   0.0800 
 46 H        3.6980    11.3160    -1.6050 H     1 <1>   0.0800 
 47 H        4.5550    10.7780    -0.1770 H     1 <1>   0.0800 
 48 H        1.1750    12.3720     0.3020 H     1 <1>   0.0800 
 49 H        0.3400    10.8970    -0.1360 H     1 <1>   0.0800 
 50 H        1.2210    11.7890    -1.3530 H     1 <1>   0.0800 
@<TRIPOS>BOND
  1   1   2  2   
  2   1   3  2   
  3   1   4  am  
  4   1   5  1   
  5   4   6  1   
  6   4   7  1   
  7   5   8  1   
  8   5  24  1   
  9   5  25  1   
 10   6  26  1   
 11   6  27  1   
 12   6  28  1   
 13   7  29  1   
 14   7  30  1   
 15   7  31  1   
 16   8   9  1   
 17   8  10  1   
 18   8  32  1   
 19   9  11  1   
 20   9  12  1   
 21   9  33  1   
 22  10  13  1   
 23  10  34  1   
 24  10  35  1   
 25  11  36  1   
 26  12  13  1   
 27  12  37  1   
 28  12  38  1   
 29  13  14  1   
 30  13  39  1   
 31  14  15  1   
 32  14  40  1   
 33  14  41  1   
 34  15  16  ar  
 35  15  17  ar  
 36  16  18  ar  
 37  16  42  1   
 38  17  19  ar  
 39  17  43  1   
 40  18  20  ar  
 41  19  20  ar  
 42  19  44  1   
 43  20  21  1   
 44  21  22  1   
 45  21  23  1   
 46  22  45  1   
 47  22  46  1   
 48  22  47  1   
 49  23  48  1   
 50  23  49  1   
 51  23  50  1   
@<TRIPOS>SUBSTRUCTURE
  1 ****  13 GROUP 4 **** **** 0

# MOE 2024.06 (io_trps.svl 2023.06)
