@<TRIPOS>MOLECULE
NONAME
46 48 1 0 0 
SMALL
USER_CHARGES


@<TRIPOS>ATOM
  1 S        0.2040     0.4750     0.2580 S.3   1 <1>  -0.2420 
  2 C        1.8100    -0.2440     0.1470 C.2   1 <1>   0.6410 
  3 C       -0.5680    -1.1180     0.0990 C.2   1 <1>  -0.0490 
  4 N        2.8950     0.4390     0.1970 N.2   1 <1>  -0.6610 
  5 N        1.7000    -1.6180     0.0020 N.pl3 1 <1>  -0.1080 
  6 C        0.3640    -2.0820    -0.0240 C.2   1 <1>   0.2090 
  7 C        4.0150    -0.3410     0.0900 C.2   1 <1>   0.7810 
  8 N        2.8040    -2.4300    -0.1060 N.2   1 <1>  -0.4920 
  9 N        0.1840    -3.4630    -0.1720 N.am  1 <1>  -0.5390 
 10 O        5.0970     0.2330     0.1280 O.2   1 <1>  -0.5700 
 11 C        3.9250    -1.7820    -0.0620 C.2   1 <1>   0.3890 
 12 C       -0.9680    -4.1970    -0.2730 C.2   1 <1>   0.5440 
 13 C        5.2090    -2.5920    -0.1750 C.3   1 <1>  -0.1790 
 14 O       -2.0400    -3.6250    -0.2880 O.2   1 <1>  -0.5700 
 15 C       -0.8950    -5.6420    -0.3800 C.ar  1 <1>   0.0860 
 16 C        0.1180    -6.3810     0.2340 C.ar  1 <1>  -0.1500 
 17 C       -1.8470    -6.3510    -1.1130 C.ar  1 <1>  -0.1500 
 18 C        0.1840    -7.7570     0.1100 C.ar  1 <1>  -0.1500 
 19 C       -1.7860    -7.7260    -1.2390 C.ar  1 <1>  -0.1500 
 20 C       -0.7670    -8.4390    -0.6300 C.ar  1 <1>  -0.1430 
 21 C       -0.7030    -9.9510    -0.7620 C.3   1 <1>  -0.0170 
 22 C       -1.4600   -10.6150     0.4010 C.3   1 <1>  -0.1600 
 23 C       -1.5470   -12.1500     0.3340 C.3   1 <1>   0.2800 
 24 O       -2.1520   -12.4970    -0.8450 O.3   1 <1>  -0.6800 
 25 C       -2.4280   -12.6950     1.4560 C.3   1 <1>  -0.2400 
 26 C       -0.1800   -12.8320     0.3450 C.3   1 <1>  -0.2400 
 27 H       -1.6430    -1.1540     0.1150 H     1 <1>   0.1500 
 28 H        1.0650    -3.9710    -0.2670 H     1 <1>   0.3700 
 29 H        5.7720    -2.2640    -1.0300 H     1 <1>   0.0800 
 30 H        4.9920    -3.6400    -0.2850 H     1 <1>   0.0800 
 31 H        5.8070    -2.4530     0.7070 H     1 <1>   0.0800 
 32 H        0.8630    -5.8800     0.8270 H     1 <1>   0.1500 
 33 H       -2.6470    -5.8090    -1.5890 H     1 <1>   0.1500 
 34 H        0.9760    -8.3010     0.5950 H     1 <1>   0.1500 
 35 H       -2.5360    -8.2410    -1.8140 H     1 <1>   0.1500 
 36 H        0.3260   -10.2630    -0.7650 H     1 <1>   0.0800 
 37 H       -1.1350   -10.2470    -1.7030 H     1 <1>   0.0800 
 38 H       -2.4560   -10.2100     0.4410 H     1 <1>   0.0800 
 39 H       -0.9760   -10.3400     1.3220 H     1 <1>   0.0800 
 40 H       -3.0690   -12.1690    -0.8460 H     1 <1>   0.4000 
 41 H       -3.4030   -12.2440     1.4340 H     1 <1>   0.0800 
 42 H       -1.9800   -12.4800     2.4090 H     1 <1>   0.0800 
 43 H       -2.5310   -13.7620     1.3670 H     1 <1>   0.0800 
 44 H        0.3960   -12.5550    -0.5180 H     1 <1>   0.0800 
 45 H       -0.2990   -13.9000     0.3450 H     1 <1>   0.0800 
 46 H        0.3660   -12.5530     1.2280 H     1 <1>   0.0800 
@<TRIPOS>BOND
  1   1   2  1   
  2   1   3  1   
  3   2   4  2   
  4   2   5  1   
  5   3   6  2   
  6   3  27  1   
  7   4   7  1   
  8   5   6  1   
  9   5   8  1   
 10   6   9  1   
 11   7  10  2   
 12   7  11  1   
 13   8  11  2   
 14   9  12  am  
 15   9  28  1   
 16  11  13  1   
 17  12  14  2   
 18  12  15  1   
 19  13  29  1   
 20  13  30  1   
 21  13  31  1   
 22  15  16  ar  
 23  15  17  ar  
 24  16  18  ar  
 25  16  32  1   
 26  17  19  ar  
 27  17  33  1   
 28  18  20  ar  
 29  18  34  1   
 30  19  20  ar  
 31  19  35  1   
 32  20  21  1   
 33  21  22  1   
 34  21  36  1   
 35  21  37  1   
 36  22  23  1   
 37  22  38  1   
 38  22  39  1   
 39  23  24  1   
 40  23  25  1   
 41  23  26  1   
 42  24  40  1   
 43  25  41  1   
 44  25  42  1   
 45  25  43  1   
 46  26  44  1   
 47  26  45  1   
 48  26  46  1   
@<TRIPOS>SUBSTRUCTURE
  1 ****  16 GROUP 4 **** **** 0

# MOE 2024.06 (io_trps.svl 2023.06)
