@<TRIPOS>MOLECULE
NONAME
43 45 1 0 0 
SMALL
USER_CHARGES


@<TRIPOS>ATOM
  1 O        0.1800    -1.2910     1.2140 O.3   1 <1>  -0.5600 
  2 C       -0.8070    -2.0270     0.5680 C.3   1 <1>   0.1200 
  3 C       -0.2670    -0.5690     2.3160 C.3   1 <1>   0.0400 
  4 C       -0.2550    -2.7040    -0.7090 C.3   1 <1>   0.0000 
  5 C        0.3790    -1.7120    -1.7290 C.3   1 <1>   0.0000 
  6 C        1.1430    -3.3800    -0.5710 C.3   1 <1>   0.0000 
  7 C       -1.2990    -3.6220    -1.3620 C.3   1 <1>   0.2090 
  8 C        1.7830    -2.1200    -1.2100 C.3   1 <1>   0.0000 
  9 N       -1.5770    -4.7960    -0.4810 N.pl3 1 <1>  -0.8690 
 10 C       -2.7420    -5.4370    -0.2960 C.ar  1 <1>   0.4610 
 11 N       -2.7890    -6.4570     0.5620 N.ar  1 <1>  -0.1790 
 12 C       -3.9460    -5.0990    -0.9640 C.ar  1 <1>  -0.1500 
 13 C       -3.9310    -7.1850     0.8470 C.ar  1 <1>   0.3610 
 14 C       -5.1100    -5.7680    -0.7380 C.ar  1 <1>  -0.1430 
 15 C       -5.1340    -6.8490     0.1960 C.ar  1 <1>   0.0000 
 16 C       -3.9000    -8.2380     1.7680 C.ar  1 <1>  -0.1500 
 17 C       -6.3810    -5.3690    -1.4790 C.3   1 <1>  -0.0970 
 18 C       -6.2790    -7.6020     0.5080 C.ar  1 <1>  -0.1500 
 19 C       -5.0360    -8.9550     2.0500 C.ar  1 <1>  -0.1500 
 20 C       -6.2310    -8.6320     1.4150 C.ar  1 <1>  -0.1500 
 21 H       -1.6120    -1.3600     0.3090 H     1 <1>   0.0800 
 22 H       -1.1680    -2.7680     1.2600 H     1 <1>   0.0800 
 23 H        0.5760    -0.0510     2.7390 H     1 <1>   0.0800 
 24 H       -0.6780    -1.2460     3.0440 H     1 <1>   0.0800 
 25 H       -1.0060     0.1450     1.9980 H     1 <1>   0.0800 
 26 H        0.1400    -0.6780    -1.5490 H     1 <1>   0.0000 
 27 H        0.2320    -2.0030    -2.7550 H     1 <1>   0.0000 
 28 H        1.2580    -4.2460    -1.2000 H     1 <1>   0.0000 
 29 H        1.4540    -3.5550     0.4440 H     1 <1>   0.0000 
 30 H       -0.9260    -3.9790    -2.3090 H     1 <1>   0.0800 
 31 H       -2.1940    -3.0540    -1.5470 H     1 <1>   0.0800 
 32 H        2.1750    -1.4330    -0.4810 H     1 <1>   0.0000 
 33 H        2.4800    -2.3460    -1.9960 H     1 <1>   0.0000 
 34 H       -0.7070    -5.0930    -0.0210 H     1 <1>   0.4000 
 35 H       -1.9340    -6.7150     1.0430 H     1 <1>   0.4570 
 36 H       -3.9210    -4.2910    -1.6700 H     1 <1>   0.1500 
 37 H       -2.9820    -8.4970     2.2660 H     1 <1>   0.1500 
 38 H       -6.2010    -4.5450    -2.1470 H     1 <1>   0.0800 
 39 H       -7.1430    -5.0690    -0.7800 H     1 <1>   0.0800 
 40 H       -6.7480    -6.1950    -2.0620 H     1 <1>   0.0800 
 41 H       -7.2180    -7.3770     0.0320 H     1 <1>   0.1500 
 42 H       -5.0200    -9.7680     2.7590 H     1 <1>   0.1500 
 43 H       -7.1190    -9.2000     1.6430 H     1 <1>   0.1500 
@<TRIPOS>BOND
  1   1   2  1   
  2   1   3  1   
  3   2   4  1   
  4   2  21  1   
  5   2  22  1   
  6   3  23  1   
  7   3  24  1   
  8   3  25  1   
  9   4   5  1   
 10   4   6  1   
 11   4   7  1   
 12   5   8  1   
 13   5  26  1   
 14   5  27  1   
 15   6   8  1   
 16   6  28  1   
 17   6  29  1   
 18   7   9  1   
 19   7  30  1   
 20   7  31  1   
 21   8  32  1   
 22   8  33  1   
 23   9  10  1   
 24   9  34  1   
 25  10  11  ar  
 26  10  12  ar  
 27  11  13  ar  
 28  11  35  1   
 29  12  14  ar  
 30  12  36  1   
 31  13  15  ar  
 32  13  16  ar  
 33  14  15  ar  
 34  14  17  1   
 35  15  18  ar  
 36  16  19  ar  
 37  16  37  1   
 38  17  38  1   
 39  17  39  1   
 40  17  40  1   
 41  18  20  ar  
 42  18  41  1   
 43  19  20  ar  
 44  19  42  1   
 45  20  43  1   
@<TRIPOS>SUBSTRUCTURE
  1 ****  10 GROUP 4 **** **** 0

# MOE 2024.06 (io_trps.svl 2023.06)
