@<TRIPOS>MOLECULE
NONAME
51 53 1 0 0 
SMALL
USER_CHARGES


@<TRIPOS>ATOM
  1 O       -0.6310    -1.6040     2.2490 O.2   1 <1>  -0.5700 
  2 C        0.1310    -2.2760     1.5980 C.2   1 <1>   0.5690 
  3 N       -0.2400    -2.9760     0.4830 N.am  1 <1>  -0.6600 
  4 C        1.5820    -2.3620     2.0250 C.3   1 <1>  -0.0990 
  5 C        0.7450    -3.8030    -0.2550 C.3   1 <1>   0.1400 
  6 C       -1.6440    -3.0040    -0.0110 C.3   1 <1>   0.0600 
  7 C        2.5100    -2.2010     0.8060 C.3   1 <1>  -0.0800 
  8 C        2.0650    -3.0230    -0.4270 C.3   1 <1>  -0.0800 
  9 C        3.9650    -2.5940     1.0950 C.3   1 <1>  -0.1600 
 10 C        3.2570    -3.9220    -0.7860 C.3   1 <1>  -0.1600 
 11 C        4.4660    -3.1800    -0.2240 C.3   1 <1>   0.4230 
 12 N        5.6930    -4.0330    -0.1050 N.4   1 <1>  -0.9590 
 13 C        6.8810    -3.2370     0.3460 C.3   1 <1>   0.3430 
 14 C        5.5400    -5.2210     0.8020 C.3   1 <1>   0.2630 
 15 C        7.3870    -2.2690    -0.7280 C.3   1 <1>  -0.0990 
 16 C        8.5250    -1.4510    -0.1560 C.2   1 <1>   0.5690 
 17 O        8.5720    -1.3320     1.0420 O.2   1 <1>  -0.5700 
 18 N        9.4190    -0.8810    -1.0190 N.am  1 <1>  -0.5470 
 19 C       10.5640    -0.1010    -0.7500 C.ar  1 <1>   0.1170 
 20 C       11.0590     0.7770    -1.7180 C.ar  1 <1>   0.1600 
 21 C       11.2560    -0.1720     0.4490 C.ar  1 <1>  -0.1500 
 22 N       12.1270     1.5470    -1.5970 N.ar  1 <1>  -0.6200 
 23 C       12.3700     0.6250     0.5990 C.ar  1 <1>  -0.1500 
 24 C       12.7590     1.4560    -0.4380 C.ar  1 <1>   0.1600 
 25 H        1.7860    -1.5950     2.7510 H     1 <1>   0.0800 
 26 H        1.7240    -3.3170     2.4960 H     1 <1>   0.0800 
 27 H        0.9090    -4.7060     0.3080 H     1 <1>   0.0800 
 28 H        0.3510    -4.0730    -1.2200 H     1 <1>   0.0800 
 29 H       -1.6850    -2.6200    -1.0150 H     1 <1>   0.0800 
 30 H       -2.2760    -2.3960     0.6140 H     1 <1>   0.0800 
 31 H       -2.0160    -4.0130     0.0020 H     1 <1>   0.0800 
 32 H        2.4840    -1.1610     0.5210 H     1 <1>   0.0800 
 33 H        1.9140    -2.3280    -1.2380 H     1 <1>   0.0800 
 34 H        3.9850    -3.3300     1.8770 H     1 <1>   0.0800 
 35 H        4.5380    -1.7340     1.3950 H     1 <1>   0.0800 
 36 H        3.3310    -4.0580    -1.8510 H     1 <1>   0.0800 
 37 H        3.1300    -4.8750    -0.3070 H     1 <1>   0.0800 
 38 H        4.6680    -2.3550    -0.8880 H     1 <1>   0.0800 
 39 H        5.8970    -4.3970    -1.0460 H     1 <1>   0.4500 
 40 H        6.6290    -2.6820     1.2370 H     1 <1>   0.0800 
 41 H        7.6880    -3.9040     0.6060 H     1 <1>   0.0800 
 42 H        5.3380    -4.9040     1.8120 H     1 <1>   0.0800 
 43 H        6.4470    -5.8050     0.8070 H     1 <1>   0.0800 
 44 H        4.7350    -5.8550     0.4710 H     1 <1>   0.0800 
 45 H        6.6150    -1.5840    -1.0250 H     1 <1>   0.0800 
 46 H        7.7380    -2.8180    -1.5820 H     1 <1>   0.0800 
 47 H        9.2140    -0.9860    -2.0120 H     1 <1>   0.3700 
 48 H       10.5340     0.8470    -2.6530 H     1 <1>   0.1500 
 49 H       10.9480    -0.8250     1.2450 H     1 <1>   0.1500 
 50 H       12.9350     0.6050     1.5130 H     1 <1>   0.1500 
 51 H       13.6310     2.0740    -0.3080 H     1 <1>   0.1500 
@<TRIPOS>BOND
  1   1   2  2   
  2   2   3  am  
  3   2   4  1   
  4   3   5  1   
  5   3   6  1   
  6   4   7  1   
  7   4  25  1   
  8   4  26  1   
  9   5   8  1   
 10   5  27  1   
 11   5  28  1   
 12   6  29  1   
 13   6  30  1   
 14   6  31  1   
 15   7   8  1   
 16   7   9  1   
 17   7  32  1   
 18   8  10  1   
 19   8  33  1   
 20   9  11  1   
 21   9  34  1   
 22   9  35  1   
 23  10  11  1   
 24  10  36  1   
 25  10  37  1   
 26  11  12  1   
 27  11  38  1   
 28  12  13  1   
 29  12  14  1   
 30  12  39  1   
 31  13  15  1   
 32  13  40  1   
 33  13  41  1   
 34  14  42  1   
 35  14  43  1   
 36  14  44  1   
 37  15  16  1   
 38  15  45  1   
 39  15  46  1   
 40  16  17  2   
 41  16  18  am  
 42  18  19  1   
 43  18  47  1   
 44  19  20  ar  
 45  19  21  ar  
 46  20  22  ar  
 47  20  48  1   
 48  21  23  ar  
 49  21  49  1   
 50  22  24  ar  
 51  23  24  ar  
 52  23  50  1   
 53  24  51  1   
@<TRIPOS>SUBSTRUCTURE
  1 ****  13 GROUP 4 **** **** 0

# MOE 2024.06 (io_trps.svl 2023.06)
