@<TRIPOS>MOLECULE
NONAME
39 42 1 0 0 
SMALL
USER_CHARGES


@<TRIPOS>ATOM
  1 S       -0.2240    -0.3850    -1.0630 S.3   1 <1>  -0.0800 
  2 C       -0.7450     1.2820    -1.1360 C.2   1 <1>   0.4620 
  3 C       -1.5370    -0.7430     0.0410 C.2   1 <1>  -0.0450 
  4 N       -1.7730     1.5470    -0.4170 N.2   1 <1>  -0.5650 
  5 N       -0.0650     2.1490    -1.9120 N.pl3 1 <1>  -0.8840 
  6 C       -1.7120    -2.0790     0.5360 C.2   1 <1>   0.7150 
  7 C       -2.1980     0.4220     0.2380 C.2   1 <1>   0.0770 
  8 O       -0.7490    -2.8180     0.6500 O.2   1 <1>  -0.5700 
  9 N       -2.9560    -2.5610     0.8920 N.am  1 <1>  -0.6600 
 10 C       -4.2170    -2.1520     0.2150 C.3   1 <1>   0.1400 
 11 C       -3.1030    -3.7630     1.7600 C.3   1 <1>   0.1400 
 12 C       -4.7210    -3.3130    -0.6440 C.3   1 <1>  -0.1600 
 13 C       -3.5970    -4.9380     0.9160 C.3   1 <1>  -0.1600 
 14 C       -4.8960    -4.5970     0.1780 C.3   1 <1>   0.4610 
 15 O       -5.8670    -4.3690     1.1850 O.3   1 <1>  -0.5600 
 16 C       -5.3250    -5.7660    -0.7100 C.2   1 <1>  -0.1810 
 17 C       -7.2310    -4.4510     0.8390 C.3   1 <1>   0.1200 
 18 C       -6.5400    -6.3150    -0.5880 C.2   1 <1>  -0.1400 
 19 C       -4.5290    -6.3900    -1.7290 C.2   1 <1>  -0.1500 
 20 C       -7.6060    -5.8680     0.3750 C.3   1 <1>   0.0200 
 21 S       -6.7730    -7.6440    -1.7040 S.3   1 <1>  -0.0800 
 22 C       -5.1560    -7.4080    -2.3510 C.2   1 <1>  -0.1100 
 23 H       -0.3430     3.1300    -1.9490 H     1 <1>   0.4000 
 24 H        0.7690     1.8860    -2.4380 H     1 <1>   0.4000 
 25 H       -3.0500     0.5210     0.8890 H     1 <1>   0.1500 
 26 H       -4.0610    -1.2950    -0.4150 H     1 <1>   0.0800 
 27 H       -4.9530    -1.8970     0.9600 H     1 <1>   0.0800 
 28 H       -3.8110    -3.5490     2.5430 H     1 <1>   0.0800 
 29 H       -2.1630    -4.0140     2.2240 H     1 <1>   0.0800 
 30 H       -4.0060    -3.4930    -1.4260 H     1 <1>   0.0800 
 31 H       -5.6470    -3.0490    -1.1190 H     1 <1>   0.0800 
 32 H       -3.7600    -5.7960     1.5420 H     1 <1>   0.0800 
 33 H       -2.8280    -5.1920     0.2100 H     1 <1>   0.0800 
 34 H       -7.4280    -3.7380     0.0580 H     1 <1>   0.0800 
 35 H       -7.8070    -4.1790     1.7060 H     1 <1>   0.0800 
 36 H       -3.5320    -6.0510    -1.9470 H     1 <1>   0.1500 
 37 H       -8.5670    -5.8530    -0.1060 H     1 <1>   0.0800 
 38 H       -7.6470    -6.5370     1.2150 H     1 <1>   0.0800 
 39 H       -4.8410    -8.0670    -3.1400 H     1 <1>   0.1500 
@<TRIPOS>BOND
  1   1   2  1   
  2   1   3  1   
  3   2   4  2   
  4   2   5  1   
  5   3   6  1   
  6   3   7  2   
  7   4   7  1   
  8   5  23  1   
  9   5  24  1   
 10   6   8  2   
 11   6   9  am  
 12   7  25  1   
 13   9  10  1   
 14   9  11  1   
 15  10  12  1   
 16  10  26  1   
 17  10  27  1   
 18  11  13  1   
 19  11  28  1   
 20  11  29  1   
 21  12  14  1   
 22  12  30  1   
 23  12  31  1   
 24  13  14  1   
 25  13  32  1   
 26  13  33  1   
 27  14  15  1   
 28  14  16  1   
 29  15  17  1   
 30  16  18  2   
 31  16  19  1   
 32  17  20  1   
 33  17  34  1   
 34  17  35  1   
 35  18  20  1   
 36  18  21  1   
 37  19  22  2   
 38  19  36  1   
 39  20  37  1   
 40  20  38  1   
 41  21  22  1   
 42  22  39  1   
@<TRIPOS>SUBSTRUCTURE
  1 ****  12 GROUP 4 **** **** 0

# MOE 2024.06 (io_trps.svl 2023.06)
