@<TRIPOS>MOLECULE
NONAME
40 41 1 0 0 
SMALL
USER_CHARGES


@<TRIPOS>ATOM
  1 S        0.3230    -0.5750    -0.9030 S.o2  1 <1>   1.3330 
  2 O        1.3930     0.2300    -1.4510 O.2   1 <1>  -0.6500 
  3 O        0.0440    -1.8710    -1.4800 O.2   1 <1>  -0.6500 
  4 N       -1.1070     0.3280    -0.9720 N.am  1 <1>  -0.8490 
  5 C        0.6010    -0.7620     0.8640 C.3   1 <1>  -0.0550 
  6 C       -2.3060    -0.5020    -0.7750 C.3   1 <1>   0.1960 
  7 C       -1.2190     1.1310    -2.1870 C.3   1 <1>   0.1960 
  8 C        0.7200     0.5670     1.6320 C.3   1 <1>  -0.1600 
  9 C       -3.5520     0.3760    -0.5310 C.3   1 <1>   0.0000 
 10 C       -2.4190     2.0770    -2.0700 C.3   1 <1>  -0.1600 
 11 C        0.9640     0.3280     3.1250 C.3   1 <1>  -0.2400 
 12 C       -3.4790     1.1570     0.8000 C.3   1 <1>   0.2000 
 13 C       -3.7190     1.3210    -1.7500 C.3   1 <1>  -0.1600 
 14 C       -4.8380    -0.4540    -0.3580 C.3   1 <1>  -0.1600 
 15 O       -3.0570     0.3280     1.8310 O.3   1 <1>  -0.6800 
 16 C       -4.9290     1.5210     1.1130 C.3   1 <1>  -0.1600 
 17 C       -5.7830     0.3980     0.5040 C.3   1 <1>  -0.1600 
 18 H       -0.2070    -1.3270     1.2860 H     1 <1>   0.0800 
 19 H        1.5020    -1.3270     1.0100 H     1 <1>   0.0800 
 20 H       -2.4610    -1.1200    -1.6450 H     1 <1>   0.0800 
 21 H       -2.1580    -1.1610     0.0620 H     1 <1>   0.0800 
 22 H       -0.3290     1.7220    -2.3220 H     1 <1>   0.0800 
 23 H       -1.3280     0.4850    -3.0430 H     1 <1>   0.0800 
 24 H        1.5300     1.1460     1.2210 H     1 <1>   0.0800 
 25 H       -0.1880     1.1330     1.5080 H     1 <1>   0.0800 
 26 H       -2.2110     2.8010    -1.3020 H     1 <1>   0.0800 
 27 H       -2.5340     2.6140    -2.9950 H     1 <1>   0.0800 
 28 H        1.8740    -0.2260     3.2780 H     1 <1>   0.0800 
 29 H        0.1430    -0.2210     3.5540 H     1 <1>   0.0800 
 30 H        1.0460     1.2700     3.6370 H     1 <1>   0.0800 
 31 H       -2.8190     2.0070     0.7610 H     1 <1>   0.0800 
 32 H       -3.9790     0.7340    -2.6130 H     1 <1>   0.0800 
 33 H       -4.5150     2.0260    -1.5930 H     1 <1>   0.0800 
 34 H       -5.2880    -0.7200    -1.2990 H     1 <1>   0.0800 
 35 H       -4.6110    -1.3640     0.1720 H     1 <1>   0.0800 
 36 H       -3.7620    -0.3190     2.0180 H     1 <1>   0.4000 
 37 H       -5.0980     1.6480     2.1680 H     1 <1>   0.0800 
 38 H       -5.1660     2.4500     0.6240 H     1 <1>   0.0800 
 39 H       -6.2330    -0.2040     1.2740 H     1 <1>   0.0800 
 40 H       -6.5660     0.8230    -0.1020 H     1 <1>   0.0800 
@<TRIPOS>BOND
  1   1   2  2   
  2   1   3  2   
  3   1   4  am  
  4   1   5  1   
  5   4   6  1   
  6   4   7  1   
  7   5   8  1   
  8   5  18  1   
  9   5  19  1   
 10   6   9  1   
 11   6  20  1   
 12   6  21  1   
 13   7  10  1   
 14   7  22  1   
 15   7  23  1   
 16   8  11  1   
 17   8  24  1   
 18   8  25  1   
 19   9  12  1   
 20   9  13  1   
 21   9  14  1   
 22  10  13  1   
 23  10  26  1   
 24  10  27  1   
 25  11  28  1   
 26  11  29  1   
 27  11  30  1   
 28  12  15  1   
 29  12  16  1   
 30  12  31  1   
 31  13  32  1   
 32  13  33  1   
 33  14  17  1   
 34  14  34  1   
 35  14  35  1   
 36  15  36  1   
 37  16  17  1   
 38  16  37  1   
 39  16  38  1   
 40  17  39  1   
 41  17  40  1   
@<TRIPOS>SUBSTRUCTURE
  1 ****   6 GROUP 4 **** **** 0

# MOE 2024.06 (io_trps.svl 2023.06)
