@<TRIPOS>MOLECULE
NONAME
49 51 1 0 0 
SMALL
USER_CHARGES


@<TRIPOS>ATOM
  1 O       -0.4980    -0.8600    -0.5510 O.2   1 <1>  -0.5700 
  2 C        0.2910    -1.7370    -0.3000 C.2   1 <1>   0.5690 
  3 N       -0.0700    -3.0330    -0.0510 N.am  1 <1>  -0.6600 
  4 C        1.7680    -1.4020    -0.2480 C.3   1 <1>  -0.0990 
  5 C        0.9520    -4.0580     0.2650 C.3   1 <1>   0.1400 
  6 C       -1.4920    -3.4730    -0.0320 C.3   1 <1>   0.0600 
  7 C        2.5900    -2.4670    -0.9970 C.3   1 <1>  -0.0800 
  8 C        2.1500    -3.9200    -0.6970 C.3   1 <1>  -0.0800 
  9 C        4.0930    -2.3950    -0.6970 C.3   1 <1>  -0.1600 
 10 C        3.4090    -4.6510    -0.2080 C.3   1 <1>  -0.1600 
 11 C        4.5640    -3.8430    -0.7940 C.3   1 <1>   0.4230 
 12 N        5.8800    -4.0990    -0.1420 N.4   1 <1>  -0.9590 
 13 C        6.0120    -3.7210     1.3040 C.3   1 <1>   0.4860 
 14 C        6.3870    -5.4780    -0.4050 C.3   1 <1>   0.2630 
 15 C        6.6730    -2.3460     1.4080 C.ar  1 <1>   0.1670 
 16 N        7.4560    -1.9660     0.4110 N.ar  1 <1>  -0.6200 
 17 C        6.4480    -1.5330     2.4960 C.ar  1 <1>  -0.1500 
 18 C        8.0110    -0.7670     0.5360 C.ar  1 <1>   0.4770 
 19 C        7.0700    -0.3090     2.5130 C.ar  1 <1>   0.1600 
 20 N        7.8540     0.0830     1.5350 N.ar  1 <1>  -0.6200 
 21 C        8.9290    -0.3190    -0.5900 C.3   1 <1>  -0.0170 
 22 C       10.3540    -0.8720    -0.4320 C.3   1 <1>  -0.2400 
 23 H        1.9290    -0.4330    -0.6870 H     1 <1>   0.0800 
 24 H        2.0500    -1.3520     0.7870 H     1 <1>   0.0800 
 25 H        1.2660    -3.9130     1.2850 H     1 <1>   0.0800 
 26 H        0.5270    -5.0430     0.1780 H     1 <1>   0.0800 
 27 H       -1.6490    -4.2340    -0.7760 H     1 <1>   0.0800 
 28 H       -2.1480    -2.6460    -0.2450 H     1 <1>   0.0800 
 29 H       -1.7410    -3.8650     0.9390 H     1 <1>   0.0800 
 30 H        2.4430    -2.3020    -2.0530 H     1 <1>   0.0800 
 31 H        1.8510    -4.3630    -1.6340 H     1 <1>   0.0800 
 32 H        4.2310    -2.0050     0.2930 H     1 <1>   0.0800 
 33 H        4.6010    -1.7630    -1.4040 H     1 <1>   0.0800 
 34 H        3.4180    -5.6700    -0.5550 H     1 <1>   0.0800 
 35 H        3.4380    -4.6340     0.8660 H     1 <1>   0.0800 
 36 H        4.6390    -4.0870    -1.8420 H     1 <1>   0.0800 
 37 H        6.5480    -3.4310    -0.5770 H     1 <1>   0.4500 
 38 H        5.0510    -3.7060     1.7870 H     1 <1>   0.0800 
 39 H        6.6410    -4.4330     1.8110 H     1 <1>   0.0800 
 40 H        5.7570    -6.2090     0.0750 H     1 <1>   0.0800 
 41 H        7.3920    -5.5850    -0.0290 H     1 <1>   0.0800 
 42 H        6.3990    -5.6750    -1.4650 H     1 <1>   0.0800 
 43 H        5.8150    -1.8260     3.3130 H     1 <1>   0.1500 
 44 H        6.9260     0.3650     3.3420 H     1 <1>   0.1500 
 45 H        8.5200    -0.6430    -1.5290 H     1 <1>   0.0800 
 46 H        8.9670     0.7560    -0.6060 H     1 <1>   0.0800 
 47 H       10.3410    -1.9470    -0.4370 H     1 <1>   0.0800 
 48 H       10.7770    -0.5350     0.4980 H     1 <1>   0.0800 
 49 H       10.9760    -0.5290    -1.2390 H     1 <1>   0.0800 
@<TRIPOS>BOND
  1   1   2  2   
  2   2   3  am  
  3   2   4  1   
  4   3   5  1   
  5   3   6  1   
  6   4   7  1   
  7   4  23  1   
  8   4  24  1   
  9   5   8  1   
 10   5  25  1   
 11   5  26  1   
 12   6  27  1   
 13   6  28  1   
 14   6  29  1   
 15   7   8  1   
 16   7   9  1   
 17   7  30  1   
 18   8  10  1   
 19   8  31  1   
 20   9  11  1   
 21   9  32  1   
 22   9  33  1   
 23  10  11  1   
 24  10  34  1   
 25  10  35  1   
 26  11  12  1   
 27  11  36  1   
 28  12  13  1   
 29  12  14  1   
 30  12  37  1   
 31  13  15  1   
 32  13  38  1   
 33  13  39  1   
 34  14  40  1   
 35  14  41  1   
 36  14  42  1   
 37  15  16  ar  
 38  15  17  ar  
 39  16  18  ar  
 40  17  19  ar  
 41  17  43  1   
 42  18  20  ar  
 43  18  21  1   
 44  19  20  ar  
 45  19  44  1   
 46  21  22  1   
 47  21  45  1   
 48  21  46  1   
 49  22  47  1   
 50  22  48  1   
 51  22  49  1   
@<TRIPOS>SUBSTRUCTURE
  1 ****   9 GROUP 4 **** **** 0

# MOE 2024.06 (io_trps.svl 2023.06)
