@<TRIPOS>MOLECULE
NONAME
43 45 1 0 0 
SMALL
USER_CHARGES


@<TRIPOS>ATOM
  1 S       -0.8470    -0.6510     0.7350 S.3   1 <1>  -0.0800 
  2 C       -2.0220    -0.9260    -0.5450 C.2   1 <1>  -0.1400 
  3 C       -1.1790     1.0710     0.7400 C.2   1 <1>  -0.1100 
  4 C       -2.5910     0.2410    -0.9090 C.2   1 <1>  -0.1500 
  5 C       -2.2040    -2.3600    -1.0250 C.3   1 <1>   0.3800 
  6 C       -2.1140     1.3760    -0.1780 C.2   1 <1>  -0.1500 
  7 O       -3.0820    -2.3540    -2.0940 O.3   1 <1>  -0.6800 
  8 C       -2.7550    -3.2970     0.0760 C.3   1 <1>  -0.0800 
  9 C       -2.9590    -4.7380    -0.4410 C.3   1 <1>  -0.1600 
 10 C       -4.0630    -2.7750     0.7120 C.3   1 <1>  -0.1600 
 11 C       -3.4960    -5.6690     0.6480 C.3   1 <1>   0.2090 
 12 C       -4.6100    -3.7300     1.7770 C.3   1 <1>   0.2090 
 13 N       -4.7430    -5.1000     1.2190 N.pl3 1 <1>  -0.8380 
 14 C       -5.9730    -5.5420     0.7570 C.ar  1 <1>   0.4100 
 15 N       -6.6640    -4.6610     0.0400 N.ar  1 <1>  -0.6200 
 16 C       -6.4450    -6.8320     1.0320 C.ar  1 <1>   0.0730 
 17 C       -7.8320    -5.0430    -0.4450 C.ar  1 <1>   0.1670 
 18 C       -5.6880    -7.7400     1.8350 C.1   1 <1>   0.4840 
 19 C       -7.6640    -7.2080     0.5130 C.ar  1 <1>  -0.1500 
 20 C       -8.3910    -6.3100    -0.2600 C.ar  1 <1>  -0.1790 
 21 C       -8.5580    -3.9700    -1.2360 C.3   1 <1>  -0.0970 
 22 N       -5.0740    -8.4820     2.4510 N.1   1 <1>  -0.5570 
 23 C       -9.6660    -6.7250    -0.8140 C.2   1 <1>   0.9790 
 24 O      -10.3780    -7.5250    -0.1830 O.co2 1 <1>  -0.9000 
 25 O      -10.0600    -6.3300    -1.9240 O.co2 1 <1>  -0.9000 
 26 H       -0.6310     1.6800     1.4370 H     1 <1>   0.1500 
 27 H       -3.3360     0.3550    -1.6780 H     1 <1>   0.1500 
 28 H       -1.2620    -2.7310    -1.3900 H     1 <1>   0.0800 
 29 H       -2.4960     2.3610    -0.3800 H     1 <1>   0.1500 
 30 H       -3.9900    -2.2870    -1.7440 H     1 <1>   0.4000 
 31 H       -2.0130    -3.3390     0.8550 H     1 <1>   0.0800 
 32 H       -2.0290    -5.1300    -0.8100 H     1 <1>   0.0800 
 33 H       -3.6630    -4.7450    -1.2550 H     1 <1>   0.0800 
 34 H       -4.8210    -2.6500    -0.0390 H     1 <1>   0.0800 
 35 H       -3.8980    -1.8170     1.1710 H     1 <1>   0.0800 
 36 H       -2.7690    -5.7860     1.4330 H     1 <1>   0.0800 
 37 H       -3.6920    -6.6380     0.2220 H     1 <1>   0.0800 
 38 H       -5.5710    -3.3820     2.1180 H     1 <1>   0.0800 
 39 H       -3.9450    -3.7590     2.6230 H     1 <1>   0.0800 
 40 H       -8.0720    -8.1900     0.6970 H     1 <1>   0.1500 
 41 H       -8.1150    -3.0060    -1.0720 H     1 <1>   0.0800 
 42 H       -9.5910    -3.9270    -0.9420 H     1 <1>   0.0800 
 43 H       -8.5070    -4.2040    -2.2840 H     1 <1>   0.0800 
@<TRIPOS>BOND
  1   1   2  1   
  2   1   3  1   
  3   2   4  2   
  4   2   5  1   
  5   3   6  2   
  6   3  26  1   
  7   4   6  1   
  8   4  27  1   
  9   5   7  1   
 10   5   8  1   
 11   5  28  1   
 12   6  29  1   
 13   7  30  1   
 14   8   9  1   
 15   8  10  1   
 16   8  31  1   
 17   9  11  1   
 18   9  32  1   
 19   9  33  1   
 20  10  12  1   
 21  10  34  1   
 22  10  35  1   
 23  11  13  1   
 24  11  36  1   
 25  11  37  1   
 26  12  13  1   
 27  12  38  1   
 28  12  39  1   
 29  13  14  1   
 30  14  15  ar  
 31  14  16  ar  
 32  15  17  ar  
 33  16  18  1   
 34  16  19  ar  
 35  17  20  ar  
 36  17  21  1   
 37  18  22  3   
 38  19  20  ar  
 39  19  40  1   
 40  20  23  1   
 41  21  41  1   
 42  21  42  1   
 43  21  43  1   
 44  23  24  ar  
 45  23  25  ar  
@<TRIPOS>SUBSTRUCTURE
  1 ****  13 GROUP 4 **** **** 0

# MOE 2024.06 (io_trps.svl 2023.06)
