@<TRIPOS>MOLECULE
NONAME
34 35 1 0 0 
SMALL
USER_CHARGES


@<TRIPOS>ATOM
  1 O        3.5290    -1.0580     0.0740 O.2   1 <1>  -0.5700 
  2 C        2.4000    -1.1760    -0.3350 C.2   1 <1>   0.5690 
  3 N        1.5260    -0.1310    -0.3890 N.am  1 <1>  -0.4930 
  4 C        1.9590    -2.5420    -0.8180 C.3   1 <1>   0.1570 
  5 C        1.6340     1.2220    -0.0280 C.2   1 <1>   0.3520 
  6 N        0.5700    -2.7920    -0.4080 N.pl3 1 <1>   0.3140 
  7 N        0.6130     1.9820    -0.1140 N.2   1 <1>  -0.4100 
  8 C        2.7130     1.9900     0.4450 C.2   1 <1>   0.3520 
  9 N       -0.4450    -2.1450    -1.0140 N.2   1 <1>  -0.7070 
 10 C        0.1190    -3.5850     0.5910 C.2   1 <1>  -0.3320 
 11 O        1.0460     3.1390     0.2830 O.3   1 <1>   0.2420 
 12 N        2.2970     3.1850     0.6250 N.2   1 <1>  -0.4100 
 13 N        4.0310     1.5630     0.6900 N.am  1 <1>  -0.4930 
 14 C       -1.5120    -2.5480    -0.4010 C.2   1 <1>   0.1080 
 15 C       -1.2230    -3.4490     0.6150 C.2   1 <1>  -0.1500 
 16 C        0.9890    -4.4410     1.4960 C.3   1 <1>  -0.0600 
 17 C        5.1520     2.2100     1.0940 C.2   1 <1>   0.5690 
 18 C       -2.8950    -2.0660    -0.7740 C.3   1 <1>  -0.0590 
 19 O        6.1770     1.5950     1.2340 O.2   1 <1>  -0.5700 
 20 C        5.1680     3.6950     1.3770 C.3   1 <1>  -0.1790 
 21 H        0.5730    -0.3960    -0.6860 H     1 <1>   0.3700 
 22 H        2.5980    -3.2990    -0.4070 H     1 <1>   0.0800 
 23 H        2.0130    -2.5790    -1.8880 H     1 <1>   0.0800 
 24 H        4.1840     0.5570     0.5400 H     1 <1>   0.3700 
 25 H       -1.9380    -3.9200     1.2660 H     1 <1>   0.1500 
 26 H        1.6970    -3.8280     2.0260 H     1 <1>   0.0800 
 27 H        1.5210    -5.1770     0.9190 H     1 <1>   0.0800 
 28 H        0.3770    -4.9540     2.2180 H     1 <1>   0.0800 
 29 H       -3.0850    -2.2890    -1.8080 H     1 <1>   0.0800 
 30 H       -2.9570    -1.0030    -0.6290 H     1 <1>   0.0800 
 31 H       -3.6380    -2.5480    -0.1670 H     1 <1>   0.0800 
 32 H        4.4910     3.9210     2.1780 H     1 <1>   0.0800 
 33 H        4.8800     4.2380     0.4970 H     1 <1>   0.0800 
 34 H        6.1580     4.0000     1.6630 H     1 <1>   0.0800 
@<TRIPOS>BOND
  1   1   2  2   
  2   2   3  am  
  3   2   4  1   
  4   3   5  1   
  5   3  21  1   
  6   4   6  1   
  7   4  22  1   
  8   4  23  1   
  9   5   7  2   
 10   5   8  1   
 11   6   9  1   
 12   6  10  1   
 13   7  11  1   
 14   8  12  2   
 15   8  13  1   
 16   9  14  2   
 17  10  15  2   
 18  10  16  1   
 19  11  12  1   
 20  13  17  am  
 21  13  24  1   
 22  14  15  1   
 23  14  18  1   
 24  15  25  1   
 25  16  26  1   
 26  16  27  1   
 27  16  28  1   
 28  17  19  2   
 29  17  20  1   
 30  18  29  1   
 31  18  30  1   
 32  18  31  1   
 33  20  32  1   
 34  20  33  1   
 35  20  34  1   
@<TRIPOS>SUBSTRUCTURE
  1 ****   3 GROUP 4 **** **** 0

# MOE 2024.06 (io_trps.svl 2023.06)
