@<TRIPOS>MOLECULE
NONAME
44 46 1 0 0 
SMALL
USER_CHARGES


@<TRIPOS>ATOM
  1 S        0.4640     1.2130    -1.3010 S.o2  1 <1>   1.3330 
  2 O        0.6360    -0.2070    -1.5070 O.2   1 <1>  -0.6500 
  3 O        0.0650     2.0340    -2.4220 O.2   1 <1>  -0.6500 
  4 N        1.9170     1.8090    -0.6580 N.am  1 <1>  -0.8490 
  5 C       -0.7410     1.4270     0.0210 C.3   1 <1>  -0.0550 
  6 C        2.7660     2.4630    -1.6580 C.3   1 <1>   0.1160 
  7 C        2.6920     0.8160     0.0900 C.3   1 <1>   0.1160 
  8 C       -1.0760     2.8490     0.5410 C.3   1 <1>  -0.0800 
  9 C       -1.5260     3.8430    -0.5380 C.3   1 <1>   0.2000 
 10 C        0.0780     3.5480     1.2740 C.3   1 <1>   0.2090 
 11 O       -2.5020     4.6480     0.0290 O.3   1 <1>  -0.6800 
 12 C       -0.3030     4.7170    -0.8300 C.3   1 <1>   0.2090 
 13 N        0.5090     4.6700     0.4100 N.pl3 1 <1>  -0.8220 
 14 C        1.8250     5.0620     0.3750 C.2   1 <1>   0.5620 
 15 O        2.6170     4.7530     1.3970 O.3   1 <1>  -0.2800 
 16 N        2.3950     5.7120    -0.5820 N.2   1 <1>  -0.5650 
 17 C        3.7990     5.2400     1.0750 C.ar  1 <1>   0.1400 
 18 C        3.6740     5.8380    -0.1520 C.ar  1 <1>   0.2270 
 19 C        4.9990     5.2050     1.7660 C.ar  1 <1>  -0.1500 
 20 C        4.7810     6.4370    -0.7430 C.ar  1 <1>  -0.1500 
 21 C        6.0990     5.8010     1.1760 C.ar  1 <1>  -0.1500 
 22 C        5.9950     6.4160    -0.0760 C.ar  1 <1>  -0.1440 
 23 C        7.2250     7.0610    -0.6890 C.3   1 <1>  -0.0970 
 24 H       -1.6620     0.9940    -0.3190 H     1 <1>   0.0800 
 25 H       -0.4230     0.8380     0.8580 H     1 <1>   0.0800 
 26 H        3.6490     2.8650    -1.1920 H     1 <1>   0.0800 
 27 H        2.2370     3.2800    -2.1190 H     1 <1>   0.0800 
 28 H        3.0530     1.7620    -2.4230 H     1 <1>   0.0800 
 29 H        3.5360     1.2890     0.5630 H     1 <1>   0.0800 
 30 H        3.0460     0.0420    -0.5710 H     1 <1>   0.0800 
 31 H        2.0810     0.3670     0.8530 H     1 <1>   0.0800 
 32 H       -1.8770     2.7100     1.2470 H     1 <1>   0.0800 
 33 H       -1.9390     3.3830    -1.4200 H     1 <1>   0.0800 
 34 H        0.8940     2.8750     1.4730 H     1 <1>   0.0800 
 35 H       -0.2700     3.9520     2.2100 H     1 <1>   0.0800 
 36 H       -2.0680     5.2520     0.6670 H     1 <1>   0.4000 
 37 H       -0.5830     5.7270    -1.0730 H     1 <1>   0.0800 
 38 H        0.2680     4.3150    -1.6460 H     1 <1>   0.0800 
 39 H        5.0550     4.7280     2.7280 H     1 <1>   0.1500 
 40 H        4.6630     6.9020    -1.7040 H     1 <1>   0.1500 
 41 H        7.0470     5.7940     1.6870 H     1 <1>   0.1500 
 42 H        7.5860     7.8440    -0.0470 H     1 <1>   0.0800 
 43 H        6.9980     7.4860    -1.6510 H     1 <1>   0.0800 
 44 H        8.0010     6.3280    -0.8130 H     1 <1>   0.0800 
@<TRIPOS>BOND
  1   1   2  2   
  2   1   3  2   
  3   1   4  am  
  4   1   5  1   
  5   4   6  1   
  6   4   7  1   
  7   5   8  1   
  8   5  24  1   
  9   5  25  1   
 10   6  26  1   
 11   6  27  1   
 12   6  28  1   
 13   7  29  1   
 14   7  30  1   
 15   7  31  1   
 16   8   9  1   
 17   8  10  1   
 18   8  32  1   
 19   9  11  1   
 20   9  12  1   
 21   9  33  1   
 22  10  13  1   
 23  10  34  1   
 24  10  35  1   
 25  11  36  1   
 26  12  13  1   
 27  12  37  1   
 28  12  38  1   
 29  13  14  1   
 30  14  15  1   
 31  14  16  2   
 32  15  17  1   
 33  16  18  1   
 34  17  18  ar  
 35  17  19  ar  
 36  18  20  ar  
 37  19  21  ar  
 38  19  39  1   
 39  20  22  ar  
 40  20  40  1   
 41  21  22  ar  
 42  21  41  1   
 43  22  23  1   
 44  23  42  1   
 45  23  43  1   
 46  23  44  1   
@<TRIPOS>SUBSTRUCTURE
  1 ****  14 GROUP 4 **** **** 0

# MOE 2024.06 (io_trps.svl 2023.06)
