@<TRIPOS>MOLECULE
NONAME
49 53 1 0 0 
SMALL
USER_CHARGES


@<TRIPOS>ATOM
  1 O       -2.8380     0.3390     0.1540 O.2   1 <1>  -0.5700 
  2 C       -2.8670     1.1300    -0.7740 C.2   1 <1>   0.5440 
  3 N       -3.7930     0.8660    -1.7550 N.am  1 <1>  -0.6600 
  4 C       -2.0160     2.3080    -0.8120 C.ar  1 <1>   0.0860 
  5 C       -5.1880     1.3450    -1.5080 C.3   1 <1>   0.1400 
  6 C       -3.7570    -0.4910    -2.3940 C.3   1 <1>   0.1400 
  7 C       -1.2060     2.6410     0.2810 C.ar  1 <1>  -0.1500 
  8 C       -1.9720     3.1510    -1.9340 C.ar  1 <1>  -0.1500 
  9 C       -5.9620     0.3770    -0.5690 C.3   1 <1>   0.4230 
 10 C       -4.7690    -1.4720    -1.7500 C.3   1 <1>   0.3430 
 11 C       -0.4070     3.7650     0.2400 C.ar  1 <1>  -0.1440 
 12 C       -1.1690     4.2790    -1.9710 C.ar  1 <1>  -0.1500 
 13 N       -5.2580    -0.9530    -0.4280 N.4   1 <1>  -0.9590 
 14 C       -7.4240     0.1830    -1.0330 C.3   1 <1>   0.1200 
 15 C       -0.3920     4.5690    -0.8670 C.ar  1 <1>   0.0830 
 16 C        0.5360     4.3370     1.2560 C.3   1 <1>  -0.0160 
 17 C       -6.0580    -1.8970     0.4050 C.3   1 <1>   0.5180 
 18 O       -8.0960    -0.7200    -0.1980 O.3   1 <1>  -0.5600 
 19 O        0.4340     5.6150    -0.7450 O.3   1 <1>  -0.3630 
 20 C        1.0720     5.5820     0.5240 C.3   1 <1>   0.1200 
 21 C       -5.3670    -3.2640     0.4620 C.3   1 <1>  -0.1950 
 22 C       -7.5150    -1.9940    -0.1000 C.3   1 <1>   0.1200 
 23 C       -5.3090    -4.0230     1.7520 C.3   1 <1>  -0.2000 
 24 C       -4.0550    -3.4450     1.1630 C.3   1 <1>  -0.2000 
 25 H       -5.1640     2.3260    -1.0640 H     1 <1>   0.0800 
 26 H       -5.6950     1.4360    -2.4530 H     1 <1>   0.0800 
 27 H       -3.9560    -0.4010    -3.4480 H     1 <1>   0.0800 
 28 H       -2.7660    -0.9020    -2.2910 H     1 <1>   0.0800 
 29 H       -1.2050     2.0170     1.1580 H     1 <1>   0.1500 
 30 H       -2.5730     2.9220    -2.7960 H     1 <1>   0.1500 
 31 H       -6.0010     0.8410     0.4030 H     1 <1>   0.0800 
 32 H       -4.2840    -2.4260    -1.6230 H     1 <1>   0.0800 
 33 H       -5.6030    -1.6130    -2.4170 H     1 <1>   0.0800 
 34 H       -1.1350     4.9250    -2.8300 H     1 <1>   0.1500 
 35 H       -4.3810    -0.7290     0.0900 H     1 <1>   0.4500 
 36 H       -7.4690    -0.1870    -2.0430 H     1 <1>   0.0800 
 37 H       -7.9550     1.1180    -0.9890 H     1 <1>   0.0800 
 38 H        1.3320     3.6510     1.4830 H     1 <1>   0.0800 
 39 H        0.0210     4.6140     2.1590 H     1 <1>   0.0800 
 40 H       -6.0940    -1.5090     1.4110 H     1 <1>   0.0800 
 41 H        2.1340     5.5200     0.3630 H     1 <1>   0.0800 
 42 H        0.8250     6.4880     1.0480 H     1 <1>   0.0800 
 43 H       -5.5550    -3.8630    -0.4130 H     1 <1>   0.1000 
 44 H       -8.1040    -2.5680     0.5950 H     1 <1>   0.0800 
 45 H       -7.5620    -2.4720    -1.0620 H     1 <1>   0.0800 
 46 H       -5.6870    -3.5840     2.6610 H     1 <1>   0.1000 
 47 H       -5.4300    -5.0940     1.7390 H     1 <1>   0.1000 
 48 H       -3.3270    -4.1270     0.7560 H     1 <1>   0.1000 
 49 H       -3.5920    -2.6160     1.6740 H     1 <1>   0.1000 
@<TRIPOS>BOND
  1   1   2  2   
  2   2   3  am  
  3   2   4  1   
  4   3   5  1   
  5   3   6  1   
  6   4   7  ar  
  7   4   8  ar  
  8   5   9  1   
  9   5  25  1   
 10   5  26  1   
 11   6  10  1   
 12   6  27  1   
 13   6  28  1   
 14   7  11  ar  
 15   7  29  1   
 16   8  12  ar  
 17   8  30  1   
 18   9  13  1   
 19   9  14  1   
 20   9  31  1   
 21  10  13  1   
 22  10  32  1   
 23  10  33  1   
 24  11  15  ar  
 25  11  16  1   
 26  12  15  ar  
 27  12  34  1   
 28  13  17  1   
 29  13  35  1   
 30  14  18  1   
 31  14  36  1   
 32  14  37  1   
 33  15  19  1   
 34  16  20  1   
 35  16  38  1   
 36  16  39  1   
 37  17  21  1   
 38  17  22  1   
 39  17  40  1   
 40  18  22  1   
 41  19  20  1   
 42  20  41  1   
 43  20  42  1   
 44  21  23  1   
 45  21  24  1   
 46  21  43  1   
 47  22  44  1   
 48  22  45  1   
 49  23  24  1   
 50  23  46  1   
 51  23  47  1   
 52  24  48  1   
 53  24  49  1   
@<TRIPOS>SUBSTRUCTURE
  1 ****   2 GROUP 4 **** **** 0

# MOE 2024.06 (io_trps.svl 2023.06)
