@<TRIPOS>MOLECULE
NONAME
52 55 1 0 0 
SMALL
USER_CHARGES


@<TRIPOS>ATOM
  1 O        0.2500     0.4110    -1.5260 O.2   1 <1>  -0.5700 
  2 C        1.1040    -0.1810    -0.9100 C.2   1 <1>   0.5690 
  3 N        1.9890     0.4740    -0.0860 N.am  1 <1>  -0.6600 
  4 C        1.1550    -1.6880    -1.0900 C.3   1 <1>  -0.0990 
  5 C        3.0570    -0.1980     0.7160 C.3   1 <1>   0.1400 
  6 C        1.9040     1.9560     0.0680 C.3   1 <1>   0.1400 
  7 C        0.3370    -2.4140    -0.0110 C.3   1 <1>   0.0630 
  8 C        4.3830    -0.2620    -0.0600 C.3   1 <1>   0.1100 
  9 C        3.2690     2.6510     0.1660 C.3   1 <1>  -0.1600 
 10 C        0.4150    -3.9210    -0.1280 C.ar  1 <1>  -0.1440 
 11 C       -1.1770    -2.1310    -0.1100 C.3   1 <1>  -0.1600 
 12 N        5.1020     1.0260    -0.1200 N.3   1 <1>  -0.8100 
 13 C        4.3310     2.0930    -0.7860 C.3   1 <1>   0.1100 
 14 C       -0.8290    -4.4900     0.0040 C.ar  1 <1>  -0.1430 
 15 C        1.5310    -4.7170    -0.3250 C.ar  1 <1>  -0.1500 
 16 C       -1.8950    -3.4470     0.2260 C.3   1 <1>  -0.0170 
 17 C        6.4450     0.8500    -0.7350 C.3   1 <1>   0.2900 
 18 C       -0.9950    -5.8610    -0.0670 C.ar  1 <1>  -0.1500 
 19 C        1.3750    -6.0930    -0.3980 C.ar  1 <1>  -0.1500 
 20 C        7.4860     1.8670    -0.2680 C.2   1 <1>   0.2980 
 21 C        0.1160    -6.6630    -0.2700 C.ar  1 <1>  -0.1500 
 22 O        7.3980     3.1080    -0.6830 O.3   1 <1>  -0.0190 
 23 N        8.4830     1.6160     0.4860 N.2   1 <1>  -0.5650 
 24 N        8.4180     3.6970    -0.1390 N.2   1 <1>  -0.4100 
 25 C        9.0350     2.8170     0.5410 C.2   1 <1>   0.3350 
 26 C       10.2850     3.0610     1.3510 C.3   1 <1>  -0.0590 
 27 H        2.1730    -2.0210    -1.0780 H     1 <1>   0.0800 
 28 H        0.7590    -1.9330    -2.0590 H     1 <1>   0.0800 
 29 H        2.7530    -1.1980     0.9620 H     1 <1>   0.0800 
 30 H        3.2080     0.3210     1.6470 H     1 <1>   0.0800 
 31 H        1.3220     2.1830     0.9440 H     1 <1>   0.0800 
 32 H        1.3830     2.3700    -0.7790 H     1 <1>   0.0800 
 33 H        0.6810    -2.1400     0.9710 H     1 <1>   0.0800 
 34 H        4.2010    -0.6310    -1.0550 H     1 <1>   0.0800 
 35 H        5.0120    -0.9740     0.4470 H     1 <1>   0.0800 
 36 H        3.6340     2.6230     1.1770 H     1 <1>   0.0800 
 37 H        3.1130     3.6870    -0.0740 H     1 <1>   0.0800 
 38 H       -1.4300    -1.8590    -1.1210 H     1 <1>   0.0800 
 39 H       -1.4760    -1.3310     0.5440 H     1 <1>   0.0800 
 40 H        4.9860     2.9050    -1.0420 H     1 <1>   0.0800 
 41 H        3.8810     1.7320    -1.6970 H     1 <1>   0.0800 
 42 H        2.5090    -4.2830    -0.4200 H     1 <1>   0.1500 
 43 H       -2.7460    -3.6070    -0.4120 H     1 <1>   0.0800 
 44 H       -2.2000    -3.4610     1.2580 H     1 <1>   0.0800 
 45 H        6.3670     0.8850    -1.8070 H     1 <1>   0.0800 
 46 H        6.8300    -0.1190    -0.4700 H     1 <1>   0.0800 
 47 H       -1.9730    -6.2970     0.0350 H     1 <1>   0.1500 
 48 H        2.2330    -6.7220    -0.5530 H     1 <1>   0.1500 
 49 H        0.0020    -7.7310    -0.3290 H     1 <1>   0.1500 
 50 H       10.0960     2.8240     2.3810 H     1 <1>   0.0800 
 51 H       10.5800     4.0910     1.2730 H     1 <1>   0.0800 
 52 H       11.0790     2.4370     0.9850 H     1 <1>   0.0800 
@<TRIPOS>BOND
  1   1   2  2   
  2   2   3  am  
  3   2   4  1   
  4   3   5  1   
  5   3   6  1   
  6   4   7  1   
  7   4  27  1   
  8   4  28  1   
  9   5   8  1   
 10   5  29  1   
 11   5  30  1   
 12   6   9  1   
 13   6  31  1   
 14   6  32  1   
 15   7  10  1   
 16   7  11  1   
 17   7  33  1   
 18   8  12  1   
 19   8  34  1   
 20   8  35  1   
 21   9  13  1   
 22   9  36  1   
 23   9  37  1   
 24  10  14  ar  
 25  10  15  ar  
 26  11  16  1   
 27  11  38  1   
 28  11  39  1   
 29  12  13  1   
 30  12  17  1   
 31  13  40  1   
 32  13  41  1   
 33  14  16  1   
 34  14  18  ar  
 35  15  19  ar  
 36  15  42  1   
 37  16  43  1   
 38  16  44  1   
 39  17  20  1   
 40  17  45  1   
 41  17  46  1   
 42  18  21  ar  
 43  18  47  1   
 44  19  21  ar  
 45  19  48  1   
 46  20  22  1   
 47  20  23  2   
 48  21  49  1   
 49  22  24  1   
 50  23  25  1   
 51  24  25  2   
 52  25  26  1   
 53  26  50  1   
 54  26  51  1   
 55  26  52  1   
@<TRIPOS>SUBSTRUCTURE
  1 ****   5 GROUP 4 **** **** 0

# MOE 2024.06 (io_trps.svl 2023.06)
