@<TRIPOS>MOLECULE
NONAME
46 47 1 0 0 
SMALL
USER_CHARGES


@<TRIPOS>ATOM
  1 O       -0.0770     0.8270    -0.0800 O.3   1 <1>  -0.8290 
  2 C       -1.1480     1.4470    -0.1130 C.ar  1 <1>   0.4490 
  3 N       -2.2460     0.7710    -0.4980 N.ar  1 <1>  -0.6200 
  4 N       -1.1070     2.7350     0.2490 N.ar  1 <1>  -0.6200 
  5 C       -3.3760     1.4260    -0.5120 C.ar  1 <1>   0.1660 
  6 C       -2.2520     3.3890     0.2610 C.ar  1 <1>   0.3960 
  7 C       -3.4170     2.7490    -0.1320 C.ar  1 <1>  -0.1500 
  8 C       -4.6710     0.7040    -0.9570 C.3   1 <1>   0.1440 
  9 C       -2.3150     4.7960     0.6760 C.2   1 <1>   0.5440 
 10 C       -5.2710     1.4130    -2.1830 C.3   1 <1>  -0.2400 
 11 C       -5.6970     0.7170     0.1890 C.3   1 <1>  -0.2400 
 12 C       -4.4200    -0.7680    -1.3440 C.3   1 <1>  -0.2400 
 13 O       -3.1240     5.5410     0.1420 O.2   1 <1>  -0.5700 
 14 N       -1.5060     5.3490     1.6640 N.am  1 <1>  -0.6600 
 15 C       -1.2840     6.8200     1.7340 C.3   1 <1>   0.1400 
 16 C       -0.6210     4.5240     2.5360 C.3   1 <1>   0.0600 
 17 C       -0.2850     7.2340     0.6550 C.3   1 <1>   0.1200 
 18 O        0.0520     8.5940     0.8400 O.3   1 <1>  -0.3630 
 19 C        0.9430     9.2070     0.0200 C.ar  1 <1>   0.0820 
 20 C        1.5730     8.5760    -1.0500 C.ar  1 <1>  -0.1500 
 21 C        1.2230    10.5370     0.2870 C.ar  1 <1>  -0.1500 
 22 C        2.4720     9.2770    -1.8350 C.ar  1 <1>  -0.1500 
 23 C        2.1220    11.2370    -0.4990 C.ar  1 <1>  -0.1500 
 24 C        2.7470    10.6060    -1.5610 C.ar  1 <1>  -0.1500 
 25 H       -4.3350     3.2990    -0.1350 H     1 <1>   0.1500 
 26 H       -5.5410     2.4260    -1.9510 H     1 <1>   0.0800 
 27 H       -6.1490     0.8980    -2.5280 H     1 <1>   0.0800 
 28 H       -4.5470     1.4300    -2.9790 H     1 <1>   0.0800 
 29 H       -5.9750     1.7210     0.4490 H     1 <1>   0.0800 
 30 H       -5.2730     0.2460     1.0580 H     1 <1>   0.0800 
 31 H       -6.5860     0.1810    -0.0920 H     1 <1>   0.0800 
 32 H       -3.7100    -0.8200    -2.1510 H     1 <1>   0.0800 
 33 H       -5.3280    -1.2520    -1.6500 H     1 <1>   0.0800 
 34 H       -4.0060    -1.3030    -0.5070 H     1 <1>   0.0800 
 35 H       -0.9030     7.0840     2.7040 H     1 <1>   0.0800 
 36 H       -2.2160     7.3350     1.5770 H     1 <1>   0.0800 
 37 H       -1.0780     3.5680     2.7340 H     1 <1>   0.0800 
 38 H       -0.4480     5.0180     3.4750 H     1 <1>   0.0800 
 39 H        0.3200     4.3540     2.0410 H     1 <1>   0.0800 
 40 H       -0.7250     7.1190    -0.3200 H     1 <1>   0.0800 
 41 H        0.6140     6.6500     0.7380 H     1 <1>   0.0800 
 42 H        1.3790     7.5460    -1.2870 H     1 <1>   0.1500 
 43 H        0.7320    11.0190     1.1130 H     1 <1>   0.1500 
 44 H        2.9590     8.7880    -2.6610 H     1 <1>   0.1500 
 45 H        2.3330    12.2700    -0.2850 H     1 <1>   0.1500 
 46 H        3.4460    11.1490    -2.1730 H     1 <1>   0.1500 
@<TRIPOS>BOND
  1   1   2  1   
  2   2   3  ar  
  3   2   4  ar  
  4   3   5  ar  
  5   4   6  ar  
  6   5   7  ar  
  7   5   8  1   
  8   6   7  ar  
  9   6   9  1   
 10   7  25  1   
 11   8  10  1   
 12   8  11  1   
 13   8  12  1   
 14   9  13  2   
 15   9  14  am  
 16  10  26  1   
 17  10  27  1   
 18  10  28  1   
 19  11  29  1   
 20  11  30  1   
 21  11  31  1   
 22  12  32  1   
 23  12  33  1   
 24  12  34  1   
 25  14  15  1   
 26  14  16  1   
 27  15  17  1   
 28  15  35  1   
 29  15  36  1   
 30  16  37  1   
 31  16  38  1   
 32  16  39  1   
 33  17  18  1   
 34  17  40  1   
 35  17  41  1   
 36  18  19  1   
 37  19  20  ar  
 38  19  21  ar  
 39  20  22  ar  
 40  20  42  1   
 41  21  23  ar  
 42  21  43  1   
 43  22  24  ar  
 44  22  44  1   
 45  23  24  ar  
 46  23  45  1   
 47  24  46  1   
@<TRIPOS>SUBSTRUCTURE
  1 ****   9 GROUP 4 **** **** 0

# MOE 2024.06 (io_trps.svl 2023.06)
