@<TRIPOS>MOLECULE
NONAME
46 47 1 0 0 
SMALL
USER_CHARGES


@<TRIPOS>ATOM
  1 S        0.7120     0.2880    -0.5790 S.o2  1 <1>   1.3330 
  2 O        0.2100     0.1430    -1.9250 O.2   1 <1>  -0.6500 
  3 O        2.1140     0.5770    -0.3690 O.2   1 <1>  -0.6500 
  4 N        0.2610    -1.0530     0.3510 N.am  1 <1>  -0.8490 
  5 C       -0.1790     1.6420     0.1820 C.3   1 <1>  -0.0550 
  6 C        1.3360    -2.0450     0.4670 C.3   1 <1>   0.1160 
  7 C       -0.9650    -1.7070    -0.1230 C.3   1 <1>   0.1160 
  8 C        0.0470     2.9790    -0.5600 C.3   1 <1>  -0.0800 
  9 C       -0.6490     4.1970     0.0460 C.3   1 <1>   0.2000 
 10 C        1.5270     3.3880    -0.6430 C.3   1 <1>   0.3430 
 11 O       -0.4720     4.1930     1.4270 O.3   1 <1>  -0.6800 
 12 C        0.1550     5.3580    -0.5450 C.3   1 <1>   0.3430 
 13 N        1.5740     4.8800    -0.5970 N.4   1 <1>  -0.9590 
 14 C        2.3340     5.3410     0.5980 C.3   1 <1>   0.4860 
 15 C        2.4590     6.8500     0.5330 C.ar  1 <1>  -0.1440 
 16 C        3.3200     7.4460    -0.3770 C.ar  1 <1>  -0.1500 
 17 C        1.7050     7.6440     1.3840 C.ar  1 <1>  -0.1500 
 18 C        3.4180     8.8250    -0.4520 C.ar  1 <1>  -0.1440 
 19 C        1.8020     9.0220     1.3130 C.ar  1 <1>  -0.1500 
 20 C        2.6550     9.6100     0.3970 C.ar  1 <1>  -0.1500 
 21 C        4.3590     9.4830    -1.4450 C.3   1 <1>  -0.0970 
 22 H       -1.2280     1.4140     0.1850 H     1 <1>   0.0800 
 23 H        0.1420     1.7280     1.2030 H     1 <1>   0.0800 
 24 H        1.0200    -2.8690     1.0830 H     1 <1>   0.0800 
 25 H        2.2050    -1.6000     0.9230 H     1 <1>   0.0800 
 26 H        1.6110    -2.4170    -0.5070 H     1 <1>   0.0800 
 27 H       -1.2490    -2.4960     0.5530 H     1 <1>   0.0800 
 28 H       -0.8130    -2.1260    -1.1050 H     1 <1>   0.0800 
 29 H       -1.7720    -0.9970    -0.1730 H     1 <1>   0.0800 
 30 H       -0.3060     2.8610    -1.5710 H     1 <1>   0.0800 
 31 H       -1.7000     4.2650    -0.1790 H     1 <1>   0.0800 
 32 H        1.9750     3.0090    -1.5480 H     1 <1>   0.0800 
 33 H        2.0620     2.9770     0.2000 H     1 <1>   0.0800 
 34 H       -1.2050     3.7240     1.8810 H     1 <1>   0.4000 
 35 H        0.0410     6.2540     0.0430 H     1 <1>   0.0800 
 36 H       -0.1920     5.5510    -1.5460 H     1 <1>   0.0800 
 37 H        2.0410     5.2730    -1.4230 H     1 <1>   0.4500 
 38 H        1.8210     5.0520     1.5010 H     1 <1>   0.0800 
 39 H        3.3180     4.9020     0.6070 H     1 <1>   0.0800 
 40 H        3.9260     6.8440    -1.0320 H     1 <1>   0.1500 
 41 H        1.0380     7.2030     2.1070 H     1 <1>   0.1500 
 42 H        1.2180     9.6410     1.9730 H     1 <1>   0.1500 
 43 H        2.7260    10.6830     0.3510 H     1 <1>   0.1500 
 44 H        3.9130    10.3760    -1.8460 H     1 <1>   0.0800 
 45 H        4.5810     8.8200    -2.2620 H     1 <1>   0.0800 
 46 H        5.2790     9.7480    -0.9540 H     1 <1>   0.0800 
@<TRIPOS>BOND
  1   1   2  2   
  2   1   3  2   
  3   1   4  am  
  4   1   5  1   
  5   4   6  1   
  6   4   7  1   
  7   5   8  1   
  8   5  22  1   
  9   5  23  1   
 10   6  24  1   
 11   6  25  1   
 12   6  26  1   
 13   7  27  1   
 14   7  28  1   
 15   7  29  1   
 16   8   9  1   
 17   8  10  1   
 18   8  30  1   
 19   9  11  1   
 20   9  12  1   
 21   9  31  1   
 22  10  13  1   
 23  10  32  1   
 24  10  33  1   
 25  11  34  1   
 26  12  13  1   
 27  12  35  1   
 28  12  36  1   
 29  13  14  1   
 30  13  37  1   
 31  14  15  1   
 32  14  38  1   
 33  14  39  1   
 34  15  16  ar  
 35  15  17  ar  
 36  16  18  ar  
 37  16  40  1   
 38  17  19  ar  
 39  17  41  1   
 40  18  20  ar  
 41  18  21  1   
 42  19  20  ar  
 43  19  42  1   
 44  20  43  1   
 45  21  44  1   
 46  21  45  1   
 47  21  46  1   
@<TRIPOS>SUBSTRUCTURE
  1 ****  13 GROUP 4 **** **** 0

# MOE 2024.06 (io_trps.svl 2023.06)
