@<TRIPOS>MOLECULE
NONAME
43 45 1 0 0 
SMALL
USER_CHARGES


@<TRIPOS>ATOM
  1 CL      -0.2470    -0.6470    -1.7510 Cl    1 <1>  -0.1770 
  2 C        1.1040    -1.0020    -0.6880 C.ar  1 <1>   0.1770 
  3 C        1.4950    -2.3110    -0.4360 C.ar  1 <1>   0.4100 
  4 C        1.7960     0.0100    -0.0830 C.ar  1 <1>   0.1600 
  5 N        2.5090    -2.5600     0.3730 N.ar  1 <1>  -0.6200 
  6 N        0.8460    -3.3830    -1.0100 N.pl3 1 <1>  -0.8690 
  7 N        2.8140    -0.2290     0.7270 N.ar  1 <1>  -0.6200 
  8 C        3.1070    -1.5070     0.9040 C.ar  1 <1>   0.4770 
  9 C        1.0840    -4.8020    -0.6900 C.3   1 <1>   0.2890 
 10 C        4.2700    -1.7900     1.8240 C.3   1 <1>  -0.0970 
 11 C        0.9650    -5.6210    -1.9730 C.3   1 <1>  -0.1600 
 12 C        0.0620    -5.2530     0.3520 C.3   1 <1>  -0.1600 
 13 C        1.1100    -7.1100    -1.6670 C.3   1 <1>   0.2090 
 14 C        0.2150    -6.7460     0.6330 C.3   1 <1>   0.2090 
 15 N        0.1070    -7.4930    -0.6440 N.pl3 1 <1>  -0.8380 
 16 C       -0.1760    -8.8500    -0.5390 C.ar  1 <1>   0.1000 
 17 C        0.7580    -9.7520    -0.0410 C.ar  1 <1>  -0.1500 
 18 C       -1.4170    -9.3230    -0.9370 C.ar  1 <1>  -0.1500 
 19 C        0.4630   -11.1020     0.0580 C.ar  1 <1>  -0.1430 
 20 C       -1.7220   -10.6680    -0.8420 C.ar  1 <1>  -0.1500 
 21 C       -0.7830   -11.5570    -0.3460 C.ar  1 <1>  -0.1500 
 22 C        1.4840   -12.0850     0.6000 C.3   1 <1>  -0.0970 
 23 H        1.5150     1.0330    -0.2600 H     1 <1>   0.1500 
 24 H       -0.0120    -3.1980    -1.5340 H     1 <1>   0.4000 
 25 H        2.0760    -4.9280    -0.2900 H     1 <1>   0.0800 
 26 H        4.3650    -2.8450     2.0010 H     1 <1>   0.0800 
 27 H        4.1140    -1.2910     2.7630 H     1 <1>   0.0800 
 28 H        5.1750    -1.4250     1.3770 H     1 <1>   0.0800 
 29 H        1.7340    -5.3230    -2.6620 H     1 <1>   0.0800 
 30 H        0.0060    -5.4580    -2.4310 H     1 <1>   0.0800 
 31 H       -0.9360    -5.0690    -0.0020 H     1 <1>   0.0800 
 32 H        0.2130    -4.7030     1.2630 H     1 <1>   0.0800 
 33 H        2.1000    -7.3210    -1.2980 H     1 <1>   0.0800 
 34 H        0.9480    -7.6870    -2.5610 H     1 <1>   0.0800 
 35 H       -0.5580    -7.0740     1.3080 H     1 <1>   0.0800 
 36 H        1.1710    -6.9440     1.0870 H     1 <1>   0.0800 
 37 H        1.7170    -9.3830     0.2660 H     1 <1>   0.1500 
 38 H       -2.1350    -8.6230    -1.3200 H     1 <1>   0.1500 
 39 H       -2.6880   -11.0240    -1.1540 H     1 <1>   0.1500 
 40 H       -1.0250   -12.6030    -0.2750 H     1 <1>   0.1500 
 41 H        2.3850   -11.5790     0.8950 H     1 <1>   0.0800 
 42 H        1.7280   -12.8110    -0.1540 H     1 <1>   0.0800 
 43 H        1.0810   -12.5950     1.4570 H     1 <1>   0.0800 
@<TRIPOS>BOND
  1   1   2  1   
  2   2   3  ar  
  3   2   4  ar  
  4   3   5  ar  
  5   3   6  1   
  6   4   7  ar  
  7   4  23  1   
  8   5   8  ar  
  9   6   9  1   
 10   6  24  1   
 11   7   8  ar  
 12   8  10  1   
 13   9  11  1   
 14   9  12  1   
 15   9  25  1   
 16  10  26  1   
 17  10  27  1   
 18  10  28  1   
 19  11  13  1   
 20  11  29  1   
 21  11  30  1   
 22  12  14  1   
 23  12  31  1   
 24  12  32  1   
 25  13  15  1   
 26  13  33  1   
 27  13  34  1   
 28  14  15  1   
 29  14  35  1   
 30  14  36  1   
 31  15  16  1   
 32  16  17  ar  
 33  16  18  ar  
 34  17  19  ar  
 35  17  37  1   
 36  18  20  ar  
 37  18  38  1   
 38  19  21  ar  
 39  19  22  1   
 40  20  21  ar  
 41  20  39  1   
 42  21  40  1   
 43  22  41  1   
 44  22  42  1   
 45  22  43  1   
@<TRIPOS>SUBSTRUCTURE
  1 ****   9 GROUP 4 **** **** 0

# MOE 2024.06 (io_trps.svl 2023.06)
