@<TRIPOS>MOLECULE
NONAME
54 56 1 0 0 
SMALL
USER_CHARGES


@<TRIPOS>ATOM
  1 O        4.2960    -0.8030     2.2810 O.2   1 <1>  -0.5700 
  2 C        3.1570    -0.9970     1.9290 C.2   1 <1>   0.5690 
  3 N        2.3170     0.0160     1.5950 N.am  1 <1>  -0.7300 
  4 C        2.6330    -2.4350     1.8450 C.3   1 <1>   0.1710 
  5 C        2.6450     1.4590     1.6130 C.3   1 <1>   0.1400 
  6 N        1.5900    -2.6560     0.7990 N.3   1 <1>  -0.8100 
  7 C        2.9480     1.9410     0.1950 C.3   1 <1>  -0.0170 
  8 C        2.1170    -2.4950    -0.5660 C.3   1 <1>   0.1100 
  9 C        1.0110    -4.0090     0.8560 C.3   1 <1>   0.1100 
 10 C        3.2330     3.4340     0.1950 C.ar  1 <1>  -0.1440 
 11 C        1.1010    -3.2190    -1.4370 C.3   1 <1>   0.2000 
 12 C        0.7930    -4.4620    -0.5990 C.3   1 <1>  -0.0800 
 13 C        4.4950     3.9000     0.5300 C.ar  1 <1>  -0.1500 
 14 C        2.2370     4.3430    -0.1330 C.ar  1 <1>  -0.1500 
 15 O       -0.0230    -2.4160    -1.5060 O.3   1 <1>  -0.6800 
 16 C       -0.5890    -5.0970    -0.8490 C.3   1 <1>   0.0200 
 17 C        4.7570     5.2580     0.5360 C.ar  1 <1>  -0.1500 
 18 C        2.4980     5.7020    -0.1280 C.ar  1 <1>  -0.1500 
 19 C       -0.7880    -6.3980    -0.0900 C.2   1 <1>  -0.0400 
 20 C        3.7660     6.1680     0.2090 C.ar  1 <1>   0.0820 
 21 O       -1.9840    -6.9220    -0.0470 O.3   1 <1>  -0.0190 
 22 C        0.0350    -7.2040     0.6010 C.2   1 <1>  -0.1500 
 23 O        4.1050     7.4810     0.2390 O.3   1 <1>  -0.3620 
 24 N       -2.0070    -8.0290     0.6370 N.2   1 <1>  -0.4100 
 25 C       -0.8030    -8.2250     1.0390 C.2   1 <1>   0.1080 
 26 C        3.1720     8.4870    -0.0870 C.3   1 <1>   0.0400 
 27 C       -0.3700    -9.4100     1.8730 C.3   1 <1>  -0.0590 
 28 H        1.3950    -0.2570     1.2410 H     1 <1>   0.3700 
 29 H        2.2200    -2.6790     2.8070 H     1 <1>   0.0800 
 30 H        3.4690    -3.0890     1.6700 H     1 <1>   0.0800 
 31 H        1.8150     2.0100     2.0210 H     1 <1>   0.0800 
 32 H        3.5030     1.6280     2.2420 H     1 <1>   0.0800 
 33 H        3.8060     1.4140    -0.1830 H     1 <1>   0.0800 
 34 H        2.1110     1.7310    -0.4460 H     1 <1>   0.0800 
 35 H        2.2140    -1.4580    -0.8420 H     1 <1>   0.0800 
 36 H        3.0750    -2.9780    -0.6550 H     1 <1>   0.0800 
 37 H        1.6740    -4.6950     1.3550 H     1 <1>   0.0800 
 38 H        0.0800    -3.9710     1.3970 H     1 <1>   0.0800 
 39 H        1.4470    -3.4330    -2.4340 H     1 <1>   0.0800 
 40 H        1.5460    -5.1950    -0.8290 H     1 <1>   0.0800 
 41 H        5.2770     3.2070     0.7880 H     1 <1>   0.1500 
 42 H        1.2530     3.9950    -0.3940 H     1 <1>   0.1500 
 43 H       -0.1940    -2.1030    -0.5930 H     1 <1>   0.4000 
 44 H       -0.7120    -5.2900    -1.9000 H     1 <1>   0.0800 
 45 H       -1.3640    -4.4120    -0.5520 H     1 <1>   0.0800 
 46 H        5.7350     5.6220     0.7950 H     1 <1>   0.1500 
 47 H        1.7060     6.3790    -0.3860 H     1 <1>   0.1500 
 48 H        1.0880    -7.1260     0.7940 H     1 <1>   0.1500 
 49 H        3.6630     9.4390     0.0010 H     1 <1>   0.0800 
 50 H        2.3480     8.4340     0.6030 H     1 <1>   0.0800 
 51 H        2.8390     8.3390    -1.0990 H     1 <1>   0.0800 
 52 H        0.4640    -9.9010     1.4070 H     1 <1>   0.0800 
 53 H       -1.1810   -10.1110     1.9610 H     1 <1>   0.0800 
 54 H       -0.0870    -9.0810     2.8550 H     1 <1>   0.0800 
@<TRIPOS>BOND
  1   1   2  2   
  2   2   3  am  
  3   2   4  1   
  4   3   5  1   
  5   3  28  1   
  6   4   6  1   
  7   4  29  1   
  8   4  30  1   
  9   5   7  1   
 10   5  31  1   
 11   5  32  1   
 12   6   8  1   
 13   6   9  1   
 14   7  10  1   
 15   7  33  1   
 16   7  34  1   
 17   8  11  1   
 18   8  35  1   
 19   8  36  1   
 20   9  12  1   
 21   9  37  1   
 22   9  38  1   
 23  10  13  ar  
 24  10  14  ar  
 25  11  12  1   
 26  11  15  1   
 27  11  39  1   
 28  12  16  1   
 29  12  40  1   
 30  13  17  ar  
 31  13  41  1   
 32  14  18  ar  
 33  14  42  1   
 34  15  43  1   
 35  16  19  1   
 36  16  44  1   
 37  16  45  1   
 38  17  20  ar  
 39  17  46  1   
 40  18  20  ar  
 41  18  47  1   
 42  19  21  1   
 43  19  22  2   
 44  20  23  1   
 45  21  24  1   
 46  22  25  1   
 47  22  48  1   
 48  23  26  1   
 49  24  25  2   
 50  25  27  1   
 51  26  49  1   
 52  26  50  1   
 53  26  51  1   
 54  27  52  1   
 55  27  53  1   
 56  27  54  1   
@<TRIPOS>SUBSTRUCTURE
  1 ****   3 GROUP 4 **** **** 0

# MOE 2024.06 (io_trps.svl 2023.06)
