@<TRIPOS>MOLECULE
NONAME
44 45 1 0 0 
SMALL
USER_CHARGES


@<TRIPOS>ATOM
  1 F       -2.9530    -0.1100    -1.8230 F     1 <1>  -0.3400 
  2 C       -3.9240     0.7050    -1.4400 C.3   1 <1>   1.1640 
  3 F       -3.9350     1.6910    -2.3330 F     1 <1>  -0.3400 
  4 F       -5.0690     0.0590    -1.6220 F     1 <1>  -0.3400 
  5 C       -3.7390     1.2250    -0.0040 C.ar  1 <1>  -0.1440 
  6 C       -3.9740     0.3770     1.0870 C.ar  1 <1>   0.0860 
  7 C       -3.3350     2.5390     0.2260 C.ar  1 <1>  -0.1500 
  8 C       -4.3880    -1.0040     0.9410 C.2   1 <1>   0.5440 
  9 C       -3.8000     0.8860     2.3740 C.ar  1 <1>  -0.1500 
 10 C       -3.1710     3.0200     1.5120 C.ar  1 <1>  -0.1500 
 11 O       -3.5680    -1.8220     0.5760 O.2   1 <1>  -0.5700 
 12 N       -5.6830    -1.3950     1.1900 N.am  1 <1>  -0.6600 
 13 C       -3.4050     2.1910     2.5900 C.ar  1 <1>  -0.1500 
 14 C       -6.1200    -2.8330     1.1220 C.3   1 <1>   0.1400 
 15 C       -6.7880    -0.4610     1.5630 C.3   1 <1>   0.1400 
 16 C       -7.2800    -2.9990     0.1190 C.3   1 <1>   0.2000 
 17 C       -7.9540    -0.6060     0.5740 C.3   1 <1>  -0.1600 
 18 O       -6.7660    -2.6770    -1.1330 O.3   1 <1>  -0.6800 
 19 C       -8.4720    -2.0730     0.4910 C.3   1 <1>  -0.1060 
 20 C       -8.9780    -2.5400     1.8750 C.2   1 <1>   0.9060 
 21 C       -9.6880    -2.1980    -0.4790 C.3   1 <1>  -0.1600 
 22 O       -9.4180    -1.7070     2.6780 O.co2 1 <1>  -0.9000 
 23 O       -8.9330    -3.7420     2.1660 O.co2 1 <1>  -0.9000 
 24 C       -9.5730    -1.5820    -1.8870 C.3   1 <1>  -0.1600 
 25 C      -10.8770    -1.7680    -2.6680 C.3   1 <1>  -0.2400 
 26 H       -3.1410     3.2100    -0.5950 H     1 <1>   0.1500 
 27 H       -3.9800     0.2360     3.2140 H     1 <1>   0.1500 
 28 H       -2.8590     4.0390     1.6730 H     1 <1>   0.1500 
 29 H       -3.2790     2.5590     3.5940 H     1 <1>   0.1500 
 30 H       -5.3070    -3.4720     0.8260 H     1 <1>   0.0800 
 31 H       -6.4350    -3.1510     2.1010 H     1 <1>   0.0800 
 32 H       -7.1210    -0.6940     2.5610 H     1 <1>   0.0800 
 33 H       -6.4540     0.5600     1.5610 H     1 <1>   0.0800 
 34 H       -7.6000    -4.0270     0.0860 H     1 <1>   0.0800 
 35 H       -8.7570     0.0350     0.8920 H     1 <1>   0.0800 
 36 H       -7.6250    -0.2610    -0.3880 H     1 <1>   0.0800 
 37 H       -6.2360    -1.8620    -1.0200 H     1 <1>   0.4000 
 38 H       -9.9240    -3.2440    -0.5760 H     1 <1>   0.0800 
 39 H      -10.5320    -1.7380     0.0080 H     1 <1>   0.0800 
 40 H       -9.3630    -0.5300    -1.8160 H     1 <1>   0.0800 
 41 H       -8.7770    -2.0500    -2.4360 H     1 <1>   0.0800 
 42 H      -11.6920    -1.2880    -2.1560 H     1 <1>   0.0800 
 43 H      -11.1000    -2.8150    -2.7730 H     1 <1>   0.0800 
 44 H      -10.7820    -1.3370    -3.6480 H     1 <1>   0.0800 
@<TRIPOS>BOND
  1   1   2  1   
  2   2   3  1   
  3   2   4  1   
  4   2   5  1   
  5   5   6  ar  
  6   5   7  ar  
  7   6   8  1   
  8   6   9  ar  
  9   7  10  ar  
 10   7  26  1   
 11   8  11  2   
 12   8  12  am  
 13   9  13  ar  
 14   9  27  1   
 15  10  13  ar  
 16  10  28  1   
 17  12  14  1   
 18  12  15  1   
 19  13  29  1   
 20  14  16  1   
 21  14  30  1   
 22  14  31  1   
 23  15  17  1   
 24  15  32  1   
 25  15  33  1   
 26  16  18  1   
 27  16  19  1   
 28  16  34  1   
 29  17  19  1   
 30  17  35  1   
 31  17  36  1   
 32  18  37  1   
 33  19  20  1   
 34  19  21  1   
 35  20  22  ar  
 36  20  23  ar  
 37  21  24  1   
 38  21  38  1   
 39  21  39  1   
 40  24  25  1   
 41  24  40  1   
 42  24  41  1   
 43  25  42  1   
 44  25  43  1   
 45  25  44  1   
@<TRIPOS>SUBSTRUCTURE
  1 ****  12 GROUP 4 **** **** 0

# MOE 2024.06 (io_trps.svl 2023.06)
