@<TRIPOS>MOLECULE
NONAME
49 52 1 0 0 
SMALL
USER_CHARGES


@<TRIPOS>ATOM
  1 S        2.1440     1.0630    -0.0290 S.3   1 <1>  -0.0800 
  2 C        0.4510     1.5150     0.1080 C.2   1 <1>  -0.1400 
  3 C        1.7420    -0.6350     0.1930 C.2   1 <1>  -0.1100 
  4 C       -0.3140     0.4300     0.2910 C.2   1 <1>  -0.1810 
  5 C       -0.0310     2.9600     0.0210 C.3   1 <1>   0.4600 
  6 C        0.4140    -0.8000     0.3480 C.2   1 <1>  -0.1500 
  7 C       -1.8130     0.5870     0.4160 C.3   1 <1>   0.0210 
  8 O       -1.4110     2.9890     0.3380 O.3   1 <1>  -0.5600 
  9 C        0.1770     3.5440    -1.3830 C.3   1 <1>  -0.1600 
 10 C        0.6660     3.8370     1.0660 C.3   1 <1>  -0.1600 
 11 C       -2.2260     1.9550    -0.1600 C.3   1 <1>   0.1200 
 12 C       -0.2860     4.9990    -1.4600 C.3   1 <1>   0.1400 
 13 C        0.2100     5.2940     0.9720 C.3   1 <1>   0.1400 
 14 N        0.4170     5.7940    -0.4160 N.am  1 <1>  -0.6600 
 15 C        1.1620     6.9160    -0.7280 C.2   1 <1>   0.5440 
 16 O        1.1130     7.3590    -1.8620 O.2   1 <1>  -0.5700 
 17 C        1.9510     7.6220     0.2590 C.ar  1 <1>   0.0860 
 18 C        3.1000     7.0700     0.8400 C.ar  1 <1>   0.0820 
 19 C        1.5720     8.9070     0.6460 C.ar  1 <1>  -0.1500 
 20 O        3.4760     5.8300     0.4450 O.3   1 <1>  -0.3630 
 21 C        3.8210     7.7930     1.7900 C.ar  1 <1>  -0.1500 
 22 C        2.2890     9.6210     1.5860 C.ar  1 <1>  -0.1500 
 23 C        4.7490     5.2990     0.7290 C.3   1 <1>   0.2580 
 24 C        3.4160     9.0610     2.1620 C.ar  1 <1>  -0.1500 
 25 C        4.8670     3.9600     0.0280 C.2   1 <1>  -0.2880 
 26 C        5.7880     3.6380    -0.8860 C.2   1 <1>  -0.3000 
 27 H        2.5550    -1.3390     0.1830 H     1 <1>   0.1500 
 28 H       -0.0870    -1.7390     0.5000 H     1 <1>   0.1500 
 29 H       -2.1000     0.5230     1.4500 H     1 <1>   0.0800 
 30 H       -2.3130    -0.1940    -0.1270 H     1 <1>   0.0800 
 31 H       -0.3380     2.9510    -2.1140 H     1 <1>   0.0800 
 32 H        1.2230     3.5100    -1.6270 H     1 <1>   0.0800 
 33 H        1.7280     3.8020     0.9150 H     1 <1>   0.0800 
 34 H        0.4630     3.4490     2.0470 H     1 <1>   0.0800 
 35 H       -3.2420     2.1800     0.1110 H     1 <1>   0.0800 
 36 H       -2.1500     1.9480    -1.2330 H     1 <1>   0.0800 
 37 H       -1.3480     5.0610    -1.2930 H     1 <1>   0.0800 
 38 H       -0.0780     5.3890    -2.4420 H     1 <1>   0.0800 
 39 H        0.7540     5.8880     1.6840 H     1 <1>   0.0800 
 40 H       -0.8370     5.3630     1.2130 H     1 <1>   0.0800 
 41 H        0.7000     9.3440     0.1910 H     1 <1>   0.1500 
 42 H        4.6990     7.3860     2.2550 H     1 <1>   0.1500 
 43 H        1.9740    10.6110     1.8690 H     1 <1>   0.1500 
 44 H        4.8390     5.1710     1.7930 H     1 <1>   0.0800 
 45 H        5.4930     5.9880     0.3690 H     1 <1>   0.0800 
 46 H        3.9750     9.6160     2.8950 H     1 <1>   0.1500 
 47 H        4.1040     3.2710     0.3460 H     1 <1>   0.1500 
 48 H        5.8400     2.6760    -1.3670 H     1 <1>   0.1500 
 49 H        6.5610     4.3020    -1.2320 H     1 <1>   0.1500 
@<TRIPOS>BOND
  1   1   2  1   
  2   1   3  1   
  3   2   4  2   
  4   2   5  1   
  5   3   6  2   
  6   3  27  1   
  7   4   6  1   
  8   4   7  1   
  9   5   8  1   
 10   5   9  1   
 11   5  10  1   
 12   6  28  1   
 13   7  11  1   
 14   7  29  1   
 15   7  30  1   
 16   8  11  1   
 17   9  12  1   
 18   9  31  1   
 19   9  32  1   
 20  10  13  1   
 21  10  33  1   
 22  10  34  1   
 23  11  35  1   
 24  11  36  1   
 25  12  14  1   
 26  12  37  1   
 27  12  38  1   
 28  13  14  1   
 29  13  39  1   
 30  13  40  1   
 31  14  15  am  
 32  15  16  2   
 33  15  17  1   
 34  17  18  ar  
 35  17  19  ar  
 36  18  20  1   
 37  18  21  ar  
 38  19  22  ar  
 39  19  41  1   
 40  20  23  1   
 41  21  24  ar  
 42  21  42  1   
 43  22  24  ar  
 44  22  43  1   
 45  23  25  1   
 46  23  44  1   
 47  23  45  1   
 48  24  46  1   
 49  25  26  2   
 50  25  47  1   
 51  26  48  1   
 52  26  49  1   
@<TRIPOS>SUBSTRUCTURE
  1 ****  10 GROUP 4 **** **** 0

# MOE 2024.06 (io_trps.svl 2023.06)
