@<TRIPOS>MOLECULE
NONAME
46 47 1 0 0 
SMALL
USER_CHARGES


@<TRIPOS>ATOM
  1 CL      -2.3530    -1.7680     1.2330 Cl    1 <1>  -0.1770 
  2 C       -2.5330    -0.1510     0.5780 C.ar  1 <1>   0.1770 
  3 C       -2.1470     0.9440     1.3400 C.ar  1 <1>   0.0820 
  4 C       -3.0580    -0.0140    -0.6970 C.ar  1 <1>  -0.1440 
  5 O       -1.6540     0.6810     2.5850 O.3   1 <1>  -0.3630 
  6 C       -2.3030     2.2300     0.8000 C.ar  1 <1>   0.0830 
  7 C       -3.1870     1.2580    -1.2330 C.ar  1 <1>  -0.1500 
  8 C       -3.4830    -1.2390    -1.4830 C.3   1 <1>   0.4860 
  9 C       -0.5620     1.4140     3.0990 C.3   1 <1>   0.0400 
 10 O       -1.9710     3.3200     1.5500 O.3   1 <1>  -0.3630 
 11 C       -2.8130     2.3660    -0.4910 C.ar  1 <1>  -0.1500 
 12 N       -4.7700    -1.7510    -0.9510 N.4   1 <1>  -0.9590 
 13 C       -2.2440     4.6410     1.1330 C.3   1 <1>   0.0400 
 14 C       -5.1320    -3.0760    -1.5180 C.3   1 <1>   0.5240 
 15 C       -5.8980    -0.7700    -0.9630 C.3   1 <1>   0.3430 
 16 C       -4.7700    -4.0900    -0.4470 C.2   1 <1>   0.0460 
 17 C       -6.9930    -1.1430     0.0460 C.3   1 <1>   0.1200 
 18 N       -5.0780    -3.8240     0.8400 N.2   1 <1>  -0.5650 
 19 C       -4.1220    -5.2710    -0.5520 C.2   1 <1>  -0.3020 
 20 O       -8.0550    -0.2760    -0.1430 O.3   1 <1>  -0.6800 
 21 C       -4.6120    -4.8390     1.4890 C.2   1 <1>   0.0060 
 22 N       -4.0210    -5.7610     0.6980 N.pl3 1 <1>   0.0330 
 23 C       -4.7070    -4.9940     2.9930 C.3   1 <1>  -0.0600 
 24 H       -3.5770     1.4050    -2.2260 H     1 <1>   0.1500 
 25 H       -2.7220    -1.9980    -1.3900 H     1 <1>   0.0800 
 26 H       -3.5870    -0.9850    -2.5250 H     1 <1>   0.0800 
 27 H       -0.0790     0.8130     3.8480 H     1 <1>   0.0800 
 28 H       -0.9310     2.3200     3.5450 H     1 <1>   0.0800 
 29 H        0.1250     1.6330     2.3020 H     1 <1>   0.0800 
 30 H       -2.9300     3.3350    -0.9400 H     1 <1>   0.1500 
 31 H       -4.5930    -2.0010     0.0450 H     1 <1>   0.4500 
 32 H       -1.9490     5.3070     1.9230 H     1 <1>   0.0800 
 33 H       -3.2990     4.7410     0.9490 H     1 <1>   0.0800 
 34 H       -1.6730     4.8540     0.2460 H     1 <1>   0.0800 
 35 H       -4.5980    -3.2780    -2.4300 H     1 <1>   0.0800 
 36 H       -6.1910    -3.1310    -1.7050 H     1 <1>   0.0800 
 37 H       -6.3280    -0.7190    -1.9490 H     1 <1>   0.0800 
 38 H       -5.5330     0.2090    -0.6990 H     1 <1>   0.0800 
 39 H       -6.6370    -1.0290     1.0560 H     1 <1>   0.0800 
 40 H       -7.3550    -2.1450    -0.1060 H     1 <1>   0.0800 
 41 H       -3.7290    -5.7850    -1.4120 H     1 <1>   0.1500 
 42 H       -8.7610    -0.4280     0.5210 H     1 <1>   0.4000 
 43 H       -3.5850    -6.6390     0.9990 H     1 <1>   0.2700 
 44 H       -5.2210    -4.1510     3.4170 H     1 <1>   0.0800 
 45 H       -3.7220    -5.0440     3.4210 H     1 <1>   0.0800 
 46 H       -5.2490    -5.8880     3.2410 H     1 <1>   0.0800 
@<TRIPOS>BOND
  1   1   2  1   
  2   2   3  ar  
  3   2   4  ar  
  4   3   5  1   
  5   3   6  ar  
  6   4   7  ar  
  7   4   8  1   
  8   5   9  1   
  9   6  10  1   
 10   6  11  ar  
 11   7  11  ar  
 12   7  24  1   
 13   8  12  1   
 14   8  25  1   
 15   8  26  1   
 16   9  27  1   
 17   9  28  1   
 18   9  29  1   
 19  10  13  1   
 20  11  30  1   
 21  12  14  1   
 22  12  15  1   
 23  12  31  1   
 24  13  32  1   
 25  13  33  1   
 26  13  34  1   
 27  14  16  1   
 28  14  35  1   
 29  14  36  1   
 30  15  17  1   
 31  15  37  1   
 32  15  38  1   
 33  16  18  1   
 34  16  19  2   
 35  17  20  1   
 36  17  39  1   
 37  17  40  1   
 38  18  21  2   
 39  19  22  1   
 40  19  41  1   
 41  20  42  1   
 42  21  22  1   
 43  21  23  1   
 44  22  43  1   
 45  23  44  1   
 46  23  45  1   
 47  23  46  1   
@<TRIPOS>SUBSTRUCTURE
  1 ****   2 GROUP 4 **** **** 0

# MOE 2024.06 (io_trps.svl 2023.06)
