@<TRIPOS>MOLECULE
NONAME
50 52 1 0 0 
SMALL
USER_CHARGES


@<TRIPOS>ATOM
  1 O       -0.2890     0.8100     1.2220 O.3   1 <1>  -0.5600 
  2 C        0.2180     1.0760    -0.0390 C.3   1 <1>   0.1200 
  3 C       -1.6850     0.8040     1.1500 C.3   1 <1>   0.1200 
  4 C       -0.6790     2.2170    -0.5120 C.3   1 <1>   0.4230 
  5 C       -2.0410     1.6810    -0.0690 C.3   1 <1>  -0.0800 
  6 N       -0.3780     3.4280     0.3120 N.4   1 <1>  -0.9060 
  7 C       -2.7320     0.8690    -1.1830 C.3   1 <1>  -0.0170 
  8 C        0.5440     4.4500    -0.2480 C.3   1 <1>   0.4230 
  9 C       -4.0890     0.3640    -0.7220 C.ar  1 <1>  -0.1440 
 10 C        1.9770     3.9210    -0.3660 C.3   1 <1>  -0.1600 
 11 C        0.5060     5.6730     0.6700 C.3   1 <1>  -0.1600 
 12 C       -5.1950     1.1900    -0.6730 C.ar  1 <1>  -0.1500 
 13 C       -4.2900    -0.9460    -0.3320 C.ar  1 <1>  -0.1500 
 14 C        2.9490     5.0210    -0.8040 C.3   1 <1>   0.3430 
 15 C        1.4870     6.7530     0.2110 C.3   1 <1>   0.3430 
 16 C       -6.4090     0.6840    -0.2350 C.ar  1 <1>   0.1600 
 17 C       -5.5460    -1.3500     0.0900 C.ar  1 <1>   0.1600 
 18 N        2.8640     6.1840     0.1220 N.4   1 <1>  -0.9590 
 19 N       -6.6070    -0.5640     0.1520 N.ar  1 <1>  -0.6200 
 20 C        3.8570     7.2230    -0.2860 C.3   1 <1>   0.3430 
 21 C        4.0950     8.1910     0.8680 C.3   1 <1>  -0.2400 
 22 H        1.2600     1.3220     0.0380 H     1 <1>   0.0800 
 23 H        0.1020     0.1930    -0.6470 H     1 <1>   0.0800 
 24 H       -2.0110    -0.2160     1.0380 H     1 <1>   0.0800 
 25 H       -2.0780     1.2020     2.0700 H     1 <1>   0.0800 
 26 H       -0.6230     2.4120    -1.5710 H     1 <1>   0.0800 
 27 H       -2.7090     2.4720     0.2220 H     1 <1>   0.0800 
 28 H       -1.2740     3.8700     0.5450 H     1 <1>   0.4500 
 29 H       -0.0280     3.0440     1.2060 H     1 <1>   0.4500 
 30 H       -2.1250     0.0300    -1.4810 H     1 <1>   0.0800 
 31 H       -2.8770     1.4860    -2.0530 H     1 <1>   0.0800 
 32 H        0.1960     4.7430    -1.2280 H     1 <1>   0.0800 
 33 H        2.3130     3.5170     0.5730 H     1 <1>   0.0800 
 34 H        2.0210     3.1430    -1.1070 H     1 <1>   0.0800 
 35 H       -0.4820     6.1000     0.6660 H     1 <1>   0.0800 
 36 H        0.7480     5.3980     1.6820 H     1 <1>   0.0800 
 37 H       -5.1370     2.2200    -0.9710 H     1 <1>   0.1500 
 38 H       -3.4900    -1.6630    -0.3510 H     1 <1>   0.1500 
 39 H        2.7110     5.3390    -1.8080 H     1 <1>   0.0800 
 40 H        3.9550     4.6300    -0.8110 H     1 <1>   0.0800 
 41 H        1.4690     7.5720     0.9130 H     1 <1>   0.0800 
 42 H        1.1890     7.1360    -0.7530 H     1 <1>   0.0800 
 43 H       -7.2620     1.3400    -0.2020 H     1 <1>   0.1500 
 44 H       -5.6860    -2.3750     0.3920 H     1 <1>   0.1500 
 45 H        3.1580     5.8800     1.0640 H     1 <1>   0.4500 
 46 H        4.7950     6.7530    -0.5360 H     1 <1>   0.0800 
 47 H        3.5080     7.7600    -1.1550 H     1 <1>   0.0800 
 48 H        4.4290     7.6710     1.7470 H     1 <1>   0.0800 
 49 H        3.2150     8.7660     1.0950 H     1 <1>   0.0800 
 50 H        4.8670     8.8860     0.5860 H     1 <1>   0.0800 
@<TRIPOS>BOND
  1   1   2  1   
  2   1   3  1   
  3   2   4  1   
  4   2  22  1   
  5   2  23  1   
  6   3   5  1   
  7   3  24  1   
  8   3  25  1   
  9   4   5  1   
 10   4   6  1   
 11   4  26  1   
 12   5   7  1   
 13   5  27  1   
 14   6   8  1   
 15   6  28  1   
 16   6  29  1   
 17   7   9  1   
 18   7  30  1   
 19   7  31  1   
 20   8  10  1   
 21   8  11  1   
 22   8  32  1   
 23   9  12  ar  
 24   9  13  ar  
 25  10  14  1   
 26  10  33  1   
 27  10  34  1   
 28  11  15  1   
 29  11  35  1   
 30  11  36  1   
 31  12  16  ar  
 32  12  37  1   
 33  13  17  ar  
 34  13  38  1   
 35  14  18  1   
 36  14  39  1   
 37  14  40  1   
 38  15  18  1   
 39  15  41  1   
 40  15  42  1   
 41  16  19  ar  
 42  16  43  1   
 43  17  19  ar  
 44  17  44  1   
 45  18  20  1   
 46  18  45  1   
 47  20  21  1   
 48  20  46  1   
 49  20  47  1   
 50  21  48  1   
 51  21  49  1   
 52  21  50  1   
@<TRIPOS>SUBSTRUCTURE
  1 ****   4 GROUP 4 **** **** 0

# MOE 2024.06 (io_trps.svl 2023.06)
