@<TRIPOS>MOLECULE
NONAME
34 35 1 0 0 
SMALL
USER_CHARGES


@<TRIPOS>ATOM
  1 CL       0.2140     0.5530    -0.0850 Cl    1 <1>  -0.1770 
  2 C        0.4110    -1.1760     0.0590 C.ar  1 <1>   0.1770 
  3 C       -0.6590    -1.9350     0.4950 C.ar  1 <1>  -0.1500 
  4 C        1.6230    -1.7570    -0.2630 C.ar  1 <1>  -0.1500 
  5 C       -0.4870    -3.3020     0.6010 C.ar  1 <1>   0.1770 
  6 C        1.7850    -3.1320    -0.1550 C.ar  1 <1>   0.1170 
  7 CL      -1.8240    -4.2830     1.1460 Cl    1 <1>  -0.1770 
  8 C        0.7150    -3.9050     0.2830 C.ar  1 <1>  -0.1500 
  9 N        3.0200    -3.6820    -0.5030 N.am  1 <1>  -0.5470 
 10 C        3.7200    -4.7230     0.0350 C.2   1 <1>   0.5690 
 11 O        3.2320    -5.4410     0.8790 O.2   1 <1>  -0.5700 
 12 C        5.1400    -5.0110    -0.5100 C.3   1 <1>  -0.0190 
 13 C        6.2080    -3.8900    -0.2890 C.3   1 <1>  -0.1860 
 14 C        5.6730    -6.4000    -0.0450 C.3   1 <1>  -0.1600 
 15 C        5.6540    -2.4770    -0.4290 C.2   1 <1>   0.9060 
 16 C        7.0120    -4.1440     1.0020 C.3   1 <1>  -0.1600 
 17 C        7.2040    -6.4850    -0.0570 C.3   1 <1>  -0.1600 
 18 O        5.7310    -1.6670     0.4950 O.co2 1 <1>  -0.9000 
 19 O        5.0690    -2.2010    -1.4860 O.co2 1 <1>  -0.9000 
 20 C        7.8100    -5.4610     0.9210 C.3   1 <1>  -0.1600 
 21 H       -1.5960    -1.4750     0.7440 H     1 <1>   0.1500 
 22 H        2.4500    -1.1470    -0.5910 H     1 <1>   0.1500 
 23 H        0.8210    -4.9700     0.3760 H     1 <1>   0.1500 
 24 H        3.6260    -3.0410    -1.0560 H     1 <1>   0.3700 
 25 H        5.0160    -5.0740    -1.5760 H     1 <1>   0.0800 
 26 H        6.9120    -3.9590    -1.0980 H     1 <1>   0.0800 
 27 H        5.3600    -6.5950     0.9660 H     1 <1>   0.0800 
 28 H        5.2510    -7.1700    -0.6670 H     1 <1>   0.0800 
 29 H        7.6860    -3.3240     1.1830 H     1 <1>   0.0800 
 30 H        6.3230    -4.1800     1.8290 H     1 <1>   0.0800 
 31 H        7.5210    -7.4770     0.2170 H     1 <1>   0.0800 
 32 H        7.5600    -6.2900    -1.0540 H     1 <1>   0.0800 
 33 H        8.8180    -5.2480     0.6120 H     1 <1>   0.0800 
 34 H        7.8580    -5.8890     1.9080 H     1 <1>   0.0800 
@<TRIPOS>BOND
  1   1   2  1   
  2   2   3  ar  
  3   2   4  ar  
  4   3   5  ar  
  5   3  21  1   
  6   4   6  ar  
  7   4  22  1   
  8   5   7  1   
  9   5   8  ar  
 10   6   8  ar  
 11   6   9  1   
 12   8  23  1   
 13   9  10  am  
 14   9  24  1   
 15  10  11  2   
 16  10  12  1   
 17  12  13  1   
 18  12  14  1   
 19  12  25  1   
 20  13  15  1   
 21  13  16  1   
 22  13  26  1   
 23  14  17  1   
 24  14  27  1   
 25  14  28  1   
 26  15  18  ar  
 27  15  19  ar  
 28  16  20  1   
 29  16  29  1   
 30  16  30  1   
 31  17  20  1   
 32  17  31  1   
 33  17  32  1   
 34  20  33  1   
 35  20  34  1   
@<TRIPOS>SUBSTRUCTURE
  1 ****   9 GROUP 4 **** **** 0

# MOE 2024.06 (io_trps.svl 2023.06)
