@<TRIPOS>MOLECULE
NONAME
55 58 1 0 0 
SMALL
USER_CHARGES


@<TRIPOS>ATOM
  1 O        2.3260    -0.1940     2.7720 O.3   1 <1>  -0.6800 
  2 C        2.0880    -0.3560     1.4120 C.3   1 <1>   0.2000 
  3 C        2.8260    -1.6140     0.9500 C.3   1 <1>  -0.0800 
  4 C        2.8160     0.7690     0.6790 C.3   1 <1>   0.3430 
  5 C        4.2370    -1.1180     0.5840 C.3   1 <1>   0.3430 
  6 C        2.1180    -2.2770    -0.2510 C.3   1 <1>  -0.0170 
  7 N        4.2460     0.3670     0.7490 N.4   1 <1>  -0.9590 
  8 C        2.8210    -3.5490    -0.7060 C.ar  1 <1>   0.1670 
  9 C        5.1830     1.0990    -0.1520 C.3   1 <1>   0.4230 
 10 N        3.9600    -3.3870    -1.3610 N.ar  1 <1>  -0.6200 
 11 C        2.2590    -4.7960    -0.4340 C.ar  1 <1>   0.1600 
 12 C        6.6120     0.5810     0.0610 C.3   1 <1>  -0.1600 
 13 C        5.0920     2.6060     0.1220 C.3   1 <1>  -0.1600 
 14 C        4.4880    -4.5450    -1.7320 C.ar  1 <1>   0.1600 
 15 N        2.7940    -5.9490    -0.7920 N.ar  1 <1>  -0.6200 
 16 C        7.6020     1.3440    -0.8120 C.3   1 <1>   0.2090 
 17 C        6.0860     3.3820    -0.7380 C.3   1 <1>   0.2090 
 18 C        3.9240    -5.7850    -1.4550 C.ar  1 <1>   0.1600 
 19 N        7.4260     2.7890    -0.5800 N.pl3 1 <1>  -0.8380 
 20 C        8.4120     3.4910     0.1120 C.ar  1 <1>   0.1000 
 21 C        9.4400     4.1500    -0.5640 C.ar  1 <1>  -0.1440 
 22 C        8.3800     3.5380     1.5010 C.ar  1 <1>  -0.1500 
 23 C       10.4060     4.8350     0.1540 C.ar  1 <1>  -0.1500 
 24 C        9.5100     4.1270    -2.0840 C.3   1 <1>  -0.0970 
 25 C        9.3460     4.2230     2.2120 C.ar  1 <1>  -0.1500 
 26 C       10.3620     4.8740     1.5370 C.ar  1 <1>  -0.1500 
 27 H        1.7640    -0.7920     3.3100 H     1 <1>   0.4000 
 28 H        1.0250    -0.3600     1.2370 H     1 <1>   0.0800 
 29 H        2.8860    -2.3380     1.7450 H     1 <1>   0.0800 
 30 H        2.6370     1.7200     1.1540 H     1 <1>   0.0800 
 31 H        2.4920     0.8060    -0.3480 H     1 <1>   0.0800 
 32 H        4.4640    -1.3650    -0.4390 H     1 <1>   0.0800 
 33 H        4.9780    -1.5740     1.2210 H     1 <1>   0.0800 
 34 H        2.0720    -1.5980    -1.0840 H     1 <1>   0.0800 
 35 H        1.1040    -2.5160     0.0220 H     1 <1>   0.0800 
 36 H        4.5230     0.5470     1.7260 H     1 <1>   0.4500 
 37 H        4.9050     0.9200    -1.1780 H     1 <1>   0.0800 
 38 H        1.3280    -4.8490     0.1030 H     1 <1>   0.1500 
 39 H        6.9050     0.7040     1.0880 H     1 <1>   0.0800 
 40 H        6.6880    -0.4580    -0.1990 H     1 <1>   0.0800 
 41 H        4.1120     2.9800    -0.1030 H     1 <1>   0.0800 
 42 H        5.3100     2.8110     1.1550 H     1 <1>   0.0800 
 43 H        5.4120    -4.5170    -2.2830 H     1 <1>   0.1500 
 44 H        7.4370     1.1320    -1.8550 H     1 <1>   0.0800 
 45 H        8.6130     1.0590    -0.5660 H     1 <1>   0.0800 
 46 H        6.1110     4.4170    -0.4380 H     1 <1>   0.0800 
 47 H        5.8050     3.3410    -1.7770 H     1 <1>   0.0800 
 48 H        4.4270    -6.6730    -1.7970 H     1 <1>   0.1500 
 49 H        7.5940     3.0320     2.0240 H     1 <1>   0.1500 
 50 H       11.2020     5.3450    -0.3590 H     1 <1>   0.1500 
 51 H       10.3350     4.7140    -2.4450 H     1 <1>   0.0800 
 52 H        8.6000     4.5240    -2.4950 H     1 <1>   0.0800 
 53 H        9.6330     3.1150    -2.4260 H     1 <1>   0.0800 
 54 H        9.3100     4.2520     3.2870 H     1 <1>   0.1500 
 55 H       11.1180     5.4090     2.0850 H     1 <1>   0.1500 
@<TRIPOS>BOND
  1   1   2  1   
  2   1  27  1   
  3   2   3  1   
  4   2   4  1   
  5   2  28  1   
  6   3   5  1   
  7   3   6  1   
  8   3  29  1   
  9   4   7  1   
 10   4  30  1   
 11   4  31  1   
 12   5   7  1   
 13   5  32  1   
 14   5  33  1   
 15   6   8  1   
 16   6  34  1   
 17   6  35  1   
 18   7   9  1   
 19   7  36  1   
 20   8  10  ar  
 21   8  11  ar  
 22   9  12  1   
 23   9  13  1   
 24   9  37  1   
 25  10  14  ar  
 26  11  15  ar  
 27  11  38  1   
 28  12  16  1   
 29  12  39  1   
 30  12  40  1   
 31  13  17  1   
 32  13  41  1   
 33  13  42  1   
 34  14  18  ar  
 35  14  43  1   
 36  15  18  ar  
 37  16  19  1   
 38  16  44  1   
 39  16  45  1   
 40  17  19  1   
 41  17  46  1   
 42  17  47  1   
 43  18  48  1   
 44  19  20  1   
 45  20  21  ar  
 46  20  22  ar  
 47  21  23  ar  
 48  21  24  1   
 49  22  25  ar  
 50  22  49  1   
 51  23  26  ar  
 52  23  50  1   
 53  24  51  1   
 54  24  52  1   
 55  24  53  1   
 56  25  26  ar  
 57  25  54  1   
 58  26  55  1   
@<TRIPOS>SUBSTRUCTURE
  1 ****   9 GROUP 4 **** **** 0

# MOE 2024.06 (io_trps.svl 2023.06)
