@<TRIPOS>MOLECULE
NONAME
50 53 1 0 0 
SMALL
USER_CHARGES


@<TRIPOS>ATOM
  1 O        0.1620     0.6840     0.0080 O.2   1 <1>  -0.5700 
  2 C        0.1490     1.7560     0.5640 C.2   1 <1>   0.5690 
  3 N       -0.9550     2.5870     0.6030 N.am  1 <1>  -0.4770 
  4 C        1.4530     2.1910     1.2400 C.3   1 <1>   0.2700 
  5 C       -2.2060     2.2220     0.0780 C.ar  1 <1>   0.1170 
  6 C       -0.8340     4.0190     1.0330 C.3   1 <1>   0.1400 
  7 N        1.6360     3.6890     1.2560 N.pl3 1 <1>  -0.8380 
  8 C       -3.3340     2.1940     0.8920 C.ar  1 <1>  -0.1500 
  9 C       -2.3490     1.8970    -1.2670 C.ar  1 <1>  -0.1500 
 10 C        0.4200     4.3220     1.8740 C.3   1 <1>   0.2090 
 11 C        2.6240     4.4180     0.6700 C.ar  1 <1>   0.7710 
 12 C       -4.5730     1.8620     0.3750 C.ar  1 <1>  -0.1500 
 13 C       -3.5870     1.5640    -1.7870 C.ar  1 <1>  -0.1500 
 14 N        2.5540     5.7400     0.7130 N.ar  1 <1>  -0.6200 
 15 N        3.6440     3.7880     0.0550 N.ar  1 <1>  -0.1790 
 16 C       -4.7010     1.5480    -0.9670 C.ar  1 <1>  -0.1500 
 17 C        3.5160     6.4520     0.1570 C.ar  1 <1>   0.4100 
 18 C        4.6410     4.4770    -0.5510 C.ar  1 <1>   0.2110 
 19 N        3.4340     7.8050     0.2460 N.pl3 1 <1>  -0.8380 
 20 C        4.5880     5.8280    -0.5090 C.ar  1 <1>  -0.1500 
 21 C        4.6170     8.7300     0.2970 C.3   1 <1>   0.2090 
 22 C        2.1330     8.5280     0.3940 C.3   1 <1>   0.2090 
 23 C        4.5140     9.7900    -0.8130 C.3   1 <1>   0.2000 
 24 C        2.0020     9.5810    -0.7160 C.3   1 <1>  -0.1600 
 25 O        5.5520    10.6960    -0.6890 O.3   1 <1>  -0.6800 
 26 C        3.1900    10.5590    -0.7400 C.3   1 <1>  -0.1600 
 27 H        2.2640     1.6970     0.7410 H     1 <1>   0.0800 
 28 H        1.4310     1.8280     2.2530 H     1 <1>   0.0800 
 29 H       -1.7060     4.2990     1.5980 H     1 <1>   0.0800 
 30 H       -0.8130     4.6350     0.1500 H     1 <1>   0.0800 
 31 H       -3.2410     2.4260     1.9370 H     1 <1>   0.1500 
 32 H       -1.4850     1.9000    -1.9050 H     1 <1>   0.1500 
 33 H        0.2800     3.9290     2.8670 H     1 <1>   0.0800 
 34 H        0.5250     5.3890     1.9760 H     1 <1>   0.0800 
 35 H       -5.4390     1.8430     1.0150 H     1 <1>   0.1500 
 36 H       -3.6820     1.3140    -2.8300 H     1 <1>   0.1500 
 37 H        3.6190     2.7760     0.0570 H     1 <1>   0.4570 
 38 H       -5.6640     1.2890    -1.3710 H     1 <1>   0.1500 
 39 H        5.4340     3.9380    -1.0460 H     1 <1>   0.1500 
 40 H        5.3370     6.4300    -0.9860 H     1 <1>   0.1500 
 41 H        5.5400     8.1910     0.1970 H     1 <1>   0.0800 
 42 H        4.6210     9.2200     1.2540 H     1 <1>   0.0800 
 43 H        2.0990     9.0040     1.3600 H     1 <1>   0.0800 
 44 H        1.3030     7.8460     0.3290 H     1 <1>   0.0800 
 45 H        4.6170     9.3110    -1.7710 H     1 <1>   0.0800 
 46 H        1.0890    10.1310    -0.5740 H     1 <1>   0.0800 
 47 H        1.9320     9.0740    -1.6620 H     1 <1>   0.0800 
 48 H        5.3830    11.3130     0.0490 H     1 <1>   0.4000 
 49 H        3.1030    11.2080    -1.5930 H     1 <1>   0.0800 
 50 H        3.1640    11.1550     0.1550 H     1 <1>   0.0800 
@<TRIPOS>BOND
  1   1   2  2   
  2   2   3  am  
  3   2   4  1   
  4   3   5  1   
  5   3   6  1   
  6   4   7  1   
  7   4  27  1   
  8   4  28  1   
  9   5   8  ar  
 10   5   9  ar  
 11   6  10  1   
 12   6  29  1   
 13   6  30  1   
 14   7  10  1   
 15   7  11  1   
 16   8  12  ar  
 17   8  31  1   
 18   9  13  ar  
 19   9  32  1   
 20  10  33  1   
 21  10  34  1   
 22  11  14  ar  
 23  11  15  ar  
 24  12  16  ar  
 25  12  35  1   
 26  13  16  ar  
 27  13  36  1   
 28  14  17  ar  
 29  15  18  ar  
 30  15  37  1   
 31  16  38  1   
 32  17  19  1   
 33  17  20  ar  
 34  18  20  ar  
 35  18  39  1   
 36  19  21  1   
 37  19  22  1   
 38  20  40  1   
 39  21  23  1   
 40  21  41  1   
 41  21  42  1   
 42  22  24  1   
 43  22  43  1   
 44  22  44  1   
 45  23  25  1   
 46  23  26  1   
 47  23  45  1   
 48  24  26  1   
 49  24  46  1   
 50  24  47  1   
 51  25  48  1   
 52  26  49  1   
 53  26  50  1   
@<TRIPOS>SUBSTRUCTURE
  1 ****  11 GROUP 4 **** **** 0

# MOE 2024.06 (io_trps.svl 2023.06)
