@<TRIPOS>MOLECULE
NONAME
53 55 1 0 0 
SMALL
USER_CHARGES


@<TRIPOS>ATOM
  1 O        0.5180     0.0700    -0.8630 O.2   1 <1>  -0.5700 
  2 C        1.3580    -0.4430    -0.1480 C.2   1 <1>   0.7150 
  3 N        2.1370     0.3970     0.6340 N.am  1 <1>  -0.6600 
  4 C        1.5430    -1.8780    -0.1800 C.2   1 <1>   0.0550 
  5 C        3.0880    -0.0770     1.6830 C.3   1 <1>   0.1400 
  6 C        2.0960     1.8720     0.4590 C.3   1 <1>   0.1400 
  7 O        2.7530    -2.4210    -0.0770 O.3   1 <1>  -0.2800 
  8 C        0.6410    -2.8700    -0.3350 C.2   1 <1>   0.0460 
  9 C        4.5420    -0.1220     1.1680 C.3   1 <1>   0.3430 
 10 C        3.0970     2.2960    -0.6230 C.3   1 <1>  -0.1600 
 11 C        2.4900    -3.7100    -0.1780 C.2   1 <1>   0.2980 
 12 N        1.2610    -4.0420    -0.3240 N.2   1 <1>  -0.5650 
 13 C       -0.8640    -2.8190    -0.5070 C.3   1 <1>  -0.0590 
 14 N        5.0120     1.1560     0.5180 N.4   1 <1>  -0.9590 
 15 C        4.3140     1.3800    -0.7870 C.3   1 <1>   0.3430 
 16 C        3.6690    -4.6720    -0.1110 C.3   1 <1>   0.0200 
 17 C        6.4960     1.0730     0.3320 C.3   1 <1>   0.3430 
 18 C        3.2720    -6.1520    -0.2190 C.3   1 <1>  -0.2400 
 19 C        7.1500     2.4260     0.0250 C.3   1 <1>   0.0200 
 20 C        8.6460     2.2200    -0.1170 C.2   1 <1>   0.0060 
 21 N        9.1950     1.0500    -0.0430 N.2   1 <1>  -0.5650 
 22 N        9.5320     3.2260    -0.3330 N.pl3 1 <1>   0.0480 
 23 C       10.5060     1.2970    -0.2180 C.2   1 <1>   0.0770 
 24 C       10.7280     2.6160    -0.3960 C.2   1 <1>  -0.3020 
 25 C        9.2940     4.6740    -0.4740 C.3   1 <1>   0.0160 
 26 H        2.8010    -1.0580     2.0240 H     1 <1>   0.0800 
 27 H        3.0310     0.5710     2.5400 H     1 <1>   0.0800 
 28 H        2.3340     2.3530     1.3930 H     1 <1>   0.0800 
 29 H        1.1030     2.1910     0.1840 H     1 <1>   0.0800 
 30 H        4.6290    -0.9330     0.4630 H     1 <1>   0.0800 
 31 H        5.1830    -0.3560     2.0020 H     1 <1>   0.0800 
 32 H        3.4130     3.3070    -0.4430 H     1 <1>   0.0800 
 33 H        2.5730     2.3040    -1.5630 H     1 <1>   0.0800 
 34 H       -1.2290    -1.8110    -0.4530 H     1 <1>   0.0800 
 35 H       -1.3350    -3.4010     0.2630 H     1 <1>   0.0800 
 36 H       -1.1290    -3.2330    -1.4630 H     1 <1>   0.0800 
 37 H        4.7970     1.9390     1.1460 H     1 <1>   0.4500 
 38 H        4.9870     1.8270    -1.5000 H     1 <1>   0.0800 
 39 H        3.9940     0.4330    -1.1930 H     1 <1>   0.0800 
 40 H        4.1830    -4.5150     0.8190 H     1 <1>   0.0800 
 41 H        4.3450    -4.4330    -0.9110 H     1 <1>   0.0800 
 42 H        6.7300     0.3840    -0.4640 H     1 <1>   0.0800 
 43 H        6.9530     0.6870     1.2300 H     1 <1>   0.0800 
 44 H        2.6050    -6.4170     0.5830 H     1 <1>   0.0800 
 45 H        4.1440    -6.7780    -0.1660 H     1 <1>   0.0800 
 46 H        2.7710    -6.3340    -1.1530 H     1 <1>   0.0800 
 47 H        6.9680     3.1130     0.8320 H     1 <1>   0.0800 
 48 H        6.7720     2.8330    -0.8930 H     1 <1>   0.0800 
 49 H       11.2350     0.5020    -0.2080 H     1 <1>   0.1500 
 50 H       11.6550     3.1350    -0.5590 H     1 <1>   0.1500 
 51 H        8.6390     4.8510    -1.3070 H     1 <1>   0.0800 
 52 H       10.2290     5.1770    -0.6460 H     1 <1>   0.0800 
 53 H        8.8500     5.0540     0.4280 H     1 <1>   0.0800 
@<TRIPOS>BOND
  1   1   2  2   
  2   2   3  am  
  3   2   4  1   
  4   3   5  1   
  5   3   6  1   
  6   4   7  1   
  7   4   8  2   
  8   5   9  1   
  9   5  26  1   
 10   5  27  1   
 11   6  10  1   
 12   6  28  1   
 13   6  29  1   
 14   7  11  1   
 15   8  12  1   
 16   8  13  1   
 17   9  14  1   
 18   9  30  1   
 19   9  31  1   
 20  10  15  1   
 21  10  32  1   
 22  10  33  1   
 23  11  12  2   
 24  11  16  1   
 25  13  34  1   
 26  13  35  1   
 27  13  36  1   
 28  14  15  1   
 29  14  17  1   
 30  14  37  1   
 31  15  38  1   
 32  15  39  1   
 33  16  18  1   
 34  16  40  1   
 35  16  41  1   
 36  17  19  1   
 37  17  42  1   
 38  17  43  1   
 39  18  44  1   
 40  18  45  1   
 41  18  46  1   
 42  19  20  1   
 43  19  47  1   
 44  19  48  1   
 45  20  21  2   
 46  20  22  1   
 47  21  23  1   
 48  22  24  1   
 49  22  25  1   
 50  23  24  2   
 51  23  49  1   
 52  24  50  1   
 53  25  51  1   
 54  25  52  1   
 55  25  53  1   
@<TRIPOS>SUBSTRUCTURE
  1 ****   9 GROUP 4 **** **** 0

# MOE 2024.06 (io_trps.svl 2023.06)
