@<TRIPOS>MOLECULE
NONAME
43 43 1 0 0 
SMALL
USER_CHARGES


@<TRIPOS>ATOM
  1 F       -0.4770    -0.1550     0.3650 F     1 <1>  -0.1900 
  2 C       -1.5380    -0.8980     0.5290 C.ar  1 <1>   0.1900 
  3 C       -1.6130    -1.7160     1.6400 C.ar  1 <1>  -0.1500 
  4 C       -2.5460    -0.8370    -0.4130 C.ar  1 <1>  -0.1500 
  5 C       -2.7410    -2.5030     1.8080 C.ar  1 <1>  -0.1500 
  6 C       -3.6680    -1.6280    -0.2320 C.ar  1 <1>  -0.1500 
  7 C       -3.7690    -2.4650     0.8730 C.ar  1 <1>  -0.1430 
  8 C       -5.0050    -3.3350     1.0690 C.3   1 <1>   0.2540 
  9 N       -5.4260    -4.0100    -0.1850 N.3   1 <1>  -0.8100 
 10 C       -6.8980    -4.2900    -0.1220 C.3   1 <1>   0.2510 
 11 C       -4.6200    -5.2180    -0.4800 C.3   1 <1>   0.1100 
 12 C       -7.3570    -5.2530     1.0190 C.2   1 <1>   0.5690 
 13 C       -7.4640    -4.5080    -1.5420 C.3   1 <1>  -0.1600 
 14 C       -3.1830    -4.9120    -0.9200 C.3   1 <1>   0.1200 
 15 O       -7.5690    -4.7100     2.0830 O.2   1 <1>  -0.5700 
 16 N       -7.5230    -6.6270     0.9120 N.am  1 <1>  -0.6600 
 17 C       -9.0000    -4.4890    -1.5770 C.3   1 <1>  -0.2400 
 18 O       -2.5760    -6.0930    -1.3300 O.3   1 <1>  -0.6800 
 19 C       -8.0070    -7.4280     2.0770 C.3   1 <1>   0.0600 
 20 C       -7.3310    -7.4560    -0.3090 C.3   1 <1>   0.0600 
 21 H       -0.8080    -1.7330     2.3510 H     1 <1>   0.1500 
 22 H       -2.4540    -0.1880    -1.2650 H     1 <1>   0.1500 
 23 H       -2.8140    -3.1430     2.6700 H     1 <1>   0.1500 
 24 H       -4.4660    -1.6020    -0.9540 H     1 <1>   0.1500 
 25 H       -5.7890    -2.6840     1.4170 H     1 <1>   0.0800 
 26 H       -4.8350    -4.0680     1.8400 H     1 <1>   0.0800 
 27 H       -7.3470    -3.3530     0.1600 H     1 <1>   0.0800 
 28 H       -5.0680    -5.7340    -1.3080 H     1 <1>   0.0800 
 29 H       -4.6130    -5.8710     0.3750 H     1 <1>   0.0800 
 30 H       -7.1110    -5.4220    -1.9740 H     1 <1>   0.0800 
 31 H       -7.1070    -3.7060    -2.1650 H     1 <1>   0.0800 
 32 H       -2.5940    -4.5010    -0.1220 H     1 <1>   0.0800 
 33 H       -3.1890    -4.2350    -1.7570 H     1 <1>   0.0800 
 34 H       -9.4110    -5.2770    -0.9710 H     1 <1>   0.0800 
 35 H       -9.3460    -4.6210    -2.5870 H     1 <1>   0.0800 
 36 H       -9.3710    -3.5480    -1.2110 H     1 <1>   0.0800 
 37 H       -2.3640    -6.6540    -0.5590 H     1 <1>   0.4000 
 38 H       -8.2050    -6.8050     2.9320 H     1 <1>   0.0800 
 39 H       -7.2620    -8.1540     2.3520 H     1 <1>   0.0800 
 40 H       -8.9170    -7.9370     1.8140 H     1 <1>   0.0800 
 41 H       -6.4090    -7.2120    -0.7960 H     1 <1>   0.0800 
 42 H       -8.1510    -7.3040    -0.9880 H     1 <1>   0.0800 
 43 H       -7.2950    -8.5000    -0.0500 H     1 <1>   0.0800 
@<TRIPOS>BOND
  1   1   2  1   
  2   2   3  ar  
  3   2   4  ar  
  4   3   5  ar  
  5   3  21  1   
  6   4   6  ar  
  7   4  22  1   
  8   5   7  ar  
  9   5  23  1   
 10   6   7  ar  
 11   6  24  1   
 12   7   8  1   
 13   8   9  1   
 14   8  25  1   
 15   8  26  1   
 16   9  10  1   
 17   9  11  1   
 18  10  12  1   
 19  10  13  1   
 20  10  27  1   
 21  11  14  1   
 22  11  28  1   
 23  11  29  1   
 24  12  15  2   
 25  12  16  am  
 26  13  17  1   
 27  13  30  1   
 28  13  31  1   
 29  14  18  1   
 30  14  32  1   
 31  14  33  1   
 32  16  19  1   
 33  16  20  1   
 34  17  34  1   
 35  17  35  1   
 36  17  36  1   
 37  18  37  1   
 38  19  38  1   
 39  19  39  1   
 40  19  40  1   
 41  20  41  1   
 42  20  42  1   
 43  20  43  1   
@<TRIPOS>SUBSTRUCTURE
  1 ****   9 GROUP 4 **** **** 0

# MOE 2024.06 (io_trps.svl 2023.06)
