@<TRIPOS>MOLECULE
NONAME
33 34 1 0 0 
SMALL
USER_CHARGES


@<TRIPOS>ATOM
  1 CL       0.4150     0.0140    -1.6830 Cl    1 <1>  -0.1770 
  2 C        1.2310    -1.0610    -0.5610 C.ar  1 <1>   0.1770 
  3 C        0.9260    -2.4160    -0.5150 C.ar  1 <1>   0.4100 
  4 C        2.1890    -0.5810     0.2890 C.ar  1 <1>   0.1600 
  5 N        1.5500    -3.2110     0.3370 N.ar  1 <1>  -0.6200 
  6 N       -0.0280    -2.9780    -1.3350 N.pl3 1 <1>  -0.8690 
  7 N        2.8220    -1.3700     1.1420 N.ar  1 <1>  -0.6200 
  8 C        2.4610    -2.6430     1.1090 C.ar  1 <1>   0.4770 
  9 C       -0.1280    -4.4350    -1.6180 C.3   1 <1>   0.2090 
 10 C        3.1770    -3.5540     2.0760 C.3   1 <1>  -0.0970 
 11 C       -1.0520    -5.1000    -0.5970 C.3   1 <1>   0.0200 
 12 C       -1.2400    -6.5850    -0.8730 C.2   1 <1>   0.0070 
 13 N       -0.9100    -7.1780    -1.9710 N.2   1 <1>  -0.3380 
 14 N       -1.7830    -7.4440    -0.0010 N.pl3 1 <1>   0.0480 
 15 N       -1.2350    -8.4640    -1.8390 N.2   1 <1>  -0.3380 
 16 C       -1.7500    -8.5980    -0.6670 C.2   1 <1>   0.0370 
 17 C       -2.3020    -7.2140     1.3650 C.3   1 <1>   0.0960 
 18 C       -3.7740    -6.7950     1.3200 C.3   1 <1>  -0.2400 
 19 H        2.4440     0.4640     0.2750 H     1 <1>   0.1500 
 20 H       -0.4210    -2.3720    -2.0630 H     1 <1>   0.4000 
 21 H        0.8490    -4.8880    -1.5720 H     1 <1>   0.0800 
 22 H       -0.5170    -4.5790    -2.6120 H     1 <1>   0.0800 
 23 H        3.0260    -4.5830     1.8070 H     1 <1>   0.0800 
 24 H        2.7970    -3.3890     3.0670 H     1 <1>   0.0800 
 25 H        4.2300    -3.3420     2.0620 H     1 <1>   0.0800 
 26 H       -2.0110    -4.6170    -0.6260 H     1 <1>   0.0800 
 27 H       -0.6250    -4.9700     0.3800 H     1 <1>   0.0800 
 28 H       -2.1150    -9.5240    -0.2620 H     1 <1>   0.1500 
 29 H       -1.7130    -6.4510     1.8410 H     1 <1>   0.0800 
 30 H       -2.1950    -8.1220     1.9310 H     1 <1>   0.0800 
 31 H       -3.8890    -5.8790     0.7680 H     1 <1>   0.0800 
 32 H       -4.1380    -6.6370     2.3200 H     1 <1>   0.0800 
 33 H       -4.3700    -7.5640     0.8590 H     1 <1>   0.0800 
@<TRIPOS>BOND
  1   1   2  1   
  2   2   3  ar  
  3   2   4  ar  
  4   3   5  ar  
  5   3   6  1   
  6   4   7  ar  
  7   4  19  1   
  8   5   8  ar  
  9   6   9  1   
 10   6  20  1   
 11   7   8  ar  
 12   8  10  1   
 13   9  11  1   
 14   9  21  1   
 15   9  22  1   
 16  10  23  1   
 17  10  24  1   
 18  10  25  1   
 19  11  12  1   
 20  11  26  1   
 21  11  27  1   
 22  12  13  2   
 23  12  14  1   
 24  13  15  1   
 25  14  16  1   
 26  14  17  1   
 27  15  16  2   
 28  16  28  1   
 29  17  18  1   
 30  17  29  1   
 31  17  30  1   
 32  18  31  1   
 33  18  32  1   
 34  18  33  1   
@<TRIPOS>SUBSTRUCTURE
  1 ****  11 GROUP 4 **** **** 0

# MOE 2024.06 (io_trps.svl 2023.06)
