@<TRIPOS>MOLECULE
NONAME
43 45 1 0 0 
SMALL
USER_CHARGES


@<TRIPOS>ATOM
  1 O        0.4050    -0.0590    -1.6530 O.2   1 <1>  -0.5700 
  2 C        1.1030    -0.4010    -0.7330 C.2   1 <1>   0.5690 
  3 N        1.9030     0.4740    -0.0820 N.am  1 <1>  -0.7300 
  4 C        1.0800    -1.8480    -0.2910 C.3   1 <1>  -0.0990 
  5 C        2.0220     1.9060    -0.4220 C.3   1 <1>   0.2780 
  6 C       -0.3370    -2.2770     0.1120 C.3   1 <1>   0.0200 
  7 C        3.4460     2.3630    -0.1150 C.2   1 <1>  -0.0380 
  8 C       -0.3570    -3.7050     0.6210 C.2   1 <1>   0.2980 
  9 N        4.4070     1.8510    -0.9590 N.pl3 1 <1>  -0.6000 
 10 C        3.8150     3.2090     0.8950 C.2   1 <1>  -0.1240 
 11 O        0.2260    -3.9710     1.7610 O.3   1 <1>  -0.0190 
 12 N       -0.8940    -4.6940     0.0380 N.2   1 <1>  -0.5650 
 13 C        5.7330     2.1790    -0.8370 C.2   1 <1>  -0.0500 
 14 C        5.1910     3.5810     1.0460 C.2   1 <1>   0.5410 
 15 C        2.8300     3.8050     1.9060 C.3   1 <1>  -0.1020 
 16 N        0.0470    -5.2450     1.9180 N.2   1 <1>  -0.4100 
 17 C       -0.6160    -5.6770     0.9030 C.2   1 <1>   0.5150 
 18 C        6.1440     3.0280     0.1390 C.2   1 <1>  -0.1240 
 19 O        5.5480     4.3580     1.9330 O.2   1 <1>  -0.5700 
 20 C       -1.0380    -7.0410     0.6630 C.2   1 <1>   0.1410 
 21 C        7.6130     3.4060     0.2870 C.3   1 <1>  -0.1020 
 22 O       -0.7540    -8.0130     1.5260 O.3   1 <1>  -0.2800 
 23 C       -1.7370    -7.5750    -0.3750 C.2   1 <1>  -0.1500 
 24 C       -1.2510    -9.1430     1.0660 C.2   1 <1>  -0.0100 
 25 C       -1.8750    -8.9400    -0.1130 C.2   1 <1>  -0.1500 
 26 H        2.5400     0.1670     0.6550 H     1 <1>   0.3700 
 27 H        1.7530    -1.9850     0.5360 H     1 <1>   0.0800 
 28 H        1.4210    -2.4590    -1.1070 H     1 <1>   0.0800 
 29 H        1.2870     2.4640     0.1260 H     1 <1>   0.0800 
 30 H        1.8170     2.0500    -1.4700 H     1 <1>   0.0800 
 31 H       -0.9930    -2.2010    -0.7390 H     1 <1>   0.0800 
 32 H       -0.7150    -1.6280     0.8820 H     1 <1>   0.0800 
 33 H        4.1120     1.2040    -1.7040 H     1 <1>   0.4000 
 34 H        6.4210     1.7400    -1.5420 H     1 <1>   0.1500 
 35 H        3.2510     3.7620     2.8960 H     1 <1>   0.0800 
 36 H        1.8950     3.2820     1.9400 H     1 <1>   0.0800 
 37 H        2.6480     4.8370     1.6660 H     1 <1>   0.0800 
 38 H        7.9670     3.1180     1.2610 H     1 <1>   0.0800 
 39 H        7.7280     4.4700     0.1830 H     1 <1>   0.0800 
 40 H        8.2160     2.9190    -0.4580 H     1 <1>   0.0800 
 41 H       -2.1160    -7.0580    -1.2380 H     1 <1>   0.1500 
 42 H       -1.1140   -10.0430     1.6400 H     1 <1>   0.1500 
 43 H       -2.3790    -9.6550    -0.7400 H     1 <1>   0.1500 
@<TRIPOS>BOND
  1   1   2  2   
  2   2   3  am  
  3   2   4  1   
  4   3   5  1   
  5   3  26  1   
  6   4   6  1   
  7   4  27  1   
  8   4  28  1   
  9   5   7  1   
 10   5  29  1   
 11   5  30  1   
 12   6   8  1   
 13   6  31  1   
 14   6  32  1   
 15   7   9  1   
 16   7  10  2   
 17   8  11  1   
 18   8  12  2   
 19   9  13  1   
 20   9  33  1   
 21  10  14  1   
 22  10  15  1   
 23  11  16  1   
 24  12  17  1   
 25  13  18  2   
 26  13  34  1   
 27  14  18  1   
 28  14  19  2   
 29  15  35  1   
 30  15  36  1   
 31  15  37  1   
 32  16  17  2   
 33  17  20  1   
 34  18  21  1   
 35  20  22  1   
 36  20  23  2   
 37  21  38  1   
 38  21  39  1   
 39  21  40  1   
 40  22  24  1   
 41  23  25  1   
 42  23  41  1   
 43  24  25  2   
 44  24  42  1   
 45  25  43  1   
@<TRIPOS>SUBSTRUCTURE
  1 ****   4 GROUP 4 **** **** 0

# MOE 2024.06 (io_trps.svl 2023.06)
