@<TRIPOS>MOLECULE
NONAME
50 52 1 0 0 
SMALL
USER_CHARGES


@<TRIPOS>ATOM
  1 O       -1.3050    -0.5700    -2.4680 O.2   1 <1>  -0.5700 
  2 C       -1.7840    -0.9260    -1.4160 C.2   1 <1>   0.5690 
  3 N       -1.8370    -0.1040    -0.3290 N.am  1 <1>  -0.6600 
  4 C       -2.3260    -2.3340    -1.3320 C.3   1 <1>  -0.0190 
  5 C       -2.4870    -0.5270     0.9440 C.3   1 <1>   0.2200 
  6 C       -1.3020     1.2870    -0.3640 C.3   1 <1>   0.0600 
  7 C       -1.5450    -3.1640    -0.2980 C.3   1 <1>   0.1200 
  8 C       -3.8640    -2.3350    -1.2350 C.3   1 <1>   0.1400 
  9 C       -1.7390    -1.7130     1.6020 C.3   1 <1>   0.1200 
 10 C       -4.0090    -0.7170     0.7550 C.3   1 <1>   0.1400 
 11 O       -1.9650    -2.9670     1.0170 O.3   1 <1>  -0.5600 
 12 N       -4.4350    -2.0050     0.1120 N.am  1 <1>  -0.6600 
 13 C       -5.3550    -2.8220     0.7420 C.2   1 <1>   0.5440 
 14 O       -6.0210    -2.3710     1.6560 O.2   1 <1>  -0.5700 
 15 C       -5.5710    -4.1960     0.3310 C.ar  1 <1>   0.0860 
 16 C       -6.7730    -4.5890    -0.2530 C.ar  1 <1>  -0.1500 
 17 C       -4.5870    -5.1670     0.4990 C.ar  1 <1>  -0.1500 
 18 C       -6.9760    -5.8920    -0.6710 C.ar  1 <1>  -0.1500 
 19 C       -4.7840    -6.4710     0.0840 C.ar  1 <1>  -0.1500 
 20 C       -5.9800    -6.8420    -0.5080 C.ar  1 <1>  -0.1430 
 21 C       -6.2030    -8.2760    -0.9620 C.3   1 <1>  -0.0170 
 22 C       -6.8080    -9.1110     0.1720 C.3   1 <1>  -0.1600 
 23 C       -7.0470   -10.5630    -0.2610 C.3   1 <1>  -0.1600 
 24 C       -7.6510   -11.3840     0.8820 C.3   1 <1>  -0.2400 
 25 H       -2.0980    -2.7780    -2.2840 H     1 <1>   0.0800 
 26 H       -2.3810     0.2960     1.6280 H     1 <1>   0.0800 
 27 H       -0.5580     1.4120     0.4030 H     1 <1>   0.0800 
 28 H       -2.1020     1.9890    -0.2030 H     1 <1>   0.0800 
 29 H       -0.8470     1.5000    -1.3170 H     1 <1>   0.0800 
 30 H       -0.4900    -2.9520    -0.3550 H     1 <1>   0.0800 
 31 H       -1.6880    -4.2090    -0.5080 H     1 <1>   0.0800 
 32 H       -4.2110    -3.3020    -1.5500 H     1 <1>   0.0800 
 33 H       -4.2510    -1.6240    -1.9440 H     1 <1>   0.0800 
 34 H       -2.0700    -1.7980     2.6220 H     1 <1>   0.0800 
 35 H       -0.6800    -1.5260     1.6110 H     1 <1>   0.0800 
 36 H       -4.3980     0.1040     0.1800 H     1 <1>   0.0800 
 37 H       -4.4520    -0.6480     1.7330 H     1 <1>   0.0800 
 38 H       -7.5520    -3.8580    -0.3750 H     1 <1>   0.1500 
 39 H       -3.6600    -4.8870     0.9680 H     1 <1>   0.1500 
 40 H       -7.9150    -6.1660    -1.1180 H     1 <1>   0.1500 
 41 H       -4.0040    -7.1980     0.2290 H     1 <1>   0.1500 
 42 H       -6.8620    -8.2860    -1.8130 H     1 <1>   0.0800 
 43 H       -5.2660    -8.7070    -1.2700 H     1 <1>   0.0800 
 44 H       -6.1430    -9.0900     1.0180 H     1 <1>   0.0800 
 45 H       -7.7410    -8.6670     0.4760 H     1 <1>   0.0800 
 46 H       -7.7160   -10.5860    -1.1040 H     1 <1>   0.0800 
 47 H       -6.1140   -11.0100    -0.5620 H     1 <1>   0.0800 
 48 H       -8.5960   -10.9680     1.1850 H     1 <1>   0.0800 
 49 H       -6.9880   -11.3950     1.7290 H     1 <1>   0.0800 
 50 H       -7.8110   -12.3980     0.5610 H     1 <1>   0.0800 
@<TRIPOS>BOND
  1   1   2  2   
  2   2   3  am  
  3   2   4  1   
  4   3   5  1   
  5   3   6  1   
  6   4   7  1   
  7   4   8  1   
  8   4  25  1   
  9   5   9  1   
 10   5  10  1   
 11   5  26  1   
 12   6  27  1   
 13   6  28  1   
 14   6  29  1   
 15   7  11  1   
 16   7  30  1   
 17   7  31  1   
 18   8  12  1   
 19   8  32  1   
 20   8  33  1   
 21   9  11  1   
 22   9  34  1   
 23   9  35  1   
 24  10  12  1   
 25  10  36  1   
 26  10  37  1   
 27  12  13  am  
 28  13  14  2   
 29  13  15  1   
 30  15  16  ar  
 31  15  17  ar  
 32  16  18  ar  
 33  16  38  1   
 34  17  19  ar  
 35  17  39  1   
 36  18  20  ar  
 37  18  40  1   
 38  19  20  ar  
 39  19  41  1   
 40  20  21  1   
 41  21  22  1   
 42  21  42  1   
 43  21  43  1   
 44  22  23  1   
 45  22  44  1   
 46  22  45  1   
 47  23  24  1   
 48  23  46  1   
 49  23  47  1   
 50  24  48  1   
 51  24  49  1   
 52  24  50  1   
@<TRIPOS>SUBSTRUCTURE
  1 ****  15 GROUP 4 **** **** 0

# MOE 2024.06 (io_trps.svl 2023.06)
