@<TRIPOS>MOLECULE
NONAME
53 55 1 0 0 
SMALL
USER_CHARGES


@<TRIPOS>ATOM
  1 O       -1.1530    -1.1430     1.5640 O.3   1 <1>  -0.8290 
  2 C       -1.7690    -1.9940     0.8810 C.ar  1 <1>   0.1390 
  3 N       -1.5990    -3.3110     1.1490 N.ar  1 <1>  -0.3100 
  4 C       -2.6130    -1.5560    -0.1350 C.ar  1 <1>  -0.1500 
  5 N       -2.2410    -4.2120     0.4450 N.ar  1 <1>  -0.3100 
  6 C       -3.2800    -2.5000    -0.8600 C.ar  1 <1>  -0.1500 
  7 C       -3.0610    -3.8270    -0.5270 C.ar  1 <1>   0.1670 
  8 C       -3.7880    -4.9270    -1.2830 C.3   1 <1>  -0.0160 
  9 C       -4.7400    -5.6910    -0.3480 C.3   1 <1>  -0.0990 
 10 C       -5.5710    -6.7610    -1.0410 C.2   1 <1>   0.5690 
 11 O       -5.5730    -6.8010    -2.2500 O.2   1 <1>  -0.5700 
 12 N       -6.3200    -7.6400    -0.3000 N.am  1 <1>  -0.6600 
 13 C       -7.1280    -8.7110    -0.9650 C.3   1 <1>   0.1400 
 14 C       -6.4730    -7.5920     1.1830 C.3   1 <1>   0.1400 
 15 C       -8.6190    -8.3460    -1.0600 C.3   1 <1>   0.1400 
 16 C       -7.5770    -6.6130     1.6090 C.3   1 <1>  -0.1600 
 17 N       -9.1980    -7.9490     0.2690 N.am  1 <1>  -0.6600 
 18 C       -8.8100    -6.5770     0.6970 C.3   1 <1>   0.1400 
 19 C      -10.0460    -8.7130     1.0400 C.2   1 <1>   0.5690 
 20 O      -10.4990    -8.2720     2.0740 O.2   1 <1>  -0.5700 
 21 C      -10.4170   -10.1420     0.6420 C.3   1 <1>   0.2370 
 22 N      -11.4710   -10.0820    -0.3940 N.pl3 1 <1>   0.3140 
 23 C      -10.8450   -11.0360     1.8320 C.3   1 <1>  -0.1600 
 24 N      -11.2990   -10.6360    -1.6140 N.2   1 <1>  -0.7070 
 25 C      -12.6870    -9.5040    -0.2950 C.2   1 <1>  -0.3020 
 26 C      -11.0970   -12.4980     1.4340 C.3   1 <1>  -0.2400 
 27 C      -12.4060   -10.3990    -2.2490 C.2   1 <1>   0.1390 
 28 C      -13.3150    -9.6910    -1.4740 C.2   1 <1>  -0.1500 
 29 H       -2.7020    -0.5010    -0.3000 H     1 <1>   0.1500 
 30 H       -3.9460    -2.2200    -1.6520 H     1 <1>   0.1500 
 31 H       -3.0620    -5.6050    -1.6950 H     1 <1>   0.0800 
 32 H       -4.3440    -4.5000    -2.0990 H     1 <1>   0.0800 
 33 H       -5.4060    -4.9880     0.1150 H     1 <1>   0.0800 
 34 H       -4.1500    -6.1540     0.4200 H     1 <1>   0.0800 
 35 H       -7.0200    -9.6320    -0.4200 H     1 <1>   0.0800 
 36 H       -6.7540    -8.8890    -1.9590 H     1 <1>   0.0800 
 37 H       -5.5430    -7.3230     1.6530 H     1 <1>   0.0800 
 38 H       -6.7290    -8.5760     1.5370 H     1 <1>   0.0800 
 39 H       -9.1520    -9.1770    -1.4810 H     1 <1>   0.0800 
 40 H       -8.7290    -7.5300    -1.7530 H     1 <1>   0.0800 
 41 H       -7.1680    -5.6210     1.6670 H     1 <1>   0.0800 
 42 H       -7.8940    -6.8730     2.6030 H     1 <1>   0.0800 
 43 H       -8.5930    -5.9800    -0.1720 H     1 <1>   0.0800 
 44 H       -9.6290    -6.1080     1.2140 H     1 <1>   0.0800 
 45 H       -9.5520   -10.5930     0.1960 H     1 <1>   0.0800 
 46 H      -11.7300   -10.6270     2.2890 H     1 <1>   0.0800 
 47 H      -10.0640   -11.0120     2.5730 H     1 <1>   0.0800 
 48 H      -13.0250    -9.0000     0.5940 H     1 <1>   0.1500 
 49 H      -11.9150   -12.5680     0.7360 H     1 <1>   0.0800 
 50 H      -11.3470   -13.0790     2.3050 H     1 <1>   0.0800 
 51 H      -10.2210   -12.9250     0.9780 H     1 <1>   0.0800 
 52 H      -12.5900   -10.7180    -3.2610 H     1 <1>   0.1500 
 53 H      -14.2980    -9.3750    -1.7750 H     1 <1>   0.1500 
@<TRIPOS>BOND
  1   1   2  1   
  2   2   3  ar  
  3   2   4  ar  
  4   3   5  ar  
  5   4   6  ar  
  6   4  29  1   
  7   5   7  ar  
  8   6   7  ar  
  9   6  30  1   
 10   7   8  1   
 11   8   9  1   
 12   8  31  1   
 13   8  32  1   
 14   9  10  1   
 15   9  33  1   
 16   9  34  1   
 17  10  11  2   
 18  10  12  am  
 19  12  13  1   
 20  12  14  1   
 21  13  15  1   
 22  13  35  1   
 23  13  36  1   
 24  14  16  1   
 25  14  37  1   
 26  14  38  1   
 27  15  17  1   
 28  15  39  1   
 29  15  40  1   
 30  16  18  1   
 31  16  41  1   
 32  16  42  1   
 33  17  18  1   
 34  17  19  am  
 35  18  43  1   
 36  18  44  1   
 37  19  20  2   
 38  19  21  1   
 39  21  22  1   
 40  21  23  1   
 41  21  45  1   
 42  22  24  1   
 43  22  25  1   
 44  23  26  1   
 45  23  46  1   
 46  23  47  1   
 47  24  27  2   
 48  25  28  2   
 49  25  48  1   
 50  26  49  1   
 51  26  50  1   
 52  26  51  1   
 53  27  28  1   
 54  27  52  1   
 55  28  53  1   
@<TRIPOS>SUBSTRUCTURE
  1 ****  12 GROUP 4 **** **** 0

# MOE 2024.06 (io_trps.svl 2023.06)
