@<TRIPOS>MOLECULE
NONAME
50 52 1 0 0 
SMALL
USER_CHARGES


@<TRIPOS>ATOM
  1 O       -0.4340    -0.2680    -1.9060 O.2   1 <1>  -0.5700 
  2 C       -1.1610     0.6200    -1.5200 C.2   1 <1>   0.5690 
  3 N       -2.3680     0.3490    -0.9060 N.am  1 <1>  -0.6600 
  4 C       -0.7060     2.0530    -1.8000 C.3   1 <1>   0.1810 
  5 C       -3.2470     1.4270    -0.3590 C.3   1 <1>   0.2200 
  6 C       -2.8330    -1.0630    -0.7590 C.3   1 <1>   0.0600 
  7 O       -0.3310     2.7220    -0.6010 O.3   1 <1>  -0.3620 
  8 C       -3.9020     1.1340     0.9880 C.3   1 <1>  -0.1600 
  9 C       -4.4160     1.7550    -1.2770 C.3   1 <1>  -0.1600 
 10 C       -0.7180     3.9990    -0.3670 C.ar  1 <1>   0.0820 
 11 C       -5.0380     2.1630     1.0700 C.3   1 <1>  -0.0800 
 12 C       -5.3660     2.5610    -0.3830 C.3   1 <1>  -0.0800 
 13 C       -0.8950     4.3720     0.9540 C.ar  1 <1>  -0.1500 
 14 C       -0.9560     4.9230    -1.3760 C.ar  1 <1>  -0.1500 
 15 C       -4.6360     3.4580     1.7930 C.3   1 <1>  -0.1600 
 16 C       -5.1380     4.0770    -0.4780 C.3   1 <1>  -0.1600 
 17 C       -1.3250     5.6470     1.2840 C.ar  1 <1>  -0.1440 
 18 C       -1.3880     6.1970    -1.0520 C.ar  1 <1>  -0.1500 
 19 C       -5.2480     4.5690     0.9550 C.3   1 <1>   0.2000 
 20 C       -1.5760     6.5680     0.2710 C.ar  1 <1>  -0.1440 
 21 C       -1.5030     6.0090     2.7530 C.3   1 <1>  -0.0970 
 22 O       -4.5370     5.7360     1.1140 O.3   1 <1>  -0.6800 
 23 C       -2.0410     7.9840     0.5820 C.3   1 <1>  -0.0970 
 24 H       -1.5130     2.5770    -2.2730 H     1 <1>   0.0800 
 25 H        0.1480     2.0450    -2.4520 H     1 <1>   0.0800 
 26 H       -2.6840     2.3280    -0.2230 H     1 <1>   0.0800 
 27 H       -3.8790    -1.1390    -0.9930 H     1 <1>   0.0800 
 28 H       -2.6680    -1.3940     0.2510 H     1 <1>   0.0800 
 29 H       -2.2920    -1.7160    -1.4230 H     1 <1>   0.0800 
 30 H       -4.3390     0.1540     1.0000 H     1 <1>   0.0800 
 31 H       -3.2010     1.2250     1.8000 H     1 <1>   0.0800 
 32 H       -4.1040     2.3050    -2.1470 H     1 <1>   0.0800 
 33 H       -4.9060     0.8480    -1.5840 H     1 <1>   0.0800 
 34 H       -5.9060     1.7360     1.5450 H     1 <1>   0.0800 
 35 H       -6.3940     2.3310    -0.6120 H     1 <1>   0.0800 
 36 H       -0.6920     3.6460     1.7200 H     1 <1>   0.1500 
 37 H       -0.8000     4.6710    -2.4080 H     1 <1>   0.1500 
 38 H       -3.5660     3.5620     1.8030 H     1 <1>   0.0800 
 39 H       -5.0110     3.4780     2.8000 H     1 <1>   0.0800 
 40 H       -5.8710     4.5480    -1.1080 H     1 <1>   0.0800 
 41 H       -4.1510     4.2860    -0.8530 H     1 <1>   0.0800 
 42 H       -1.5710     6.9050    -1.8410 H     1 <1>   0.1500 
 43 H       -6.2750     4.7420     1.2300 H     1 <1>   0.0800 
 44 H       -1.2620     5.1760     3.3880 H     1 <1>   0.0800 
 45 H       -2.5210     6.2960     2.9470 H     1 <1>   0.0800 
 46 H       -0.8550     6.8270     3.0100 H     1 <1>   0.0800 
 47 H       -3.6010     5.6010     0.8470 H     1 <1>   0.4000 
 48 H       -2.2430     8.5320    -0.3210 H     1 <1>   0.0800 
 49 H       -1.2800     8.5080     1.1310 H     1 <1>   0.0800 
 50 H       -2.9430     7.9650     1.1670 H     1 <1>   0.0800 
@<TRIPOS>BOND
  1   1   2  2   
  2   2   3  am  
  3   2   4  1   
  4   3   5  1   
  5   3   6  1   
  6   4   7  1   
  7   4  24  1   
  8   4  25  1   
  9   5   8  1   
 10   5   9  1   
 11   5  26  1   
 12   6  27  1   
 13   6  28  1   
 14   6  29  1   
 15   7  10  1   
 16   8  11  1   
 17   8  30  1   
 18   8  31  1   
 19   9  12  1   
 20   9  32  1   
 21   9  33  1   
 22  10  13  ar  
 23  10  14  ar  
 24  11  12  1   
 25  11  15  1   
 26  11  34  1   
 27  12  16  1   
 28  12  35  1   
 29  13  17  ar  
 30  13  36  1   
 31  14  18  ar  
 32  14  37  1   
 33  15  19  1   
 34  15  38  1   
 35  15  39  1   
 36  16  19  1   
 37  16  40  1   
 38  16  41  1   
 39  17  20  ar  
 40  17  21  1   
 41  18  20  ar  
 42  18  42  1   
 43  19  22  1   
 44  19  43  1   
 45  20  23  1   
 46  21  44  1   
 47  21  45  1   
 48  21  46  1   
 49  22  47  1   
 50  23  48  1   
 51  23  49  1   
 52  23  50  1   
@<TRIPOS>SUBSTRUCTURE
  1 ****  10 GROUP 4 **** **** 0

# MOE 2024.06 (io_trps.svl 2023.06)
