@<TRIPOS>MOLECULE
NONAME
36 36 1 0 0 
SMALL
USER_CHARGES


@<TRIPOS>ATOM
  1 O       -0.6320    -0.6760     0.6990 O.2   1 <1>  -0.5700 
  2 C       -0.6340    -1.8000     0.2660 C.2   1 <1>   0.5690 
  3 N        0.4600    -2.5870     0.4230 N.am  1 <1>  -0.7300 
  4 C       -1.8730    -2.3260    -0.4690 C.3   1 <1>   0.2010 
  5 C        0.5810    -4.0100    -0.0500 C.3   1 <1>   0.2810 
  6 N       -1.8180    -3.8050    -0.7410 N.am  1 <1>  -0.6600 
  7 C        1.9960    -4.3560    -0.5350 C.2   1 <1>   0.6590 
  8 C       -0.4680    -4.3090    -1.1420 C.3   1 <1>   0.1400 
  9 C       -2.8440    -4.6550    -0.4330 C.2   1 <1>   0.7800 
 10 O        2.2160    -4.8450    -1.6150 O.2   1 <1>  -0.5700 
 11 O        2.9800    -4.0830     0.3190 O.3   1 <1>  -0.4300 
 12 O       -2.7000    -5.8610    -0.4530 O.2   1 <1>  -0.5700 
 13 O       -4.0110    -4.1010    -0.0990 O.3   1 <1>  -0.4300 
 14 C        4.3330    -4.3430     0.0040 C.3   1 <1>   0.0400 
 15 C       -5.2020    -4.7650     0.2640 C.3   1 <1>   0.2800 
 16 C       -4.9870    -5.5810     1.5440 C.3   1 <1>  -0.2400 
 17 C       -5.7070    -5.6240    -0.9010 C.3   1 <1>  -0.2400 
 18 C       -6.2100    -3.6490     0.5420 C.3   1 <1>  -0.2400 
 19 H        1.2530    -2.2000     0.9420 H     1 <1>   0.3700 
 20 H       -1.9590    -1.8030    -1.4040 H     1 <1>   0.0800 
 21 H       -2.7350    -2.0820     0.1250 H     1 <1>   0.0800 
 22 H        0.3730    -4.6530     0.7860 H     1 <1>   0.0800 
 23 H       -0.4960    -5.3690    -1.3290 H     1 <1>   0.0800 
 24 H       -0.1760    -3.8300    -2.0610 H     1 <1>   0.0800 
 25 H        4.9420    -4.0430     0.8380 H     1 <1>   0.0800 
 26 H        4.6020    -3.7800    -0.8730 H     1 <1>   0.0800 
 27 H        4.4520    -5.3970    -0.1820 H     1 <1>   0.0800 
 28 H       -4.3370    -6.4180     1.3660 H     1 <1>   0.0800 
 29 H       -5.9260    -5.9700     1.8930 H     1 <1>   0.0800 
 30 H       -4.5660    -4.9630     2.3160 H     1 <1>   0.0800 
 31 H       -5.0560    -6.4600    -1.0780 H     1 <1>   0.0800 
 32 H       -5.7790    -5.0350    -1.7970 H     1 <1>   0.0800 
 33 H       -6.6820    -6.0160    -0.6720 H     1 <1>   0.0800 
 34 H       -5.8600    -3.0200     1.3410 H     1 <1>   0.0800 
 35 H       -7.1590    -4.0660     0.8300 H     1 <1>   0.0800 
 36 H       -6.3570    -3.0500    -0.3390 H     1 <1>   0.0800 
@<TRIPOS>BOND
  1   1   2  2   
  2   2   3  am  
  3   2   4  1   
  4   3   5  1   
  5   3  19  1   
  6   4   6  1   
  7   4  20  1   
  8   4  21  1   
  9   5   7  1   
 10   5   8  1   
 11   5  22  1   
 12   6   8  1   
 13   6   9  am  
 14   7  10  2   
 15   7  11  1   
 16   8  23  1   
 17   8  24  1   
 18   9  12  2   
 19   9  13  1   
 20  11  14  1   
 21  13  15  1   
 22  14  25  1   
 23  14  26  1   
 24  14  27  1   
 25  15  16  1   
 26  15  17  1   
 27  15  18  1   
 28  16  28  1   
 29  16  29  1   
 30  16  30  1   
 31  17  31  1   
 32  17  32  1   
 33  17  33  1   
 34  18  34  1   
 35  18  35  1   
 36  18  36  1   
@<TRIPOS>SUBSTRUCTURE
  1 ****   6 GROUP 4 **** **** 0

# MOE 2024.06 (io_trps.svl 2023.06)
