@<TRIPOS>MOLECULE
NONAME
46 48 1 0 0 
SMALL
USER_CHARGES


@<TRIPOS>ATOM
  1 CL      -2.2340     0.1440     2.5840 Cl    1 <1>  -0.1770 
  2 C       -3.2720     0.5280     1.2300 C.ar  1 <1>   0.1770 
  3 C       -3.8370     1.7860     1.1060 C.ar  1 <1>   0.1770 
  4 C       -3.5240    -0.4480     0.2830 C.ar  1 <1>  -0.1500 
  5 CL      -3.5340     3.0290     2.2980 Cl    1 <1>  -0.1770 
  6 C       -4.6550     2.0800     0.0300 C.ar  1 <1>  -0.1500 
  7 C       -4.3490    -0.1640    -0.7980 C.ar  1 <1>  -0.1440 
  8 C       -4.9080     1.1030    -0.9200 C.ar  1 <1>  -0.1500 
  9 C       -4.6450    -1.2430    -1.8380 C.3   1 <1>   0.0440 
 10 C       -5.0820    -2.5650    -1.2210 C.2   1 <1>   0.5690 
 11 O       -4.3070    -3.4920    -1.2670 O.2   1 <1>  -0.5700 
 12 N       -6.3150    -2.6950    -0.6420 N.am  1 <1>  -0.6600 
 13 C       -7.3040    -1.6190    -0.4180 C.3   1 <1>   0.1400 
 14 C       -6.7840    -3.9660    -0.0510 C.3   1 <1>   0.1400 
 15 C       -8.2040    -2.1370     0.7110 C.3   1 <1>  -0.0800 
 16 C       -8.1580    -3.6680     0.5570 C.3   1 <1>  -0.0800 
 17 C       -9.6330    -1.5170     0.7860 C.3   1 <1>   0.2800 
 18 C       -9.3160    -4.1630    -0.3240 C.3   1 <1>  -0.1600 
 19 O      -10.0320    -1.0780    -0.4630 O.3   1 <1>  -0.6800 
 20 C      -10.6520    -2.5870     1.2200 C.3   1 <1>  -0.1600 
 21 C       -9.7040    -0.2990     1.7340 C.3   1 <1>  -0.1600 
 22 C      -10.6850    -3.8210     0.2910 C.3   1 <1>  -0.1600 
 23 C       -8.7840     0.8820     1.3750 C.3   1 <1>  -0.2400 
 24 H       -3.0760    -1.4210     0.3970 H     1 <1>   0.1500 
 25 H       -5.0870     3.0610    -0.0590 H     1 <1>   0.1500 
 26 H       -5.5460     1.3370    -1.7560 H     1 <1>   0.1500 
 27 H       -3.7580    -1.4150    -2.4200 H     1 <1>   0.0800 
 28 H       -5.4140    -0.9170    -2.5130 H     1 <1>   0.0800 
 29 H       -6.8320    -0.6970    -0.1360 H     1 <1>   0.0800 
 30 H       -7.8530    -1.4780    -1.3320 H     1 <1>   0.0800 
 31 H       -6.8330    -4.7340    -0.8050 H     1 <1>   0.0800 
 32 H       -6.0910    -4.2700     0.7150 H     1 <1>   0.0800 
 33 H       -7.7000    -1.9190     1.6360 H     1 <1>   0.0800 
 34 H       -8.2320    -4.1490     1.5180 H     1 <1>   0.0800 
 35 H       -9.2400    -3.6920    -1.2900 H     1 <1>   0.0800 
 36 H       -9.2440    -5.2260    -0.4760 H     1 <1>   0.0800 
 37 H      -10.9610    -0.7890    -0.4190 H     1 <1>   0.4000 
 38 H      -10.3800    -2.9180     2.2070 H     1 <1>   0.0800 
 39 H      -11.6370    -2.1630     1.2950 H     1 <1>   0.0800 
 40 H      -10.7190     0.0560     1.7680 H     1 <1>   0.0800 
 41 H       -9.4590    -0.6250     2.7300 H     1 <1>   0.0800 
 42 H      -11.0480    -4.6640     0.8540 H     1 <1>   0.0800 
 43 H      -11.3820    -3.6460    -0.5110 H     1 <1>   0.0800 
 44 H       -8.9550     1.2040     0.3630 H     1 <1>   0.0800 
 45 H       -7.7500     0.6110     1.4860 H     1 <1>   0.0800 
 46 H       -8.9830     1.7100     2.0320 H     1 <1>   0.0800 
@<TRIPOS>BOND
  1   1   2  1   
  2   2   3  ar  
  3   2   4  ar  
  4   3   5  1   
  5   3   6  ar  
  6   4   7  ar  
  7   4  24  1   
  8   6   8  ar  
  9   6  25  1   
 10   7   8  ar  
 11   7   9  1   
 12   8  26  1   
 13   9  10  1   
 14   9  27  1   
 15   9  28  1   
 16  10  11  2   
 17  10  12  am  
 18  12  13  1   
 19  12  14  1   
 20  13  15  1   
 21  13  29  1   
 22  13  30  1   
 23  14  16  1   
 24  14  31  1   
 25  14  32  1   
 26  15  16  1   
 27  15  17  1   
 28  15  33  1   
 29  16  18  1   
 30  16  34  1   
 31  17  19  1   
 32  17  20  1   
 33  17  21  1   
 34  18  22  1   
 35  18  35  1   
 36  18  36  1   
 37  19  37  1   
 38  20  22  1   
 39  20  38  1   
 40  20  39  1   
 41  21  23  1   
 42  21  40  1   
 43  21  41  1   
 44  22  42  1   
 45  22  43  1   
 46  23  44  1   
 47  23  45  1   
 48  23  46  1   
@<TRIPOS>SUBSTRUCTURE
  1 ****  13 GROUP 4 **** **** 0

# MOE 2024.06 (io_trps.svl 2023.06)
