@<TRIPOS>MOLECULE
NONAME
49 51 1 0 0 
SMALL
USER_CHARGES


@<TRIPOS>ATOM
  1 S        0.1670     0.3710    -1.0800 S.o2  1 <1>   1.4470 
  2 O        0.8490    -0.2990    -2.1660 O.2   1 <1>  -0.6500 
  3 O       -0.2750     1.7430    -1.2300 O.2   1 <1>  -0.6500 
  4 N        1.1490     0.2750     0.3070 N.am  1 <1>  -0.8490 
  5 C       -1.2550    -0.6390    -0.5820 C.ar  1 <1>  -0.0090 
  6 C        1.3770     1.5330     1.0430 C.3   1 <1>   0.1960 
  7 C        2.2710    -0.6810     0.2740 C.3   1 <1>   0.1960 
  8 C       -2.2460    -0.1220     0.2430 C.ar  1 <1>  -0.1500 
  9 C       -1.3780    -1.9620    -0.9880 C.ar  1 <1>  -0.1500 
 10 C        2.5410     2.4280     0.5360 C.3   1 <1>   0.2200 
 11 C        3.6240    -0.1580    -0.2640 C.3   1 <1>  -0.0190 
 12 C       -3.3280    -0.8840     0.6580 C.ar  1 <1>  -0.1440 
 13 C       -2.4500    -2.7400    -0.5890 C.ar  1 <1>  -0.1500 
 14 N        2.9410     2.1630    -0.8810 N.am  1 <1>  -0.6600 
 15 C        3.7700     2.3270     1.4640 C.3   1 <1>   0.1200 
 16 C        3.5250     0.9840    -1.2550 C.2   1 <1>   0.5690 
 17 C        4.6260     0.2010     0.8430 C.3   1 <1>   0.1200 
 18 C       -3.4340    -2.2070     0.2380 C.ar  1 <1>   0.0830 
 19 C       -4.3770    -0.2470     1.5630 C.3   1 <1>  -0.0160 
 20 C        2.6200     3.2270    -1.8720 C.3   1 <1>   0.0600 
 21 O        4.0580     1.0060     1.8310 O.3   1 <1>  -0.5600 
 22 O        4.0230     0.8300    -2.3460 O.2   1 <1>  -0.5700 
 23 O       -4.5080    -2.9270     0.6570 O.3   1 <1>  -0.3630 
 24 C       -5.5220     0.3370     0.7310 C.3   1 <1>  -0.2400 
 25 C       -4.7250    -4.2560     0.2410 C.3   1 <1>   0.0400 
 26 H        0.4740     2.1170     1.0350 H     1 <1>   0.0800 
 27 H        1.5520     1.2910     2.0780 H     1 <1>   0.0800 
 28 H        2.4230    -1.0520     1.2730 H     1 <1>   0.0800 
 29 H        1.9770    -1.5300    -0.3200 H     1 <1>   0.0800 
 30 H       -2.1660     0.9020     0.5630 H     1 <1>   0.1500 
 31 H       -0.6240    -2.3890    -1.6280 H     1 <1>   0.1500 
 32 H        2.2070     3.4490     0.5960 H     1 <1>   0.0800 
 33 H        4.0700    -0.9770    -0.7980 H     1 <1>   0.0800 
 34 H       -2.4990    -3.7560    -0.9310 H     1 <1>   0.1500 
 35 H        3.5620     2.8560     2.3770 H     1 <1>   0.0800 
 36 H        4.6380     2.7710     1.0080 H     1 <1>   0.0800 
 37 H        5.4910     0.6990     0.4370 H     1 <1>   0.0800 
 38 H        4.9550    -0.6990     1.3320 H     1 <1>   0.0800 
 39 H       -4.7660    -0.9780     2.2500 H     1 <1>   0.0800 
 40 H       -3.9270     0.5340     2.1500 H     1 <1>   0.0800 
 41 H        1.5820     3.5010    -1.7920 H     1 <1>   0.0800 
 42 H        2.7990     2.8760    -2.8740 H     1 <1>   0.0800 
 43 H        3.2330     4.0920    -1.6920 H     1 <1>   0.0800 
 44 H       -5.9940    -0.4420     0.1590 H     1 <1>   0.0800 
 45 H       -5.1470     1.0840     0.0540 H     1 <1>   0.0800 
 46 H       -6.2560     0.7870     1.3750 H     1 <1>   0.0800 
 47 H       -5.6420    -4.5980     0.6860 H     1 <1>   0.0800 
 48 H       -3.9060    -4.8660     0.5790 H     1 <1>   0.0800 
 49 H       -4.8090    -4.2780    -0.8310 H     1 <1>   0.0800 
@<TRIPOS>BOND
  1   1   2  2   
  2   1   3  2   
  3   1   4  am  
  4   1   5  1   
  5   4   6  1   
  6   4   7  1   
  7   5   8  ar  
  8   5   9  ar  
  9   6  10  1   
 10   6  26  1   
 11   6  27  1   
 12   7  11  1   
 13   7  28  1   
 14   7  29  1   
 15   8  12  ar  
 16   8  30  1   
 17   9  13  ar  
 18   9  31  1   
 19  10  14  1   
 20  10  15  1   
 21  10  32  1   
 22  11  16  1   
 23  11  17  1   
 24  11  33  1   
 25  12  18  ar  
 26  12  19  1   
 27  13  18  ar  
 28  13  34  1   
 29  14  16  am  
 30  14  20  1   
 31  15  21  1   
 32  15  35  1   
 33  15  36  1   
 34  16  22  2   
 35  17  21  1   
 36  17  37  1   
 37  17  38  1   
 38  18  23  1   
 39  19  24  1   
 40  19  39  1   
 41  19  40  1   
 42  20  41  1   
 43  20  42  1   
 44  20  43  1   
 45  23  25  1   
 46  24  44  1   
 47  24  45  1   
 48  24  46  1   
 49  25  47  1   
 50  25  48  1   
 51  25  49  1   
@<TRIPOS>SUBSTRUCTURE
  1 ****   1 GROUP 4 **** **** 0

# MOE 2024.06 (io_trps.svl 2023.06)
