@<TRIPOS>MOLECULE
NONAME
55 57 1 0 0 
SMALL
USER_CHARGES


@<TRIPOS>ATOM
  1 O        0.8440    -0.1330     2.5310 O.2   1 <1>  -0.5700 
  2 C        1.4710    -0.5080     1.5660 C.2   1 <1>   0.5690 
  3 N        2.1300     0.3870     0.7480 N.am  1 <1>  -0.6600 
  4 C        1.5410    -2.0170     1.3420 C.3   1 <1>   0.1810 
  5 C        2.8730    -0.0010    -0.4900 C.3   1 <1>   0.1400 
  6 C        2.0330     1.8510     1.0180 C.3   1 <1>   0.1400 
  7 O        0.9000    -2.4020     0.1360 O.3   1 <1>  -0.3620 
  8 C        4.3740    -0.1850    -0.2070 C.3   1 <1>   0.1100 
  9 C        3.3260     2.6190     0.7120 C.3   1 <1>  -0.1600 
 10 C        0.9780    -3.6760    -0.3200 C.ar  1 <1>   0.0820 
 11 N        5.1190     1.0840    -0.0160 N.3   1 <1>  -0.8100 
 12 C        4.6050     1.8820     1.1180 C.3   1 <1>   0.1100 
 13 C        0.5070    -3.9080    -1.6030 C.ar  1 <1>  -0.1500 
 14 C        1.5010    -4.7340     0.4200 C.ar  1 <1>  -0.1500 
 15 C        6.5790     0.8120     0.1360 C.3   1 <1>   0.2540 
 16 C        0.5640    -5.1770    -2.1520 C.ar  1 <1>  -0.1500 
 17 C        1.5570    -6.0020    -0.1310 C.ar  1 <1>  -0.1500 
 18 C        7.4610     2.0210    -0.2310 C.cat 1 <1>   0.6560 
 19 C        1.0900    -6.2240    -1.4160 C.ar  1 <1>  -0.1500 
 20 N        6.9930     3.0570    -0.9000 N.pl3 1 <1>  -0.7000 
 21 N        8.7550     2.2080     0.0400 N.pl3 1 <1>  -0.7640 
 22 C        8.0000     3.9560    -1.0780 C.2   1 <1>   0.1820 
 23 C        9.1030     3.4310    -0.4930 C.2   1 <1>   0.1820 
 24 C        9.6860     1.2990     0.7660 C.3   1 <1>   0.2740 
 25 C        7.7620     5.2570    -1.8190 C.3   1 <1>  -0.0720 
 26 C       10.5100     3.9950    -0.3850 C.3   1 <1>  -0.0720 
 27 H        1.0460    -2.5190     2.1540 H     1 <1>   0.0800 
 28 H        2.5680    -2.3250     1.2980 H     1 <1>   0.0800 
 29 H        2.7330     0.7430    -1.2550 H     1 <1>   0.0800 
 30 H        2.4820    -0.9200    -0.8810 H     1 <1>   0.0800 
 31 H        1.7930     2.0030     2.0570 H     1 <1>   0.0800 
 32 H        1.2220     2.2590     0.4390 H     1 <1>   0.0800 
 33 H        4.7920    -0.6990    -1.0560 H     1 <1>   0.0800 
 34 H        4.4950    -0.8210     0.6530 H     1 <1>   0.0800 
 35 H        3.2760     3.5430     1.2600 H     1 <1>   0.0800 
 36 H        3.3620     2.8810    -0.3300 H     1 <1>   0.0800 
 37 H        4.4300     1.2590     1.9810 H     1 <1>   0.0800 
 38 H        5.3340     2.6250     1.3930 H     1 <1>   0.0800 
 39 H        0.0960    -3.0910    -2.1670 H     1 <1>   0.1500 
 40 H        1.8610    -4.5960     1.4210 H     1 <1>   0.1500 
 41 H        6.8630     0.0100    -0.5220 H     1 <1>   0.0800 
 42 H        6.7880     0.5050     1.1450 H     1 <1>   0.0800 
 43 H        0.1980    -5.3490    -3.1490 H     1 <1>   0.1500 
 44 H        1.9610    -6.8200     0.4390 H     1 <1>   0.1500 
 45 H        1.1350    -7.2120    -1.8420 H     1 <1>   0.1500 
 46 H        6.0120     3.1030    -1.1980 H     1 <1>   0.4500 
 47 H        9.1830     0.4000     1.0750 H     1 <1>   0.0800 
 48 H       10.0730     1.7950     1.6400 H     1 <1>   0.0800 
 49 H       10.5080     1.0300     0.1240 H     1 <1>   0.0800 
 50 H        7.0070     5.8330    -1.3150 H     1 <1>   0.0800 
 51 H        7.4310     5.0520    -2.8210 H     1 <1>   0.0800 
 52 H        8.6620     5.8420    -1.8690 H     1 <1>   0.0800 
 53 H       11.2090     3.3330    -0.8620 H     1 <1>   0.0800 
 54 H       10.7820     4.1090     0.6490 H     1 <1>   0.0800 
 55 H       10.5750     4.9560    -0.8600 H     1 <1>   0.0800 
@<TRIPOS>BOND
  1   1   2  2   
  2   2   3  am  
  3   2   4  1   
  4   3   5  1   
  5   3   6  1   
  6   4   7  1   
  7   4  27  1   
  8   4  28  1   
  9   5   8  1   
 10   5  29  1   
 11   5  30  1   
 12   6   9  1   
 13   6  31  1   
 14   6  32  1   
 15   7  10  1   
 16   8  11  1   
 17   8  33  1   
 18   8  34  1   
 19   9  12  1   
 20   9  35  1   
 21   9  36  1   
 22  10  13  ar  
 23  10  14  ar  
 24  11  12  1   
 25  11  15  1   
 26  12  37  1   
 27  12  38  1   
 28  13  16  ar  
 29  13  39  1   
 30  14  17  ar  
 31  14  40  1   
 32  15  18  1   
 33  15  41  1   
 34  15  42  1   
 35  16  19  ar  
 36  16  43  1   
 37  17  19  ar  
 38  17  44  1   
 39  18  20  ar  
 40  18  21  ar  
 41  19  45  1   
 42  20  22  1   
 43  20  46  1   
 44  21  23  1   
 45  21  24  1   
 46  22  23  2   
 47  22  25  1   
 48  23  26  1   
 49  24  47  1   
 50  24  48  1   
 51  24  49  1   
 52  25  50  1   
 53  25  51  1   
 54  25  52  1   
 55  26  53  1   
 56  26  54  1   
 57  26  55  1   
@<TRIPOS>SUBSTRUCTURE
  1 ****   8 GROUP 4 **** **** 0

# MOE 2024.06 (io_trps.svl 2023.06)
