@<TRIPOS>MOLECULE
NONAME
45 48 1 0 0 
SMALL
USER_CHARGES


@<TRIPOS>ATOM
  1 O        0.2680     2.1580     2.9290 O.co2 1 <1>  -0.9000 
  2 C        0.8670     3.2240     2.6970 C.2   1 <1>   1.0330 
  3 O        1.5760     3.7290     3.5880 O.co2 1 <1>  -0.9000 
  4 C        0.7360     3.8490     1.3810 C.2   1 <1>  -0.0060 
  5 N        1.2930     5.0360     0.9710 N.2   1 <1>  -0.5650 
  6 C        0.0490     3.3560     0.3290 C.2   1 <1>  -0.0100 
  7 C        0.9190     5.1460    -0.2480 C.2   1 <1>   0.2980 
  8 O        0.1670     4.1690    -0.6850 O.3   1 <1>  -0.2800 
  9 C        1.3040     6.3060    -1.1540 C.3   1 <1>   0.5230 
 10 N        2.3440     7.1360    -0.4570 N.4   1 <1>  -0.9590 
 11 C        2.3430     8.5830    -0.8300 C.3   1 <1>   0.3430 
 12 C        3.6880     6.5010    -0.4950 C.3   1 <1>   0.3430 
 13 C        3.6410     9.2930    -0.4010 C.3   1 <1>  -0.0800 
 14 C        4.5690     7.1400     0.5840 C.3   1 <1>  -0.1600 
 15 C        4.2730     8.6310     0.8400 C.3   1 <1>  -0.1600 
 16 C        3.3940    10.7990    -0.1830 C.3   1 <1>   0.0200 
 17 C        4.7020    11.5580    -0.0340 C.2   1 <1>   0.0060 
 18 N        5.6760    11.4520    -0.8680 N.2   1 <1>  -0.5650 
 19 N        4.9510    12.4120     0.9940 N.pl3 1 <1>   0.0330 
 20 C        6.6400    12.2780    -0.3740 C.ar  1 <1>   0.2270 
 21 C        6.2050    12.8840     0.7900 C.ar  1 <1>  -0.1520 
 22 C        7.9120    12.5560    -0.8680 C.ar  1 <1>  -0.1500 
 23 C        7.0180    13.7770     1.4910 C.ar  1 <1>  -0.1500 
 24 C        8.7230    13.4360    -0.1840 C.ar  1 <1>  -0.1500 
 25 C        8.2740    14.0460     0.9950 C.ar  1 <1>  -0.1500 
 26 H       -0.5260     2.4480     0.2530 H     1 <1>   0.1500 
 27 H        0.4220     6.8920    -1.3430 H     1 <1>   0.0800 
 28 H        1.6830     5.9300    -2.0880 H     1 <1>   0.0800 
 29 H        2.0760     7.0410     0.5420 H     1 <1>   0.4500 
 30 H        1.5020     9.0620    -0.3560 H     1 <1>   0.0800 
 31 H        2.2310     8.6900    -1.8970 H     1 <1>   0.0800 
 32 H        4.1340     6.6520    -1.4650 H     1 <1>   0.0800 
 33 H        3.6130     5.4400    -0.3080 H     1 <1>   0.0800 
 34 H        4.3360     9.1970    -1.2190 H     1 <1>   0.0800 
 35 H        5.5950     7.0250     0.2830 H     1 <1>   0.0800 
 36 H        4.4510     6.5910     1.5040 H     1 <1>   0.0800 
 37 H        3.5980     8.7190     1.6750 H     1 <1>   0.0800 
 38 H        5.1900     9.1280     1.1100 H     1 <1>   0.0800 
 39 H        2.7780    10.9530     0.6850 H     1 <1>   0.0800 
 40 H        2.8800    11.2100    -1.0350 H     1 <1>   0.0800 
 41 H        4.3330    12.6670     1.7680 H     1 <1>   0.2700 
 42 H        8.2300    12.0760    -1.7750 H     1 <1>   0.1500 
 43 H        6.6650    14.2420     2.3950 H     1 <1>   0.1500 
 44 H        9.7080    13.6630    -0.5510 H     1 <1>   0.1500 
 45 H        8.9270    14.7290     1.5110 H     1 <1>   0.1500 
@<TRIPOS>BOND
  1   1   2  ar  
  2   2   3  ar  
  3   2   4  1   
  4   4   5  1   
  5   4   6  2   
  6   5   7  2   
  7   6   8  1   
  8   6  26  1   
  9   7   8  1   
 10   7   9  1   
 11   9  10  1   
 12   9  27  1   
 13   9  28  1   
 14  10  11  1   
 15  10  12  1   
 16  10  29  1   
 17  11  13  1   
 18  11  30  1   
 19  11  31  1   
 20  12  14  1   
 21  12  32  1   
 22  12  33  1   
 23  13  15  1   
 24  13  16  1   
 25  13  34  1   
 26  14  15  1   
 27  14  35  1   
 28  14  36  1   
 29  15  37  1   
 30  15  38  1   
 31  16  17  1   
 32  16  39  1   
 33  16  40  1   
 34  17  18  2   
 35  17  19  1   
 36  18  20  1   
 37  19  21  1   
 38  19  41  1   
 39  20  21  ar  
 40  20  22  ar  
 41  21  23  ar  
 42  22  24  ar  
 43  22  42  1   
 44  23  25  ar  
 45  23  43  1   
 46  24  25  ar  
 47  24  44  1   
 48  25  45  1   
@<TRIPOS>SUBSTRUCTURE
  1 ****  15 GROUP 4 **** **** 0

# MOE 2024.06 (io_trps.svl 2023.06)
