@<TRIPOS>MOLECULE
NONAME
40 40 1 0 0 
SMALL
USER_CHARGES


@<TRIPOS>ATOM
  1 S        0.8940     0.4770    -1.0650 S.o2  1 <1>   1.3330 
  2 O        2.0210    -0.0760    -1.7800 O.2   1 <1>  -0.6500 
  3 O       -0.0810     1.2880    -1.7560 O.2   1 <1>  -0.6500 
  4 N        1.4910     1.3590     0.2560 N.am  1 <1>  -0.8490 
  5 C        0.0050    -0.8500    -0.2780 C.3   1 <1>  -0.1350 
  6 C        1.7880     2.7590    -0.1150 C.3   1 <1>   0.1960 
  7 C        2.6860     0.7350     0.8490 C.3   1 <1>   0.1160 
  8 C        1.8450     3.6850     1.1110 C.3   1 <1>   0.2090 
  9 N        2.1710     5.0850     0.7120 N.pl3 1 <1>  -0.8690 
 10 C        3.4360     5.5140     0.3590 C.ar  1 <1>   0.4100 
 11 N        4.3940     4.5970     0.4690 N.ar  1 <1>  -0.6200 
 12 C        3.6650     6.8230    -0.1060 C.ar  1 <1>   0.0860 
 13 C        5.6060     4.9320     0.0780 C.ar  1 <1>   0.1670 
 14 C        2.6300     7.8300    -0.1510 C.2   1 <1>   0.5440 
 15 C        4.9490     7.1360    -0.5260 C.ar  1 <1>  -0.1500 
 16 C        5.9380     6.1810    -0.4370 C.ar  1 <1>  -0.1440 
 17 C        6.6500     3.8390     0.2160 C.3   1 <1>  -0.0970 
 18 O        2.5660     8.6340    -1.0560 O.2   1 <1>  -0.5700 
 19 N        1.7020     7.9680     0.8260 N.am  1 <1>  -0.8000 
 20 C        7.3470     6.5270    -0.9030 C.3   1 <1>  -0.0970 
 21 H       -0.4610    -1.4670    -1.0210 H     1 <1>   0.0800 
 22 H       -0.7560    -0.4510     0.3640 H     1 <1>   0.0800 
 23 H        0.6700    -1.4560     0.3040 H     1 <1>   0.0800 
 24 H        1.0130     3.1410    -0.7560 H     1 <1>   0.0800 
 25 H        2.7170     2.8040    -0.6580 H     1 <1>   0.0800 
 26 H        2.4880    -0.2930     1.0960 H     1 <1>   0.0800 
 27 H        2.9740     1.2420     1.7530 H     1 <1>   0.0800 
 28 H        3.5120     0.7670     0.1560 H     1 <1>   0.0800 
 29 H        2.5930     3.3420     1.8030 H     1 <1>   0.0800 
 30 H        0.8920     3.6730     1.6090 H     1 <1>   0.0800 
 31 H        1.3850     5.6130     0.3170 H     1 <1>   0.4000 
 32 H        5.1540     8.1200    -0.9120 H     1 <1>   0.1500 
 33 H        6.2900     3.0580     0.8610 H     1 <1>   0.0800 
 34 H        7.5550     4.2310     0.6400 H     1 <1>   0.0800 
 35 H        6.8590     3.4170    -0.7490 H     1 <1>   0.0800 
 36 H        1.0620     8.7640     0.7980 H     1 <1>   0.3700 
 37 H        1.7180     7.4020     1.6770 H     1 <1>   0.3700 
 38 H        7.7000     5.7910    -1.6020 H     1 <1>   0.0800 
 39 H        8.0150     6.5620    -0.0610 H     1 <1>   0.0800 
 40 H        7.3660     7.4860    -1.3900 H     1 <1>   0.0800 
@<TRIPOS>BOND
  1   1   2  2   
  2   1   3  2   
  3   1   4  am  
  4   1   5  1   
  5   4   6  1   
  6   4   7  1   
  7   5  21  1   
  8   5  22  1   
  9   5  23  1   
 10   6   8  1   
 11   6  24  1   
 12   6  25  1   
 13   7  26  1   
 14   7  27  1   
 15   7  28  1   
 16   8   9  1   
 17   8  29  1   
 18   8  30  1   
 19   9  10  1   
 20   9  31  1   
 21  10  11  ar  
 22  10  12  ar  
 23  11  13  ar  
 24  12  14  1   
 25  12  15  ar  
 26  13  16  ar  
 27  13  17  1   
 28  14  18  2   
 29  14  19  am  
 30  15  16  ar  
 31  15  32  1   
 32  16  20  1   
 33  17  33  1   
 34  17  34  1   
 35  17  35  1   
 36  19  36  1   
 37  19  37  1   
 38  20  38  1   
 39  20  39  1   
 40  20  40  1   
@<TRIPOS>SUBSTRUCTURE
  1 ****  10 GROUP 4 **** **** 0

# MOE 2024.06 (io_trps.svl 2023.06)
