@<TRIPOS>MOLECULE
NONAME
45 47 1 0 0 
SMALL
USER_CHARGES


@<TRIPOS>ATOM
  1 O        0.6740    -2.0010    -2.1940 O.3   1 <1>  -0.6800 
  2 C        0.2680    -2.6540    -1.0340 C.3   1 <1>   0.1200 
  3 C        0.8910    -2.0360     0.2620 C.3   1 <1>   0.0000 
  4 C        2.4410    -2.1270     0.3920 C.3   1 <1>   0.4230 
  5 C        0.5010    -0.5280     0.3330 C.3   1 <1>  -0.1600 
  6 C        0.2920    -2.7810     1.4760 C.3   1 <1>  -0.1600 
  7 N        2.9860    -3.4860     0.8290 N.4   1 <1>  -0.9590 
  8 C        3.1190    -1.4250    -0.8160 C.3   1 <1>   0.3430 
  9 C        1.6000     0.4630    -0.1020 C.3   1 <1>   0.3430 
 10 C        0.7270    -4.2610     1.5450 C.3   1 <1>  -0.1600 
 11 C        2.0080    -4.6110     0.7720 C.3   1 <1>   0.3430 
 12 C        4.2890    -3.8880     0.2030 C.3   1 <1>   0.2630 
 13 N        2.4590    -0.1120    -1.1820 N.4   1 <1>  -0.9590 
 14 C        3.4860     0.8850    -1.6380 C.3   1 <1>   0.5240 
 15 C        4.3100     1.4230    -0.4580 C.2   1 <1>   0.0460 
 16 N        4.7710     0.6270     0.5370 N.2   1 <1>  -0.5650 
 17 C        4.6720     2.7080    -0.2400 C.2   1 <1>  -0.3020 
 18 C        5.4080     1.4410     1.3180 C.2   1 <1>   0.0360 
 19 N        5.3840     2.7240     0.9020 N.pl3 1 <1>   0.0330 
 20 H        0.1400    -2.3170    -2.9600 H     1 <1>   0.4000 
 21 H       -0.8060    -2.5740    -0.9870 H     1 <1>   0.0800 
 22 H        0.5070    -3.6940    -1.1550 H     1 <1>   0.0800 
 23 H        2.6800    -1.4760     1.2170 H     1 <1>   0.0800 
 24 H        0.2300    -0.2570     1.3390 H     1 <1>   0.0800 
 25 H       -0.3790    -0.3430    -0.2600 H     1 <1>   0.0800 
 26 H        0.6180    -2.2980     2.3830 H     1 <1>   0.0800 
 27 H       -0.7850    -2.7220     1.4650 H     1 <1>   0.0800 
 28 H        3.1800    -3.3780     1.8370 H     1 <1>   0.4500 
 29 H        3.0700    -2.0810    -1.6690 H     1 <1>   0.0800 
 30 H        4.1550    -1.2630    -0.5790 H     1 <1>   0.0800 
 31 H        2.2180     0.6970     0.7520 H     1 <1>   0.0800 
 32 H        1.1440     1.3820    -0.4350 H     1 <1>   0.0800 
 33 H       -0.0650    -4.8810     1.1600 H     1 <1>   0.0800 
 34 H        0.8510    -4.5430     2.5770 H     1 <1>   0.0800 
 35 H        1.7680    -4.8240    -0.2560 H     1 <1>   0.0800 
 36 H        2.4430    -5.5050     1.1930 H     1 <1>   0.0800 
 37 H        4.1670    -4.0540    -0.8550 H     1 <1>   0.0800 
 38 H        4.6510    -4.8010     0.6490 H     1 <1>   0.0800 
 39 H        5.0340    -3.1230     0.3540 H     1 <1>   0.0800 
 40 H        1.8170    -0.3440    -1.9640 H     1 <1>   0.4500 
 41 H        4.1530     0.4230    -2.3470 H     1 <1>   0.0800 
 42 H        3.0020     1.7130    -2.1270 H     1 <1>   0.0800 
 43 H        4.4800     3.5980    -0.8160 H     1 <1>   0.1500 
 44 H        5.9200     1.1520     2.2220 H     1 <1>   0.1500 
 45 H        5.8250     3.5310     1.3590 H     1 <1>   0.2700 
@<TRIPOS>BOND
  1   1   2  1   
  2   1  20  1   
  3   2   3  1   
  4   2  21  1   
  5   2  22  1   
  6   3   4  1   
  7   3   5  1   
  8   3   6  1   
  9   4   7  1   
 10   4   8  1   
 11   4  23  1   
 12   5   9  1   
 13   5  24  1   
 14   5  25  1   
 15   6  10  1   
 16   6  26  1   
 17   6  27  1   
 18   7  11  1   
 19   7  12  1   
 20   7  28  1   
 21   8  13  1   
 22   8  29  1   
 23   8  30  1   
 24   9  13  1   
 25   9  31  1   
 26   9  32  1   
 27  10  11  1   
 28  10  33  1   
 29  10  34  1   
 30  11  35  1   
 31  11  36  1   
 32  12  37  1   
 33  12  38  1   
 34  12  39  1   
 35  13  14  1   
 36  13  40  1   
 37  14  15  1   
 38  14  41  1   
 39  14  42  1   
 40  15  16  1   
 41  15  17  2   
 42  16  18  2   
 43  17  19  1   
 44  17  43  1   
 45  18  19  1   
 46  18  44  1   
 47  19  45  1   
@<TRIPOS>SUBSTRUCTURE
  1 ****   8 GROUP 4 **** **** 0

# MOE 2024.06 (io_trps.svl 2023.06)
