@<TRIPOS>MOLECULE
NONAME
57 60 1 0 0 
SMALL
USER_CHARGES


@<TRIPOS>ATOM
  1 O       -0.5490     0.3150     0.7000 O.2   1 <1>  -0.5700 
  2 C       -1.6220     0.8610     0.5850 C.2   1 <1>   0.5690 
  3 N       -2.7880     0.1520     0.6190 N.am  1 <1>  -0.6600 
  4 C       -1.6770     2.3700     0.4060 C.3   1 <1>  -0.0990 
  5 C       -4.1550     0.7070     0.5040 C.3   1 <1>   0.1400 
  6 C       -2.8210    -1.3200     0.7280 C.3   1 <1>   0.1400 
  7 C       -0.3090     3.0070     0.0960 C.3   1 <1>  -0.0160 
  8 C       -5.0930    -0.4470     0.8870 C.3   1 <1>  -0.0800 
  9 C       -4.2900    -1.7200     0.5570 C.3   1 <1>  -0.0800 
 10 C       -0.3530     4.5190    -0.1440 C.ar  1 <1>   0.1660 
 11 C       -6.5290    -0.3960     0.2790 C.3   1 <1>   0.2800 
 12 C       -4.6030    -2.2130    -0.8640 C.3   1 <1>  -0.1600 
 13 N       -1.4540     5.1600     0.1170 N.ar  1 <1>  -0.6200 
 14 C        0.8230     5.1570    -0.6390 C.ar  1 <1>   0.3930 
 15 O       -6.5220     0.3000    -0.9150 O.3   1 <1>  -0.6800 
 16 C       -7.0170    -1.8200    -0.0490 C.3   1 <1>  -0.1600 
 17 C       -7.5450     0.3090     1.2040 C.3   1 <1>  -0.1600 
 18 C       -6.0900    -2.5820    -1.0210 C.3   1 <1>  -0.1600 
 19 C       -1.4020     6.4960    -0.1260 C.ar  1 <1>   0.3100 
 20 O        1.9090     4.3840    -0.8620 O.3   1 <1>  -0.3630 
 21 N        0.9060     6.4350    -0.8840 N.ar  1 <1>  -0.6200 
 22 C       -7.2280     1.7760     1.5460 C.3   1 <1>  -0.2400 
 23 C       -0.2330     7.1230    -0.6220 C.ar  1 <1>   0.3100 
 24 C       -2.5380     7.2810     0.1200 C.ar  1 <1>  -0.1500 
 25 C        3.1220     4.9290    -1.3450 C.3   1 <1>   0.0400 
 26 C       -0.2590     8.5080    -0.8490 C.ar  1 <1>  -0.1500 
 27 C       -2.5360     8.6330    -0.1110 C.ar  1 <1>  -0.1500 
 28 C       -1.3830     9.2520    -0.6010 C.ar  1 <1>  -0.1500 
 29 H       -2.3490     2.5960    -0.4010 H     1 <1>   0.0800 
 30 H       -2.0720     2.7990     1.3080 H     1 <1>   0.0800 
 31 H       -4.2840     1.5520     1.1570 H     1 <1>   0.0800 
 32 H       -4.2990     1.0180    -0.5150 H     1 <1>   0.0800 
 33 H       -2.1890    -1.7680    -0.0200 H     1 <1>   0.0800 
 34 H       -2.4660    -1.6020     1.7040 H     1 <1>   0.0800 
 35 H        0.0940     2.5300    -0.7800 H     1 <1>   0.0800 
 36 H        0.3640     2.8130     0.9120 H     1 <1>   0.0800 
 37 H       -5.1880    -0.4300     1.9580 H     1 <1>   0.0800 
 38 H       -4.5240    -2.5080     1.2500 H     1 <1>   0.0800 
 39 H       -4.3630    -1.4280    -1.5620 H     1 <1>   0.0800 
 40 H       -3.9920    -3.0640    -1.1100 H     1 <1>   0.0800 
 41 H       -7.4050     0.2480    -1.3230 H     1 <1>   0.4000 
 42 H       -7.0630    -2.3730     0.8730 H     1 <1>   0.0800 
 43 H       -8.0160    -1.7960    -0.4460 H     1 <1>   0.0800 
 44 H       -8.5180     0.2690     0.7480 H     1 <1>   0.0800 
 45 H       -7.6130    -0.2430     2.1250 H     1 <1>   0.0800 
 46 H       -6.2180    -3.6390    -0.8610 H     1 <1>   0.0800 
 47 H       -6.3850    -2.3730    -2.0360 H     1 <1>   0.0800 
 48 H       -7.1000     2.3580     0.6500 H     1 <1>   0.0800 
 49 H       -6.3360     1.8480     2.1400 H     1 <1>   0.0800 
 50 H       -8.0380     2.2010     2.1120 H     1 <1>   0.0800 
 51 H       -3.4150     6.7850     0.4960 H     1 <1>   0.1500 
 52 H        3.8360     4.1330    -1.4420 H     1 <1>   0.0800 
 53 H        3.4770     5.6630    -0.6430 H     1 <1>   0.0800 
 54 H        2.9400     5.3840    -2.3040 H     1 <1>   0.0800 
 55 H        0.6360     8.9680    -1.2260 H     1 <1>   0.1500 
 56 H       -3.4130     9.2280     0.0810 H     1 <1>   0.1500 
 57 H       -1.3910    10.3150    -0.7790 H     1 <1>   0.1500 
@<TRIPOS>BOND
  1   1   2  2   
  2   2   3  am  
  3   2   4  1   
  4   3   5  1   
  5   3   6  1   
  6   4   7  1   
  7   4  29  1   
  8   4  30  1   
  9   5   8  1   
 10   5  31  1   
 11   5  32  1   
 12   6   9  1   
 13   6  33  1   
 14   6  34  1   
 15   7  10  1   
 16   7  35  1   
 17   7  36  1   
 18   8   9  1   
 19   8  11  1   
 20   8  37  1   
 21   9  12  1   
 22   9  38  1   
 23  10  13  ar  
 24  10  14  ar  
 25  11  15  1   
 26  11  16  1   
 27  11  17  1   
 28  12  18  1   
 29  12  39  1   
 30  12  40  1   
 31  13  19  ar  
 32  14  20  1   
 33  14  21  ar  
 34  15  41  1   
 35  16  18  1   
 36  16  42  1   
 37  16  43  1   
 38  17  22  1   
 39  17  44  1   
 40  17  45  1   
 41  18  46  1   
 42  18  47  1   
 43  19  23  ar  
 44  19  24  ar  
 45  20  25  1   
 46  21  23  ar  
 47  22  48  1   
 48  22  49  1   
 49  22  50  1   
 50  23  26  ar  
 51  24  27  ar  
 52  24  51  1   
 53  25  52  1   
 54  25  53  1   
 55  25  54  1   
 56  26  28  ar  
 57  26  55  1   
 58  27  28  ar  
 59  27  56  1   
 60  28  57  1   
@<TRIPOS>SUBSTRUCTURE
  1 ****   4 GROUP 4 **** **** 0

# MOE 2024.06 (io_trps.svl 2023.06)
