@<TRIPOS>MOLECULE
NONAME
50 53 1 0 0 
SMALL
USER_CHARGES


@<TRIPOS>ATOM
  1 O       -0.7160    -4.5400    -1.6120 O.2   1 <1>  -0.5700 
  2 C        0.4710    -4.5110    -1.4150 C.2   1 <1>   0.5690 
  3 N        1.2800    -5.5110    -1.8230 N.am  1 <1>  -0.7300 
  4 C        1.1090    -3.3510    -0.6820 C.3   1 <1>  -0.0990 
  5 C        2.7350    -5.5310    -1.5690 C.3   1 <1>   0.1400 
  6 C        2.4250    -2.9350    -1.3670 C.3   1 <1>  -0.0800 
  7 C        3.3280    -4.1240    -1.7850 C.3   1 <1>  -0.0800 
  8 C        3.2890    -2.0080    -0.4990 C.3   1 <1>  -0.1600 
  9 C        4.6550    -3.9220    -1.0450 C.3   1 <1>  -0.1600 
 10 C        4.7240    -2.4150    -0.8120 C.3   1 <1>   0.2200 
 11 N        5.6950    -2.0110     0.2480 N.am  1 <1>  -0.6600 
 12 C        6.6690    -1.0750    -0.0370 C.2   1 <1>   0.5440 
 13 C        5.6600    -2.7230     1.5610 C.3   1 <1>   0.0600 
 14 O        6.5080    -0.3110    -0.9710 O.2   1 <1>  -0.5700 
 15 C        7.8800    -0.9750     0.7500 C.ar  1 <1>   0.0860 
 16 C        8.8460    -1.9960     0.7560 C.ar  1 <1>   0.0000 
 17 C        8.1000     0.1620     1.5260 C.ar  1 <1>  -0.1500 
 18 C        8.7030    -3.1930    -0.0460 C.ar  1 <1>   0.0000 
 19 C        9.9780    -1.8460     1.5540 C.ar  1 <1>  -0.1500 
 20 C        9.2290     0.2940     2.3110 C.ar  1 <1>  -0.1500 
 21 C        8.5770    -3.1250    -1.4310 C.ar  1 <1>  -0.1500 
 22 C        8.6910    -4.4540     0.5460 C.ar  1 <1>  -0.1500 
 23 C       10.1710    -0.7170     2.3270 C.ar  1 <1>  -0.1500 
 24 C        8.4380    -4.2690    -2.1960 C.ar  1 <1>  -0.1500 
 25 C        8.5520    -5.6020    -0.2130 C.ar  1 <1>  -0.1500 
 26 C        8.4250    -5.5110    -1.5870 C.ar  1 <1>  -0.1500 
 27 H        0.8460    -6.3100    -2.2890 H     1 <1>   0.3700 
 28 H        0.4260    -2.5220    -0.6570 H     1 <1>   0.0800 
 29 H        1.2940    -3.6670     0.3280 H     1 <1>   0.0800 
 30 H        2.8930    -5.8520    -0.5530 H     1 <1>   0.0800 
 31 H        3.2130    -6.2360    -2.2270 H     1 <1>   0.0800 
 32 H        2.1650    -2.4040    -2.2700 H     1 <1>   0.0800 
 33 H        3.5260    -4.0170    -2.8380 H     1 <1>   0.0800 
 34 H        3.0750    -2.1670     0.5410 H     1 <1>   0.0800 
 35 H        3.1250    -0.9730    -0.7410 H     1 <1>   0.0800 
 36 H        5.4940    -4.2650    -1.6240 H     1 <1>   0.0800 
 37 H        4.6240    -4.4470    -0.1090 H     1 <1>   0.0800 
 38 H        4.9990    -1.9590    -1.7500 H     1 <1>   0.0800 
 39 H        4.6460    -2.8920     1.8730 H     1 <1>   0.0800 
 40 H        6.1500    -2.1380     2.3200 H     1 <1>   0.0800 
 41 H        6.1620    -3.6690     1.4740 H     1 <1>   0.0800 
 42 H        7.3680     0.9510     1.5050 H     1 <1>   0.1500 
 43 H       10.7210    -2.6240     1.5600 H     1 <1>   0.1500 
 44 H        9.3770     1.1800     2.9050 H     1 <1>   0.1500 
 45 H        8.5870    -2.1620    -1.9130 H     1 <1>   0.1500 
 46 H        8.7910    -4.5330     1.6140 H     1 <1>   0.1500 
 47 H       11.0550    -0.6220     2.9350 H     1 <1>   0.1500 
 48 H        8.3430    -4.1900    -3.2650 H     1 <1>   0.1500 
 49 H        8.5470    -6.5670     0.2640 H     1 <1>   0.1500 
 50 H        8.3200    -6.4020    -2.1810 H     1 <1>   0.1500 
@<TRIPOS>BOND
  1   1   2  2   
  2   2   3  am  
  3   2   4  1   
  4   3   5  1   
  5   3  27  1   
  6   4   6  1   
  7   4  28  1   
  8   4  29  1   
  9   5   7  1   
 10   5  30  1   
 11   5  31  1   
 12   6   7  1   
 13   6   8  1   
 14   6  32  1   
 15   7   9  1   
 16   7  33  1   
 17   8  10  1   
 18   8  34  1   
 19   8  35  1   
 20   9  10  1   
 21   9  36  1   
 22   9  37  1   
 23  10  11  1   
 24  10  38  1   
 25  11  12  am  
 26  11  13  1   
 27  12  14  2   
 28  12  15  1   
 29  13  39  1   
 30  13  40  1   
 31  13  41  1   
 32  15  16  ar  
 33  15  17  ar  
 34  16  18  1   
 35  16  19  ar  
 36  17  20  ar  
 37  17  42  1   
 38  18  21  ar  
 39  18  22  ar  
 40  19  23  ar  
 41  19  43  1   
 42  20  23  ar  
 43  20  44  1   
 44  21  24  ar  
 45  21  45  1   
 46  22  25  ar  
 47  22  46  1   
 48  23  47  1   
 49  24  26  ar  
 50  24  48  1   
 51  25  26  ar  
 52  25  49  1   
 53  26  50  1   
@<TRIPOS>SUBSTRUCTURE
  1 ****  11 GROUP 4 **** **** 0

# MOE 2024.06 (io_trps.svl 2023.06)
