@<TRIPOS>MOLECULE
NONAME
36 38 1 0 0 
SMALL
USER_CHARGES


@<TRIPOS>ATOM
  1 S       -0.1800    -0.1550     1.0920 S.3   1 <1>  -0.0800 
  2 C       -1.2400    -0.8910    -0.0670 C.2   1 <1>   0.4420 
  3 C       -0.4910     1.3530     0.3060 C.2   1 <1>   0.1980 
  4 N       -1.7160    -0.0330    -0.8960 N.2   1 <1>  -0.3380 
  5 N       -1.4310    -2.2470     0.0420 N.am  1 <1>  -0.4940 
  6 N       -1.2850     1.2440    -0.6770 N.2   1 <1>  -0.3380 
  7 C        0.1770     2.6020     0.8350 C.3   1 <1>   0.0200 
  8 C       -2.1930    -3.1050    -0.7040 C.2   1 <1>   0.7160 
  9 C       -0.2830     3.7990    -0.0050 C.3   1 <1>   0.3430 
 10 O       -2.8520    -2.7080    -1.6450 O.2   1 <1>  -0.5700 
 11 C       -2.1800    -4.5050    -0.3260 C.2   1 <1>   0.1410 
 12 N        0.2740     5.1080     0.4770 N.4   1 <1>  -0.9590 
 13 N       -1.4390    -4.9680     0.7370 N.2   1 <1>  -0.5650 
 14 C       -2.8500    -5.5500    -0.9080 C.2   1 <1>  -0.3020 
 15 C       -0.4310     6.2340    -0.2120 C.3   1 <1>   0.2630 
 16 C        1.7520     5.2200     0.2550 C.3   1 <1>   0.2630 
 17 C       -1.7060    -6.2280     0.7230 C.2   1 <1>   0.2420 
 18 N       -2.5470    -6.6700    -0.2320 N.pl3 1 <1>   0.3340 
 19 S       -1.1760    -7.5770     1.7460 S.3   1 <1>  -0.1570 
 20 C       -2.8020    -8.0580    -0.1970 C.2   1 <1>  -0.1810 
 21 C       -2.1620    -8.7130     0.7870 C.2   1 <1>  -0.0490 
 22 H       -0.9400    -2.7320     0.7930 H     1 <1>   0.3700 
 23 H        1.2410     2.4730     0.7660 H     1 <1>   0.0800 
 24 H       -0.1070     2.7370     1.8630 H     1 <1>   0.0800 
 25 H       -1.3610     3.8360     0.0290 H     1 <1>   0.0800 
 26 H       -0.0010     3.6370    -1.0330 H     1 <1>   0.0800 
 27 H        0.0830     5.1940     1.4890 H     1 <1>   0.4500 
 28 H       -3.5120    -5.5330    -1.7540 H     1 <1>   0.1500 
 29 H       -0.2660     6.1850    -1.2760 H     1 <1>   0.0800 
 30 H       -0.0680     7.1820     0.1500 H     1 <1>   0.0800 
 31 H       -1.4920     6.1810    -0.0260 H     1 <1>   0.0800 
 32 H        1.9820     5.1200    -0.7940 H     1 <1>   0.0800 
 33 H        2.2780     4.4520     0.7990 H     1 <1>   0.0800 
 34 H        2.1090     6.1800     0.5930 H     1 <1>   0.0800 
 35 H       -3.4660    -8.4660    -0.9360 H     1 <1>   0.1500 
 36 H       -2.1370    -9.7470     1.0860 H     1 <1>   0.1500 
@<TRIPOS>BOND
  1   1   2  1   
  2   1   3  1   
  3   2   4  2   
  4   2   5  1   
  5   3   6  2   
  6   3   7  1   
  7   4   6  1   
  8   5   8  am  
  9   5  22  1   
 10   7   9  1   
 11   7  23  1   
 12   7  24  1   
 13   8  10  2   
 14   8  11  1   
 15   9  12  1   
 16   9  25  1   
 17   9  26  1   
 18  11  13  1   
 19  11  14  2   
 20  12  15  1   
 21  12  16  1   
 22  12  27  1   
 23  13  17  2   
 24  14  18  1   
 25  14  28  1   
 26  15  29  1   
 27  15  30  1   
 28  15  31  1   
 29  16  32  1   
 30  16  33  1   
 31  16  34  1   
 32  17  18  1   
 33  17  19  1   
 34  18  20  1   
 35  19  21  1   
 36  20  21  2   
 37  20  35  1   
 38  21  36  1   
@<TRIPOS>SUBSTRUCTURE
  1 ****   5 GROUP 4 **** **** 0

# MOE 2024.06 (io_trps.svl 2023.06)
