@<TRIPOS>MOLECULE
NONAME
49 52 1 0 0 
SMALL
USER_CHARGES


@<TRIPOS>ATOM
  1 O       -1.0670     0.6940     1.7480 O.2   1 <1>  -0.5700 
  2 C       -1.8200     1.1030     0.8820 C.2   1 <1>   0.6160 
  3 N       -2.7160     0.2150     0.3310 N.am  1 <1>  -0.6600 
  4 C       -1.7920     2.4930     0.5310 C.2   1 <1>   0.0290 
  5 C       -3.7720     0.5280    -0.6650 C.3   1 <1>   0.1400 
  6 C       -2.8170    -1.1990     0.7520 C.3   1 <1>   0.1400 
  7 C       -1.4850     2.8710    -0.8200 C.2   1 <1>   0.6160 
  8 C       -2.0340     3.4780     1.4620 C.2   1 <1>  -0.1500 
  9 C       -4.6630    -0.7200    -0.7260 C.3   1 <1>   0.2000 
 10 C       -3.7300    -1.8530    -0.2880 C.3   1 <1>  -0.0800 
 11 O       -1.2460     2.0860    -1.7250 O.2   1 <1>  -0.5700 
 12 N       -1.4630     4.2050    -1.1450 N.am  1 <1>  -0.5390 
 13 C       -1.9970     4.8290     1.0670 C.2   1 <1>  -0.1380 
 14 O       -5.7080    -0.6100     0.2010 O.3   1 <1>  -0.5600 
 15 C       -4.4490    -3.1120     0.2290 C.3   1 <1>   0.0200 
 16 C       -1.7180     5.1630    -0.2070 C.2   1 <1>  -0.0290 
 17 C       -2.2270     6.0480     1.9240 C.3   1 <1>  -0.0220 
 18 C       -6.8340     0.0740    -0.2510 C.3   1 <1>   0.0400 
 19 C       -3.5080    -4.2790     0.4810 C.2   1 <1>  -0.0400 
 20 C       -1.7130     6.6490    -0.4390 C.3   1 <1>  -0.0220 
 21 C       -2.2110     7.2120     0.9090 C.3   1 <1>  -0.1600 
 22 O       -3.9940    -5.3780     0.9940 O.3   1 <1>  -0.0190 
 23 C       -2.1930    -4.4690     0.2840 C.2   1 <1>  -0.1500 
 24 N       -3.0780    -6.2900     1.1520 N.2   1 <1>  -0.4100 
 25 C       -1.9820    -5.7690     0.7340 C.2   1 <1>   0.1080 
 26 C       -0.6470    -6.4780     0.7340 C.3   1 <1>  -0.0590 
 27 H       -4.3250     1.4070    -0.3850 H     1 <1>   0.0800 
 28 H       -3.3110     0.6780    -1.6250 H     1 <1>   0.0800 
 29 H       -1.8430    -1.6560     0.7860 H     1 <1>   0.0800 
 30 H       -3.2660    -1.2360     1.7300 H     1 <1>   0.0800 
 31 H       -2.2480     3.2320     2.4880 H     1 <1>   0.1500 
 32 H       -5.0720    -0.8910    -1.7070 H     1 <1>   0.0800 
 33 H       -3.1240    -2.1210    -1.1350 H     1 <1>   0.0800 
 34 H       -1.2250     4.4180    -2.1140 H     1 <1>   0.3700 
 35 H       -5.1850    -3.4210    -0.4920 H     1 <1>   0.0800 
 36 H       -4.9670    -2.8850     1.1450 H     1 <1>   0.0800 
 37 H       -3.1700     5.9890     2.4380 H     1 <1>   0.0800 
 38 H       -1.4270     6.1480     2.6370 H     1 <1>   0.0800 
 39 H       -7.5530     0.0960     0.5490 H     1 <1>   0.0800 
 40 H       -7.2510    -0.4470    -1.0960 H     1 <1>   0.0800 
 41 H       -6.5640     1.0790    -0.5210 H     1 <1>   0.0800 
 42 H       -0.7130     6.9830    -0.6520 H     1 <1>   0.0800 
 43 H       -2.3730     6.9200    -1.2440 H     1 <1>   0.0800 
 44 H       -1.5820     8.0160     1.2510 H     1 <1>   0.0800 
 45 H       -3.2130     7.5860     0.7870 H     1 <1>   0.0800 
 46 H       -1.4460    -3.8110    -0.1190 H     1 <1>   0.1500 
 47 H       -0.2610    -6.5300    -0.2670 H     1 <1>   0.0800 
 48 H       -0.7620    -7.4760     1.1170 H     1 <1>   0.0800 
 49 H        0.0480    -5.9440     1.3560 H     1 <1>   0.0800 
@<TRIPOS>BOND
  1   1   2  2   
  2   2   3  am  
  3   2   4  1   
  4   3   5  1   
  5   3   6  1   
  6   4   7  1   
  7   4   8  2   
  8   5   9  1   
  9   5  27  1   
 10   5  28  1   
 11   6  10  1   
 12   6  29  1   
 13   6  30  1   
 14   7  11  2   
 15   7  12  am  
 16   8  13  1   
 17   8  31  1   
 18   9  10  1   
 19   9  14  1   
 20   9  32  1   
 21  10  15  1   
 22  10  33  1   
 23  12  16  1   
 24  12  34  1   
 25  13  16  2   
 26  13  17  1   
 27  14  18  1   
 28  15  19  1   
 29  15  35  1   
 30  15  36  1   
 31  16  20  1   
 32  17  21  1   
 33  17  37  1   
 34  17  38  1   
 35  18  39  1   
 36  18  40  1   
 37  18  41  1   
 38  19  22  1   
 39  19  23  2   
 40  20  21  1   
 41  20  42  1   
 42  20  43  1   
 43  21  44  1   
 44  21  45  1   
 45  22  24  1   
 46  23  25  1   
 47  23  46  1   
 48  24  25  2   
 49  25  26  1   
 50  26  47  1   
 51  26  48  1   
 52  26  49  1   
@<TRIPOS>SUBSTRUCTURE
  1 ****   3 GROUP 4 **** **** 0

# MOE 2024.06 (io_trps.svl 2023.06)
