@<TRIPOS>MOLECULE
NONAME
52 54 1 0 0 
SMALL
USER_CHARGES


@<TRIPOS>ATOM
  1 O       -1.6060     0.8220    -2.7510 O.2   1 <1>  -0.5700 
  2 C       -2.0130     1.1680    -1.6600 C.2   1 <1>   0.5440 
  3 N       -2.7920     0.2930    -0.9320 N.am  1 <1>  -0.6600 
  4 C       -1.6780     2.4860    -1.1660 C.ar  1 <1>   0.0860 
  5 C       -2.8950    -1.1420    -1.3620 C.3   1 <1>   0.1400 
  6 C       -3.7030     0.7640     0.1550 C.3   1 <1>   0.1400 
  7 C       -1.8570     3.6020    -1.9740 C.ar  1 <1>   0.1600 
  8 C       -1.1690     2.7040     0.1060 C.ar  1 <1>  -0.1500 
  9 C       -3.2560    -2.0770    -0.1890 C.3   1 <1>   0.0000 
 10 C       -4.9500    -0.1150     0.2330 C.3   1 <1>  -0.1600 
 11 N       -1.6170     4.8540    -1.6220 N.ar  1 <1>  -0.6200 
 12 C       -0.8990     3.9990     0.4990 C.ar  1 <1>  -0.1440 
 13 C       -4.6420    -1.6160     0.3610 C.3   1 <1>   0.2000 
 14 C       -3.4270    -3.5040    -0.7580 C.3   1 <1>   0.1200 
 15 C       -2.1120    -2.0690     0.8770 C.3   1 <1>  -0.0160 
 16 C       -1.1480     5.0360    -0.3980 C.ar  1 <1>   0.1670 
 17 C       -0.3320     4.2440     1.8920 C.3   1 <1>  -0.0970 
 18 O       -4.7990    -1.9930     1.6860 O.3   1 <1>  -0.6800 
 19 O       -3.8090    -4.3810     0.2490 O.3   1 <1>  -0.6800 
 20 C       -0.7450    -2.4980     0.3500 C.ar  1 <1>  -0.1440 
 21 C       -0.8820     6.4850    -0.0310 C.3   1 <1>  -0.0970 
 22 C       -0.3620    -3.8300     0.4130 C.ar  1 <1>  -0.1500 
 23 C        0.1360    -1.5690    -0.1830 C.ar  1 <1>  -0.1500 
 24 C        0.8770    -4.2280    -0.0560 C.ar  1 <1>  -0.1500 
 25 C        1.3750    -1.9640    -0.6550 C.ar  1 <1>  -0.1500 
 26 C        1.7470    -3.2950    -0.5920 C.ar  1 <1>  -0.1500 
 27 H       -3.6510    -1.2090    -2.1260 H     1 <1>   0.0800 
 28 H       -1.9670    -1.4550    -1.8110 H     1 <1>   0.0800 
 29 H       -3.1830     0.7450     1.0960 H     1 <1>   0.0800 
 30 H       -4.0020     1.7810    -0.0370 H     1 <1>   0.0800 
 31 H       -2.2260     3.4400    -2.9720 H     1 <1>   0.1500 
 32 H       -0.9860     1.8700     0.7590 H     1 <1>   0.1500 
 33 H       -5.4970     0.0370    -0.6810 H     1 <1>   0.0800 
 34 H       -5.5890     0.2130     1.0330 H     1 <1>   0.0800 
 35 H       -5.4190    -2.1320    -0.1800 H     1 <1>   0.0800 
 36 H       -2.5130    -3.8720    -1.1930 H     1 <1>   0.0800 
 37 H       -4.1920    -3.5240    -1.5140 H     1 <1>   0.0800 
 38 H       -2.0070    -1.0930     1.3080 H     1 <1>   0.0800 
 39 H       -2.3640    -2.7310     1.6860 H     1 <1>   0.0800 
 40 H       -0.0610     3.3180     2.3670 H     1 <1>   0.0800 
 41 H       -1.0620     4.7400     2.5050 H     1 <1>   0.0800 
 42 H        0.5500     4.8560     1.8310 H     1 <1>   0.0800 
 43 H       -4.1920    -1.4870     2.2590 H     1 <1>   0.4000 
 44 H       -4.4050    -3.9200     0.8830 H     1 <1>   0.4000 
 45 H       -1.1480     6.6820     0.9900 H     1 <1>   0.0800 
 46 H       -1.4630     7.1370    -0.6580 H     1 <1>   0.0800 
 47 H        0.1590     6.7070    -0.1800 H     1 <1>   0.0800 
 48 H       -1.0320    -4.5650     0.8260 H     1 <1>   0.1500 
 49 H       -0.1390    -0.5310    -0.2410 H     1 <1>   0.1500 
 50 H        1.1630    -5.2640    -0.0040 H     1 <1>   0.1500 
 51 H        2.0470    -1.2360    -1.0740 H     1 <1>   0.1500 
 52 H        2.7100    -3.6040    -0.9590 H     1 <1>   0.1500 
@<TRIPOS>BOND
  1   1   2  2   
  2   2   3  am  
  3   2   4  1   
  4   3   5  1   
  5   3   6  1   
  6   4   7  ar  
  7   4   8  ar  
  8   5   9  1   
  9   5  27  1   
 10   5  28  1   
 11   6  10  1   
 12   6  29  1   
 13   6  30  1   
 14   7  11  ar  
 15   7  31  1   
 16   8  12  ar  
 17   8  32  1   
 18   9  13  1   
 19   9  14  1   
 20   9  15  1   
 21  10  13  1   
 22  10  33  1   
 23  10  34  1   
 24  11  16  ar  
 25  12  16  ar  
 26  12  17  1   
 27  13  18  1   
 28  13  35  1   
 29  14  19  1   
 30  14  36  1   
 31  14  37  1   
 32  15  20  1   
 33  15  38  1   
 34  15  39  1   
 35  16  21  1   
 36  17  40  1   
 37  17  41  1   
 38  17  42  1   
 39  18  43  1   
 40  19  44  1   
 41  20  22  ar  
 42  20  23  ar  
 43  21  45  1   
 44  21  46  1   
 45  21  47  1   
 46  22  24  ar  
 47  22  48  1   
 48  23  25  ar  
 49  23  49  1   
 50  24  26  ar  
 51  24  50  1   
 52  25  26  ar  
 53  25  51  1   
 54  26  52  1   
@<TRIPOS>SUBSTRUCTURE
  1 ****   3 GROUP 4 **** **** 0

# MOE 2024.06 (io_trps.svl 2023.06)
