@<TRIPOS>MOLECULE
NONAME
39 40 1 0 0 
SMALL
USER_CHARGES


@<TRIPOS>ATOM
  1 O        0.0000     0.4180    -0.8330 O.2   1 <1>  -0.5700 
  2 C        0.8030    -0.3420    -0.3150 C.2   1 <1>   0.7160 
  3 N        1.9870     0.1350     0.1770 N.am  1 <1>  -0.4930 
  4 C        0.5490    -1.7660    -0.1960 C.2   1 <1>   0.2030 
  5 C        2.5030     1.4530     0.2190 C.2   1 <1>   0.0630 
  6 N        1.3770    -2.6380     0.3570 N.2   1 <1>  -0.7070 
  7 C       -0.6050    -2.4160    -0.6470 C.2   1 <1>  -0.1500 
  8 C        1.9280     2.6460    -0.2220 C.2   1 <1>   0.1390 
  9 C        3.7010     1.8200     0.7180 C.2   1 <1>  -0.3020 
 10 N        0.7640    -3.8300     0.2620 N.pl3 1 <1>   0.3140 
 11 C       -0.4360    -3.7160    -0.3430 C.2   1 <1>  -0.3020 
 12 N        2.7000     3.6730    -0.0180 N.2   1 <1>  -0.7070 
 13 N        3.8020     3.1600     0.5680 N.pl3 1 <1>   0.3140 
 14 C        1.3870    -5.0800     0.7800 C.3   1 <1>   0.1760 
 15 C        4.9280     4.0100     0.9810 C.3   1 <1>   0.1570 
 16 C        1.6220    -6.0850    -0.3570 C.3   1 <1>  -0.2400 
 17 C        0.5270    -5.6980     1.8920 C.3   1 <1>  -0.2400 
 18 C        5.7610     4.4010    -0.2200 C.2   1 <1>   0.5690 
 19 O        6.9640     4.3450    -0.1220 O.2   1 <1>  -0.5700 
 20 N        5.1460     4.8180    -1.3600 N.am  1 <1>  -0.7300 
 21 C        5.8170     5.2390    -2.6130 C.3   1 <1>   0.0600 
 22 H        2.5660    -0.6070     0.5750 H     1 <1>   0.3700 
 23 H       -1.4350    -1.9320    -1.1340 H     1 <1>   0.1500 
 24 H        0.9550     2.7120    -0.6800 H     1 <1>   0.1500 
 25 H        4.4710     1.2170     1.1610 H     1 <1>   0.1500 
 26 H       -1.0890    -4.5510    -0.5170 H     1 <1>   0.1500 
 27 H        2.3410    -4.8090     1.1980 H     1 <1>   0.0800 
 28 H        5.5360     3.4760     1.6850 H     1 <1>   0.0800 
 29 H        4.5410     4.8950     1.4470 H     1 <1>   0.0800 
 30 H        0.6880    -6.3970    -0.7910 H     1 <1>   0.0800 
 31 H        2.1310    -6.9540     0.0190 H     1 <1>   0.0800 
 32 H        2.2350    -5.6390    -1.1200 H     1 <1>   0.0800 
 33 H       -0.4310    -6.0020     1.5110 H     1 <1>   0.0800 
 34 H        0.3840    -4.9850     2.6840 H     1 <1>   0.0800 
 35 H        1.0210    -6.5610     2.3010 H     1 <1>   0.0800 
 36 H        4.1160     4.7450    -1.3890 H     1 <1>   0.3700 
 37 H        6.8860     5.2490    -2.4800 H     1 <1>   0.0800 
 38 H        5.4910     6.2280    -2.8850 H     1 <1>   0.0800 
 39 H        5.5710     4.5530    -3.4040 H     1 <1>   0.0800 
@<TRIPOS>BOND
  1   1   2  2   
  2   2   3  am  
  3   2   4  1   
  4   3   5  1   
  5   3  22  1   
  6   4   6  2   
  7   4   7  1   
  8   5   8  1   
  9   5   9  2   
 10   6  10  1   
 11   7  11  2   
 12   7  23  1   
 13   8  12  2   
 14   8  24  1   
 15   9  13  1   
 16   9  25  1   
 17  10  11  1   
 18  10  14  1   
 19  11  26  1   
 20  12  13  1   
 21  13  15  1   
 22  14  16  1   
 23  14  17  1   
 24  14  27  1   
 25  15  18  1   
 26  15  28  1   
 27  15  29  1   
 28  16  30  1   
 29  16  31  1   
 30  16  32  1   
 31  17  33  1   
 32  17  34  1   
 33  17  35  1   
 34  18  19  2   
 35  18  20  am  
 36  20  21  1   
 37  20  36  1   
 38  21  37  1   
 39  21  38  1   
 40  21  39  1   
@<TRIPOS>SUBSTRUCTURE
  1 ****   3 GROUP 4 **** **** 0

# MOE 2024.06 (io_trps.svl 2023.06)
