@<TRIPOS>MOLECULE
NONAME
52 54 1 0 0 
SMALL
USER_CHARGES


@<TRIPOS>ATOM
  1 F       -1.7570    -0.4570    -1.6280 F     1 <1>  -0.1900 
  2 C       -2.3980     0.1300    -0.6520 C.ar  1 <1>   0.1900 
  3 C       -3.0230    -0.6400     0.3180 C.ar  1 <1>  -0.1440 
  4 C       -2.4200     1.5120    -0.6350 C.ar  1 <1>  -0.1500 
  5 C       -3.6890     0.0240     1.3390 C.ar  1 <1>  -0.1500 
  6 C       -2.9770    -2.1620     0.2740 C.3   1 <1>   0.2640 
  7 C       -3.0900     2.1560     0.3910 C.ar  1 <1>  -0.1500 
  8 C       -3.7220     1.4100     1.3740 C.ar  1 <1>  -0.1500 
  9 O       -4.2780    -2.6690     0.4900 O.3   1 <1>  -0.3620 
 10 C       -4.4260    -3.9970     0.2890 C.ar  1 <1>   0.0830 
 11 C       -4.4620    -4.5710    -0.9890 C.ar  1 <1>   0.0830 
 12 C       -4.5310    -4.8040     1.4090 C.ar  1 <1>  -0.1500 
 13 O       -4.4140    -3.8670    -2.1510 O.3   1 <1>  -0.3620 
 14 C       -4.5540    -5.9470    -1.1120 C.ar  1 <1>  -0.1500 
 15 C       -4.6410    -6.1770     1.2730 C.ar  1 <1>  -0.1500 
 16 C       -5.1980    -2.6980    -2.2870 C.3   1 <1>   0.0400 
 17 C       -4.6520    -6.7550     0.0120 C.ar  1 <1>  -0.1430 
 18 C       -4.7850    -8.2600    -0.1250 C.3   1 <1>   0.4860 
 19 N       -6.1690    -8.5690    -0.6080 N.4   1 <1>  -0.9590 
 20 C       -6.2470   -10.0180    -1.0220 C.3   1 <1>   0.3430 
 21 C       -7.1520    -8.1800     0.4610 C.3   1 <1>   0.3430 
 22 C       -6.7190   -10.9170     0.1150 C.3   1 <1>  -0.1860 
 23 C       -8.4290    -9.0020     0.3340 C.3   1 <1>  -0.1600 
 24 C       -5.5960   -10.8550     1.1170 C.2   1 <1>   0.9060 
 25 C       -8.1310   -10.4880     0.5730 C.3   1 <1>   0.2000 
 26 O       -4.4750   -11.1560     0.7100 O.co2 1 <1>  -0.9000 
 27 O       -5.7670   -10.2870     2.2020 O.co2 1 <1>  -0.9000 
 28 O       -8.2790   -10.7360     1.9150 O.3   1 <1>  -0.6800 
 29 H       -1.9220     2.0680    -1.4080 H     1 <1>   0.1500 
 30 H       -4.1890    -0.5380     2.1090 H     1 <1>   0.1500 
 31 H       -2.3360    -2.5410     1.0500 H     1 <1>   0.0800 
 32 H       -2.6270    -2.5170    -0.6800 H     1 <1>   0.0800 
 33 H       -3.1210     3.2310     0.4260 H     1 <1>   0.1500 
 34 H       -4.2450     1.9100     2.1720 H     1 <1>   0.1500 
 35 H       -4.5180    -4.3550     2.3860 H     1 <1>   0.1500 
 36 H       -4.5490    -6.3680    -2.1010 H     1 <1>   0.1500 
 37 H       -4.7130    -6.7940     2.1560 H     1 <1>   0.1500 
 38 H       -5.3810    -2.5360    -3.3340 H     1 <1>   0.0800 
 39 H       -4.6600    -1.8600    -1.8850 H     1 <1>   0.0800 
 40 H       -6.1310    -2.8310    -1.7670 H     1 <1>   0.0800 
 41 H       -4.6020    -8.7270     0.8310 H     1 <1>   0.0800 
 42 H       -4.0520    -8.6330    -0.8200 H     1 <1>   0.0800 
 43 H       -6.3250    -7.9740    -1.4260 H     1 <1>   0.4500 
 44 H       -6.9410   -10.1160    -1.8400 H     1 <1>   0.0800 
 45 H       -5.2810   -10.3570    -1.3640 H     1 <1>   0.0800 
 46 H       -6.7250    -8.3680     1.4340 H     1 <1>   0.0800 
 47 H       -7.3720    -7.1270     0.3930 H     1 <1>   0.0800 
 48 H       -6.7640   -11.9280    -0.2390 H     1 <1>   0.0800 
 49 H       -8.8390    -8.8630    -0.6500 H     1 <1>   0.0800 
 50 H       -9.1620    -8.6570     1.0410 H     1 <1>   0.0800 
 51 H       -8.8790   -11.0770     0.0680 H     1 <1>   0.0800 
 52 H       -7.3890   -10.5680     2.3510 H     1 <1>   0.4000 
@<TRIPOS>BOND
  1   1   2  1   
  2   2   3  ar  
  3   2   4  ar  
  4   3   5  ar  
  5   3   6  1   
  6   4   7  ar  
  7   4  29  1   
  8   5   8  ar  
  9   5  30  1   
 10   6   9  1   
 11   6  31  1   
 12   6  32  1   
 13   7   8  ar  
 14   7  33  1   
 15   8  34  1   
 16   9  10  1   
 17  10  11  ar  
 18  10  12  ar  
 19  11  13  1   
 20  11  14  ar  
 21  12  15  ar  
 22  12  35  1   
 23  13  16  1   
 24  14  17  ar  
 25  14  36  1   
 26  15  17  ar  
 27  15  37  1   
 28  16  38  1   
 29  16  39  1   
 30  16  40  1   
 31  17  18  1   
 32  18  19  1   
 33  18  41  1   
 34  18  42  1   
 35  19  20  1   
 36  19  21  1   
 37  19  43  1   
 38  20  22  1   
 39  20  44  1   
 40  20  45  1   
 41  21  23  1   
 42  21  46  1   
 43  21  47  1   
 44  22  24  1   
 45  22  25  1   
 46  22  48  1   
 47  23  25  1   
 48  23  49  1   
 49  23  50  1   
 50  24  26  ar  
 51  24  27  ar  
 52  25  28  1   
 53  25  51  1   
 54  28  52  1   
@<TRIPOS>SUBSTRUCTURE
  1 ****  10 GROUP 4 **** **** 0

# MOE 2024.06 (io_trps.svl 2023.06)
