@<TRIPOS>MOLECULE
NONAME
25 26 1 0 0 
SMALL
USER_CHARGES


@<TRIPOS>ATOM
  1 N        0.7780    -0.0790    -1.1340 N.ar  1 <1>  -0.6200 
  2 C        0.7800    -1.3950    -1.2150 C.ar  1 <1>   0.1600 
  3 C        1.2900     0.4310    -0.0260 C.ar  1 <1>   0.1600 
  4 C        1.2600    -2.2490    -0.2320 C.ar  1 <1>  -0.1440 
  5 C        1.8030    -0.3240     1.0140 C.ar  1 <1>  -0.1500 
  6 C        1.7930    -1.6990     0.9220 C.ar  1 <1>  -0.1500 
  7 C        1.1710    -3.7450    -0.4620 C.3   1 <1>   0.5660 
  8 N        0.3230    -4.3250     0.6040 N.4   1 <1>  -0.9060 
  9 C        2.5520    -4.4260    -0.4860 C.3   1 <1>  -0.0220 
 10 C       -0.0240    -5.7480     0.3620 C.3   1 <1>   0.4810 
 11 C        2.4060    -5.9300    -0.3270 C.2   1 <1>  -0.2880 
 12 C        1.2530    -6.5010     0.0390 C.2   1 <1>  -0.2880 
 13 H        0.3680    -1.8030    -2.1240 H     1 <1>   0.1500 
 14 H        1.3020     1.5060     0.0560 H     1 <1>   0.1500 
 15 H        2.2060     0.1690     1.8820 H     1 <1>   0.1500 
 16 H        2.1960    -2.2900     1.7270 H     1 <1>   0.1500 
 17 H        0.6960    -3.9230    -1.4130 H     1 <1>   0.0800 
 18 H        0.8620    -4.2780     1.4720 H     1 <1>   0.4500 
 19 H       -0.5150    -3.7470     0.7210 H     1 <1>   0.4500 
 20 H        3.0280    -4.2030    -1.4260 H     1 <1>   0.0800 
 21 H        3.1850    -4.0440     0.2950 H     1 <1>   0.0800 
 22 H       -0.4790    -6.1660     1.2470 H     1 <1>   0.0800 
 23 H       -0.7190    -5.8380    -0.4580 H     1 <1>   0.0800 
 24 H        3.3090    -6.4860    -0.5370 H     1 <1>   0.1500 
 25 H        1.1390    -7.5710     0.1310 H     1 <1>   0.1500 
@<TRIPOS>BOND
  1   1   2  ar  
  2   1   3  ar  
  3   2   4  ar  
  4   2  13  1   
  5   3   5  ar  
  6   3  14  1   
  7   4   6  ar  
  8   4   7  1   
  9   5   6  ar  
 10   5  15  1   
 11   6  16  1   
 12   7   8  1   
 13   7   9  1   
 14   7  17  1   
 15   8  10  1   
 16   8  18  1   
 17   8  19  1   
 18   9  11  1   
 19   9  20  1   
 20   9  21  1   
 21  10  12  1   
 22  10  22  1   
 23  10  23  1   
 24  11  12  2   
 25  11  24  1   
 26  12  25  1   
@<TRIPOS>SUBSTRUCTURE
  1 ****   4 GROUP 4 **** **** 0

# MOE 2024.06 (io_trps.svl 2023.06)
