@<TRIPOS>MOLECULE
NONAME
52 54 1 0 0 
SMALL
USER_CHARGES


@<TRIPOS>ATOM
  1 O       -0.7180    -0.6900     1.6190 O.2   1 <1>  -0.5700 
  2 C       -1.1860     0.2600     1.0310 C.2   1 <1>   0.5690 
  3 N       -1.8810     0.0870    -0.1450 N.am  1 <1>  -0.6600 
  4 C       -1.0080     1.6310     1.6820 C.3   1 <1>   0.0820 
  5 C       -2.0790    -1.2800    -0.6880 C.3   1 <1>   0.3200 
  6 C       -2.4710     1.2110    -0.9470 C.3   1 <1>   0.1400 
  7 C       -0.1170     2.5930     0.8900 C.2   1 <1>  -0.1810 
  8 C       -3.3940    -1.8180    -0.1640 C.2   1 <1>  -0.3320 
  9 C       -3.9940     1.3460    -0.7850 C.3   1 <1>   0.1200 
 10 C       -0.4510     3.9120     0.4580 C.ar  1 <1>   0.0000 
 11 C        1.1380     2.3160     0.4550 C.2   1 <1>  -0.3320 
 12 N       -4.4740    -2.1030    -0.9170 N.pl3 1 <1>   0.0330 
 13 C       -3.7350    -2.1050     1.1110 C.2   1 <1>   0.0770 
 14 O       -4.3730     1.1670     0.5360 O.3   1 <1>  -0.6800 
 15 C       -1.5440     4.7940     0.6040 C.ar  1 <1>  -0.1430 
 16 C        0.6480     4.3470    -0.2850 C.ar  1 <1>  -0.1520 
 17 N        1.6060     3.3720    -0.2640 N.pl3 1 <1>   0.0330 
 18 C        1.9990     1.0800     0.6550 C.3   1 <1>  -0.0600 
 19 C       -5.4110    -2.5290    -0.0430 C.2   1 <1>   0.0060 
 20 N       -5.0060    -2.5430     1.1830 N.2   1 <1>  -0.5650 
 21 C       -1.5030     6.0230    -0.0180 C.ar  1 <1>  -0.1500 
 22 C       -2.7660     4.4550     1.4420 C.3   1 <1>  -0.0970 
 23 C        0.6860     5.5940    -0.9150 C.ar  1 <1>  -0.1430 
 24 C       -6.8020    -2.9490    -0.4680 C.3   1 <1>  -0.0600 
 25 C       -0.4000     6.4220    -0.7770 C.ar  1 <1>  -0.1500 
 26 C        1.9000     6.0130    -1.7260 C.3   1 <1>  -0.0970 
 27 H       -0.5700     1.4950     2.6530 H     1 <1>   0.0800 
 28 H       -1.9850     2.0290     1.8360 H     1 <1>   0.0800 
 29 H       -1.2770    -1.9260    -0.3700 H     1 <1>   0.0800 
 30 H       -2.0730    -1.2550    -1.7630 H     1 <1>   0.0800 
 31 H       -2.2360     1.0690    -1.9860 H     1 <1>   0.0800 
 32 H       -2.0290     2.1460    -0.6700 H     1 <1>   0.0800 
 33 H       -4.5070     0.6130    -1.3810 H     1 <1>   0.0800 
 34 H       -4.3150     2.3250    -1.0960 H     1 <1>   0.0800 
 35 H       -4.5810    -2.0230    -1.9310 H     1 <1>   0.2700 
 36 H       -3.1200    -2.0110     1.9920 H     1 <1>   0.1500 
 37 H       -4.1500     0.2480     0.8130 H     1 <1>   0.4000 
 38 H        2.5230     3.4460    -0.7120 H     1 <1>   0.2700 
 39 H        1.6010     0.4540     1.4330 H     1 <1>   0.0800 
 40 H        2.9950     1.3640     0.9410 H     1 <1>   0.0800 
 41 H        2.0450     0.5090    -0.2550 H     1 <1>   0.0800 
 42 H       -2.3250     6.7090     0.0730 H     1 <1>   0.1500 
 43 H       -2.4640     4.1720     2.4340 H     1 <1>   0.0800 
 44 H       -3.3180     3.6530     0.9890 H     1 <1>   0.0800 
 45 H       -3.4220     5.3010     1.5270 H     1 <1>   0.0800 
 46 H       -6.7470    -3.7750    -1.1530 H     1 <1>   0.0800 
 47 H       -7.3090    -2.1260    -0.9380 H     1 <1>   0.0800 
 48 H       -7.3670    -3.2540     0.3940 H     1 <1>   0.0800 
 49 H       -0.4180     7.3900    -1.2440 H     1 <1>   0.1500 
 50 H        2.0640     5.3160    -2.5270 H     1 <1>   0.0800 
 51 H        2.7700     6.0380    -1.0950 H     1 <1>   0.0800 
 52 H        1.7570     6.9910    -2.1480 H     1 <1>   0.0800 
@<TRIPOS>BOND
  1   1   2  2   
  2   2   3  am  
  3   2   4  1   
  4   3   5  1   
  5   3   6  1   
  6   4   7  1   
  7   4  27  1   
  8   4  28  1   
  9   5   8  1   
 10   5  29  1   
 11   5  30  1   
 12   6   9  1   
 13   6  31  1   
 14   6  32  1   
 15   7  10  1   
 16   7  11  2   
 17   8  12  1   
 18   8  13  2   
 19   9  14  1   
 20   9  33  1   
 21   9  34  1   
 22  10  15  ar  
 23  10  16  ar  
 24  11  17  1   
 25  11  18  1   
 26  12  19  1   
 27  12  35  1   
 28  13  20  1   
 29  13  36  1   
 30  14  37  1   
 31  15  21  ar  
 32  15  22  1   
 33  16  17  1   
 34  16  23  ar  
 35  17  38  1   
 36  18  39  1   
 37  18  40  1   
 38  18  41  1   
 39  19  20  2   
 40  19  24  1   
 41  21  25  ar  
 42  21  42  1   
 43  22  43  1   
 44  22  44  1   
 45  22  45  1   
 46  23  25  ar  
 47  23  26  1   
 48  24  46  1   
 49  24  47  1   
 50  24  48  1   
 51  25  49  1   
 52  26  50  1   
 53  26  51  1   
 54  26  52  1   
@<TRIPOS>SUBSTRUCTURE
  1 ****   6 GROUP 4 **** **** 0

# MOE 2024.06 (io_trps.svl 2023.06)
