@<TRIPOS>MOLECULE
NONAME
27 28 1 0 0 
SMALL
USER_CHARGES


@<TRIPOS>ATOM
  1 BR      -0.0930    -0.6320     1.6710 Br    1 <1>  -0.1110 
  2 C        1.3770    -1.6320     0.9360 C.ar  1 <1>   0.1110 
  3 C        1.1210    -2.8470     0.3380 C.ar  1 <1>  -0.1500 
  4 C        2.6490    -1.1050     1.0250 C.ar  1 <1>  -0.1500 
  5 C        2.1860    -3.5690    -0.1930 C.ar  1 <1>   0.0830 
  6 C        3.7030    -1.8290     0.4980 C.ar  1 <1>  -0.1500 
  7 O        2.0040    -4.7600    -0.8210 O.3   1 <1>  -0.3630 
  8 C        3.4890    -3.0690    -0.1010 C.ar  1 <1>  -0.1080 
  9 C        0.7200    -5.2430    -1.1500 C.3   1 <1>   0.0400 
 10 C        4.6650    -3.8680    -0.6870 C.3   1 <1>   0.2890 
 11 C        4.7180    -3.7780    -2.1850 C.1   1 <1>   0.3760 
 12 C        6.0570    -3.6070    -0.0280 C.3   1 <1>   0.0000 
 13 C        4.8040    -5.3290    -0.1560 C.3   1 <1>   0.0000 
 14 N        4.7900    -3.7050    -3.3190 N.1   1 <1>  -0.5570 
 15 C        6.3400    -5.1260    -0.1450 C.3   1 <1>   0.0000 
 16 H        0.1080    -3.1990     0.2990 H     1 <1>   0.1500 
 17 H        2.8070    -0.1490     1.4930 H     1 <1>   0.1500 
 18 H        4.6910    -1.4060     0.5600 H     1 <1>   0.1500 
 19 H        0.8400    -6.1510    -1.7130 H     1 <1>   0.0800 
 20 H        0.2120    -4.5080    -1.7490 H     1 <1>   0.0800 
 21 H        0.1780    -5.4450    -0.2440 H     1 <1>   0.0800 
 22 H        5.9960    -3.3020     1.0030 H     1 <1>   0.0000 
 23 H        6.7230    -2.9950    -0.6110 H     1 <1>   0.0000 
 24 H        4.4760    -6.0900    -0.8420 H     1 <1>   0.0000 
 25 H        4.4050    -5.4530     0.8370 H     1 <1>   0.0000 
 26 H        6.8280    -5.5450     0.7170 H     1 <1>   0.0000 
 27 H        6.8060    -5.3950    -1.0770 H     1 <1>   0.0000 
@<TRIPOS>BOND
  1   1   2  1   
  2   2   3  ar  
  3   2   4  ar  
  4   3   5  ar  
  5   3  16  1   
  6   4   6  ar  
  7   4  17  1   
  8   5   7  1   
  9   5   8  ar  
 10   6   8  ar  
 11   6  18  1   
 12   7   9  1   
 13   8  10  1   
 14   9  19  1   
 15   9  20  1   
 16   9  21  1   
 17  10  11  1   
 18  10  12  1   
 19  10  13  1   
 20  11  14  3   
 21  12  15  1   
 22  12  22  1   
 23  12  23  1   
 24  13  15  1   
 25  13  24  1   
 26  13  25  1   
 27  15  26  1   
 28  15  27  1   
@<TRIPOS>SUBSTRUCTURE
  1 ****   8 GROUP 4 **** **** 0

# MOE 2024.06 (io_trps.svl 2023.06)
