@<TRIPOS>MOLECULE
NONAME
51 53 1 0 0 
SMALL
USER_CHARGES


@<TRIPOS>ATOM
  1 O       -2.2300     0.2160     2.4360 O.2   1 <1>  -0.5700 
  2 C       -2.0710     0.5470     1.2710 C.2   1 <1>   0.5440 
  3 N       -2.0190    -0.4680     0.3300 N.am  1 <1>  -0.6600 
  4 C       -1.9770     1.9780     0.9440 C.ar  1 <1>   0.3960 
  5 C       -2.0120    -1.9120     0.7220 C.3   1 <1>   0.3640 
  6 C       -2.2000    -0.2250    -1.1350 C.3   1 <1>   0.1400 
  7 N       -1.2390     2.3970    -0.1000 N.ar  1 <1>  -0.6200 
  8 C       -2.6620     2.8940     1.7460 C.ar  1 <1>  -0.1500 
  9 C       -0.6540    -2.5340     0.3530 C.ar  1 <1>  -0.1440 
 10 C       -3.2740    -2.5950     0.1250 C.3   1 <1>   0.2000 
 11 C       -2.6010    -1.4900    -1.9200 C.3   1 <1>   0.1200 
 12 C       -1.1870     3.6930    -0.3370 C.ar  1 <1>   0.1660 
 13 C       -2.6080     4.2460     1.4940 C.ar  1 <1>  -0.1500 
 14 C       -0.5090    -3.6600    -0.4500 C.ar  1 <1>  -0.1500 
 15 C        0.4930    -1.9460     0.8630 C.ar  1 <1>  -0.1500 
 16 O       -3.5490    -2.2640    -1.2320 O.3   1 <1>  -0.5600 
 17 C       -4.5170    -2.2180     0.9470 C.3   1 <1>   0.1200 
 18 C       -1.8460     4.6460     0.4200 C.ar  1 <1>  -0.1500 
 19 C       -0.3400     4.1150    -1.5190 C.3   1 <1>  -0.0970 
 20 C        0.7370    -4.1880    -0.7470 C.ar  1 <1>   0.0830 
 21 C        1.7480    -2.4510     0.5720 C.ar  1 <1>  -0.1500 
 22 O       -5.6460    -2.7280     0.3250 O.3   1 <1>  -0.6800 
 23 O        0.7110    -5.2970    -1.5390 O.3   1 <1>  -0.3630 
 24 C        1.8930    -3.5700    -0.2420 C.ar  1 <1>   0.0830 
 25 C        1.6780    -6.3150    -1.4030 C.3   1 <1>   0.0400 
 26 O        3.1270    -4.0570    -0.5670 O.3   1 <1>  -0.3630 
 27 C        4.3130    -3.3610    -0.2490 C.3   1 <1>   0.0400 
 28 H       -2.0860    -2.0060     1.7910 H     1 <1>   0.0800 
 29 H       -2.9610     0.5220    -1.2780 H     1 <1>   0.0800 
 30 H       -1.2820     0.1580    -1.5440 H     1 <1>   0.0800 
 31 H       -3.2400     2.5310     2.5770 H     1 <1>   0.1500 
 32 H       -3.1620    -3.6620     0.1870 H     1 <1>   0.0800 
 33 H       -1.7380    -2.0990    -2.1190 H     1 <1>   0.0800 
 34 H       -3.0280    -1.2130    -2.8670 H     1 <1>   0.0800 
 35 H       -3.1340     4.9560     2.1080 H     1 <1>   0.1500 
 36 H       -1.3600    -4.1590    -0.8740 H     1 <1>   0.1500 
 37 H        0.4110    -1.0770     1.4960 H     1 <1>   0.1500 
 38 H       -4.6190    -1.1480     1.0030 H     1 <1>   0.0800 
 39 H       -4.4660    -2.6190     1.9440 H     1 <1>   0.0800 
 40 H       -1.7660     5.6900     0.1770 H     1 <1>   0.1500 
 41 H       -0.3510     5.1820    -1.6440 H     1 <1>   0.0800 
 42 H       -0.7170     3.6550    -2.4140 H     1 <1>   0.0800 
 43 H        0.6740     3.7940    -1.3660 H     1 <1>   0.0800 
 44 H        2.5960    -1.9500     0.9940 H     1 <1>   0.1500 
 45 H       -5.5140    -2.6190    -0.6430 H     1 <1>   0.4000 
 46 H        1.2780    -7.2160    -1.8290 H     1 <1>   0.0800 
 47 H        1.8910    -6.4610    -0.3590 H     1 <1>   0.0800 
 48 H        2.5650    -6.0240    -1.9370 H     1 <1>   0.0800 
 49 H        5.1390    -3.8970    -0.6780 H     1 <1>   0.0800 
 50 H        4.4190    -3.3230     0.8210 H     1 <1>   0.0800 
 51 H        4.2610    -2.3720    -0.6690 H     1 <1>   0.0800 
@<TRIPOS>BOND
  1   1   2  2   
  2   2   3  am  
  3   2   4  1   
  4   3   5  1   
  5   3   6  1   
  6   4   7  ar  
  7   4   8  ar  
  8   5   9  1   
  9   5  10  1   
 10   5  28  1   
 11   6  11  1   
 12   6  29  1   
 13   6  30  1   
 14   7  12  ar  
 15   8  13  ar  
 16   8  31  1   
 17   9  14  ar  
 18   9  15  ar  
 19  10  16  1   
 20  10  17  1   
 21  10  32  1   
 22  11  16  1   
 23  11  33  1   
 24  11  34  1   
 25  12  18  ar  
 26  12  19  1   
 27  13  18  ar  
 28  13  35  1   
 29  14  20  ar  
 30  14  36  1   
 31  15  21  ar  
 32  15  37  1   
 33  17  22  1   
 34  17  38  1   
 35  17  39  1   
 36  18  40  1   
 37  19  41  1   
 38  19  42  1   
 39  19  43  1   
 40  20  23  1   
 41  20  24  ar  
 42  21  24  ar  
 43  21  44  1   
 44  22  45  1   
 45  23  25  1   
 46  24  26  1   
 47  25  46  1   
 48  25  47  1   
 49  25  48  1   
 50  26  27  1   
 51  27  49  1   
 52  27  50  1   
 53  27  51  1   
@<TRIPOS>SUBSTRUCTURE
  1 ****   3 GROUP 4 **** **** 0

# MOE 2024.06 (io_trps.svl 2023.06)
