@<TRIPOS>MOLECULE
NONAME
53 56 1 0 0 
SMALL
USER_CHARGES


@<TRIPOS>ATOM
  1 O        0.4720     0.0900     0.8340 O.2   1 <1>  -0.5700 
  2 C        1.4850    -0.4480     0.4180 C.2   1 <1>   0.7150 
  3 N        2.5380     0.3700     0.0310 N.am  1 <1>  -0.6600 
  4 C        1.5260    -1.9000     0.3380 C.2   1 <1>   0.0550 
  5 C        3.6460    -0.1150    -0.8500 C.3   1 <1>   0.1400 
  6 C        2.4750     1.8420     0.2890 C.3   1 <1>   0.1400 
  7 O        2.6690    -2.5700     0.4880 O.3   1 <1>  -0.2800 
  8 C        0.5280    -2.8150     0.1430 C.2   1 <1>  -0.1810 
  9 C        4.9180    -0.4350    -0.0470 C.3   1 <1>   0.1400 
 10 C        3.8380     2.5070     0.5350 C.3   1 <1>  -0.1600 
 11 C        2.4330    -3.8570     0.3970 C.2   1 <1>  -0.0100 
 12 C        1.1210    -4.0780     0.1820 C.2   1 <1>  -0.1500 
 13 C       -0.9590    -2.5960    -0.0770 C.3   1 <1>  -0.0590 
 14 N        5.6180     0.8030     0.4220 N.am  1 <1>  -0.6600 
 15 C        4.8170     1.6530     1.3450 C.3   1 <1>   0.1400 
 16 C        6.9180     1.0980     0.0370 C.2   1 <1>   0.7160 
 17 O        7.5760     0.1970    -0.4650 O.2   1 <1>  -0.5700 
 18 C        7.5700     2.4050     0.1930 C.2   1 <1>   0.2030 
 19 N        7.0110     3.5760     0.4640 N.2   1 <1>  -0.7070 
 20 C        8.9550     2.5920     0.0420 C.2   1 <1>  -0.1810 
 21 N        8.0020     4.4790     0.4860 N.pl3 1 <1>   0.3000 
 22 C        9.1900     3.9010     0.2280 C.2   1 <1>  -0.3320 
 23 C       10.0220     1.5660    -0.2830 C.3   1 <1>   0.5240 
 24 C       10.5650     4.5360     0.1420 C.3   1 <1>   0.0200 
 25 N       11.3560     2.1350     0.1080 N.4   1 <1>  -0.9590 
 26 C       11.5650     3.5200    -0.4510 C.3   1 <1>   0.3430 
 27 C       12.4620     1.2040    -0.2640 C.3   1 <1>   0.2630 
 28 H        3.8690     0.6220    -1.6020 H     1 <1>   0.0800 
 29 H        3.3300    -1.0030    -1.3660 H     1 <1>   0.0800 
 30 H        1.8680     2.0130     1.1620 H     1 <1>   0.0800 
 31 H        1.9850     2.3230    -0.5410 H     1 <1>   0.0800 
 32 H        5.5680    -1.0130    -0.6790 H     1 <1>   0.0800 
 33 H        4.6700    -1.0470     0.8020 H     1 <1>   0.0800 
 34 H        3.6570     3.4170     1.0760 H     1 <1>   0.0800 
 35 H        4.2860     2.7930    -0.4000 H     1 <1>   0.0800 
 36 H        3.2500    -4.5500     0.4980 H     1 <1>   0.1500 
 37 H        0.6110    -5.0170     0.0640 H     1 <1>   0.1500 
 38 H       -1.1780    -1.5550    -0.2310 H     1 <1>   0.0800 
 39 H       -1.5070    -2.9380     0.7820 H     1 <1>   0.0800 
 40 H       -1.2870    -3.1440    -0.9420 H     1 <1>   0.0800 
 41 H        4.2830     1.0340     2.0460 H     1 <1>   0.0800 
 42 H        5.4690     2.2870     1.9190 H     1 <1>   0.0800 
 43 H        7.8310     5.4770     0.6740 H     1 <1>   0.2700 
 44 H        9.9960     1.3450    -1.3380 H     1 <1>   0.0800 
 45 H        9.8300     0.6550     0.2620 H     1 <1>   0.0800 
 46 H       10.8900     4.8370     1.1220 H     1 <1>   0.0800 
 47 H       10.5360     5.4110    -0.4840 H     1 <1>   0.0800 
 48 H       11.3130     2.2290     1.1320 H     1 <1>   0.4500 
 49 H       12.5690     3.8550    -0.2490 H     1 <1>   0.0800 
 50 H       11.4330     3.4890    -1.5210 H     1 <1>   0.0800 
 51 H       12.5060     1.0830    -1.3350 H     1 <1>   0.0800 
 52 H       12.3040     0.2370     0.1850 H     1 <1>   0.0800 
 53 H       13.4080     1.5900     0.0790 H     1 <1>   0.0800 
@<TRIPOS>BOND
  1   1   2  2   
  2   2   3  am  
  3   2   4  1   
  4   3   5  1   
  5   3   6  1   
  6   4   7  1   
  7   4   8  2   
  8   5   9  1   
  9   5  28  1   
 10   5  29  1   
 11   6  10  1   
 12   6  30  1   
 13   6  31  1   
 14   7  11  1   
 15   8  12  1   
 16   8  13  1   
 17   9  14  1   
 18   9  32  1   
 19   9  33  1   
 20  10  15  1   
 21  10  34  1   
 22  10  35  1   
 23  11  12  2   
 24  11  36  1   
 25  12  37  1   
 26  13  38  1   
 27  13  39  1   
 28  13  40  1   
 29  14  15  1   
 30  14  16  am  
 31  15  41  1   
 32  15  42  1   
 33  16  17  2   
 34  16  18  1   
 35  18  19  2   
 36  18  20  1   
 37  19  21  1   
 38  20  22  2   
 39  20  23  1   
 40  21  22  1   
 41  21  43  1   
 42  22  24  1   
 43  23  25  1   
 44  23  44  1   
 45  23  45  1   
 46  24  26  1   
 47  24  46  1   
 48  24  47  1   
 49  25  26  1   
 50  25  27  1   
 51  25  48  1   
 52  26  49  1   
 53  26  50  1   
 54  27  51  1   
 55  27  52  1   
 56  27  53  1   
@<TRIPOS>SUBSTRUCTURE
  1 ****  14 GROUP 4 **** **** 0

# MOE 2024.06 (io_trps.svl 2023.06)
