@<TRIPOS>MOLECULE
NONAME
52 55 1 0 0 
SMALL
USER_CHARGES


@<TRIPOS>ATOM
  1 O       -0.8430     1.5640     1.5550 O.2   1 <1>  -0.5700 
  2 C       -1.4020     1.4720     0.4760 C.2   1 <1>   0.6160 
  3 N       -2.0210     0.2820     0.1370 N.am  1 <1>  -0.6600 
  4 C       -1.4620     2.6340    -0.3610 C.2   1 <1>   0.0290 
  5 C       -2.8180     0.1400    -1.1210 C.3   1 <1>   0.1400 
  6 C       -2.0160    -0.8890     1.0600 C.3   1 <1>   0.1400 
  7 C       -0.7270     2.6450    -1.5880 C.2   1 <1>   0.6160 
  8 C       -2.1870     3.7500    -0.0160 C.2   1 <1>  -0.1500 
  9 C       -3.4760    -1.2380    -1.2280 C.3   1 <1>  -0.1600 
 10 C       -3.4540    -1.3460     1.3250 C.3   1 <1>  -0.1600 
 11 O       -0.0540     1.7160    -2.0060 O.2   1 <1>  -0.5700 
 12 N       -0.7860     3.7660    -2.3740 N.am  1 <1>  -0.5390 
 13 C       -2.2170     4.8800    -0.8610 C.2   1 <1>  -0.1500 
 14 C       -4.2790    -1.5770     0.0360 C.3   1 <1>   0.4240 
 15 C       -1.5170     4.8730    -2.0280 C.2   1 <1>  -0.0410 
 16 O       -5.3390    -0.6510     0.0330 O.3   1 <1>  -0.5600 
 17 C       -4.7970    -3.0310    -0.0460 C.ar  1 <1>  -0.1430 
 18 C       -6.4720    -0.9770     0.7770 C.3   1 <1>   0.1200 
 19 C       -6.1590    -3.3150    -0.0040 C.ar  1 <1>  -0.1430 
 20 C       -3.9020    -4.0900    -0.1570 C.ar  1 <1>  -0.1500 
 21 C       -7.1530    -2.1790     0.1300 C.3   1 <1>  -0.0170 
 22 C       -6.6090    -4.6240    -0.0750 C.ar  1 <1>  -0.1500 
 23 C       -4.3430    -5.3990    -0.2410 C.ar  1 <1>   0.0830 
 24 C       -5.7130    -5.6720    -0.1760 C.ar  1 <1>   0.0830 
 25 O       -3.4040    -6.3650    -0.3880 O.3   1 <1>  -0.3620 
 26 O       -6.2190    -6.9300    -0.2020 O.3   1 <1>  -0.3620 
 27 C       -3.4220    -7.0730    -1.6090 C.3   1 <1>   0.0400 
 28 C       -5.9070    -7.7510     0.9020 C.3   1 <1>   0.0400 
 29 H       -2.1760     0.2860    -1.9720 H     1 <1>   0.0800 
 30 H       -3.5830     0.8980    -1.1350 H     1 <1>   0.0800 
 31 H       -1.5430    -0.6440     1.9950 H     1 <1>   0.0800 
 32 H       -1.4490    -1.6850     0.6090 H     1 <1>   0.0800 
 33 H       -2.7390     3.7760     0.9090 H     1 <1>   0.1500 
 34 H       -2.7070    -1.9670    -1.3990 H     1 <1>   0.0800 
 35 H       -4.1300    -1.2650    -2.0800 H     1 <1>   0.0800 
 36 H       -3.9240    -0.6010     1.9390 H     1 <1>   0.0800 
 37 H       -3.4140    -2.2520     1.9010 H     1 <1>   0.0800 
 38 H       -0.2310     3.7120    -3.2300 H     1 <1>   0.3700 
 39 H       -2.7980     5.7360    -0.5610 H     1 <1>   0.1500 
 40 H       -1.5110     5.7170    -2.7000 H     1 <1>   0.1500 
 41 H       -7.1270    -0.1240     0.7730 H     1 <1>   0.0800 
 42 H       -6.1800    -1.1960     1.7900 H     1 <1>   0.0800 
 43 H       -2.8420    -3.9130    -0.1840 H     1 <1>   0.1500 
 44 H       -7.5210    -1.9020    -0.8420 H     1 <1>   0.0800 
 45 H       -7.9870    -2.4830     0.7360 H     1 <1>   0.0800 
 46 H       -7.6610    -4.8450    -0.0440 H     1 <1>   0.1500 
 47 H       -2.5660    -7.7220    -1.6340 H     1 <1>   0.0800 
 48 H       -3.3760    -6.3670    -2.4190 H     1 <1>   0.0800 
 49 H       -4.3240    -7.6540    -1.6720 H     1 <1>   0.0800 
 50 H       -6.4550    -8.6700     0.8030 H     1 <1>   0.0800 
 51 H       -6.1970    -7.2430     1.8050 H     1 <1>   0.0800 
 52 H       -4.8520    -7.9530     0.9100 H     1 <1>   0.0800 
@<TRIPOS>BOND
  1   1   2  2   
  2   2   3  am  
  3   2   4  1   
  4   3   5  1   
  5   3   6  1   
  6   4   7  1   
  7   4   8  2   
  8   5   9  1   
  9   5  29  1   
 10   5  30  1   
 11   6  10  1   
 12   6  31  1   
 13   6  32  1   
 14   7  11  2   
 15   7  12  am  
 16   8  13  1   
 17   8  33  1   
 18   9  14  1   
 19   9  34  1   
 20   9  35  1   
 21  10  14  1   
 22  10  36  1   
 23  10  37  1   
 24  12  15  1   
 25  12  38  1   
 26  13  15  2   
 27  13  39  1   
 28  14  16  1   
 29  14  17  1   
 30  15  40  1   
 31  16  18  1   
 32  17  19  ar  
 33  17  20  ar  
 34  18  21  1   
 35  18  41  1   
 36  18  42  1   
 37  19  21  1   
 38  19  22  ar  
 39  20  23  ar  
 40  20  43  1   
 41  21  44  1   
 42  21  45  1   
 43  22  24  ar  
 44  22  46  1   
 45  23  24  ar  
 46  23  25  1   
 47  24  26  1   
 48  25  27  1   
 49  26  28  1   
 50  27  47  1   
 51  27  48  1   
 52  27  49  1   
 53  28  50  1   
 54  28  51  1   
 55  28  52  1   
@<TRIPOS>SUBSTRUCTURE
  1 ****  14 GROUP 4 **** **** 0

# MOE 2024.06 (io_trps.svl 2023.06)
