@<TRIPOS>MOLECULE
NONAME
42 44 1 0 0 
SMALL
USER_CHARGES


@<TRIPOS>ATOM
  1 O        0.1850    -3.6140     2.1420 O.2   1 <1>  -0.5700 
  2 C        1.1550    -3.1310     1.5910 C.2   1 <1>   0.6900 
  3 N        1.0540    -2.4630     0.3790 N.am  1 <1>  -0.4690 
  4 N        2.3800    -3.2610     2.1630 N.am  1 <1>  -0.4900 
  5 C        2.1930    -1.9740    -0.2520 C.2   1 <1>  -0.0410 
  6 C       -0.2880    -2.2990    -0.2680 C.3   1 <1>   0.2010 
  7 C        3.5190    -2.7880     1.5900 C.2   1 <1>   0.6160 
  8 C        3.4020    -2.1270     0.3340 C.2   1 <1>  -0.1360 
  9 C       -0.7670    -3.5680    -0.9700 C.2   1 <1>   0.5690 
 10 O        4.5750    -2.9470     2.1640 O.2   1 <1>  -0.5700 
 11 O       -0.9600    -3.5420    -2.1620 O.2   1 <1>  -0.5700 
 12 N       -0.9640    -4.6930    -0.2380 N.am  1 <1>  -0.7300 
 13 C       -1.3480    -6.0180    -0.7690 C.3   1 <1>   0.2200 
 14 C       -2.4860    -6.5780     0.0660 C.3   1 <1>  -0.0800 
 15 C       -0.2260    -7.0240    -0.5110 C.3   1 <1>   0.1200 
 16 C       -1.7240    -7.2080     1.2320 C.3   1 <1>   0.1200 
 17 C       -3.3040    -7.6180    -0.7240 C.3   1 <1>  -0.0170 
 18 O       -0.5060    -7.6480     0.7110 O.3   1 <1>  -0.5600 
 19 C       -4.4500    -8.1770     0.1050 C.ar  1 <1>  -0.1430 
 20 C       -5.6020    -7.4530     0.3360 C.ar  1 <1>  -0.1500 
 21 C       -4.3990    -9.4360     0.6690 C.ar  1 <1>  -0.1500 
 22 C       -6.6170    -8.0050     1.0990 C.ar  1 <1>   0.1600 
 23 C       -5.4710    -9.8950     1.4170 C.ar  1 <1>   0.1600 
 24 N       -6.5790    -9.2100     1.6460 N.ar  1 <1>  -0.6200 
 25 H        2.4540    -3.7510     3.0470 H     1 <1>   0.3700 
 26 H        2.0700    -1.4830    -1.2050 H     1 <1>   0.1500 
 27 H       -1.0120    -2.0270     0.4790 H     1 <1>   0.0800 
 28 H       -0.2450    -1.5030    -0.9880 H     1 <1>   0.0800 
 29 H        4.3150    -1.7710    -0.1050 H     1 <1>   0.1500 
 30 H       -0.7140    -4.6730     0.7620 H     1 <1>   0.3700 
 31 H       -1.5870    -5.9430    -1.8170 H     1 <1>   0.0800 
 32 H       -3.1450    -5.8000     0.4070 H     1 <1>   0.0800 
 33 H        0.7410    -6.5560    -0.4610 H     1 <1>   0.0800 
 34 H       -0.2210    -7.7880    -1.2680 H     1 <1>   0.0800 
 35 H       -2.2370    -8.0380     1.6840 H     1 <1>   0.0800 
 36 H       -1.5060    -6.4700     1.9850 H     1 <1>   0.0800 
 37 H       -2.6680    -8.4240    -1.0470 H     1 <1>   0.0800 
 38 H       -3.7130    -7.1560    -1.6060 H     1 <1>   0.0800 
 39 H       -5.7190    -6.4650    -0.0710 H     1 <1>   0.1500 
 40 H       -3.5370   -10.0640     0.5360 H     1 <1>   0.1500 
 41 H       -7.5070    -7.4250     1.2680 H     1 <1>   0.1500 
 42 H       -5.4130   -10.8800     1.8490 H     1 <1>   0.1500 
@<TRIPOS>BOND
  1   1   2  2   
  2   2   3  am  
  3   2   4  am  
  4   3   5  1   
  5   3   6  1   
  6   4   7  am  
  7   4  25  1   
  8   5   8  2   
  9   5  26  1   
 10   6   9  1   
 11   6  27  1   
 12   6  28  1   
 13   7   8  1   
 14   7  10  2   
 15   8  29  1   
 16   9  11  2   
 17   9  12  am  
 18  12  13  1   
 19  12  30  1   
 20  13  14  1   
 21  13  15  1   
 22  13  31  1   
 23  14  16  1   
 24  14  17  1   
 25  14  32  1   
 26  15  18  1   
 27  15  33  1   
 28  15  34  1   
 29  16  18  1   
 30  16  35  1   
 31  16  36  1   
 32  17  19  1   
 33  17  37  1   
 34  17  38  1   
 35  19  20  ar  
 36  19  21  ar  
 37  20  22  ar  
 38  20  39  1   
 39  21  23  ar  
 40  21  40  1   
 41  22  24  ar  
 42  22  41  1   
 43  23  24  ar  
 44  23  42  1   
@<TRIPOS>SUBSTRUCTURE
  1 ****  12 GROUP 4 **** **** 0

# MOE 2024.06 (io_trps.svl 2023.06)
