@<TRIPOS>MOLECULE
NONAME
50 51 1 0 0 
SMALL
USER_CHARGES


@<TRIPOS>ATOM
  1 F       -4.0850    -0.8110    -2.6920 F     1 <1>  -0.3400 
  2 C       -4.3590    -2.1090    -2.6660 C.3   1 <1>   1.1640 
  3 F       -3.2060    -2.7390    -2.8560 F     1 <1>  -0.3400 
  4 F       -5.1020    -2.3550    -3.7380 F     1 <1>  -0.3400 
  5 C       -5.0800    -2.5430    -1.3790 C.ar  1 <1>  -0.1440 
  6 C       -5.9320    -1.6690    -0.7110 C.ar  1 <1>  -0.1500 
  7 C       -4.9070    -3.8210    -0.8600 C.ar  1 <1>  -0.1500 
  8 C       -6.5910    -2.0650     0.4390 C.ar  1 <1>  -0.1500 
  9 C       -5.5640    -4.2150     0.2920 C.ar  1 <1>  -0.1500 
 10 C       -6.4150    -3.3410     0.9480 C.ar  1 <1>  -0.1440 
 11 C       -7.1810    -3.7650     2.1960 C.3   1 <1>   0.0440 
 12 C       -8.5830    -4.2160     1.8050 C.2   1 <1>   0.5690 
 13 O       -9.4270    -3.3520     1.7120 O.2   1 <1>  -0.5700 
 14 N       -8.8970    -5.5130     1.4730 N.am  1 <1>  -0.6600 
 15 C       -7.9590    -6.6810     1.5690 C.3   1 <1>   0.3210 
 16 C      -10.2590    -5.8460     0.9370 C.3   1 <1>   0.1400 
 17 C       -7.9070    -7.4930     0.2750 C.2   1 <1>   0.0460 
 18 C      -10.3940    -5.5550    -0.5750 C.3   1 <1>   0.3430 
 19 N       -7.4390    -6.9510    -0.8700 N.2   1 <1>  -0.5650 
 20 C       -8.2700    -8.7850     0.0780 C.2   1 <1>  -0.3320 
 21 N       -9.9760    -4.1580    -0.9280 N.4   1 <1>  -0.9590 
 22 C       -7.5020    -7.9200    -1.7250 C.2   1 <1>   0.0360 
 23 N       -8.0020    -9.0610    -1.2130 N.pl3 1 <1>   0.0330 
 24 C       -8.8430    -9.8300     1.0220 C.3   1 <1>  -0.0600 
 25 C      -10.9640    -3.4530    -1.7890 C.3   1 <1>   0.2630 
 26 C       -8.6080    -4.1510    -1.5300 C.3   1 <1>   0.2630 
 27 H       -6.0870    -0.6690    -1.0820 H     1 <1>   0.1500 
 28 H       -4.2550    -4.5270    -1.3510 H     1 <1>   0.1500 
 29 H       -7.2480    -1.3710     0.9380 H     1 <1>   0.1500 
 30 H       -5.4030    -5.2130     0.6610 H     1 <1>   0.1500 
 31 H       -7.2710    -2.9220     2.8570 H     1 <1>   0.0800 
 32 H       -6.6540    -4.5230     2.7400 H     1 <1>   0.0800 
 33 H       -8.2820    -7.3130     2.3760 H     1 <1>   0.0800 
 34 H       -6.9600    -6.3650     1.7910 H     1 <1>   0.0800 
 35 H      -11.0010    -5.2750     1.4700 H     1 <1>   0.0800 
 36 H      -10.4760    -6.8850     1.1160 H     1 <1>   0.0800 
 37 H      -11.4220    -5.7080    -0.8570 H     1 <1>   0.0800 
 38 H       -9.7980    -6.2640    -1.1250 H     1 <1>   0.0800 
 39 H       -9.8970    -3.6540    -0.0160 H     1 <1>   0.4500 
 40 H       -7.1870    -7.8480    -2.7530 H     1 <1>   0.1500 
 41 H       -8.1260    -9.9550    -1.7010 H     1 <1>   0.2700 
 42 H       -9.0030    -9.4230     2.0030 H     1 <1>   0.0800 
 43 H       -8.1640   -10.6610     1.1080 H     1 <1>   0.0800 
 44 H       -9.7850   -10.1930     0.6480 H     1 <1>   0.0800 
 45 H      -11.0640    -3.9590    -2.7350 H     1 <1>   0.0800 
 46 H      -10.6390    -2.4410    -1.9690 H     1 <1>   0.0800 
 47 H      -11.9260    -3.4220    -1.3040 H     1 <1>   0.0800 
 48 H       -8.5940    -4.7110    -2.4500 H     1 <1>   0.0800 
 49 H       -7.9030    -4.5990    -0.8500 H     1 <1>   0.0800 
 50 H       -8.2870    -3.1410    -1.7260 H     1 <1>   0.0800 
@<TRIPOS>BOND
  1   1   2  1   
  2   2   3  1   
  3   2   4  1   
  4   2   5  1   
  5   5   6  ar  
  6   5   7  ar  
  7   6   8  ar  
  8   6  27  1   
  9   7   9  ar  
 10   7  28  1   
 11   8  10  ar  
 12   8  29  1   
 13   9  10  ar  
 14   9  30  1   
 15  10  11  1   
 16  11  12  1   
 17  11  31  1   
 18  11  32  1   
 19  12  13  2   
 20  12  14  am  
 21  14  15  1   
 22  14  16  1   
 23  15  17  1   
 24  15  33  1   
 25  15  34  1   
 26  16  18  1   
 27  16  35  1   
 28  16  36  1   
 29  17  19  1   
 30  17  20  2   
 31  18  21  1   
 32  18  37  1   
 33  18  38  1   
 34  19  22  2   
 35  20  23  1   
 36  20  24  1   
 37  21  25  1   
 38  21  26  1   
 39  21  39  1   
 40  22  23  1   
 41  22  40  1   
 42  23  41  1   
 43  24  42  1   
 44  24  43  1   
 45  24  44  1   
 46  25  45  1   
 47  25  46  1   
 48  25  47  1   
 49  26  48  1   
 50  26  49  1   
 51  26  50  1   
@<TRIPOS>SUBSTRUCTURE
  1 ****  26 GROUP 4 **** **** 0

# MOE 2024.06 (io_trps.svl 2023.06)
