@<TRIPOS>MOLECULE
NONAME
47 49 1 0 0 
SMALL
USER_CHARGES


@<TRIPOS>ATOM
  1 O       -0.0900     1.4750    -1.7490 O.2   1 <1>  -0.5700 
  2 C       -0.3360     2.6350    -1.5100 C.2   1 <1>   0.5690 
  3 N       -1.1240     3.0450    -0.4670 N.am  1 <1>  -0.5090 
  4 C        0.2670     3.7020    -2.4150 C.3   1 <1>   0.1810 
  5 C       -1.4090     4.5010    -0.2490 C.3   1 <1>   0.3640 
  6 C       -1.5190     2.1240     0.6280 C.3   1 <1>   0.0490 
  7 O        0.6220     4.8390    -1.6730 O.3   1 <1>  -0.5600 
  8 C       -2.8550     4.8130    -0.6390 C.ar  1 <1>  -0.1440 
  9 C       -0.4610     5.4750    -1.0080 C.3   1 <1>   0.2610 
 10 C       -2.3170     0.9040     0.2880 C.3   1 <1>  -0.2000 
 11 C       -2.9510     2.0150     1.0600 C.3   1 <1>  -0.2000 
 12 C       -3.5900     5.7090     0.1270 C.ar  1 <1>   0.1600 
 13 C       -3.4650     4.2350    -1.7400 C.ar  1 <1>  -0.1500 
 14 C        0.0520     6.5370    -0.0300 C.2   1 <1>   0.5690 
 15 N       -4.8450     6.0570    -0.1070 N.ar  1 <1>  -0.6200 
 16 C       -4.7710     4.5890    -1.9970 C.ar  1 <1>  -0.1500 
 17 O       -0.7500     7.1760     0.6110 O.2   1 <1>  -0.5700 
 18 N        1.3870     6.7360     0.1090 N.am  1 <1>  -0.7300 
 19 C       -5.4060     5.4900    -1.1610 C.ar  1 <1>   0.1600 
 20 C        2.0540     7.7670     0.9470 C.3   1 <1>   0.1400 
 21 C        3.1100     8.5680     0.1510 C.3   1 <1>   0.2800 
 22 O        3.9810     7.6820    -0.4480 O.3   1 <1>  -0.6800 
 23 C        3.9470     9.4520     1.0730 C.3   1 <1>  -0.2400 
 24 C        2.4820     9.3950    -0.9720 C.3   1 <1>  -0.2400 
 25 H       -0.4320     3.9840    -3.1800 H     1 <1>   0.0800 
 26 H        1.1600     3.3180    -2.8750 H     1 <1>   0.0800 
 27 H       -1.3040     4.6840     0.8070 H     1 <1>   0.0800 
 28 H       -0.7480     2.0230     1.3740 H     1 <1>   0.1000 
 29 H       -1.0230     5.9940    -1.7640 H     1 <1>   0.0800 
 30 H       -2.6010     0.7490    -0.7380 H     1 <1>   0.1000 
 31 H       -2.0900    -0.0150     0.7980 H     1 <1>   0.1000 
 32 H       -3.1670     1.8450     2.1000 H     1 <1>   0.1000 
 33 H       -3.7270     2.5720     0.5690 H     1 <1>   0.1000 
 34 H       -3.1240     6.1720     0.9820 H     1 <1>   0.1500 
 35 H       -2.9580     3.5280    -2.3730 H     1 <1>   0.1500 
 36 H       -5.2980     4.1700    -2.8350 H     1 <1>   0.1500 
 37 H        2.0320     6.2100    -0.4950 H     1 <1>   0.3700 
 38 H       -6.4280     5.7590    -1.3700 H     1 <1>   0.1500 
 39 H        1.3170     8.4420     1.3460 H     1 <1>   0.0800 
 40 H        2.5340     7.2780     1.7770 H     1 <1>   0.0800 
 41 H        4.6470     8.1790    -0.9580 H     1 <1>   0.4000 
 42 H        3.3130    10.1640     1.5710 H     1 <1>   0.0800 
 43 H        4.6880     9.9960     0.5160 H     1 <1>   0.0800 
 44 H        4.4370     8.8550     1.8220 H     1 <1>   0.0800 
 45 H        1.7720    10.0890    -0.5600 H     1 <1>   0.0800 
 46 H        1.9600     8.7570    -1.6630 H     1 <1>   0.0800 
 47 H        3.2300     9.9540    -1.5050 H     1 <1>   0.0800 
@<TRIPOS>BOND
  1   1   2  2   
  2   2   3  am  
  3   2   4  1   
  4   3   5  1   
  5   3   6  1   
  6   4   7  1   
  7   4  25  1   
  8   4  26  1   
  9   5   8  1   
 10   5   9  1   
 11   5  27  1   
 12   6  10  1   
 13   6  11  1   
 14   6  28  1   
 15   7   9  1   
 16   8  12  ar  
 17   8  13  ar  
 18   9  14  1   
 19   9  29  1   
 20  10  11  1   
 21  10  30  1   
 22  10  31  1   
 23  11  32  1   
 24  11  33  1   
 25  12  15  ar  
 26  12  34  1   
 27  13  16  ar  
 28  13  35  1   
 29  14  17  2   
 30  14  18  am  
 31  15  19  ar  
 32  16  19  ar  
 33  16  36  1   
 34  18  20  1   
 35  18  37  1   
 36  19  38  1   
 37  20  21  1   
 38  20  39  1   
 39  20  40  1   
 40  21  22  1   
 41  21  23  1   
 42  21  24  1   
 43  22  41  1   
 44  23  42  1   
 45  23  43  1   
 46  23  44  1   
 47  24  45  1   
 48  24  46  1   
 49  24  47  1   
@<TRIPOS>SUBSTRUCTURE
  1 ****   9 GROUP 4 **** **** 0

# MOE 2024.06 (io_trps.svl 2023.06)
