@<TRIPOS>MOLECULE
NONAME
60 63 1 0 0 
SMALL
USER_CHARGES


@<TRIPOS>ATOM
  1 O       -1.3140    -0.0760     1.5430 O.2   1 <1>  -0.5700 
  2 C       -1.9780     0.4460     0.6680 C.2   1 <1>   0.5440 
  3 N       -1.4530     1.5320    -0.0020 N.am  1 <1>  -0.6600 
  4 C       -3.2900    -0.0780     0.3730 C.ar  1 <1>   0.0860 
  5 C       -2.2850     2.6210    -0.6000 C.3   1 <1>   0.1400 
  6 C       -0.0040     1.8890     0.0860 C.3   1 <1>   0.1400 
  7 C       -4.1420    -0.4660     1.4020 C.ar  1 <1>   0.1600 
  8 C       -3.7690    -0.2320    -0.9250 C.ar  1 <1>  -0.1500 
  9 C       -1.9680     3.9730     0.0630 C.3   1 <1>   0.1200 
 10 C        0.1730     3.2780     0.7190 C.3   1 <1>   0.1200 
 11 N       -5.3670    -0.9430     1.2610 N.ar  1 <1>  -0.6200 
 12 C       -5.0360    -0.7340    -1.0910 C.ar  1 <1>  -0.1500 
 13 O       -0.5930     4.2310     0.0360 O.3   1 <1>  -0.5600 
 14 C       -5.8090    -1.0870     0.0160 C.ar  1 <1>   0.4100 
 15 N       -7.0770    -1.6030    -0.1510 N.pl3 1 <1>  -0.8380 
 16 C       -7.3460    -2.6630    -1.1880 C.3   1 <1>   0.2090 
 17 C       -8.0480    -1.5820     0.9950 C.3   1 <1>   0.2090 
 18 C       -8.0440    -3.9520    -0.6560 C.3   1 <1>   0.3690 
 19 C       -9.4050    -2.2140     0.6370 C.3   1 <1>   0.2090 
 20 N       -9.2750    -3.6220     0.1420 N.pl3 1 <1>  -0.8380 
 21 C       -8.4110    -4.8390    -1.8550 C.3   1 <1>  -0.2400 
 22 C       -7.0960    -4.7340     0.2590 C.3   1 <1>  -0.2400 
 23 C      -10.4380    -4.3900     0.0940 C.ar  1 <1>   0.1000 
 24 C      -10.5550    -5.5360     0.8670 C.ar  1 <1>  -0.1500 
 25 C      -11.5050    -4.0230    -0.7190 C.ar  1 <1>  -0.1500 
 26 C      -11.7000    -6.3120     0.8300 C.ar  1 <1>   0.0830 
 27 C      -12.6560    -4.7880    -0.7640 C.ar  1 <1>  -0.1500 
 28 O      -11.7170    -7.4190     1.6180 O.3   1 <1>  -0.3630 
 29 C      -12.7580    -5.9340     0.0070 C.ar  1 <1>  -0.1500 
 30 C      -12.8380    -8.2730     1.6550 C.3   1 <1>   0.0400 
 31 H       -3.3330     2.4130    -0.4750 H     1 <1>   0.0800 
 32 H       -2.0790     2.6870    -1.6540 H     1 <1>   0.0800 
 33 H        0.4180     1.8960    -0.9030 H     1 <1>   0.0800 
 34 H        0.5350     1.1610     0.6670 H     1 <1>   0.0800 
 35 H       -3.7760    -0.3680     2.4110 H     1 <1>   0.1500 
 36 H       -3.1550     0.0350    -1.7670 H     1 <1>   0.1500 
 37 H       -2.2990     3.9790     1.0870 H     1 <1>   0.0800 
 38 H       -2.4610     4.7700    -0.4640 H     1 <1>   0.0800 
 39 H        1.2030     3.5830     0.6650 H     1 <1>   0.0800 
 40 H       -0.1310     3.2630     1.7520 H     1 <1>   0.0800 
 41 H       -5.4480    -0.8540    -2.0730 H     1 <1>   0.1500 
 42 H       -6.4210    -2.9520    -1.6550 H     1 <1>   0.0800 
 43 H       -7.9700    -2.2320    -1.9510 H     1 <1>   0.0800 
 44 H       -8.2000    -0.5630     1.3030 H     1 <1>   0.0800 
 45 H       -7.6310    -2.1170     1.8300 H     1 <1>   0.0800 
 46 H       -9.8780    -1.6130    -0.1190 H     1 <1>   0.0800 
 47 H      -10.0360    -2.2080     1.5080 H     1 <1>   0.0800 
 48 H       -9.1260    -4.3390    -2.4820 H     1 <1>   0.0800 
 49 H       -8.8270    -5.7730    -1.5250 H     1 <1>   0.0800 
 50 H       -7.5360    -5.0560    -2.4400 H     1 <1>   0.0800 
 51 H       -6.8240    -4.1440     1.1140 H     1 <1>   0.0800 
 52 H       -6.1960    -4.9910    -0.2680 H     1 <1>   0.0800 
 53 H       -7.5630    -5.6400     0.5960 H     1 <1>   0.0800 
 54 H       -9.7430    -5.8210     1.5060 H     1 <1>   0.1500 
 55 H      -11.4210    -3.1370    -1.3200 H     1 <1>   0.1500 
 56 H      -13.4720    -4.4930    -1.3990 H     1 <1>   0.1500 
 57 H      -13.6610    -6.5120    -0.0450 H     1 <1>   0.1500 
 58 H      -12.6260    -9.0720     2.3420 H     1 <1>   0.0800 
 59 H      -13.0050    -8.6710     0.6710 H     1 <1>   0.0800 
 60 H      -13.6910    -7.7140     1.9970 H     1 <1>   0.0800 
@<TRIPOS>BOND
  1   1   2  2   
  2   2   3  am  
  3   2   4  1   
  4   3   5  1   
  5   3   6  1   
  6   4   7  ar  
  7   4   8  ar  
  8   5   9  1   
  9   5  31  1   
 10   5  32  1   
 11   6  10  1   
 12   6  33  1   
 13   6  34  1   
 14   7  11  ar  
 15   7  35  1   
 16   8  12  ar  
 17   8  36  1   
 18   9  13  1   
 19   9  37  1   
 20   9  38  1   
 21  10  13  1   
 22  10  39  1   
 23  10  40  1   
 24  11  14  ar  
 25  12  14  ar  
 26  12  41  1   
 27  14  15  1   
 28  15  16  1   
 29  15  17  1   
 30  16  18  1   
 31  16  42  1   
 32  16  43  1   
 33  17  19  1   
 34  17  44  1   
 35  17  45  1   
 36  18  20  1   
 37  18  21  1   
 38  18  22  1   
 39  19  20  1   
 40  19  46  1   
 41  19  47  1   
 42  20  23  1   
 43  21  48  1   
 44  21  49  1   
 45  21  50  1   
 46  22  51  1   
 47  22  52  1   
 48  22  53  1   
 49  23  24  ar  
 50  23  25  ar  
 51  24  26  ar  
 52  24  54  1   
 53  25  27  ar  
 54  25  55  1   
 55  26  28  1   
 56  26  29  ar  
 57  27  29  ar  
 58  27  56  1   
 59  28  30  1   
 60  29  57  1   
 61  30  58  1   
 62  30  59  1   
 63  30  60  1   
@<TRIPOS>SUBSTRUCTURE
  1 ****  15 GROUP 4 **** **** 0

# MOE 2024.06 (io_trps.svl 2023.06)
