@<TRIPOS>MOLECULE
NONAME
50 51 1 0 0 
SMALL
USER_CHARGES


@<TRIPOS>ATOM
  1 O        0.0170     0.4250    -0.0570 O.2   1 <1>  -0.5700 
  2 C        0.7800    -0.4810     0.1760 C.2   1 <1>   0.5690 
  3 N        1.9210    -0.2950     0.9110 N.am  1 <1>  -0.6600 
  4 C        0.4150    -1.8460    -0.3650 C.3   1 <1>  -0.0990 
  5 C        2.3370     1.0940     1.3010 C.3   1 <1>   0.3200 
  6 C        2.8950    -1.3750     1.2640 C.3   1 <1>   0.0600 
  7 C       -0.3340    -2.6540     0.7030 C.3   1 <1>   0.1760 
  8 C        3.4940     1.6550     0.4760 C.2   1 <1>   0.2980 
  9 N       -0.1430    -4.1150     0.4720 N.pl3 1 <1>   0.3140 
 10 C       -1.8120    -2.2500     0.8480 C.3   1 <1>  -0.2400 
 11 O        3.7770     2.9150     0.5740 O.3   1 <1>  -0.2800 
 12 N        4.2830     1.0490    -0.3320 N.2   1 <1>  -0.3380 
 13 N        0.7480    -4.7570     1.2450 N.2   1 <1>  -0.7070 
 14 C       -0.6780    -4.9560    -0.4430 C.2   1 <1>  -0.3320 
 15 C        4.7830     3.0720    -0.2240 C.2   1 <1>   0.2980 
 16 N        5.1260     1.9760    -0.7890 N.2   1 <1>  -0.3380 
 17 C        0.7500    -5.9780     0.8300 C.2   1 <1>   0.1080 
 18 C       -0.1390    -6.1990    -0.2300 C.2   1 <1>  -0.0860 
 19 C       -1.6710    -4.5360    -1.5220 C.3   1 <1>  -0.0600 
 20 C        5.3960     4.4550    -0.3800 C.3   1 <1>   0.0200 
 21 C        1.6400    -7.0230     1.4720 C.3   1 <1>  -0.0590 
 22 C       -0.3620    -7.4770    -0.8610 C.2   1 <1>   0.5950 
 23 C        6.5870     4.4910    -1.3500 C.3   1 <1>  -0.2400 
 24 O        0.4800    -8.3340    -0.9600 O.2   1 <1>  -0.5700 
 25 C       -1.7290    -7.8160    -1.4140 C.3   1 <1>  -0.1790 
 26 H        1.3110    -2.3560    -0.6670 H     1 <1>   0.0800 
 27 H       -0.1970    -1.7170    -1.2370 H     1 <1>   0.0800 
 28 H        2.6240     1.0940     2.3370 H     1 <1>   0.0800 
 29 H        1.5050     1.7690     1.2040 H     1 <1>   0.0800 
 30 H        2.4000    -2.3220     1.3900 H     1 <1>   0.0800 
 31 H        3.3970    -1.1370     2.1850 H     1 <1>   0.0800 
 32 H        3.6310    -1.4700     0.4830 H     1 <1>   0.0800 
 33 H        0.1330    -2.4510     1.6520 H     1 <1>   0.0800 
 34 H       -2.3270    -2.2890    -0.0930 H     1 <1>   0.0800 
 35 H       -1.8750    -1.2400     1.2130 H     1 <1>   0.0800 
 36 H       -2.3030    -2.8940     1.5560 H     1 <1>   0.0800 
 37 H       -1.3950    -3.5880    -1.9450 H     1 <1>   0.0800 
 38 H       -2.6600    -4.4610    -1.1080 H     1 <1>   0.0800 
 39 H       -1.6880    -5.2460    -2.3270 H     1 <1>   0.0800 
 40 H        5.7170     4.7950     0.5880 H     1 <1>   0.0800 
 41 H        4.6320     5.1250    -0.7320 H     1 <1>   0.0800 
 42 H        2.1270    -6.6120     2.3370 H     1 <1>   0.0800 
 43 H        2.3880    -7.3410     0.7690 H     1 <1>   0.0800 
 44 H        1.0540    -7.8710     1.7720 H     1 <1>   0.0800 
 45 H        7.3670     3.8360    -1.0040 H     1 <1>   0.0800 
 46 H        6.9780     5.4900    -1.4210 H     1 <1>   0.0800 
 47 H        6.2780     4.1690    -2.3290 H     1 <1>   0.0800 
 48 H       -2.4860    -7.2270    -0.9320 H     1 <1>   0.0800 
 49 H       -1.9370    -8.8550    -1.2340 H     1 <1>   0.0800 
 50 H       -1.7430    -7.6390    -2.4720 H     1 <1>   0.0800 
@<TRIPOS>BOND
  1   1   2  2   
  2   2   3  am  
  3   2   4  1   
  4   3   5  1   
  5   3   6  1   
  6   4   7  1   
  7   4  26  1   
  8   4  27  1   
  9   5   8  1   
 10   5  28  1   
 11   5  29  1   
 12   6  30  1   
 13   6  31  1   
 14   6  32  1   
 15   7   9  1   
 16   7  10  1   
 17   7  33  1   
 18   8  11  1   
 19   8  12  2   
 20   9  13  1   
 21   9  14  1   
 22  10  34  1   
 23  10  35  1   
 24  10  36  1   
 25  11  15  1   
 26  12  16  1   
 27  13  17  2   
 28  14  18  2   
 29  14  19  1   
 30  15  16  2   
 31  15  20  1   
 32  17  18  1   
 33  17  21  1   
 34  18  22  1   
 35  19  37  1   
 36  19  38  1   
 37  19  39  1   
 38  20  23  1   
 39  20  40  1   
 40  20  41  1   
 41  21  42  1   
 42  21  43  1   
 43  21  44  1   
 44  22  24  2   
 45  22  25  1   
 46  23  45  1   
 47  23  46  1   
 48  23  47  1   
 49  25  48  1   
 50  25  49  1   
 51  25  50  1   
@<TRIPOS>SUBSTRUCTURE
  1 ****   4 GROUP 4 **** **** 0

# MOE 2024.06 (io_trps.svl 2023.06)
