@<TRIPOS>MOLECULE
NONAME
50 52 1 0 0 
SMALL
USER_CHARGES


@<TRIPOS>ATOM
  1 F       -0.0630    -0.8150    -1.0260 F     1 <1>  -0.1900 
  2 C       -0.4330    -2.0560    -0.8800 C.ar  1 <1>   0.1900 
  3 C       -1.3120    -2.6060    -1.7920 C.ar  1 <1>  -0.1500 
  4 C        0.0630    -2.7820     0.1850 C.ar  1 <1>  -0.1500 
  5 C       -1.6970    -3.9250    -1.6280 C.ar  1 <1>  -0.1500 
  6 C       -0.3340    -4.1000     0.3340 C.ar  1 <1>  -0.1500 
  7 C       -1.2160    -4.7050    -0.5710 C.ar  1 <1>   0.0860 
  8 C       -1.6310    -6.0910    -0.4300 C.2   1 <1>   0.5440 
  9 O       -2.7060    -6.4630    -0.8600 O.2   1 <1>  -0.5700 
 10 N       -0.8210    -7.0100     0.1830 N.am  1 <1>  -0.7300 
 11 C       -1.1280    -8.4530     0.3240 C.3   1 <1>   0.1400 
 12 C       -1.7000    -8.7280     1.7140 C.3   1 <1>  -0.0990 
 13 C       -2.4320   -10.0550     1.7110 C.2   1 <1>   0.5690 
 14 O       -1.8210   -11.0050     2.1390 O.2   1 <1>  -0.5700 
 15 N       -3.7140   -10.1770     1.2230 N.am  1 <1>  -0.6600 
 16 C       -4.4730    -9.0420     0.6050 C.3   1 <1>   0.2200 
 17 C       -4.3610   -11.5260     1.2200 C.3   1 <1>   0.0600 
 18 C       -4.9860    -9.3260    -0.8010 C.3   1 <1>  -0.1600 
 19 C       -5.7140    -8.6360     1.3920 C.3   1 <1>  -0.1600 
 20 C       -6.0320    -8.2300    -1.0290 C.3   1 <1>  -0.0800 
 21 C       -6.5730    -7.8660     0.3770 C.3   1 <1>  -0.0800 
 22 C       -7.0870    -8.6180    -2.0860 C.3   1 <1>   0.1400 
 23 C       -8.0820    -8.1140     0.5530 C.3   1 <1>  -0.0990 
 24 N       -8.3320    -7.8520    -1.8700 N.am  1 <1>  -0.7300 
 25 C       -8.8430    -7.5970    -0.6480 C.2   1 <1>   0.5690 
 26 O       -9.8720    -6.9880    -0.5100 O.2   1 <1>  -0.5700 
 27 H       -1.6830    -2.0120    -2.6080 H     1 <1>   0.1500 
 28 H        0.7420    -2.3170     0.8780 H     1 <1>   0.1500 
 29 H       -2.3840    -4.3670    -2.3310 H     1 <1>   0.1500 
 30 H        0.0410    -4.6630     1.1700 H     1 <1>   0.1500 
 31 H        0.1150    -6.7290     0.4800 H     1 <1>   0.3700 
 32 H       -1.8410    -8.7390    -0.4320 H     1 <1>   0.0800 
 33 H       -0.2370    -9.0370     0.1680 H     1 <1>   0.0800 
 34 H       -2.3690    -7.9480     2.0240 H     1 <1>   0.0800 
 35 H       -0.8970    -8.7750     2.4250 H     1 <1>   0.0800 
 36 H       -3.8550    -8.1680     0.5310 H     1 <1>   0.0800 
 37 H       -5.4280   -11.4470     1.3060 H     1 <1>   0.0800 
 38 H       -4.0000   -12.1140     2.0470 H     1 <1>   0.0800 
 39 H       -4.1170   -12.0380     0.3060 H     1 <1>   0.0800 
 40 H       -4.1920    -9.2700    -1.5250 H     1 <1>   0.0800 
 41 H       -5.4570   -10.2910    -0.8450 H     1 <1>   0.0800 
 42 H       -6.2420    -9.5030     1.7410 H     1 <1>   0.0800 
 43 H       -5.4540    -8.0180     2.2330 H     1 <1>   0.0800 
 44 H       -5.5100    -7.3630    -1.4010 H     1 <1>   0.0800 
 45 H       -6.3990    -6.8110     0.5170 H     1 <1>   0.0800 
 46 H       -7.3220    -9.6660    -2.0110 H     1 <1>   0.0800 
 47 H       -6.7030    -8.4250    -3.0730 H     1 <1>   0.0800 
 48 H       -8.4380    -7.6250     1.4410 H     1 <1>   0.0800 
 49 H       -8.2850    -9.1650     0.6380 H     1 <1>   0.0800 
 50 H       -8.8530    -7.5140    -2.6820 H     1 <1>   0.3700 
@<TRIPOS>BOND
  1   1   2  1   
  2   2   3  ar  
  3   2   4  ar  
  4   3   5  ar  
  5   3  27  1   
  6   4   6  ar  
  7   4  28  1   
  8   5   7  ar  
  9   5  29  1   
 10   6   7  ar  
 11   6  30  1   
 12   7   8  1   
 13   8   9  2   
 14   8  10  am  
 15  10  11  1   
 16  10  31  1   
 17  11  12  1   
 18  11  32  1   
 19  11  33  1   
 20  12  13  1   
 21  12  34  1   
 22  12  35  1   
 23  13  14  2   
 24  13  15  am  
 25  15  16  1   
 26  15  17  1   
 27  16  18  1   
 28  16  19  1   
 29  16  36  1   
 30  17  37  1   
 31  17  38  1   
 32  17  39  1   
 33  18  20  1   
 34  18  40  1   
 35  18  41  1   
 36  19  21  1   
 37  19  42  1   
 38  19  43  1   
 39  20  21  1   
 40  20  22  1   
 41  20  44  1   
 42  21  23  1   
 43  21  45  1   
 44  22  24  1   
 45  22  46  1   
 46  22  47  1   
 47  23  25  1   
 48  23  48  1   
 49  23  49  1   
 50  24  25  am  
 51  24  50  1   
 52  25  26  2   
@<TRIPOS>SUBSTRUCTURE
  1 ****   9 GROUP 4 **** **** 0

# MOE 2024.06 (io_trps.svl 2023.06)
