@<TRIPOS>MOLECULE
NONAME
58 61 1 0 0 
SMALL
USER_CHARGES


@<TRIPOS>ATOM
  1 O        0.0370    -0.7150     1.5570 O.2   1 <1>  -0.5700 
  2 C        0.7130    -0.8760     0.5530 C.2   1 <1>   0.5440 
  3 N        0.4280    -1.9490    -0.2500 N.am  1 <1>  -0.7300 
  4 C        1.7960     0.0320     0.1990 C.ar  1 <1>   0.3960 
  5 C       -0.7270    -2.8490    -0.1010 C.3   1 <1>   0.2200 
  6 N        3.0420    -0.4670     0.3290 N.ar  1 <1>  -0.6200 
  7 C        1.5700     1.3350    -0.3080 C.ar  1 <1>   0.0830 
  8 C       -0.2660    -4.2250     0.3720 C.3   1 <1>  -0.1600 
  9 C       -1.4590    -2.9580    -1.4450 C.3   1 <1>  -0.1600 
 10 C        4.0510     0.3100    -0.0060 C.ar  1 <1>   0.1600 
 11 O        0.3730     1.9410    -0.5340 O.3   1 <1>  -0.3630 
 12 C        2.6550     2.1160    -0.6590 C.ar  1 <1>  -0.1500 
 13 C       -1.4870    -5.1200     0.6570 C.3   1 <1>   0.2200 
 14 C       -2.2630    -4.2620    -1.5740 C.3   1 <1>   0.1400 
 15 C        3.9150     1.5940    -0.4990 C.ar  1 <1>  -0.1500 
 16 C       -0.8120     1.6620     0.1740 C.3   1 <1>   0.1200 
 17 N       -2.6420    -4.7700    -0.2250 N.am  1 <1>  -0.6600 
 18 C       -1.1520    -6.6010     0.4870 C.3   1 <1>  -0.2400 
 19 C       -1.8190     2.7810    -0.0880 C.3   1 <1>  -0.1600 
 20 C       -3.9210    -4.8130     0.2780 C.2   1 <1>   0.5690 
 21 C       -3.0520     2.6680     0.8240 C.3   1 <1>   0.0960 
 22 O       -4.1560    -5.2800     1.3680 O.2   1 <1>  -0.5700 
 23 C       -5.1120    -4.2450    -0.4850 C.3   1 <1>  -0.0990 
 24 N       -3.8460     1.4490     0.5610 N.pl3 1 <1>   0.3140 
 25 C       -5.1120    -2.7070    -0.6010 C.3   1 <1>  -0.1600 
 26 N       -4.9640     1.4670    -0.1700 N.2   1 <1>  -0.4180 
 27 C       -3.6380     0.2130     1.0210 C.2   1 <1>  -0.3020 
 28 C       -4.9380    -1.9870     0.7470 C.3   1 <1>   0.0210 
 29 N       -5.4640     0.2800    -0.1820 N.2   1 <1>  -0.2270 
 30 C       -4.6630    -0.5080     0.5440 C.2   1 <1>   0.0460 
 31 H        1.1160    -2.2140    -0.9560 H     1 <1>   0.3700 
 32 H       -1.4070    -2.4470     0.6330 H     1 <1>   0.0800 
 33 H        0.3100    -4.1280     1.2750 H     1 <1>   0.0800 
 34 H        0.3580    -4.6750    -0.3780 H     1 <1>   0.0800 
 35 H       -2.1130    -2.1120    -1.5440 H     1 <1>   0.0800 
 36 H       -0.7580    -2.9210    -2.2580 H     1 <1>   0.0800 
 37 H        5.0430    -0.0930     0.1150 H     1 <1>   0.1500 
 38 H        2.5060     3.1080    -1.0480 H     1 <1>   0.1500 
 39 H       -1.7790    -4.9520     1.6820 H     1 <1>   0.0800 
 40 H       -1.6510    -5.0090    -2.0500 H     1 <1>   0.0800 
 41 H       -3.1230    -4.1110    -2.2010 H     1 <1>   0.0800 
 42 H        4.7870     2.1700    -0.7550 H     1 <1>   0.1500 
 43 H       -1.2010     0.7190    -0.1690 H     1 <1>   0.0800 
 44 H       -0.5720     1.6190     1.2230 H     1 <1>   0.0800 
 45 H       -0.8690    -6.8170    -0.5260 H     1 <1>   0.0800 
 46 H       -2.0080    -7.1970     0.7510 H     1 <1>   0.0800 
 47 H       -0.3420    -6.8700     1.1390 H     1 <1>   0.0800 
 48 H       -1.3420     3.7260     0.1050 H     1 <1>   0.0800 
 49 H       -2.1310     2.7610    -1.1180 H     1 <1>   0.0800 
 50 H       -3.6910     3.5170     0.6670 H     1 <1>   0.0800 
 51 H       -2.7520     2.6610     1.8570 H     1 <1>   0.0800 
 52 H       -5.1520    -4.6910    -1.4610 H     1 <1>   0.0800 
 53 H       -6.0070    -4.5460     0.0300 H     1 <1>   0.0800 
 54 H       -4.3280    -2.3940    -1.2620 H     1 <1>   0.0800 
 55 H       -6.0390    -2.3890    -1.0470 H     1 <1>   0.0800 
 56 H       -2.8050    -0.0730     1.6380 H     1 <1>   0.1500 
 57 H       -4.1140    -2.4030     1.2990 H     1 <1>   0.0800 
 58 H       -5.8280    -2.1040     1.3400 H     1 <1>   0.0800 
@<TRIPOS>BOND
  1   1   2  2   
  2   2   3  am  
  3   2   4  1   
  4   3   5  1   
  5   3  31  1   
  6   4   6  ar  
  7   4   7  ar  
  8   5   8  1   
  9   5   9  1   
 10   5  32  1   
 11   6  10  ar  
 12   7  11  1   
 13   7  12  ar  
 14   8  13  1   
 15   8  33  1   
 16   8  34  1   
 17   9  14  1   
 18   9  35  1   
 19   9  36  1   
 20  10  15  ar  
 21  10  37  1   
 22  11  16  1   
 23  12  15  ar  
 24  12  38  1   
 25  13  17  1   
 26  13  18  1   
 27  13  39  1   
 28  14  17  1   
 29  14  40  1   
 30  14  41  1   
 31  15  42  1   
 32  16  19  1   
 33  16  43  1   
 34  16  44  1   
 35  17  20  am  
 36  18  45  1   
 37  18  46  1   
 38  18  47  1   
 39  19  21  1   
 40  19  48  1   
 41  19  49  1   
 42  20  22  2   
 43  20  23  1   
 44  21  24  1   
 45  21  50  1   
 46  21  51  1   
 47  23  25  1   
 48  23  52  1   
 49  23  53  1   
 50  24  26  1   
 51  24  27  1   
 52  25  28  1   
 53  25  54  1   
 54  25  55  1   
 55  26  29  2   
 56  27  30  2   
 57  27  56  1   
 58  28  30  1   
 59  28  57  1   
 60  28  58  1   
 61  29  30  1   
@<TRIPOS>SUBSTRUCTURE
  1 ****   5 GROUP 4 **** **** 0

# MOE 2024.06 (io_trps.svl 2023.06)
