@<TRIPOS>MOLECULE
NONAME
47 49 1 0 0 
SMALL
USER_CHARGES


@<TRIPOS>ATOM
  1 O        0.7340     0.1650     1.9740 O.3   1 <1>  -0.5600 
  2 C        1.1680     0.6250     0.7330 C.3   1 <1>   0.2000 
  3 C        0.4640    -1.2130     2.0970 C.3   1 <1>   0.2640 
  4 C        2.5770     0.1050     0.4270 C.3   1 <1>  -0.1600 
  5 C        1.1630     2.1490     0.8080 C.3   1 <1>  -0.1600 
  6 C       -0.5260    -1.7150     1.0470 C.ar  1 <1>   0.1660 
  7 C        3.1050     0.7240    -0.8610 C.3   1 <1>   0.3430 
  8 C        1.7010     2.7560    -0.4830 C.3   1 <1>   0.3430 
  9 N       -0.0180    -2.2900    -0.0390 N.ar  1 <1>  -0.6200 
 10 C       -1.8850    -1.5470     1.2700 C.ar  1 <1>  -0.1500 
 11 N        3.0530     2.2060    -0.7690 N.4   1 <1>  -0.9590 
 12 C       -0.9040    -2.7290    -0.9210 C.ar  1 <1>   0.1600 
 13 C       -2.7920    -2.0010     0.3370 C.ar  1 <1>  -0.1500 
 14 C        3.6930     2.8950    -1.9220 C.3   1 <1>   0.5240 
 15 C       -2.2760    -2.6110    -0.7850 C.ar  1 <1>  -0.1500 
 16 C        4.2920     4.1950    -1.3980 C.2   1 <1>   0.1080 
 17 N        4.6010     4.3650    -0.1430 N.2   1 <1>  -0.7070 
 18 C        4.5720     5.3210    -2.1630 C.2   1 <1>  -0.1500 
 19 N        5.1020     5.6170    -0.0750 N.pl3 1 <1>   0.3140 
 20 C        5.0870     6.2080    -1.2860 C.2   1 <1>  -0.3020 
 21 C        5.5930     6.2120     1.1860 C.3   1 <1>   0.0960 
 22 C        7.1170     6.0790     1.3030 C.3   1 <1>  -0.2400 
 23 H        0.4710     0.3120    -0.0260 H     1 <1>   0.0800 
 24 H        0.0560    -1.3680     3.0790 H     1 <1>   0.0800 
 25 H        1.3870    -1.7600     2.0350 H     1 <1>   0.0800 
 26 H        2.5550    -0.9620     0.2940 H     1 <1>   0.0800 
 27 H        3.2430     0.3360     1.2400 H     1 <1>   0.0800 
 28 H        1.7640     2.4820     1.6360 H     1 <1>   0.0800 
 29 H        0.1560     2.4930     0.9640 H     1 <1>   0.0800 
 30 H        2.5030     0.3880    -1.6900 H     1 <1>   0.0800 
 31 H        4.1210     0.3980    -1.0230 H     1 <1>   0.0800 
 32 H        1.7560     3.8280    -0.3770 H     1 <1>   0.0800 
 33 H        1.0310     2.5240    -1.2950 H     1 <1>   0.0800 
 34 H       -2.2300    -1.0640     2.1660 H     1 <1>   0.1500 
 35 H        3.6550     2.5310     0.0150 H     1 <1>   0.4500 
 36 H       -0.5170    -3.2130    -1.8010 H     1 <1>   0.1500 
 37 H       -3.8540    -1.8870     0.4800 H     1 <1>   0.1500 
 38 H        2.9760     3.0920    -2.7010 H     1 <1>   0.0800 
 39 H        4.4900     2.2900    -2.3200 H     1 <1>   0.0800 
 40 H       -2.9300    -2.9930    -1.5480 H     1 <1>   0.1500 
 41 H        4.4150     5.4500    -3.2210 H     1 <1>   0.1500 
 42 H        5.4420     7.2090    -1.4540 H     1 <1>   0.1500 
 43 H        5.1180     5.7060     2.0070 H     1 <1>   0.0800 
 44 H        5.3080     7.2470     1.2110 H     1 <1>   0.0800 
 45 H        7.4020     5.0420     1.2860 H     1 <1>   0.0800 
 46 H        7.4500     6.5090     2.2310 H     1 <1>   0.0800 
 47 H        7.6030     6.5960     0.4940 H     1 <1>   0.0800 
@<TRIPOS>BOND
  1   1   2  1   
  2   1   3  1   
  3   2   4  1   
  4   2   5  1   
  5   2  23  1   
  6   3   6  1   
  7   3  24  1   
  8   3  25  1   
  9   4   7  1   
 10   4  26  1   
 11   4  27  1   
 12   5   8  1   
 13   5  28  1   
 14   5  29  1   
 15   6   9  ar  
 16   6  10  ar  
 17   7  11  1   
 18   7  30  1   
 19   7  31  1   
 20   8  11  1   
 21   8  32  1   
 22   8  33  1   
 23   9  12  ar  
 24  10  13  ar  
 25  10  34  1   
 26  11  14  1   
 27  11  35  1   
 28  12  15  ar  
 29  12  36  1   
 30  13  15  ar  
 31  13  37  1   
 32  14  16  1   
 33  14  38  1   
 34  14  39  1   
 35  15  40  1   
 36  16  17  2   
 37  16  18  1   
 38  17  19  1   
 39  18  20  2   
 40  18  41  1   
 41  19  20  1   
 42  19  21  1   
 43  20  42  1   
 44  21  22  1   
 45  21  43  1   
 46  21  44  1   
 47  22  45  1   
 48  22  46  1   
 49  22  47  1   
@<TRIPOS>SUBSTRUCTURE
  1 ****   8 GROUP 4 **** **** 0

# MOE 2024.06 (io_trps.svl 2023.06)
