@<TRIPOS>MOLECULE
NONAME
57 60 1 0 0 
SMALL
USER_CHARGES


@<TRIPOS>ATOM
  1 O       -1.2150    -0.1290    -0.3540 O.3   1 <1>  -0.5600 
  2 C       -2.4660     0.0980     0.2060 C.3   1 <1>   0.1200 
  3 C       -0.1650    -0.0640     0.5570 C.3   1 <1>   0.0400 
  4 C       -3.4940     0.0510    -0.9200 C.3   1 <1>   0.0960 
  5 N       -4.8560     0.1310    -0.3580 N.pl3 1 <1>   0.0480 
  6 C       -5.6260    -0.8550     0.1510 C.2   1 <1>  -0.3320 
  7 C       -5.5950     1.2540    -0.2100 C.2   1 <1>   0.0360 
  8 C       -6.7610    -0.2600     0.5840 C.2   1 <1>   0.0770 
  9 C       -5.2400    -2.3220     0.2070 C.3   1 <1>   0.2900 
 10 N       -6.7450     1.0610     0.3470 N.2   1 <1>  -0.5650 
 11 N       -6.4600    -3.1440     0.2040 N.3   1 <1>  -0.8100 
 12 C       -7.1670    -3.0890    -1.1040 C.3   1 <1>   0.1100 
 13 C       -6.1990    -4.5500     0.5860 C.3   1 <1>   0.1100 
 14 C       -8.5020    -3.8700    -1.0710 C.3   1 <1>   0.3430 
 15 C       -7.4970    -5.3990     0.5910 C.3   1 <1>   0.3430 
 16 N       -8.6910    -4.5520     0.2570 N.4   1 <1>  -0.9590 
 17 C      -10.0030    -5.2260     0.4830 C.3   1 <1>   0.4230 
 18 C      -10.2760    -6.3540    -0.5220 C.3   1 <1>  -0.0170 
 19 C      -11.1320    -4.1960     0.4460 C.3   1 <1>  -0.1600 
 20 C      -11.6780    -6.9180    -0.3550 C.ar  1 <1>  -0.1430 
 21 C      -12.4330    -4.8420     0.9340 C.3   1 <1>  -0.0170 
 22 C      -12.6770    -6.2100     0.3080 C.ar  1 <1>  -0.1430 
 23 C      -11.9620    -8.1640    -0.8940 C.ar  1 <1>  -0.1500 
 24 C      -13.9420    -6.7650     0.4240 C.ar  1 <1>  -0.1500 
 25 C      -13.2270    -8.7090    -0.7730 C.ar  1 <1>  -0.1500 
 26 C      -14.2180    -8.0080    -0.1140 C.ar  1 <1>  -0.1500 
 27 H       -2.4660     1.0670     0.6780 H     1 <1>   0.0800 
 28 H       -2.6580    -0.6720     0.9330 H     1 <1>   0.0800 
 29 H        0.7510    -0.2570     0.0270 H     1 <1>   0.0800 
 30 H       -0.3050    -0.8110     1.3190 H     1 <1>   0.0800 
 31 H       -0.1300     0.9200     0.9920 H     1 <1>   0.0800 
 32 H       -3.3930    -0.8640    -1.4730 H     1 <1>   0.0800 
 33 H       -3.3400     0.8810    -1.5860 H     1 <1>   0.0800 
 34 H       -5.2390     2.2180    -0.5310 H     1 <1>   0.1500 
 35 H       -7.6050    -0.7270     1.0630 H     1 <1>   0.1500 
 36 H       -4.6800    -2.4960     1.1110 H     1 <1>   0.0800 
 37 H       -4.6220    -2.5860    -0.6350 H     1 <1>   0.0800 
 38 H       -6.5370    -3.4930    -1.8780 H     1 <1>   0.0800 
 39 H       -7.3790    -2.0660    -1.3680 H     1 <1>   0.0800 
 40 H       -5.7660    -4.5760     1.5720 H     1 <1>   0.0800 
 41 H       -5.4890    -4.9930    -0.0920 H     1 <1>   0.0800 
 42 H       -8.5100    -4.5920    -1.8690 H     1 <1>   0.0800 
 43 H       -9.3080    -3.1770    -1.2460 H     1 <1>   0.0800 
 44 H       -7.6200    -5.8410     1.5670 H     1 <1>   0.0800 
 45 H       -7.4010    -6.2000    -0.1230 H     1 <1>   0.0800 
 46 H       -8.6040    -3.7690     0.9240 H     1 <1>   0.4500 
 47 H       -9.9980    -5.6610     1.4700 H     1 <1>   0.0800 
 48 H       -9.5640    -7.1460    -0.3770 H     1 <1>   0.0800 
 49 H      -10.1930    -5.9910    -1.5300 H     1 <1>   0.0800 
 50 H      -11.2850    -3.8460    -0.5600 H     1 <1>   0.0800 
 51 H      -10.9040    -3.3560     1.0780 H     1 <1>   0.0800 
 52 H      -13.2600    -4.1900     0.7090 H     1 <1>   0.0800 
 53 H      -12.3950    -4.9630     2.0030 H     1 <1>   0.0800 
 54 H      -11.2040    -8.7230    -1.4140 H     1 <1>   0.1500 
 55 H      -14.7240    -6.2320     0.9360 H     1 <1>   0.1500 
 56 H      -13.4420    -9.6770    -1.1930 H     1 <1>   0.1500 
 57 H      -15.2040    -8.4300    -0.0190 H     1 <1>   0.1500 
@<TRIPOS>BOND
  1   1   2  1   
  2   1   3  1   
  3   2   4  1   
  4   2  27  1   
  5   2  28  1   
  6   3  29  1   
  7   3  30  1   
  8   3  31  1   
  9   4   5  1   
 10   4  32  1   
 11   4  33  1   
 12   5   6  1   
 13   5   7  1   
 14   6   8  2   
 15   6   9  1   
 16   7  10  2   
 17   7  34  1   
 18   8  10  1   
 19   8  35  1   
 20   9  11  1   
 21   9  36  1   
 22   9  37  1   
 23  11  12  1   
 24  11  13  1   
 25  12  14  1   
 26  12  38  1   
 27  12  39  1   
 28  13  15  1   
 29  13  40  1   
 30  13  41  1   
 31  14  16  1   
 32  14  42  1   
 33  14  43  1   
 34  15  16  1   
 35  15  44  1   
 36  15  45  1   
 37  16  17  1   
 38  16  46  1   
 39  17  18  1   
 40  17  19  1   
 41  17  47  1   
 42  18  20  1   
 43  18  48  1   
 44  18  49  1   
 45  19  21  1   
 46  19  50  1   
 47  19  51  1   
 48  20  22  ar  
 49  20  23  ar  
 50  21  22  1   
 51  21  52  1   
 52  21  53  1   
 53  22  24  ar  
 54  23  25  ar  
 55  23  54  1   
 56  24  26  ar  
 57  24  55  1   
 58  25  26  ar  
 59  25  56  1   
 60  26  57  1   
@<TRIPOS>SUBSTRUCTURE
  1 ****  14 GROUP 4 **** **** 0

# MOE 2024.06 (io_trps.svl 2023.06)
