@<TRIPOS>MOLECULE
NONAME
52 54 1 0 0 
SMALL
USER_CHARGES


@<TRIPOS>ATOM
  1 CL      -0.3050     0.3330    -0.9590 Cl    1 <1>  -0.1230 
  2 C       -1.6140     1.3490    -0.3770 C.2   1 <1>   0.1230 
  3 C       -2.9730     1.0170    -0.3330 C.2   1 <1>   0.2030 
  4 C       -1.4780     2.5860     0.1270 C.2   1 <1>  -0.3020 
  5 N       -3.6420     2.0350     0.1970 N.2   1 <1>  -0.7070 
  6 C       -3.5020    -0.2510    -0.8190 C.2   1 <1>   0.7160 
  7 N       -2.7200     2.9790     0.4630 N.pl3 1 <1>   0.3000 
  8 O       -3.0950    -0.7010    -1.8790 O.2   1 <1>  -0.5700 
  9 N       -4.4550    -0.9940    -0.1390 N.am  1 <1>  -0.6600 
 10 C       -4.8830    -2.3460    -0.6170 C.3   1 <1>   0.1400 
 11 C       -5.1610    -0.5340     1.0890 C.3   1 <1>   0.1400 
 12 C       -6.2170    -2.3050    -1.3790 C.3   1 <1>   0.1400 
 13 C       -6.4320     0.2620     0.7590 C.3   1 <1>  -0.1600 
 14 N       -7.3110    -1.6490    -0.5880 N.am  1 <1>  -0.6600 
 15 C       -7.1750    -0.1680    -0.5110 C.3   1 <1>   0.1400 
 16 C       -8.3670    -2.2770     0.0300 C.2   1 <1>   0.5690 
 17 O       -9.1380    -1.6520     0.7240 O.2   1 <1>  -0.5700 
 18 C       -8.6060    -3.7820    -0.1190 C.3   1 <1>  -0.0190 
 19 C      -10.0940    -4.1280     0.0530 C.3   1 <1>   0.1100 
 20 C       -7.7590    -4.5900     0.8840 C.3   1 <1>  -0.1600 
 21 N      -10.3110    -5.5750    -0.1300 N.3   1 <1>  -0.8100 
 22 C       -8.0840    -6.0870     0.7790 C.3   1 <1>  -0.1600 
 23 C       -9.5900    -6.3410     0.9010 C.3   1 <1>   0.1100 
 24 C      -11.7730    -5.8880    -0.0890 C.3   1 <1>   0.1710 
 25 C      -12.1400    -7.2810    -0.6170 C.2   1 <1>   0.5690 
 26 O      -13.1420    -7.8320    -0.2370 O.2   1 <1>  -0.5700 
 27 N      -11.3290    -7.8760    -1.5120 N.am  1 <1>  -0.8000 
 28 H       -0.5970     3.1850     0.2610 H     1 <1>   0.1500 
 29 H       -2.9680     3.8880     0.8770 H     1 <1>   0.2700 
 30 H       -4.9710    -3.0080     0.2250 H     1 <1>   0.0800 
 31 H       -4.1300    -2.7640    -1.2630 H     1 <1>   0.0800 
 32 H       -4.5040     0.0640     1.6980 H     1 <1>   0.0800 
 33 H       -5.4380    -1.3940     1.6750 H     1 <1>   0.0800 
 34 H       -6.4830    -3.3080    -1.6490 H     1 <1>   0.0800 
 35 H       -6.0710    -1.7630    -2.2980 H     1 <1>   0.0800 
 36 H       -6.1790     1.3010     0.6610 H     1 <1>   0.0800 
 37 H       -7.1060     0.1900     1.5940 H     1 <1>   0.0800 
 38 H       -6.6400     0.1920    -1.3740 H     1 <1>   0.0800 
 39 H       -8.1510     0.2880    -0.5250 H     1 <1>   0.0800 
 40 H       -8.3530    -4.0710    -1.1200 H     1 <1>   0.0800 
 41 H      -10.6630    -3.5800    -0.6810 H     1 <1>   0.0800 
 42 H      -10.4310    -3.8270     1.0320 H     1 <1>   0.0800 
 43 H       -7.9770    -4.2480     1.8810 H     1 <1>   0.0800 
 44 H       -6.7120    -4.4350     0.7000 H     1 <1>   0.0800 
 45 H       -7.5700    -6.6240     1.5560 H     1 <1>   0.0800 
 46 H       -7.7450    -6.4700    -0.1670 H     1 <1>   0.0800 
 47 H       -9.7790    -7.3940     0.7780 H     1 <1>   0.0800 
 48 H       -9.9310    -6.0490     1.8810 H     1 <1>   0.0800 
 49 H      -12.3030    -5.1780    -0.6990 H     1 <1>   0.0800 
 50 H      -12.1400    -5.7920     0.9180 H     1 <1>   0.0800 
 51 H      -11.5330    -8.8050    -1.8770 H     1 <1>   0.3700 
 52 H      -10.4510    -7.4240    -1.7760 H     1 <1>   0.3700 
@<TRIPOS>BOND
  1   1   2  1   
  2   2   3  1   
  3   2   4  2   
  4   3   5  2   
  5   3   6  1   
  6   4   7  1   
  7   4  28  1   
  8   5   7  1   
  9   6   8  2   
 10   6   9  am  
 11   7  29  1   
 12   9  10  1   
 13   9  11  1   
 14  10  12  1   
 15  10  30  1   
 16  10  31  1   
 17  11  13  1   
 18  11  32  1   
 19  11  33  1   
 20  12  14  1   
 21  12  34  1   
 22  12  35  1   
 23  13  15  1   
 24  13  36  1   
 25  13  37  1   
 26  14  15  1   
 27  14  16  am  
 28  15  38  1   
 29  15  39  1   
 30  16  17  2   
 31  16  18  1   
 32  18  19  1   
 33  18  20  1   
 34  18  40  1   
 35  19  21  1   
 36  19  41  1   
 37  19  42  1   
 38  20  22  1   
 39  20  43  1   
 40  20  44  1   
 41  21  23  1   
 42  21  24  1   
 43  22  23  1   
 44  22  45  1   
 45  22  46  1   
 46  23  47  1   
 47  23  48  1   
 48  24  25  1   
 49  24  49  1   
 50  24  50  1   
 51  25  26  2   
 52  25  27  am  
 53  27  51  1   
 54  27  52  1   
@<TRIPOS>SUBSTRUCTURE
  1 ****  14 GROUP 4 **** **** 0

# MOE 2024.06 (io_trps.svl 2023.06)
