@<TRIPOS>MOLECULE
NONAME
44 47 1 0 0 
SMALL
USER_CHARGES


@<TRIPOS>ATOM
  1 O        0.7520    -0.3950     1.8390 O.3   1 <1>  -0.0190 
  2 N        0.9970     0.8330     1.4930 N.2   1 <1>  -0.4100 
  3 C        1.1200    -1.0970     0.7960 C.2   1 <1>   0.2980 
  4 C        1.4740     0.7990     0.3150 C.2   1 <1>   0.3350 
  5 N        1.5780    -0.4220    -0.1850 N.2   1 <1>  -0.5650 
  6 C        0.9770    -2.6150     0.8470 C.3   1 <1>   0.2900 
  7 C        1.9000     2.0050    -0.4860 C.3   1 <1>  -0.0590 
  8 N       -0.4330    -3.0650     0.8920 N.3   1 <1>  -0.8100 
  9 C       -1.2080    -2.6230    -0.2740 C.3   1 <1>   0.1100 
 10 C       -0.5580    -4.5310     0.9300 C.3   1 <1>   0.1100 
 11 C       -2.4180    -3.5480    -0.2810 C.3   1 <1>   0.2000 
 12 C       -1.8290    -4.8940     0.1370 C.3   1 <1>  -0.0800 
 13 O       -3.2680    -3.1290     0.7230 O.3   1 <1>  -0.6800 
 14 C       -1.5170    -5.7660    -1.0930 C.3   1 <1>  -0.0170 
 15 C       -0.9180    -7.1070    -0.7020 C.ar  1 <1>   0.1670 
 16 N        0.3660    -7.2530    -0.8290 N.ar  1 <1>  -0.6200 
 17 C       -1.7710    -8.1130    -0.2220 C.ar  1 <1>  -0.1500 
 18 C        0.9040    -8.4490    -0.4760 C.ar  1 <1>   0.3100 
 19 C       -1.2580    -9.3210     0.1430 C.ar  1 <1>  -0.1500 
 20 C        0.1270    -9.5180     0.0210 C.ar  1 <1>   0.0000 
 21 C        2.2900    -8.6340    -0.6050 C.ar  1 <1>  -0.1500 
 22 C        0.7660   -10.7250     0.3710 C.ar  1 <1>  -0.1500 
 23 C        2.8920    -9.8150    -0.2610 C.ar  1 <1>  -0.1500 
 24 C        2.1200   -10.8720     0.2330 C.ar  1 <1>  -0.1500 
 25 H        1.4890    -2.9740     1.7220 H     1 <1>   0.0800 
 26 H        1.4620    -3.0330    -0.0190 H     1 <1>   0.0800 
 27 H        1.3240     2.0570    -1.3910 H     1 <1>   0.0800 
 28 H        2.9410     1.9240    -0.7330 H     1 <1>   0.0800 
 29 H        1.7410     2.9010     0.0860 H     1 <1>   0.0800 
 30 H       -1.4950    -1.5870    -0.1930 H     1 <1>   0.0800 
 31 H       -0.6380    -2.7670    -1.1760 H     1 <1>   0.0800 
 32 H        0.3100    -4.9940     0.4910 H     1 <1>   0.0800 
 33 H       -0.6400    -4.8600     1.9520 H     1 <1>   0.0800 
 34 H       -2.9580    -3.5600    -1.2120 H     1 <1>   0.0800 
 35 H       -2.5200    -5.4290     0.7660 H     1 <1>   0.0800 
 36 H       -2.6980    -2.9060     1.4910 H     1 <1>   0.4000 
 37 H       -0.8320    -5.2510    -1.7440 H     1 <1>   0.0800 
 38 H       -2.4200    -5.9410    -1.6490 H     1 <1>   0.0800 
 39 H       -2.8250    -7.9160    -0.1460 H     1 <1>   0.1500 
 40 H       -1.8800   -10.1150     0.5150 H     1 <1>   0.1500 
 41 H        2.8650    -7.8120    -0.9880 H     1 <1>   0.1500 
 42 H        0.1670   -11.5330     0.7490 H     1 <1>   0.1500 
 43 H        3.9560    -9.9440    -0.3650 H     1 <1>   0.1500 
 44 H        2.6060   -11.7950     0.5010 H     1 <1>   0.1500 
@<TRIPOS>BOND
  1   1   2  1   
  2   1   3  1   
  3   2   4  2   
  4   3   5  2   
  5   3   6  1   
  6   4   5  1   
  7   4   7  1   
  8   6   8  1   
  9   6  25  1   
 10   6  26  1   
 11   7  27  1   
 12   7  28  1   
 13   7  29  1   
 14   8   9  1   
 15   8  10  1   
 16   9  11  1   
 17   9  30  1   
 18   9  31  1   
 19  10  12  1   
 20  10  32  1   
 21  10  33  1   
 22  11  12  1   
 23  11  13  1   
 24  11  34  1   
 25  12  14  1   
 26  12  35  1   
 27  13  36  1   
 28  14  15  1   
 29  14  37  1   
 30  14  38  1   
 31  15  16  ar  
 32  15  17  ar  
 33  16  18  ar  
 34  17  19  ar  
 35  17  39  1   
 36  18  20  ar  
 37  18  21  ar  
 38  19  20  ar  
 39  19  40  1   
 40  20  22  ar  
 41  21  23  ar  
 42  21  41  1   
 43  22  24  ar  
 44  22  42  1   
 45  23  24  ar  
 46  23  43  1   
 47  24  44  1   
@<TRIPOS>SUBSTRUCTURE
  1 ****  10 GROUP 4 **** **** 0

# MOE 2024.06 (io_trps.svl 2023.06)
