@<TRIPOS>MOLECULE
NONAME
54 56 1 0 0 
SMALL
USER_CHARGES


@<TRIPOS>ATOM
  1 F       -1.4110    -1.2440     0.9940 F     1 <1>  -0.1900 
  2 C       -2.5010    -0.5920     0.6790 C.ar  1 <1>   0.1900 
  3 C       -2.9150     0.5460     1.3810 C.ar  1 <1>   0.0830 
  4 C       -3.2260    -1.0880    -0.3870 C.ar  1 <1>  -0.1500 
  5 O       -2.2890     1.1300     2.4430 O.3   1 <1>  -0.3630 
  6 C       -4.0840     1.1650     0.9700 C.ar  1 <1>  -0.1500 
  7 C       -4.3900    -0.4460    -0.7710 C.ar  1 <1>  -0.1500 
  8 C       -1.0810     0.6440     2.9870 C.3   1 <1>   0.0400 
  9 C       -4.8460     0.6890    -0.0990 C.ar  1 <1>   0.0530 
 10 C       -6.0540     1.3680    -0.4930 C.2   1 <1>   0.0870 
 11 O       -6.0610     2.6740    -0.5720 O.3   1 <1>  -0.0190 
 12 C       -7.3020     0.9410    -0.8350 C.2   1 <1>  -0.0860 
 13 N       -7.2120     3.1580    -0.9520 N.2   1 <1>  -0.4100 
 14 C       -7.9770     2.1370    -1.1180 C.2   1 <1>   0.3720 
 15 C       -7.8570    -0.3780    -0.8860 C.2   1 <1>   0.7160 
 16 N       -9.3170     2.2510    -1.5180 N.pl3 1 <1>  -0.8210 
 17 O       -7.2460    -1.3450    -0.4700 O.2   1 <1>  -0.5700 
 18 N       -9.1060    -0.5810    -1.3890 N.am  1 <1>  -0.7300 
 19 C       -9.4870     3.0240    -2.7810 C.3   1 <1>   0.1290 
 20 C      -10.1870     2.7930    -0.4370 C.3   1 <1>   0.1290 
 21 C       -9.8210    -1.8730    -1.4500 C.3   1 <1>   0.1400 
 22 C      -10.5070    -2.1400    -0.1130 C.3   1 <1>  -0.0990 
 23 C      -10.8590    -3.6070    -0.0050 C.2   1 <1>   0.5690 
 24 O      -11.9830    -3.9390    -0.2980 O.2   1 <1>  -0.5700 
 25 N       -9.9170    -4.5140     0.3960 N.am  1 <1>  -0.6600 
 26 C       -8.4990    -4.2300     0.7320 C.3   1 <1>   0.1400 
 27 C      -10.2040    -5.9600     0.4870 C.3   1 <1>   0.1400 
 28 C       -7.9550    -5.5500     1.2650 C.3   1 <1>  -0.1600 
 29 C       -8.8370    -6.6200     0.6250 C.3   1 <1>  -0.1600 
 30 H       -2.8840    -1.9640    -0.9080 H     1 <1>   0.1500 
 31 H       -4.4130     2.0420     1.4980 H     1 <1>   0.1500 
 32 H       -4.9550    -0.8300    -1.6010 H     1 <1>   0.1500 
 33 H       -0.8010     1.2830     3.8040 H     1 <1>   0.0800 
 34 H       -0.3190     0.6690     2.2280 H     1 <1>   0.0800 
 35 H       -1.2360    -0.3580     3.3450 H     1 <1>   0.0800 
 36 H       -9.6200     0.2780    -1.6410 H     1 <1>   0.3700 
 37 H       -8.8010     2.6600    -3.5270 H     1 <1>   0.0800 
 38 H       -9.2860     4.0680    -2.6090 H     1 <1>   0.0800 
 39 H      -10.4920     2.9110    -3.1500 H     1 <1>   0.0800 
 40 H      -10.0520     2.2180     0.4630 H     1 <1>   0.0800 
 41 H      -11.2200     2.7380    -0.7320 H     1 <1>   0.0800 
 42 H       -9.9300     3.8190    -0.2340 H     1 <1>   0.0800 
 43 H       -9.1100    -2.6540    -1.6630 H     1 <1>   0.0800 
 44 H      -10.5470    -1.8570    -2.2460 H     1 <1>   0.0800 
 45 H      -11.4060    -1.5570    -0.0460 H     1 <1>   0.0800 
 46 H       -9.8670    -1.8700     0.7040 H     1 <1>   0.0800 
 47 H       -8.4160    -3.4490     1.4690 H     1 <1>   0.0800 
 48 H       -7.9690    -3.9430    -0.1600 H     1 <1>   0.0800 
 49 H      -10.7290    -6.3040    -0.3880 H     1 <1>   0.0800 
 50 H      -10.8040    -6.1420     1.3620 H     1 <1>   0.0800 
 51 H       -8.0750    -5.5700     2.3350 H     1 <1>   0.0800 
 52 H       -6.9140    -5.6770     1.0270 H     1 <1>   0.0800 
 53 H       -8.4660    -6.8610    -0.3560 H     1 <1>   0.0800 
 54 H       -8.8850    -7.5190     1.2130 H     1 <1>   0.0800 
@<TRIPOS>BOND
  1   1   2  1   
  2   2   3  ar  
  3   2   4  ar  
  4   3   5  1   
  5   3   6  ar  
  6   4   7  ar  
  7   4  30  1   
  8   5   8  1   
  9   6   9  ar  
 10   6  31  1   
 11   7   9  ar  
 12   7  32  1   
 13   8  33  1   
 14   8  34  1   
 15   8  35  1   
 16   9  10  1   
 17  10  11  1   
 18  10  12  2   
 19  11  13  1   
 20  12  14  1   
 21  12  15  1   
 22  13  14  2   
 23  14  16  1   
 24  15  17  2   
 25  15  18  am  
 26  16  19  1   
 27  16  20  1   
 28  18  21  1   
 29  18  36  1   
 30  19  37  1   
 31  19  38  1   
 32  19  39  1   
 33  20  40  1   
 34  20  41  1   
 35  20  42  1   
 36  21  22  1   
 37  21  43  1   
 38  21  44  1   
 39  22  23  1   
 40  22  45  1   
 41  22  46  1   
 42  23  24  2   
 43  23  25  am  
 44  25  26  1   
 45  25  27  1   
 46  26  28  1   
 47  26  47  1   
 48  26  48  1   
 49  27  29  1   
 50  27  49  1   
 51  27  50  1   
 52  28  29  1   
 53  28  51  1   
 54  28  52  1   
 55  29  53  1   
 56  29  54  1   
@<TRIPOS>SUBSTRUCTURE
  1 ****  17 GROUP 4 **** **** 0

# MOE 2024.06 (io_trps.svl 2023.06)
