@<TRIPOS>MOLECULE
NONAME
39 40 1 0 0 
SMALL
USER_CHARGES


@<TRIPOS>ATOM
  1 N       -0.8280    -0.1520    -1.0630 N.ar  1 <1>  -0.6200 
  2 C       -1.6060    -0.9850    -0.3930 C.ar  1 <1>   0.4100 
  3 C       -0.5180    -0.6120    -2.2690 C.ar  1 <1>   0.1600 
  4 N       -2.0070    -0.5730     0.8870 N.pl3 1 <1>  -0.8380 
  5 C       -2.0420    -2.2420    -0.9240 C.ar  1 <1>   0.4100 
  6 C       -0.9480    -1.8230    -2.7800 C.ar  1 <1>   0.1600 
  7 C       -3.3600     0.0380     0.9510 C.3   1 <1>   0.1290 
  8 C       -1.0010     0.1460     1.7180 C.3   1 <1>   0.1290 
  9 N       -1.7240    -2.6820    -2.1280 N.ar  1 <1>  -0.6200 
 10 N       -2.8480    -3.0650    -0.1560 N.pl3 1 <1>  -0.8690 
 11 C       -2.5280    -4.4880    -0.0280 C.3   1 <1>   0.4690 
 12 C       -3.8500    -5.2240     0.0910 C.2   1 <1>  -0.3320 
 13 C       -1.6070    -4.6660     1.1880 C.3   1 <1>  -0.1600 
 14 N       -4.7320    -5.2810    -0.9320 N.pl3 1 <1>   0.3140 
 15 C       -4.4070    -5.9130     1.1150 C.2   1 <1>  -0.1500 
 16 C       -1.0010    -6.0760     1.2840 C.3   1 <1>  -0.2400 
 17 N       -5.8240    -5.9940    -0.6030 N.2   1 <1>  -0.7070 
 18 C       -4.6050    -4.6570    -2.2590 C.3   1 <1>   0.0160 
 19 C       -5.6230    -6.3650     0.6230 C.2   1 <1>   0.1390 
 20 H        0.1110     0.0140    -2.8760 H     1 <1>   0.1500 
 21 H       -0.6420    -2.1060    -3.7710 H     1 <1>   0.1500 
 22 H       -4.0370    -0.4880     0.3000 H     1 <1>   0.0800 
 23 H       -3.3110     1.0680     0.6390 H     1 <1>   0.0800 
 24 H       -3.7380    -0.0120     1.9570 H     1 <1>   0.0800 
 25 H       -0.0350    -0.3150     1.6000 H     1 <1>   0.0800 
 26 H       -1.2820     0.1030     2.7550 H     1 <1>   0.0800 
 27 H       -0.9330     1.1740     1.4070 H     1 <1>   0.0800 
 28 H       -2.9780    -2.6440     0.7680 H     1 <1>   0.4000 
 29 H       -2.0110    -4.8340    -0.9070 H     1 <1>   0.0800 
 30 H       -2.1550    -4.4450     2.0870 H     1 <1>   0.0800 
 31 H       -0.7970    -3.9620     1.1100 H     1 <1>   0.0800 
 32 H       -4.0270    -6.0950     2.1040 H     1 <1>   0.1500 
 33 H       -1.7690    -6.8230     1.3680 H     1 <1>   0.0800 
 34 H       -0.3640    -6.1430     2.1480 H     1 <1>   0.0800 
 35 H       -0.4120    -6.2890     0.4090 H     1 <1>   0.0800 
 36 H       -3.6630    -4.9290    -2.6940 H     1 <1>   0.0800 
 37 H       -4.6560    -3.5900    -2.1490 H     1 <1>   0.0800 
 38 H       -5.4080    -4.9940    -2.8870 H     1 <1>   0.0800 
 39 H       -6.3270    -6.9560     1.1840 H     1 <1>   0.1500 
@<TRIPOS>BOND
  1   1   2  ar  
  2   1   3  ar  
  3   2   4  1   
  4   2   5  ar  
  5   3   6  ar  
  6   3  20  1   
  7   4   7  1   
  8   4   8  1   
  9   5   9  ar  
 10   5  10  1   
 11   6   9  ar  
 12   6  21  1   
 13   7  22  1   
 14   7  23  1   
 15   7  24  1   
 16   8  25  1   
 17   8  26  1   
 18   8  27  1   
 19  10  11  1   
 20  10  28  1   
 21  11  12  1   
 22  11  13  1   
 23  11  29  1   
 24  12  14  1   
 25  12  15  2   
 26  13  16  1   
 27  13  30  1   
 28  13  31  1   
 29  14  17  1   
 30  14  18  1   
 31  15  19  1   
 32  15  32  1   
 33  16  33  1   
 34  16  34  1   
 35  16  35  1   
 36  17  19  2   
 37  18  36  1   
 38  18  37  1   
 39  18  38  1   
 40  19  39  1   
@<TRIPOS>SUBSTRUCTURE
  1 ****  10 GROUP 4 **** **** 0

# MOE 2024.06 (io_trps.svl 2023.06)
