@<TRIPOS>MOLECULE
NONAME
53 56 1 0 0 
SMALL
USER_CHARGES


@<TRIPOS>ATOM
  1 O       -3.7040    -1.4470    -3.0900 O.2   1 <1>  -0.5700 
  2 C       -3.3660    -1.6510    -1.9520 C.2   1 <1>   0.5690 
  3 N       -2.9500    -0.6480    -1.1230 N.am  1 <1>  -0.6600 
  4 C       -3.4620    -3.0680    -1.4470 C.3   1 <1>  -0.0190 
  5 C       -2.6080    -0.8720     0.3110 C.3   1 <1>   0.2200 
  6 C       -2.7680     0.7490    -1.6260 C.3   1 <1>   0.0600 
  7 C       -2.0970    -3.6140    -0.9760 C.3   1 <1>   0.1200 
  8 C       -4.6290    -3.1610    -0.4570 C.3   1 <1>   0.3430 
  9 C       -1.3980    -1.8290     0.4480 C.3   1 <1>   0.1200 
 10 C       -3.8610    -1.3090     1.1190 C.3   1 <1>   0.3430 
 11 O       -1.7470    -3.1820     0.3100 O.3   1 <1>  -0.5600 
 12 N       -4.2710    -2.7470     0.9400 N.4   1 <1>  -0.9590 
 13 C       -5.2700    -3.1960     1.9430 C.3   1 <1>   0.4860 
 14 C       -5.3130    -4.7110     1.9260 C.ar  1 <1>  -0.1440 
 15 C       -6.4230    -5.3680     1.4180 C.ar  1 <1>  -0.1500 
 16 C       -4.2410    -5.4530     2.4010 C.ar  1 <1>  -0.1500 
 17 C       -6.4640    -6.7520     1.3680 C.ar  1 <1>   0.0820 
 18 C       -4.2790    -6.8360     2.3590 C.ar  1 <1>  -0.1500 
 19 O       -7.5830    -7.3020     0.8400 O.3   1 <1>  -0.3620 
 20 C       -5.3840    -7.4890     1.8440 C.ar  1 <1>  -0.1500 
 21 C       -7.6890    -8.7030     0.6380 C.3   1 <1>   0.2630 
 22 C       -8.9880    -9.0610    -0.0730 C.ar  1 <1>   0.1670 
 23 N       -8.9390   -10.1310    -0.8560 N.ar  1 <1>  -0.6200 
 24 C      -10.1350    -8.3000     0.1190 C.ar  1 <1>  -0.1500 
 25 C      -10.0660   -10.4470    -1.4740 C.ar  1 <1>   0.1600 
 26 C      -11.3020    -8.6430    -0.5300 C.ar  1 <1>  -0.1500 
 27 C      -11.2550    -9.7490    -1.3480 C.ar  1 <1>  -0.1500 
 28 H       -3.7430    -3.6610    -2.2990 H     1 <1>   0.0800 
 29 H       -2.2960     0.0770     0.7120 H     1 <1>   0.0800 
 30 H       -3.4170     1.4220    -1.0930 H     1 <1>   0.0800 
 31 H       -3.0020     0.8150    -2.6760 H     1 <1>   0.0800 
 32 H       -1.7460     1.0590    -1.4910 H     1 <1>   0.0800 
 33 H       -1.3140    -3.3370    -1.6630 H     1 <1>   0.0800 
 34 H       -2.1380    -4.6900    -0.9400 H     1 <1>   0.0800 
 35 H       -4.9550    -4.1890    -0.4420 H     1 <1>   0.0800 
 36 H       -5.4520    -2.5650    -0.8200 H     1 <1>   0.0800 
 37 H       -0.9730    -1.7220     1.4310 H     1 <1>   0.0800 
 38 H       -0.6330    -1.5870    -0.2710 H     1 <1>   0.0800 
 39 H       -4.6800    -0.6600     0.8590 H     1 <1>   0.0800 
 40 H       -3.6400    -1.1500     2.1610 H     1 <1>   0.0800 
 41 H       -3.4030    -3.2890     1.1230 H     1 <1>   0.4500 
 42 H       -4.9870    -2.8630     2.9280 H     1 <1>   0.0800 
 43 H       -6.2430    -2.7930     1.7090 H     1 <1>   0.0800 
 44 H       -7.2750    -4.8250     1.0480 H     1 <1>   0.1500 
 45 H       -3.3670    -4.9730     2.8100 H     1 <1>   0.1500 
 46 H       -3.4450    -7.4090     2.7300 H     1 <1>   0.1500 
 47 H       -5.3830    -8.5630     1.8260 H     1 <1>   0.1500 
 48 H       -6.8560    -9.0170     0.0350 H     1 <1>   0.0800 
 49 H       -7.6530    -9.1910     1.5950 H     1 <1>   0.0800 
 50 H      -10.1180    -7.4470     0.7720 H     1 <1>   0.1500 
 51 H      -10.0410   -11.3100    -2.1160 H     1 <1>   0.1500 
 52 H      -12.2060    -8.0730    -0.4020 H     1 <1>   0.1500 
 53 H      -12.1290   -10.0710    -1.8850 H     1 <1>   0.1500 
@<TRIPOS>BOND
  1   1   2  2   
  2   2   3  am  
  3   2   4  1   
  4   3   5  1   
  5   3   6  1   
  6   4   7  1   
  7   4   8  1   
  8   4  28  1   
  9   5   9  1   
 10   5  10  1   
 11   5  29  1   
 12   6  30  1   
 13   6  31  1   
 14   6  32  1   
 15   7  11  1   
 16   7  33  1   
 17   7  34  1   
 18   8  12  1   
 19   8  35  1   
 20   8  36  1   
 21   9  11  1   
 22   9  37  1   
 23   9  38  1   
 24  10  12  1   
 25  10  39  1   
 26  10  40  1   
 27  12  13  1   
 28  12  41  1   
 29  13  14  1   
 30  13  42  1   
 31  13  43  1   
 32  14  15  ar  
 33  14  16  ar  
 34  15  17  ar  
 35  15  44  1   
 36  16  18  ar  
 37  16  45  1   
 38  17  19  1   
 39  17  20  ar  
 40  18  20  ar  
 41  18  46  1   
 42  19  21  1   
 43  20  47  1   
 44  21  22  1   
 45  21  48  1   
 46  21  49  1   
 47  22  23  ar  
 48  22  24  ar  
 49  23  25  ar  
 50  24  26  ar  
 51  24  50  1   
 52  25  27  ar  
 53  25  51  1   
 54  26  27  ar  
 55  26  52  1   
 56  27  53  1   
@<TRIPOS>SUBSTRUCTURE
  1 ****  15 GROUP 4 **** **** 0

# MOE 2024.06 (io_trps.svl 2023.06)
