@<TRIPOS>MOLECULE
NONAME
43 44 1 0 0 
SMALL
USER_CHARGES


@<TRIPOS>ATOM
  1 O       -1.3400     0.3210     2.2300 O.2   1 <1>  -0.5700 
  2 C       -1.5450     0.7510     1.1190 C.2   1 <1>   0.5690 
  3 N       -1.9300    -0.0890     0.0970 N.am  1 <1>  -0.6600 
  4 C       -1.3650     2.2670     0.9480 C.3   1 <1>  -0.0190 
  5 C       -2.2340    -1.5210     0.3900 C.3   1 <1>   0.2840 
  6 C       -2.2150     0.2950    -1.3160 C.3   1 <1>   0.0600 
  7 C       -2.6590     3.0010     0.5330 C.3   1 <1>  -0.1600 
  8 C       -0.1370     2.6490     0.0850 C.3   1 <1>  -0.1600 
  9 C       -3.7360    -1.7540     0.3100 C.ar  1 <1>  -0.1430 
 10 C       -2.4990     4.5350     0.5680 C.3   1 <1>   0.2000 
 11 C       -0.2790     4.0200    -0.6030 C.3   1 <1>  -0.1600 
 12 C       -4.5620    -1.2480     1.3020 C.ar  1 <1>  -0.1500 
 13 C       -4.2940    -2.4630    -0.7430 C.ar  1 <1>  -0.1500 
 14 O       -3.3570     5.0820    -0.4050 O.3   1 <1>  -0.5600 
 15 C       -1.0430     5.0020     0.2890 C.3   1 <1>   0.2000 
 16 C       -5.9310    -1.4470     1.2430 C.ar  1 <1>  -0.1500 
 17 C       -5.6620    -2.6620    -0.8040 C.ar  1 <1>  -0.1500 
 18 C       -4.6930     5.1890    -0.0240 C.3   1 <1>   0.0400 
 19 O       -1.0720     6.2230    -0.3520 O.3   1 <1>  -0.6800 
 20 C       -6.4810    -2.1540     0.1890 C.ar  1 <1>  -0.1500 
 21 H       -1.1470     2.6350     1.9370 H     1 <1>   0.0800 
 22 H       -1.7210    -2.1450    -0.3200 H     1 <1>   0.0800 
 23 H       -1.8860    -1.7990     1.3700 H     1 <1>   0.0800 
 24 H       -1.8180    -0.4490    -1.9840 H     1 <1>   0.0800 
 25 H       -1.7750     1.2390    -1.5710 H     1 <1>   0.0800 
 26 H       -3.2800     0.3590    -1.4630 H     1 <1>   0.0800 
 27 H       -3.4540     2.7130     1.1980 H     1 <1>   0.0800 
 28 H       -2.9380     2.7110    -0.4620 H     1 <1>   0.0800 
 29 H        0.7260     2.6680     0.7290 H     1 <1>   0.0800 
 30 H        0.0600     1.9030    -0.6630 H     1 <1>   0.0800 
 31 H       -2.7830     4.9140     1.5340 H     1 <1>   0.0800 
 32 H       -0.8180     3.9000    -1.5260 H     1 <1>   0.0800 
 33 H        0.6970     4.4120    -0.8270 H     1 <1>   0.0800 
 34 H       -4.1350    -0.6960     2.1220 H     1 <1>   0.1500 
 35 H       -3.6670    -2.8640    -1.5210 H     1 <1>   0.1500 
 36 H       -0.5100     5.1280     1.2150 H     1 <1>   0.0800 
 37 H       -6.5650    -1.0530     2.0170 H     1 <1>   0.1500 
 38 H       -6.0900    -3.2130    -1.6240 H     1 <1>   0.1500 
 39 H       -5.2380     5.6350    -0.8380 H     1 <1>   0.0800 
 40 H       -4.7670     5.8180     0.8460 H     1 <1>   0.0800 
 41 H       -5.0910     4.2100     0.1800 H     1 <1>   0.0800 
 42 H       -1.9340     6.2500    -0.8290 H     1 <1>   0.4000 
 43 H       -7.5450    -2.3090     0.1420 H     1 <1>   0.1500 
@<TRIPOS>BOND
  1   1   2  2   
  2   2   3  am  
  3   2   4  1   
  4   3   5  1   
  5   3   6  1   
  6   4   7  1   
  7   4   8  1   
  8   4  21  1   
  9   5   9  1   
 10   5  22  1   
 11   5  23  1   
 12   6  24  1   
 13   6  25  1   
 14   6  26  1   
 15   7  10  1   
 16   7  27  1   
 17   7  28  1   
 18   8  11  1   
 19   8  29  1   
 20   8  30  1   
 21   9  12  ar  
 22   9  13  ar  
 23  10  14  1   
 24  10  15  1   
 25  10  31  1   
 26  11  15  1   
 27  11  32  1   
 28  11  33  1   
 29  12  16  ar  
 30  12  34  1   
 31  13  17  ar  
 32  13  35  1   
 33  14  18  1   
 34  15  19  1   
 35  15  36  1   
 36  16  20  ar  
 37  16  37  1   
 38  17  20  ar  
 39  17  38  1   
 40  18  39  1   
 41  18  40  1   
 42  18  41  1   
 43  19  42  1   
 44  20  43  1   
@<TRIPOS>SUBSTRUCTURE
  1 ****   2 GROUP 4 **** **** 0

# MOE 2024.06 (io_trps.svl 2023.06)
