@<TRIPOS>MOLECULE
NONAME
50 53 1 0 0 
SMALL
USER_CHARGES


@<TRIPOS>ATOM
  1 O       -1.6400     1.7430    -2.5850 O.3   1 <1>  -0.0190 
  2 N       -1.8040     0.4750    -2.3630 N.2   1 <1>  -0.4100 
  3 C       -1.5430     2.2600    -1.3880 C.2   1 <1>   0.2980 
  4 C       -1.8120     0.3040    -1.1020 C.2   1 <1>   0.3350 
  5 N       -1.6530     1.4340    -0.4210 N.2   1 <1>  -0.5650 
  6 C       -1.2510     3.7480    -1.2440 C.3   1 <1>   0.3890 
  7 C       -1.9240    -1.0350    -0.3970 C.3   1 <1>   0.1640 
  8 N        0.1880     4.0350    -0.9220 N.pl3 1 <1>  -0.8690 
  9 C       -0.6640    -1.3080     0.4220 C.ar  1 <1>  -0.1430 
 10 C        1.1220     3.4100    -0.1900 C.ar  1 <1>   0.7710 
 11 C        0.5400    -1.5570    -0.2230 C.ar  1 <1>  -0.1500 
 12 C       -0.7060    -1.3240     1.8080 C.ar  1 <1>  -0.1500 
 13 N        2.2970     4.0040    -0.1730 N.ar  1 <1>  -0.6200 
 14 N        0.8800     2.2670     0.4820 N.ar  1 <1>  -0.1790 
 15 C        1.6830    -1.8320     0.5080 C.ar  1 <1>  -0.1500 
 16 C        0.4360    -1.6020     2.5400 C.ar  1 <1>  -0.1500 
 17 C        3.2740     3.4400     0.5150 C.ar  1 <1>   0.4100 
 18 C        1.8390     1.6750     1.2270 C.ar  1 <1>   0.2110 
 19 C        1.6310    -1.8600     1.8910 C.ar  1 <1>  -0.1500 
 20 N        4.4980     4.0310     0.4810 N.pl3 1 <1>  -0.8380 
 21 C        3.0580     2.2610     1.2570 C.ar  1 <1>  -0.1500 
 22 C        5.7940     3.2750     0.5350 C.3   1 <1>   0.2090 
 23 C        4.6830     5.4840     0.1780 C.3   1 <1>   0.2090 
 24 C        6.5710     3.4410    -0.7830 C.3   1 <1>   0.2000 
 25 C        5.4130     5.6460    -1.1600 C.3   1 <1>  -0.1600 
 26 O        7.8200     2.8560    -0.6620 O.3   1 <1>  -0.6800 
 27 C        6.7640     4.9120    -1.1660 C.3   1 <1>  -0.1600 
 28 H       -1.8750     4.1560    -0.4670 H     1 <1>   0.0800 
 29 H       -1.5110     4.2400    -2.1670 H     1 <1>   0.0800 
 30 H       -2.0530    -1.8140    -1.1270 H     1 <1>   0.0800 
 31 H       -2.7930    -1.0270     0.2350 H     1 <1>   0.0800 
 32 H        0.5380     4.8980    -1.3530 H     1 <1>   0.4000 
 33 H        0.5910    -1.5520    -1.3000 H     1 <1>   0.1500 
 34 H       -1.6300    -1.1370     2.3300 H     1 <1>   0.1500 
 35 H       -0.0520     1.8520     0.3880 H     1 <1>   0.4570 
 36 H        2.6090    -2.0410    -0.0010 H     1 <1>   0.1500 
 37 H        0.3920    -1.6320     3.6160 H     1 <1>   0.1500 
 38 H        1.6000     0.7750     1.7660 H     1 <1>   0.1500 
 39 H        2.5150    -2.0950     2.4600 H     1 <1>   0.1500 
 40 H        3.8570     1.8520     1.8440 H     1 <1>   0.1500 
 41 H        5.6230     2.2250     0.6880 H     1 <1>   0.0800 
 42 H        6.3810     3.6540     1.3530 H     1 <1>   0.0800 
 43 H        5.2640     5.9350     0.9650 H     1 <1>   0.0800 
 44 H        3.7370     5.9960     0.1410 H     1 <1>   0.0800 
 45 H        6.0460     2.9190    -1.5650 H     1 <1>   0.0800 
 46 H        5.5710     6.6920    -1.3530 H     1 <1>   0.0800 
 47 H        4.7830     5.2600    -1.9440 H     1 <1>   0.0800 
 48 H        8.4260     3.4450    -0.1720 H     1 <1>   0.4000 
 49 H        7.2020     4.9750    -2.1480 H     1 <1>   0.0800 
 50 H        7.4200     5.3910    -0.4610 H     1 <1>   0.0800 
@<TRIPOS>BOND
  1   1   2  1   
  2   1   3  1   
  3   2   4  2   
  4   3   5  2   
  5   3   6  1   
  6   4   5  1   
  7   4   7  1   
  8   6   8  1   
  9   6  28  1   
 10   6  29  1   
 11   7   9  1   
 12   7  30  1   
 13   7  31  1   
 14   8  10  1   
 15   8  32  1   
 16   9  11  ar  
 17   9  12  ar  
 18  10  13  ar  
 19  10  14  ar  
 20  11  15  ar  
 21  11  33  1   
 22  12  16  ar  
 23  12  34  1   
 24  13  17  ar  
 25  14  18  ar  
 26  14  35  1   
 27  15  19  ar  
 28  15  36  1   
 29  16  19  ar  
 30  16  37  1   
 31  17  20  1   
 32  17  21  ar  
 33  18  21  ar  
 34  18  38  1   
 35  19  39  1   
 36  20  22  1   
 37  20  23  1   
 38  21  40  1   
 39  22  24  1   
 40  22  41  1   
 41  22  42  1   
 42  23  25  1   
 43  23  43  1   
 44  23  44  1   
 45  24  26  1   
 46  24  27  1   
 47  24  45  1   
 48  25  27  1   
 49  25  46  1   
 50  25  47  1   
 51  26  48  1   
 52  27  49  1   
 53  27  50  1   
@<TRIPOS>SUBSTRUCTURE
  1 ****  14 GROUP 4 **** **** 0

# MOE 2024.06 (io_trps.svl 2023.06)
