@<TRIPOS>MOLECULE
NONAME
43 44 1 0 0 
SMALL
USER_CHARGES


@<TRIPOS>ATOM
  1 CL       0.1370    -1.1190    -1.6100 Cl    1 <1>  -0.1770 
  2 C       -1.4870    -1.6520    -1.2580 C.ar  1 <1>   0.1770 
  3 C       -1.6990    -2.9560    -0.8550 C.ar  1 <1>  -0.1500 
  4 C       -2.5340    -0.7600    -1.3880 C.ar  1 <1>  -0.1500 
  5 C       -2.9870    -3.3830    -0.5750 C.ar  1 <1>   0.0830 
  6 C       -3.8230    -1.1840    -1.1080 C.ar  1 <1>  -0.1500 
  7 O       -3.1260    -4.6740    -0.1840 O.3   1 <1>  -0.3630 
  8 C       -4.0500    -2.4900    -0.7030 C.ar  1 <1>  -0.1500 
  9 C       -4.3840    -5.2200     0.1190 C.3   1 <1>   0.1200 
 10 C       -4.1590    -6.6780     0.5170 C.3   1 <1>  -0.1600 
 11 C       -5.4790    -7.3550     0.8770 C.3   1 <1>   0.3430 
 12 N       -5.2610    -8.8040     1.1410 N.4   1 <1>  -0.9590 
 13 C       -6.5370    -9.5870     1.0880 C.3   1 <1>   0.3430 
 14 C       -4.4870    -9.0790     2.3920 C.3   1 <1>   0.2630 
 15 C       -6.2580   -11.0230     0.6090 C.3   1 <1>   0.2000 
 16 O       -5.2200   -10.9740    -0.3450 O.3   1 <1>  -0.5600 
 17 C       -7.5120   -11.6730    -0.0070 C.3   1 <1>   0.1200 
 18 C       -4.9090   -12.2270    -0.9000 C.3   1 <1>   0.1200 
 19 O       -7.1820   -12.9240    -0.5240 O.3   1 <1>  -0.5600 
 20 C       -6.1690   -12.8870    -1.4880 C.3   1 <1>   0.1200 
 21 H       -0.8710    -3.6330    -0.7610 H     1 <1>   0.1500 
 22 H       -2.3400     0.2500    -1.7040 H     1 <1>   0.1500 
 23 H       -4.6460    -0.4980    -1.2060 H     1 <1>   0.1500 
 24 H       -5.0600    -2.7880    -0.4940 H     1 <1>   0.1500 
 25 H       -5.0040    -5.1450    -0.7580 H     1 <1>   0.0800 
 26 H       -4.8090    -4.6540     0.9310 H     1 <1>   0.0800 
 27 H       -3.4900    -6.6960     1.3580 H     1 <1>   0.0800 
 28 H       -3.7050    -7.1900    -0.3140 H     1 <1>   0.0800 
 29 H       -6.1620    -7.2420     0.0500 H     1 <1>   0.0800 
 30 H       -5.9140    -6.8820     1.7430 H     1 <1>   0.0800 
 31 H       -4.7210    -9.2070     0.3460 H     1 <1>   0.4500 
 32 H       -7.2060    -9.1280     0.3790 H     1 <1>   0.0800 
 33 H       -7.0260    -9.5970     2.0480 H     1 <1>   0.0800 
 34 H       -5.0190    -8.7080     3.2530 H     1 <1>   0.0800 
 35 H       -3.5220    -8.6020     2.3490 H     1 <1>   0.0800 
 36 H       -4.3330   -10.1400     2.5090 H     1 <1>   0.0800 
 37 H       -5.9220   -11.6200     1.4390 H     1 <1>   0.0800 
 38 H       -7.9150   -11.0710    -0.8030 H     1 <1>   0.0800 
 39 H       -8.2720   -11.8220     0.7400 H     1 <1>   0.0800 
 40 H       -4.4860   -12.8520    -0.1330 H     1 <1>   0.0800 
 41 H       -4.1730   -12.0790    -1.6700 H     1 <1>   0.0800 
 42 H       -5.9590   -13.8990    -1.7860 H     1 <1>   0.0800 
 43 H       -6.5240   -12.3410    -2.3450 H     1 <1>   0.0800 
@<TRIPOS>BOND
  1   1   2  1   
  2   2   3  ar  
  3   2   4  ar  
  4   3   5  ar  
  5   3  21  1   
  6   4   6  ar  
  7   4  22  1   
  8   5   7  1   
  9   5   8  ar  
 10   6   8  ar  
 11   6  23  1   
 12   7   9  1   
 13   8  24  1   
 14   9  10  1   
 15   9  25  1   
 16   9  26  1   
 17  10  11  1   
 18  10  27  1   
 19  10  28  1   
 20  11  12  1   
 21  11  29  1   
 22  11  30  1   
 23  12  13  1   
 24  12  14  1   
 25  12  31  1   
 26  13  15  1   
 27  13  32  1   
 28  13  33  1   
 29  14  34  1   
 30  14  35  1   
 31  14  36  1   
 32  15  16  1   
 33  15  17  1   
 34  15  37  1   
 35  16  18  1   
 36  17  19  1   
 37  17  38  1   
 38  17  39  1   
 39  18  20  1   
 40  18  40  1   
 41  18  41  1   
 42  19  20  1   
 43  20  42  1   
 44  20  43  1   
@<TRIPOS>SUBSTRUCTURE
  1 ****  10 GROUP 4 **** **** 0

# MOE 2024.06 (io_trps.svl 2023.06)
