@<TRIPOS>MOLECULE
NONAME
55 58 1 0 0 
SMALL
USER_CHARGES


@<TRIPOS>ATOM
  1 O       -2.0910     0.3000    -1.7490 O.2   1 <1>  -0.5700 
  2 C       -1.9400     0.2210    -0.5570 C.2   1 <1>   0.5690 
  3 N       -1.9530    -0.9630     0.0940 N.am  1 <1>  -0.7300 
  4 C       -1.7320     1.4910     0.2330 C.3   1 <1>  -0.0990 
  5 C       -2.0420    -2.2970    -0.5530 C.3   1 <1>   0.2200 
  6 C       -1.1850     2.5700    -0.7030 C.3   1 <1>   0.3430 
  7 C       -3.3960    -2.9530    -0.3010 C.3   1 <1>  -0.0800 
  8 C       -1.1380    -3.2500     0.2140 C.3   1 <1>   0.1200 
  9 N       -0.9040     3.8510     0.0140 N.4   1 <1>  -0.9590 
 10 C       -3.2220    -3.5550     1.1020 C.3   1 <1>   0.1200 
 11 C       -4.6190    -2.0260    -0.4590 C.3   1 <1>  -0.0170 
 12 O       -1.8500    -3.5400     1.3760 O.3   1 <1>  -0.5600 
 13 C       -2.1610     4.5390     0.4850 C.3   1 <1>   0.3430 
 14 C       -0.1230     4.7770    -0.8810 C.3   1 <1>   0.3430 
 15 C       -6.0000    -2.6820    -0.3260 C.ar  1 <1>  -0.1440 
 16 C       -1.8620     5.9300     1.0770 C.3   1 <1>   0.1200 
 17 C        0.0870     6.1580    -0.2300 C.3   1 <1>   0.1200 
 18 C       -7.1610    -1.8700    -0.2900 C.ar  1 <1>   0.0000 
 19 C       -6.1910    -4.0340    -0.2430 C.ar  1 <1>  -0.1500 
 20 O       -1.1410     6.7000     0.1600 O.3   1 <1>  -0.5600 
 21 C       -8.4170    -2.5070    -0.1340 C.ar  1 <1>   0.3100 
 22 C       -7.1500    -0.4590    -0.4080 C.ar  1 <1>  -0.1500 
 23 C       -7.4800    -4.5630    -0.1020 C.ar  1 <1>   0.1600 
 24 N       -8.5590    -3.8520    -0.0410 N.ar  1 <1>  -0.6200 
 25 C       -9.5790    -1.7210    -0.0770 C.ar  1 <1>  -0.1500 
 26 C       -8.3020     0.2780    -0.3530 C.ar  1 <1>  -0.1500 
 27 C       -9.5330    -0.3580    -0.1820 C.ar  1 <1>  -0.1500 
 28 H       -1.8650    -1.0330     1.1130 H     1 <1>   0.3700 
 29 H       -2.6800     1.7810     0.6430 H     1 <1>   0.0800 
 30 H       -1.0330     1.2980     1.0260 H     1 <1>   0.0800 
 31 H       -1.7910    -2.2400    -1.5990 H     1 <1>   0.0800 
 32 H       -1.8930     2.7420    -1.4990 H     1 <1>   0.0800 
 33 H       -0.2770     2.2000    -1.1530 H     1 <1>   0.0800 
 34 H       -3.4880    -3.7610    -1.0050 H     1 <1>   0.0800 
 35 H       -0.1850    -2.8190     0.4660 H     1 <1>   0.0800 
 36 H       -0.9940    -4.1690    -0.3280 H     1 <1>   0.0800 
 37 H       -0.3180     3.6570     0.8370 H     1 <1>   0.4500 
 38 H       -3.5700    -4.5720     1.1510 H     1 <1>   0.0800 
 39 H       -3.7150    -2.9660     1.8560 H     1 <1>   0.0800 
 40 H       -4.5650    -1.5570    -1.4270 H     1 <1>   0.0800 
 41 H       -4.5520    -1.2520     0.2830 H     1 <1>   0.0800 
 42 H       -2.8390     4.6640    -0.3430 H     1 <1>   0.0800 
 43 H       -2.6560     3.9390     1.2300 H     1 <1>   0.0800 
 44 H        0.8370     4.3450    -1.1140 H     1 <1>   0.0800 
 45 H       -0.6530     4.9200    -1.8090 H     1 <1>   0.0800 
 46 H       -1.2950     5.8550     1.9890 H     1 <1>   0.0800 
 47 H       -2.7810     6.4490     1.2870 H     1 <1>   0.0800 
 48 H        0.5330     6.8370    -0.9370 H     1 <1>   0.0800 
 49 H        0.7280     6.0930     0.6320 H     1 <1>   0.0800 
 50 H       -5.3870    -4.7410    -0.2830 H     1 <1>   0.1500 
 51 H       -6.2190     0.0540    -0.5500 H     1 <1>   0.1500 
 52 H       -7.5790    -5.6340    -0.0380 H     1 <1>   0.1500 
 53 H      -10.5140    -2.2340     0.0510 H     1 <1>   0.1500 
 54 H       -8.2800     1.3500    -0.4440 H     1 <1>   0.1500 
 55 H      -10.4330     0.2310    -0.1380 H     1 <1>   0.1500 
@<TRIPOS>BOND
  1   1   2  2   
  2   2   3  am  
  3   2   4  1   
  4   3   5  1   
  5   3  28  1   
  6   4   6  1   
  7   4  29  1   
  8   4  30  1   
  9   5   7  1   
 10   5   8  1   
 11   5  31  1   
 12   6   9  1   
 13   6  32  1   
 14   6  33  1   
 15   7  10  1   
 16   7  11  1   
 17   7  34  1   
 18   8  12  1   
 19   8  35  1   
 20   8  36  1   
 21   9  13  1   
 22   9  14  1   
 23   9  37  1   
 24  10  12  1   
 25  10  38  1   
 26  10  39  1   
 27  11  15  1   
 28  11  40  1   
 29  11  41  1   
 30  13  16  1   
 31  13  42  1   
 32  13  43  1   
 33  14  17  1   
 34  14  44  1   
 35  14  45  1   
 36  15  18  ar  
 37  15  19  ar  
 38  16  20  1   
 39  16  46  1   
 40  16  47  1   
 41  17  20  1   
 42  17  48  1   
 43  17  49  1   
 44  18  21  ar  
 45  18  22  ar  
 46  19  23  ar  
 47  19  50  1   
 48  21  24  ar  
 49  21  25  ar  
 50  22  26  ar  
 51  22  51  1   
 52  23  24  ar  
 53  23  52  1   
 54  25  27  ar  
 55  25  53  1   
 56  26  27  ar  
 57  26  54  1   
 58  27  55  1   
@<TRIPOS>SUBSTRUCTURE
  1 ****  11 GROUP 4 **** **** 0

# MOE 2024.06 (io_trps.svl 2023.06)
