@<TRIPOS>MOLECULE
NONAME
43 45 1 0 0 
SMALL
USER_CHARGES


@<TRIPOS>ATOM
  1 O        0.0050    -0.1500    -0.5820 O.2   1 <1>  -0.5700 
  2 C        1.0450    -0.6730    -0.2300 C.2   1 <1>   0.7150 
  3 N        2.1570     0.0870     0.0120 N.am  1 <1>  -0.4940 
  4 C        1.1670    -2.1030    -0.0810 C.2   1 <1>  -0.2370 
  5 C        2.3220     1.4930     0.0270 C.2   1 <1>  -0.0880 
  6 N        0.3170    -3.0290    -0.6600 N.pl3 1 <1>   0.0480 
  7 C        2.1080    -2.7940     0.6300 C.2   1 <1>  -0.1500 
  8 N        3.3880     2.1460    -0.5090 N.pl3 1 <1>   0.3140 
  9 C        1.5190     2.4520     0.5520 C.2   1 <1>  -0.1810 
 10 C        0.7380    -4.2920    -0.3080 C.ar  1 <1>  -0.1520 
 11 C       -0.8430    -2.7380    -1.5320 C.3   1 <1>   0.0160 
 12 C        1.8620    -4.1680     0.4990 C.ar  1 <1>   0.0000 
 13 N        3.2920     3.4830    -0.3410 N.2   1 <1>  -0.7070 
 14 C        4.5170     1.5530    -1.2550 C.3   1 <1>   0.0960 
 15 C        2.1720     3.6510     0.2890 C.2   1 <1>   0.1390 
 16 C        0.1970     2.3110     1.2810 C.3   1 <1>  -0.0590 
 17 C        0.2360    -5.5610    -0.6210 C.ar  1 <1>  -0.1500 
 18 C        2.4970    -5.3100     0.9990 C.ar  1 <1>  -0.1500 
 19 C        5.6090     1.0460    -0.3050 C.3   1 <1>  -0.2400 
 20 C        0.8660    -6.6790    -0.1270 C.ar  1 <1>  -0.1500 
 21 C        2.0070    -6.5570     0.6900 C.ar  1 <1>   0.0830 
 22 O        2.6730    -7.6270     1.2070 O.3   1 <1>  -0.3630 
 23 C        2.2350    -8.9440     0.9630 C.3   1 <1>   0.0400 
 24 H        2.9940    -0.4700     0.1640 H     1 <1>   0.3700 
 25 H        2.9180    -2.4040     1.2210 H     1 <1>   0.1500 
 26 H       -0.5450    -2.0510    -2.3030 H     1 <1>   0.0800 
 27 H       -1.6230    -2.2930    -0.9430 H     1 <1>   0.0800 
 28 H       -1.2050    -3.6400    -1.9860 H     1 <1>   0.0800 
 29 H        4.9210     2.3100    -1.9040 H     1 <1>   0.0800 
 30 H        4.1420     0.7510    -1.8640 H     1 <1>   0.0800 
 31 H        1.7970     4.6200     0.5740 H     1 <1>   0.1500 
 32 H        0.1220     1.3390     1.7330 H     1 <1>   0.0800 
 33 H       -0.6140     2.4300     0.5860 H     1 <1>   0.0800 
 34 H        0.1140     3.0550     2.0520 H     1 <1>   0.0800 
 35 H       -0.6360    -5.6600    -1.2420 H     1 <1>   0.1500 
 36 H        3.3640    -5.2070     1.6220 H     1 <1>   0.1500 
 37 H        5.9840     1.8620     0.2890 H     1 <1>   0.0800 
 38 H        6.4250     0.6360    -0.8730 H     1 <1>   0.0800 
 39 H        5.2250     0.2820     0.3460 H     1 <1>   0.0800 
 40 H        0.4730    -7.6460    -0.3750 H     1 <1>   0.1500 
 41 H        2.9020    -9.6170     1.4720 H     1 <1>   0.0800 
 42 H        2.2660    -9.1320    -0.0960 H     1 <1>   0.0800 
 43 H        1.2370    -9.0580     1.3480 H     1 <1>   0.0800 
@<TRIPOS>BOND
  1   1   2  2   
  2   2   3  am  
  3   2   4  1   
  4   3   5  1   
  5   3  24  1   
  6   4   6  1   
  7   4   7  2   
  8   5   8  1   
  9   5   9  2   
 10   6  10  1   
 11   6  11  1   
 12   7  12  1   
 13   7  25  1   
 14   8  13  1   
 15   8  14  1   
 16   9  15  1   
 17   9  16  1   
 18  10  12  ar  
 19  10  17  ar  
 20  11  26  1   
 21  11  27  1   
 22  11  28  1   
 23  12  18  ar  
 24  13  15  2   
 25  14  19  1   
 26  14  29  1   
 27  14  30  1   
 28  15  31  1   
 29  16  32  1   
 30  16  33  1   
 31  16  34  1   
 32  17  20  ar  
 33  17  35  1   
 34  18  21  ar  
 35  18  36  1   
 36  19  37  1   
 37  19  38  1   
 38  19  39  1   
 39  20  21  ar  
 40  20  40  1   
 41  21  22  1   
 42  22  23  1   
 43  23  41  1   
 44  23  42  1   
 45  23  43  1   
@<TRIPOS>SUBSTRUCTURE
  1 ****   4 GROUP 4 **** **** 0

# MOE 2024.06 (io_trps.svl 2023.06)
