@<TRIPOS>MOLECULE
NONAME
45 46 1 0 0 
SMALL
USER_CHARGES


@<TRIPOS>ATOM
  1 F        1.2510     0.6240    -0.8560 F     1 <1>  -0.1900 
  2 C        1.7790    -0.4920    -0.4250 C.ar  1 <1>   0.1900 
  3 C        2.5170    -0.5140     0.7460 C.ar  1 <1>   0.1900 
  4 C        1.5800    -1.6450    -1.1610 C.ar  1 <1>  -0.1500 
  5 F        2.6990     0.5810     1.4370 F     1 <1>  -0.1900 
  6 C        3.0730    -1.6940     1.2040 C.ar  1 <1>  -0.1500 
  7 C        2.1300    -2.8400    -0.7070 C.ar  1 <1>  -0.1440 
  8 C        2.8760    -2.8560     0.4710 C.ar  1 <1>  -0.1500 
  9 C        1.9130    -4.1230    -1.4910 C.3   1 <1>   0.4870 
 10 N        0.9720    -4.9860    -0.7400 N.4   1 <1>  -0.9590 
 11 C        0.8730    -6.3690    -1.2790 C.3   1 <1>   0.3430 
 12 C       -0.3770    -4.3830    -0.5230 C.3   1 <1>   0.3430 
 13 C        0.3310    -7.3270    -0.1910 C.3   1 <1>   0.0000 
 14 C       -1.3290    -5.4000     0.1300 C.3   1 <1>  -0.1600 
 15 C       -0.5770    -6.5490     0.8210 C.3   1 <1>   0.2000 
 16 C       -0.5690    -8.3700    -0.8980 C.3   1 <1>   0.1200 
 17 C        1.4960    -8.1070     0.5010 C.3   1 <1>  -0.1600 
 18 O        0.1790    -5.9560     1.8240 O.3   1 <1>  -0.6800 
 19 O        0.0500    -8.8230    -2.0560 O.3   1 <1>  -0.6800 
 20 C        2.7820    -7.3220     0.8390 C.3   1 <1>  -0.1600 
 21 C        3.7970    -8.2320     1.5350 C.3   1 <1>  -0.2400 
 22 H        1.0040    -1.5890    -2.0690 H     1 <1>   0.1500 
 23 H        3.6480    -1.6960     2.1140 H     1 <1>   0.1500 
 24 H        3.3150    -3.7720     0.8320 H     1 <1>   0.1500 
 25 H        2.8580    -4.6280    -1.6150 H     1 <1>   0.0800 
 26 H        1.5150    -3.8990    -2.4670 H     1 <1>   0.0800 
 27 H        1.3420    -5.1090     0.2200 H     1 <1>   0.4500 
 28 H        0.2080    -6.3740    -2.1280 H     1 <1>   0.0800 
 29 H        1.8320    -6.7260    -1.6160 H     1 <1>   0.0800 
 30 H       -0.2750    -3.5290     0.1290 H     1 <1>   0.0800 
 31 H       -0.7930    -4.0440    -1.4570 H     1 <1>   0.0800 
 32 H       -1.9770    -5.7970    -0.6300 H     1 <1>   0.0800 
 33 H       -1.9650    -4.8940     0.8360 H     1 <1>   0.0800 
 34 H       -1.2630    -7.2290     1.3010 H     1 <1>   0.0800 
 35 H       -1.5170    -7.9490    -1.1880 H     1 <1>   0.0800 
 36 H       -0.7490    -9.2160    -0.2550 H     1 <1>   0.0800 
 37 H        1.1180    -8.5600     1.4020 H     1 <1>   0.0800 
 38 H        1.7980    -8.9190    -0.1410 H     1 <1>   0.0800 
 39 H       -0.3330    -5.9040     2.6600 H     1 <1>   0.4000 
 40 H       -0.4160    -9.6060    -2.4230 H     1 <1>   0.4000 
 41 H        3.2390    -6.9390    -0.0550 H     1 <1>   0.0800 
 42 H        2.5740    -6.4970     1.4950 H     1 <1>   0.0800 
 43 H        4.0620    -9.0610     0.9010 H     1 <1>   0.0800 
 44 H        3.3920    -8.6170     2.4550 H     1 <1>   0.0800 
 45 H        4.6930    -7.6820     1.7640 H     1 <1>   0.0800 
@<TRIPOS>BOND
  1   1   2  1   
  2   2   3  ar  
  3   2   4  ar  
  4   3   5  1   
  5   3   6  ar  
  6   4   7  ar  
  7   4  22  1   
  8   6   8  ar  
  9   6  23  1   
 10   7   8  ar  
 11   7   9  1   
 12   8  24  1   
 13   9  10  1   
 14   9  25  1   
 15   9  26  1   
 16  10  11  1   
 17  10  12  1   
 18  10  27  1   
 19  11  13  1   
 20  11  28  1   
 21  11  29  1   
 22  12  14  1   
 23  12  30  1   
 24  12  31  1   
 25  13  15  1   
 26  13  16  1   
 27  13  17  1   
 28  14  15  1   
 29  14  32  1   
 30  14  33  1   
 31  15  18  1   
 32  15  34  1   
 33  16  19  1   
 34  16  35  1   
 35  16  36  1   
 36  17  20  1   
 37  17  37  1   
 38  17  38  1   
 39  18  39  1   
 40  19  40  1   
 41  20  21  1   
 42  20  41  1   
 43  20  42  1   
 44  21  43  1   
 45  21  44  1   
 46  21  45  1   
@<TRIPOS>SUBSTRUCTURE
  1 ****  10 GROUP 4 **** **** 0

# MOE 2024.06 (io_trps.svl 2023.06)
