@<TRIPOS>MOLECULE
NONAME
50 53 1 0 0 
SMALL
USER_CHARGES


@<TRIPOS>ATOM
  1 O       -1.9390    -0.2590    -2.3460 O.2   1 <1>  -0.5700 
  2 C       -2.2660    -0.7490    -1.2960 C.2   1 <1>   0.5690 
  3 N       -2.5710     0.0070    -0.2000 N.am  1 <1>  -0.6600 
  4 C       -2.3730    -2.2510    -1.2400 C.3   1 <1>  -0.0190 
  5 C       -3.0730    -0.5810     1.0750 C.3   1 <1>   0.2200 
  6 C       -2.4000     1.4930    -0.2100 C.3   1 <1>   0.0600 
  7 C       -1.4410    -2.8630    -0.1730 C.3   1 <1>   0.1200 
  8 C       -3.8570    -2.6320    -1.1770 C.3   1 <1>   0.3430 
  9 C       -2.0100    -1.5110     1.7120 C.3   1 <1>   0.1200 
 10 C       -4.4610    -1.2470     0.8720 C.3   1 <1>   0.3430 
 11 O       -1.9650    -2.7860     1.1240 O.3   1 <1>  -0.5600 
 12 N       -4.4300    -2.5960     0.2070 N.4   1 <1>  -0.9590 
 13 C       -5.7460    -3.2790     0.2930 C.3   1 <1>   0.4860 
 14 C       -5.6270    -4.7300    -0.1700 C.ar  1 <1>  -0.1440 
 15 C       -6.5210    -5.2790    -1.0920 C.ar  1 <1>  -0.1440 
 16 C       -4.6090    -5.5240     0.3490 C.ar  1 <1>  -0.1500 
 17 C       -6.3560    -6.5970    -1.4950 C.ar  1 <1>  -0.1500 
 18 C       -7.7020    -4.4990    -1.6800 C.3   1 <1>   0.2390 
 19 C       -4.4580    -6.8350    -0.0620 C.ar  1 <1>  -0.1500 
 20 C       -5.3290    -7.3700    -0.9880 C.ar  1 <1>  -0.1500 
 21 N       -8.6870    -4.1390    -0.6350 N.pl3 1 <1>   0.3140 
 22 N       -8.6800    -2.9310    -0.0240 N.2   1 <1>  -0.7070 
 23 C       -9.6860    -4.9120    -0.1680 C.2   1 <1>  -0.3020 
 24 C       -9.6860    -2.9710     0.7990 C.2   1 <1>   0.1390 
 25 C      -10.3520    -4.1890     0.7560 C.2   1 <1>  -0.1500 
 26 H       -2.0110    -2.6020    -2.1890 H     1 <1>   0.0800 
 27 H       -3.2200     0.2350     1.7620 H     1 <1>   0.0800 
 28 H       -1.7220     1.7900     0.5710 H     1 <1>   0.0800 
 29 H       -3.3500     1.9760    -0.0590 H     1 <1>   0.0800 
 30 H       -1.9960     1.8290    -1.1500 H     1 <1>   0.0800 
 31 H       -0.4740    -2.3870    -0.1870 H     1 <1>   0.0800 
 32 H       -1.2960    -3.9090    -0.3860 H     1 <1>   0.0800 
 33 H       -3.9490    -3.6340    -1.5640 H     1 <1>   0.0800 
 34 H       -4.4190    -1.9800    -1.8250 H     1 <1>   0.0800 
 35 H       -2.2520    -1.6610     2.7500 H     1 <1>   0.0800 
 36 H       -1.0310    -1.0640     1.6630 H     1 <1>   0.0800 
 37 H       -5.0870    -0.5760     0.3070 H     1 <1>   0.0800 
 38 H       -4.9090    -1.3630     1.8450 H     1 <1>   0.0800 
 39 H       -3.7540    -3.1490     0.7670 H     1 <1>   0.4500 
 40 H       -6.1180    -3.2610     1.3050 H     1 <1>   0.0800 
 41 H       -6.4440    -2.7490    -0.3290 H     1 <1>   0.0800 
 42 H       -3.9200    -5.1440     1.0830 H     1 <1>   0.1500 
 43 H       -7.0300    -7.0430    -2.2080 H     1 <1>   0.1500 
 44 H       -8.2080    -5.0840    -2.4250 H     1 <1>   0.0800 
 45 H       -7.3570    -3.5970    -2.1490 H     1 <1>   0.0800 
 46 H       -3.6650    -7.4430     0.3420 H     1 <1>   0.1500 
 47 H       -5.2130    -8.3920    -1.3090 H     1 <1>   0.1500 
 48 H       -9.8690    -5.9150    -0.5110 H     1 <1>   0.1500 
 49 H       -9.9700    -2.1510     1.4390 H     1 <1>   0.1500 
 50 H      -11.2100    -4.4650     1.3430 H     1 <1>   0.1500 
@<TRIPOS>BOND
  1   1   2  2   
  2   2   3  am  
  3   2   4  1   
  4   3   5  1   
  5   3   6  1   
  6   4   7  1   
  7   4   8  1   
  8   4  26  1   
  9   5   9  1   
 10   5  10  1   
 11   5  27  1   
 12   6  28  1   
 13   6  29  1   
 14   6  30  1   
 15   7  11  1   
 16   7  31  1   
 17   7  32  1   
 18   8  12  1   
 19   8  33  1   
 20   8  34  1   
 21   9  11  1   
 22   9  35  1   
 23   9  36  1   
 24  10  12  1   
 25  10  37  1   
 26  10  38  1   
 27  12  13  1   
 28  12  39  1   
 29  13  14  1   
 30  13  40  1   
 31  13  41  1   
 32  14  15  ar  
 33  14  16  ar  
 34  15  17  ar  
 35  15  18  1   
 36  16  19  ar  
 37  16  42  1   
 38  17  20  ar  
 39  17  43  1   
 40  18  21  1   
 41  18  44  1   
 42  18  45  1   
 43  19  20  ar  
 44  19  46  1   
 45  20  47  1   
 46  21  22  1   
 47  21  23  1   
 48  22  24  2   
 49  23  25  2   
 50  23  48  1   
 51  24  25  1   
 52  24  49  1   
 53  25  50  1   
@<TRIPOS>SUBSTRUCTURE
  1 ****  13 GROUP 4 **** **** 0

# MOE 2024.06 (io_trps.svl 2023.06)
