@<TRIPOS>MOLECULE
NONAME
51 54 1 0 0 
SMALL
USER_CHARGES


@<TRIPOS>ATOM
  1 S       -0.4600    -0.1080     0.1300 S.3   1 <1>  -0.0800 
  2 C        1.0170    -1.0410    -0.0010 C.2   1 <1>  -0.0450 
  3 C        0.3750     1.0630     1.1150 C.2   1 <1>   0.2280 
  4 C        1.9700    -0.3730     0.6910 C.2   1 <1>   0.0460 
  5 C        1.0280    -2.2540    -0.7790 C.2   1 <1>   0.7150 
  6 N        1.6010     0.7970     1.3210 N.2   1 <1>  -0.5650 
  7 C        3.4210    -0.7830     0.8450 C.3   1 <1>  -0.0590 
  8 O        1.9380    -2.4440    -1.5650 O.2   1 <1>  -0.5700 
  9 N        0.0530    -3.2230    -0.6520 N.am  1 <1>  -0.6600 
 10 C       -0.1460    -4.2600    -1.6990 C.3   1 <1>   0.1400 
 11 C       -0.7320    -3.4310     0.5920 C.3   1 <1>   0.1400 
 12 C       -1.6320    -4.3820    -2.0440 C.3   1 <1>  -0.1600 
 13 C       -2.2230    -3.4670     0.2600 C.3   1 <1>  -0.1600 
 14 C       -2.5970    -4.4750    -0.8450 C.3   1 <1>   0.4240 
 15 O       -3.8170    -4.0290    -1.3830 O.3   1 <1>  -0.5600 
 16 C       -2.7370    -5.9250    -0.3040 C.ar  1 <1>  -0.1430 
 17 C       -4.9820    -4.3120    -0.6760 C.3   1 <1>   0.1200 
 18 C       -3.9800    -6.5480    -0.2490 C.ar  1 <1>  -0.1430 
 19 C       -1.6410    -6.6500     0.1520 C.ar  1 <1>  -0.1500 
 20 C       -5.2180    -5.8150    -0.7260 C.3   1 <1>  -0.0170 
 21 C       -4.1140    -7.8390     0.2380 C.ar  1 <1>  -0.1500 
 22 C       -1.7510    -7.9420     0.6370 C.ar  1 <1>   0.0830 
 23 C       -3.0110    -8.5530     0.6950 C.ar  1 <1>   0.0830 
 24 O       -0.5720    -8.5030     1.0300 O.3   1 <1>  -0.3630 
 25 O       -3.1400    -9.8120     1.2090 O.3   1 <1>  -0.3630 
 26 C       -0.3500    -9.8920     0.9210 C.3   1 <1>   0.0400 
 27 C       -4.3990   -10.4050     1.4380 C.3   1 <1>   0.0400 
 28 H       -0.1930     1.9050     1.4700 H     1 <1>   0.1500 
 29 H        3.6180    -1.7110     0.3400 H     1 <1>   0.0800 
 30 H        3.6550    -0.8970     1.8870 H     1 <1>   0.0800 
 31 H        4.0550    -0.0220     0.4280 H     1 <1>   0.0800 
 32 H        0.2590    -5.1950    -1.3630 H     1 <1>   0.0800 
 33 H        0.3900    -3.9890    -2.5940 H     1 <1>   0.0800 
 34 H       -0.5410    -2.6460     1.3020 H     1 <1>   0.0800 
 35 H       -0.4270    -4.3510     1.0570 H     1 <1>   0.0800 
 36 H       -1.7770    -5.2370    -2.6780 H     1 <1>   0.0800 
 37 H       -1.8850    -3.5090    -2.6180 H     1 <1>   0.0800 
 38 H       -2.5100    -2.4810    -0.0570 H     1 <1>   0.0800 
 39 H       -2.7650    -3.7020     1.1570 H     1 <1>   0.0800 
 40 H       -5.7930    -3.7870    -1.1500 H     1 <1>   0.0800 
 41 H       -4.8810    -3.9650     0.3370 H     1 <1>   0.0800 
 42 H       -0.6570    -6.2360     0.1460 H     1 <1>   0.1500 
 43 H       -5.4430    -6.1050    -1.7370 H     1 <1>   0.0800 
 44 H       -6.0620    -6.0600    -0.1070 H     1 <1>   0.0800 
 45 H       -5.0940    -8.2740     0.2530 H     1 <1>   0.1500 
 46 H        0.7110   -10.0640     0.9360 H     1 <1>   0.0800 
 47 H       -0.7690   -10.2440    -0.0050 H     1 <1>   0.0800 
 48 H       -0.8090   -10.3830     1.7600 H     1 <1>   0.0800 
 49 H       -4.2380   -11.3590     1.9070 H     1 <1>   0.0800 
 50 H       -4.8980   -10.5420     0.4950 H     1 <1>   0.0800 
 51 H       -4.9710    -9.7700     2.0910 H     1 <1>   0.0800 
@<TRIPOS>BOND
  1   1   2  1   
  2   1   3  1   
  3   2   4  2   
  4   2   5  1   
  5   3   6  2   
  6   3  28  1   
  7   4   6  1   
  8   4   7  1   
  9   5   8  2   
 10   5   9  am  
 11   7  29  1   
 12   7  30  1   
 13   7  31  1   
 14   9  10  1   
 15   9  11  1   
 16  10  12  1   
 17  10  32  1   
 18  10  33  1   
 19  11  13  1   
 20  11  34  1   
 21  11  35  1   
 22  12  14  1   
 23  12  36  1   
 24  12  37  1   
 25  13  14  1   
 26  13  38  1   
 27  13  39  1   
 28  14  15  1   
 29  14  16  1   
 30  15  17  1   
 31  16  18  ar  
 32  16  19  ar  
 33  17  20  1   
 34  17  40  1   
 35  17  41  1   
 36  18  20  1   
 37  18  21  ar  
 38  19  22  ar  
 39  19  42  1   
 40  20  43  1   
 41  20  44  1   
 42  21  23  ar  
 43  21  45  1   
 44  22  23  ar  
 45  22  24  1   
 46  23  25  1   
 47  24  26  1   
 48  25  27  1   
 49  26  46  1   
 50  26  47  1   
 51  26  48  1   
 52  27  49  1   
 53  27  50  1   
 54  27  51  1   
@<TRIPOS>SUBSTRUCTURE
  1 ****  11 GROUP 4 **** **** 0

# MOE 2024.06 (io_trps.svl 2023.06)
