@<TRIPOS>MOLECULE
NONAME
53 56 1 0 0 
SMALL
USER_CHARGES


@<TRIPOS>ATOM
  1 O       -0.4360     0.7030     0.1600 O.2   1 <1>  -0.5700 
  2 C       -1.5600     1.1430     0.1940 C.2   1 <1>   0.5690 
  3 N       -2.6470     0.3180     0.1400 N.am  1 <1>  -0.6600 
  4 C       -1.7700     2.6500     0.2920 C.3   1 <1>  -0.0990 
  5 C       -4.0740     0.7250     0.1090 C.3   1 <1>   0.1400 
  6 C       -2.5190    -1.1570     0.0660 C.3   1 <1>   0.1400 
  7 C       -0.4700     3.4580     0.4780 C.3   1 <1>  -0.1600 
  8 C       -4.8370    -0.5590    -0.2140 C.3   1 <1>   0.2000 
  9 C       -3.9370    -1.6950     0.2650 C.3   1 <1>  -0.0800 
 10 C       -0.7420     4.9670     0.5820 C.3   1 <1>   0.0200 
 11 O       -6.0580    -0.6020     0.4390 O.3   1 <1>  -0.6800 
 12 C       -4.1990    -3.0230    -0.4600 C.3   1 <1>   0.0210 
 13 C        0.5430     5.7590     0.7360 C.2   1 <1>   0.2980 
 14 C       -3.2170    -4.0870    -0.0100 C.2   1 <1>   0.1080 
 15 O        1.2370     5.6280     1.8360 O.3   1 <1>  -0.0190 
 16 N        1.0220     6.5630    -0.1200 N.2   1 <1>  -0.5650 
 17 N       -3.1570    -4.5160     1.2120 N.2   1 <1>  -0.7070 
 18 C       -2.2780    -4.7040    -0.8310 C.2   1 <1>  -0.1500 
 19 N        2.2500     6.4180     1.6650 N.2   1 <1>  -0.4100 
 20 C        2.1280     6.9690     0.5100 C.2   1 <1>   0.4620 
 21 N       -2.1670    -5.4290     1.2040 N.pl3 1 <1>   0.3000 
 22 C       -1.6190    -5.5590    -0.0220 C.2   1 <1>  -0.3320 
 23 C        3.0530     7.9220    -0.0730 C.ar  1 <1>   0.0540 
 24 C       -0.4800    -6.5070    -0.3500 C.3   1 <1>  -0.0600 
 25 C        4.2020     8.3440     0.5840 C.ar  1 <1>  -0.1500 
 26 C        2.8680     8.4860    -1.3280 C.ar  1 <1>  -0.1500 
 27 C        5.0570     9.2540    -0.0090 C.ar  1 <1>   0.1600 
 28 C        3.7820     9.3900    -1.8350 C.ar  1 <1>   0.1600 
 29 N        4.8750     9.7880    -1.2050 N.ar  1 <1>  -0.6200 
 30 H       -2.2600     2.9740    -0.6080 H     1 <1>   0.0800 
 31 H       -2.4230     2.8420     1.1230 H     1 <1>   0.0800 
 32 H       -4.3550     1.1010     1.0770 H     1 <1>   0.0800 
 33 H       -4.2430     1.4680    -0.6490 H     1 <1>   0.0800 
 34 H       -2.1330    -1.4260    -0.9030 H     1 <1>   0.0800 
 35 H       -1.8500    -1.5250     0.8270 H     1 <1>   0.0800 
 36 H        0.0330     3.1200     1.3680 H     1 <1>   0.0800 
 37 H        0.1850     3.2740    -0.3570 H     1 <1>   0.0800 
 38 H       -5.0160    -0.6160    -1.2740 H     1 <1>   0.0800 
 39 H       -4.0710    -1.8410     1.3230 H     1 <1>   0.0800 
 40 H       -1.3740     5.1700     1.4280 H     1 <1>   0.0800 
 41 H       -1.2490     5.3040    -0.3050 H     1 <1>   0.0800 
 42 H       -5.9270    -0.7800     1.3910 H     1 <1>   0.4000 
 43 H       -4.1180    -2.8890    -1.5230 H     1 <1>   0.0800 
 44 H       -5.1960    -3.3620    -0.2400 H     1 <1>   0.0800 
 45 H       -2.1300    -4.5180    -1.8800 H     1 <1>   0.1500 
 46 H       -1.8910    -5.9420     2.0490 H     1 <1>   0.2700 
 47 H       -0.2210    -6.4270    -1.3910 H     1 <1>   0.0800 
 48 H       -0.7690    -7.5220    -0.1460 H     1 <1>   0.0800 
 49 H        0.3880    -6.2630     0.2370 H     1 <1>   0.0800 
 50 H        4.4310     7.9610     1.5620 H     1 <1>   0.1500 
 51 H        2.0070     8.2200    -1.9140 H     1 <1>   0.1500 
 52 H        5.9390     9.5600     0.5280 H     1 <1>   0.1500 
 53 H        3.6080     9.8080    -2.8120 H     1 <1>   0.1500 
@<TRIPOS>BOND
  1   1   2  2   
  2   2   3  am  
  3   2   4  1   
  4   3   5  1   
  5   3   6  1   
  6   4   7  1   
  7   4  30  1   
  8   4  31  1   
  9   5   8  1   
 10   5  32  1   
 11   5  33  1   
 12   6   9  1   
 13   6  34  1   
 14   6  35  1   
 15   7  10  1   
 16   7  36  1   
 17   7  37  1   
 18   8   9  1   
 19   8  11  1   
 20   8  38  1   
 21   9  12  1   
 22   9  39  1   
 23  10  13  1   
 24  10  40  1   
 25  10  41  1   
 26  11  42  1   
 27  12  14  1   
 28  12  43  1   
 29  12  44  1   
 30  13  15  1   
 31  13  16  2   
 32  14  17  2   
 33  14  18  1   
 34  15  19  1   
 35  16  20  1   
 36  17  21  1   
 37  18  22  2   
 38  18  45  1   
 39  19  20  2   
 40  20  23  1   
 41  21  22  1   
 42  21  46  1   
 43  22  24  1   
 44  23  25  ar  
 45  23  26  ar  
 46  24  47  1   
 47  24  48  1   
 48  24  49  1   
 49  25  27  ar  
 50  25  50  1   
 51  26  28  ar  
 52  26  51  1   
 53  27  29  ar  
 54  27  52  1   
 55  28  29  ar  
 56  28  53  1   
@<TRIPOS>SUBSTRUCTURE
  1 ****   4 GROUP 4 **** **** 0

# MOE 2024.06 (io_trps.svl 2023.06)
