@<TRIPOS>MOLECULE
NONAME
42 43 1 0 0 
SMALL
USER_CHARGES


@<TRIPOS>ATOM
  1 F       -2.1690    -0.8440     1.0300 F     1 <1>  -0.1900 
  2 C       -2.5410     0.1630     0.2770 C.ar  1 <1>   0.1900 
  3 C       -2.3390     1.4630     0.7290 C.ar  1 <1>   0.0820 
  4 C       -3.1300    -0.1250    -0.9420 C.ar  1 <1>  -0.1440 
  5 O       -1.7580     1.6480     1.9450 O.3   1 <1>  -0.3630 
  6 C       -2.7490     2.5080    -0.0940 C.ar  1 <1>  -0.1500 
  7 C       -3.5280     0.9340    -1.7470 C.ar  1 <1>  -0.1500 
  8 C       -3.3280    -1.5650    -1.3730 C.3   1 <1>   0.4870 
  9 C       -1.4930     2.9390     2.4490 C.3   1 <1>   0.0400 
 10 C       -3.3370     2.2390    -1.3210 C.ar  1 <1>  -0.1500 
 11 N       -4.3690    -2.2080    -0.5320 N.4   1 <1>  -0.9590 
 12 C       -4.4620    -3.6710    -0.7860 C.3   1 <1>   0.5240 
 13 C       -5.6880    -1.4950    -0.5570 C.3   1 <1>   0.3430 
 14 C       -4.6970    -4.3630     0.5500 C.2   1 <1>   0.0460 
 15 C       -6.5870    -1.8250     0.6430 C.3   1 <1>   0.1200 
 16 N       -4.1220    -3.8600     1.6640 N.2   1 <1>  -0.5650 
 17 C       -5.4410    -5.4560     0.8410 C.2   1 <1>  -0.3320 
 18 O       -7.7510    -1.0880     0.5130 O.3   1 <1>  -0.6800 
 19 C       -4.5120    -4.6600     2.6030 C.2   1 <1>   0.0360 
 20 N       -5.3170    -5.6520     2.1700 N.pl3 1 <1>   0.0330 
 21 C       -6.2800    -6.3680    -0.0390 C.3   1 <1>  -0.0600 
 22 H       -2.6200     3.5330     0.2000 H     1 <1>   0.1500 
 23 H       -3.9860     0.7620    -2.7070 H     1 <1>   0.1500 
 24 H       -2.3940    -2.0910    -1.2640 H     1 <1>   0.0800 
 25 H       -3.6190    -1.5960    -2.4110 H     1 <1>   0.0800 
 26 H       -1.0220     2.8320     3.4100 H     1 <1>   0.0800 
 27 H       -2.4210     3.4720     2.5560 H     1 <1>   0.0800 
 28 H       -0.8290     3.4500     1.7730 H     1 <1>   0.0800 
 29 H       -3.6490     3.0580    -1.9490 H     1 <1>   0.1500 
 30 H       -4.0160    -2.1790     0.4470 H     1 <1>   0.4500 
 31 H       -3.5310    -4.0350    -1.1870 H     1 <1>   0.0800 
 32 H       -5.2560    -3.8980    -1.4780 H     1 <1>   0.0800 
 33 H       -6.2160    -1.7350    -1.4650 H     1 <1>   0.0800 
 34 H       -5.5200    -0.4310    -0.5400 H     1 <1>   0.0800 
 35 H       -6.1090    -1.5440     1.5670 H     1 <1>   0.0800 
 36 H       -6.8590    -2.8650     0.6650 H     1 <1>   0.0800 
 37 H       -8.3350    -1.2030     1.2930 H     1 <1>   0.4000 
 38 H       -4.2320    -4.5630     3.6390 H     1 <1>   0.1500 
 39 H       -5.7330    -6.3970     2.7390 H     1 <1>   0.2700 
 40 H       -6.2490    -6.0520    -1.0660 H     1 <1>   0.0800 
 41 H       -7.3060    -6.3610     0.2880 H     1 <1>   0.0800 
 42 H       -5.9110    -7.3780     0.0160 H     1 <1>   0.0800 
@<TRIPOS>BOND
  1   1   2  1   
  2   2   3  ar  
  3   2   4  ar  
  4   3   5  1   
  5   3   6  ar  
  6   4   7  ar  
  7   4   8  1   
  8   5   9  1   
  9   6  10  ar  
 10   6  22  1   
 11   7  10  ar  
 12   7  23  1   
 13   8  11  1   
 14   8  24  1   
 15   8  25  1   
 16   9  26  1   
 17   9  27  1   
 18   9  28  1   
 19  10  29  1   
 20  11  12  1   
 21  11  13  1   
 22  11  30  1   
 23  12  14  1   
 24  12  31  1   
 25  12  32  1   
 26  13  15  1   
 27  13  33  1   
 28  13  34  1   
 29  14  16  1   
 30  14  17  2   
 31  15  18  1   
 32  15  35  1   
 33  15  36  1   
 34  16  19  2   
 35  17  20  1   
 36  17  21  1   
 37  18  37  1   
 38  19  20  1   
 39  19  38  1   
 40  20  39  1   
 41  21  40  1   
 42  21  41  1   
 43  21  42  1   
@<TRIPOS>SUBSTRUCTURE
  1 ****  11 GROUP 4 **** **** 0

# MOE 2024.06 (io_trps.svl 2023.06)
