@<TRIPOS>MOLECULE
NONAME
44 46 1 0 0 
SMALL
USER_CHARGES


@<TRIPOS>ATOM
  1 F        3.0180     1.1030    -1.4000 F     1 <1>  -0.1900 
  2 C        2.4730     2.1350    -0.8070 C.ar  1 <1>   0.1900 
  3 C        2.8210     3.3990    -1.2160 C.ar  1 <1>  -0.1500 
  4 C        1.5590     1.8880     0.2230 C.ar  1 <1>  -0.1500 
  5 C        2.2220     4.4720    -0.5610 C.ar  1 <1>   0.2270 
  6 C        0.9690     2.9530     0.8680 C.ar  1 <1>  -0.1500 
  7 N        2.3870     5.8090    -0.7640 N.2   1 <1>  -0.5650 
  8 C        1.3140     4.2460     0.4600 C.ar  1 <1>  -0.1520 
  9 C        1.6080     6.3620     0.0980 C.2   1 <1>   0.0060 
 10 N        0.9280     5.4790     0.8730 N.pl3 1 <1>   0.0330 
 11 C        1.4670     7.8630     0.2480 C.3   1 <1>   0.0200 
 12 C        2.5920     8.4100     1.1310 C.3   1 <1>  -0.0990 
 13 C        2.5130     9.9150     1.2270 C.2   1 <1>   0.5690 
 14 O        1.7270    10.3880     2.0090 O.2   1 <1>  -0.5700 
 15 N        3.3330    10.6480     0.4160 N.am  1 <1>  -0.4940 
 16 C        3.5510    12.0440     0.3020 C.2   1 <1>  -0.0880 
 17 N        2.6610    13.0590     0.5070 N.pl3 1 <1>   0.3140 
 18 C        4.7140    12.6340    -0.0670 C.2   1 <1>  -0.1810 
 19 N        3.2270    14.2630     0.2760 N.2   1 <1>  -0.7070 
 20 C        1.2320    12.9880     0.8350 C.3   1 <1>   0.0160 
 21 C        4.4480    14.0010    -0.0620 C.2   1 <1>   0.1080 
 22 C        6.0420    11.9820    -0.4160 C.3   1 <1>  -0.0590 
 23 C        5.4350    15.1020    -0.4060 C.3   1 <1>   0.0210 
 24 C        5.4220    15.4090    -1.9070 C.3   1 <1>  -0.2400 
 25 H        3.5230     3.5750    -2.0070 H     1 <1>   0.1500 
 26 H        1.3340     0.8720     0.4910 H     1 <1>   0.1500 
 27 H        0.2600     2.8010     1.6640 H     1 <1>   0.1500 
 28 H        0.2600     5.6910     1.6190 H     1 <1>   0.2700 
 29 H        0.5090     8.1080     0.6720 H     1 <1>   0.0800 
 30 H        1.5230     8.3120    -0.7280 H     1 <1>   0.0800 
 31 H        3.5440     8.1160     0.7260 H     1 <1>   0.0800 
 32 H        2.5120     7.9960     2.1190 H     1 <1>   0.0800 
 33 H        3.9710    10.0930    -0.1530 H     1 <1>   0.3700 
 34 H        0.7890    12.1530     0.3260 H     1 <1>   0.0800 
 35 H        0.7530    13.8970     0.5210 H     1 <1>   0.0800 
 36 H        1.1230    12.8730     1.8960 H     1 <1>   0.0800 
 37 H        5.9820    10.9140    -0.3270 H     1 <1>   0.0800 
 38 H        6.8060    12.3360     0.2520 H     1 <1>   0.0800 
 39 H        6.3170    12.2300    -1.4250 H     1 <1>   0.0800 
 40 H        6.4230    14.8130    -0.0980 H     1 <1>   0.0800 
 41 H        5.1660    15.9880     0.1420 H     1 <1>   0.0800 
 42 H        5.6970    14.5350    -2.4690 H     1 <1>   0.0800 
 43 H        6.1120    16.2020    -2.1310 H     1 <1>   0.0800 
 44 H        4.4340    15.7120    -2.2050 H     1 <1>   0.0800 
@<TRIPOS>BOND
  1   1   2  1   
  2   2   3  ar  
  3   2   4  ar  
  4   3   5  ar  
  5   3  25  1   
  6   4   6  ar  
  7   4  26  1   
  8   5   7  1   
  9   5   8  ar  
 10   6   8  ar  
 11   6  27  1   
 12   7   9  2   
 13   8  10  1   
 14   9  10  1   
 15   9  11  1   
 16  10  28  1   
 17  11  12  1   
 18  11  29  1   
 19  11  30  1   
 20  12  13  1   
 21  12  31  1   
 22  12  32  1   
 23  13  14  2   
 24  13  15  am  
 25  15  16  1   
 26  15  33  1   
 27  16  17  1   
 28  16  18  2   
 29  17  19  1   
 30  17  20  1   
 31  18  21  1   
 32  18  22  1   
 33  19  21  2   
 34  20  34  1   
 35  20  35  1   
 36  20  36  1   
 37  21  23  1   
 38  22  37  1   
 39  22  38  1   
 40  22  39  1   
 41  23  24  1   
 42  23  40  1   
 43  23  41  1   
 44  24  42  1   
 45  24  43  1   
 46  24  44  1   
@<TRIPOS>SUBSTRUCTURE
  1 ****  12 GROUP 4 **** **** 0

# MOE 2024.06 (io_trps.svl 2023.06)
