@<TRIPOS>MOLECULE
NONAME
49 51 1 0 0 
SMALL
USER_CHARGES


@<TRIPOS>ATOM
  1 O       -1.8720     0.1690    -2.4250 O.2   1 <1>  -0.5700 
  2 C       -1.7490     0.5680    -1.2830 C.2   1 <1>   0.5440 
  3 N       -1.8040    -0.3560    -0.2780 N.am  1 <1>  -0.7300 
  4 C       -1.5550     1.9800    -0.9980 C.ar  1 <1>   0.0860 
  5 C       -1.9580    -1.8190    -0.4620 C.3   1 <1>   0.2200 
  6 C       -1.7970     2.5290     0.2660 C.ar  1 <1>  -0.1500 
  7 C       -1.1150     2.8560    -1.9920 C.ar  1 <1>  -0.1500 
  8 C       -3.3750    -2.2700    -0.1360 C.3   1 <1>  -0.0800 
  9 C       -1.1810    -2.5310     0.6360 C.3   1 <1>   0.1200 
 10 C       -1.6010     3.8730     0.5270 C.ar  1 <1>  -0.1500 
 11 C       -0.9170     4.2000    -1.7400 C.ar  1 <1>  -0.1500 
 12 C       -3.3420    -2.4410     1.3880 C.3   1 <1>   0.1200 
 13 C       -4.5070    -1.3610    -0.6500 C.3   1 <1>  -0.0160 
 14 O       -1.9950    -2.4440     1.7660 O.3   1 <1>  -0.5600 
 15 C       -1.1550     4.7230    -0.4800 C.ar  1 <1>   0.0830 
 16 C       -5.8680    -1.9670    -0.3480 C.ar  1 <1>  -0.1430 
 17 O       -0.9330     6.0490    -0.3210 O.3   1 <1>  -0.3630 
 18 C       -6.6260    -1.5700     0.7350 C.ar  1 <1>  -0.1500 
 19 C       -6.4160    -2.9500    -1.1470 C.ar  1 <1>  -0.1500 
 20 C       -1.0730     6.7290     0.9060 C.3   1 <1>   0.2000 
 21 C       -7.8570    -2.1640     0.9640 C.ar  1 <1>   0.1600 
 22 C       -7.6560    -3.4780    -0.8300 C.ar  1 <1>   0.1600 
 23 C       -1.2320     8.2120     0.5810 C.3   1 <1>  -0.2400 
 24 C        0.1770     6.4830     1.7540 C.3   1 <1>  -0.2400 
 25 N       -8.3890    -3.1110     0.2090 N.ar  1 <1>  -0.6200 
 26 H       -1.6740    -0.0780     0.6960 H     1 <1>   0.3700 
 27 H       -1.6410    -2.1170    -1.4470 H     1 <1>   0.0800 
 28 H       -2.1510     1.8990     1.0610 H     1 <1>   0.1500 
 29 H       -0.9250     2.4700    -2.9800 H     1 <1>   0.1500 
 30 H       -3.5120    -3.2480    -0.5640 H     1 <1>   0.0800 
 31 H       -0.2270    -2.0780     0.8360 H     1 <1>   0.0800 
 32 H       -1.0520    -3.5730     0.4000 H     1 <1>   0.0800 
 33 H       -1.8000     4.2410     1.5150 H     1 <1>   0.1500 
 34 H       -0.5760     4.8560    -2.5200 H     1 <1>   0.1500 
 35 H       -3.7950    -3.3680     1.6940 H     1 <1>   0.0800 
 36 H       -3.8200    -1.6190     1.8920 H     1 <1>   0.0800 
 37 H       -4.4020    -1.2290    -1.7130 H     1 <1>   0.0800 
 38 H       -4.4420    -0.3870    -0.1990 H     1 <1>   0.0800 
 39 H       -6.2740    -0.8060     1.4030 H     1 <1>   0.1500 
 40 H       -5.8900    -3.3080    -2.0130 H     1 <1>   0.1500 
 41 H       -1.9630     6.3800     1.4000 H     1 <1>   0.0800 
 42 H       -8.4340    -1.8420     1.8140 H     1 <1>   0.1500 
 43 H       -8.0670    -4.2450    -1.4650 H     1 <1>   0.1500 
 44 H       -0.3680     8.5760     0.0550 H     1 <1>   0.0800 
 45 H       -1.3490     8.7790     1.4860 H     1 <1>   0.0800 
 46 H       -2.1060     8.3600    -0.0280 H     1 <1>   0.0800 
 47 H        1.0520     6.8290     1.2340 H     1 <1>   0.0800 
 48 H        0.2890     5.4380     1.9730 H     1 <1>   0.0800 
 49 H        0.0990     7.0160     2.6840 H     1 <1>   0.0800 
@<TRIPOS>BOND
  1   1   2  2   
  2   2   3  am  
  3   2   4  1   
  4   3   5  1   
  5   3  26  1   
  6   4   6  ar  
  7   4   7  ar  
  8   5   8  1   
  9   5   9  1   
 10   5  27  1   
 11   6  10  ar  
 12   6  28  1   
 13   7  11  ar  
 14   7  29  1   
 15   8  12  1   
 16   8  13  1   
 17   8  30  1   
 18   9  14  1   
 19   9  31  1   
 20   9  32  1   
 21  10  15  ar  
 22  10  33  1   
 23  11  15  ar  
 24  11  34  1   
 25  12  14  1   
 26  12  35  1   
 27  12  36  1   
 28  13  16  1   
 29  13  37  1   
 30  13  38  1   
 31  15  17  1   
 32  16  18  ar  
 33  16  19  ar  
 34  17  20  1   
 35  18  21  ar  
 36  18  39  1   
 37  19  22  ar  
 38  19  40  1   
 39  20  23  1   
 40  20  24  1   
 41  20  41  1   
 42  21  25  ar  
 43  21  42  1   
 44  22  25  ar  
 45  22  43  1   
 46  23  44  1   
 47  23  45  1   
 48  23  46  1   
 49  24  47  1   
 50  24  48  1   
 51  24  49  1   
@<TRIPOS>SUBSTRUCTURE
  1 ****   3 GROUP 4 **** **** 0

# MOE 2024.06 (io_trps.svl 2023.06)
