@<TRIPOS>MOLECULE
NONAME
51 53 1 0 0 
SMALL
USER_CHARGES


@<TRIPOS>ATOM
  1 S        2.4090     1.9230     0.2540 S.o2  1 <1>   1.3330 
  2 O        2.6760     2.2380    -1.1320 O.2   1 <1>  -0.6500 
  3 O        2.8630     2.7960     1.3110 O.2   1 <1>  -0.6500 
  4 N        3.0580     0.3810     0.5500 N.am  1 <1>  -0.8490 
  5 C        0.6470     1.6310     0.4640 C.3   1 <1>  -0.0550 
  6 C        4.4080     0.4480     1.1190 C.3   1 <1>   0.1160 
  7 C        3.0600    -0.4910    -0.6300 C.3   1 <1>   0.1160 
  8 C       -0.3100     2.8310     0.2770 C.3   1 <1>  -0.0800 
  9 C       -0.1770     3.5300    -1.0840 C.3   1 <1>   0.2000 
 10 C       -0.1050     3.9420     1.3170 C.3   1 <1>   0.1400 
 11 O       -1.4360     3.9880    -1.4370 O.3   1 <1>  -0.6800 
 12 C        0.7150     4.7470    -0.8370 C.3   1 <1>   0.1400 
 13 N        0.5260     5.0690     0.5960 N.am  1 <1>  -0.6600 
 14 C        1.0920     6.1250     1.2610 C.2   1 <1>   0.6300 
 15 O        0.9200     6.2680     2.4510 O.2   1 <1>  -0.5700 
 16 C        1.9420     7.1590     0.5030 C.3   1 <1>   0.0320 
 17 C        3.2140     6.5570    -0.0910 C.ar  1 <1>  -0.0320 
 18 C        2.0800     8.5510     1.0590 C.3   1 <1>  -0.2000 
 19 C        1.2370     8.3200    -0.1510 C.3   1 <1>  -0.2000 
 20 C        3.5100     6.6480    -1.4440 C.ar  1 <1>  -0.1500 
 21 C        4.0890     5.8750     0.7400 C.ar  1 <1>  -0.1500 
 22 C        4.6580     6.0670    -1.9530 C.ar  1 <1>  -0.1500 
 23 C        5.2350     5.2920     0.2310 C.ar  1 <1>  -0.1500 
 24 C        5.5270     5.3850    -1.1190 C.ar  1 <1>  -0.1440 
 25 C        6.7790     4.7360    -1.6790 C.3   1 <1>  -0.0970 
 26 H        0.3510     0.8700    -0.2310 H     1 <1>   0.0800 
 27 H        0.4910     1.2300     1.4470 H     1 <1>   0.0800 
 28 H        4.7890    -0.5420     1.2980 H     1 <1>   0.0800 
 29 H        4.3860     0.9740     2.0590 H     1 <1>   0.0800 
 30 H        5.0710     0.9690     0.4480 H     1 <1>   0.0800 
 31 H        3.3920    -1.4780    -0.3590 H     1 <1>   0.0800 
 32 H        3.7170    -0.0960    -1.3890 H     1 <1>   0.0800 
 33 H        2.0680    -0.5670    -1.0390 H     1 <1>   0.0800 
 34 H       -1.3060     2.4370     0.3870 H     1 <1>   0.0800 
 35 H        0.1840     2.8940    -1.8750 H     1 <1>   0.0800 
 36 H        0.5190     3.6260     2.1370 H     1 <1>   0.0800 
 37 H       -1.0520     4.2710     1.7100 H     1 <1>   0.0800 
 38 H       -1.7030     4.6900    -0.8100 H     1 <1>   0.4000 
 39 H        0.4470     5.5750    -1.4700 H     1 <1>   0.0800 
 40 H        1.7460     4.4950    -1.0070 H     1 <1>   0.0800 
 41 H        1.6030     8.7780     1.9970 H     1 <1>   0.1000 
 42 H        3.0290     9.0460     0.9500 H     1 <1>   0.1000 
 43 H        1.5870     8.7250    -1.0830 H     1 <1>   0.1000 
 44 H        0.1690     8.3910    -0.0490 H     1 <1>   0.1000 
 45 H        2.8480     7.1630    -2.1140 H     1 <1>   0.1500 
 46 H        3.8710     5.7840     1.7900 H     1 <1>   0.1500 
 47 H        4.8700     6.1430    -3.0050 H     1 <1>   0.1500 
 48 H        5.8920     4.7580     0.8950 H     1 <1>   0.1500 
 49 H        7.1430     5.2900    -2.5250 H     1 <1>   0.0800 
 50 H        6.5550     3.7310    -1.9900 H     1 <1>   0.0800 
 51 H        7.5520     4.7050    -0.9330 H     1 <1>   0.0800 
@<TRIPOS>BOND
  1   1   2  2   
  2   1   3  2   
  3   1   4  am  
  4   1   5  1   
  5   4   6  1   
  6   4   7  1   
  7   5   8  1   
  8   5  26  1   
  9   5  27  1   
 10   6  28  1   
 11   6  29  1   
 12   6  30  1   
 13   7  31  1   
 14   7  32  1   
 15   7  33  1   
 16   8   9  1   
 17   8  10  1   
 18   8  34  1   
 19   9  11  1   
 20   9  12  1   
 21   9  35  1   
 22  10  13  1   
 23  10  36  1   
 24  10  37  1   
 25  11  38  1   
 26  12  13  1   
 27  12  39  1   
 28  12  40  1   
 29  13  14  am  
 30  14  15  2   
 31  14  16  1   
 32  16  17  1   
 33  16  18  1   
 34  16  19  1   
 35  17  20  ar  
 36  17  21  ar  
 37  18  19  1   
 38  18  41  1   
 39  18  42  1   
 40  19  43  1   
 41  19  44  1   
 42  20  22  ar  
 43  20  45  1   
 44  21  23  ar  
 45  21  46  1   
 46  22  24  ar  
 47  22  47  1   
 48  23  24  ar  
 49  23  48  1   
 50  24  25  1   
 51  25  49  1   
 52  25  50  1   
 53  25  51  1   
@<TRIPOS>SUBSTRUCTURE
  1 ****  12 GROUP 4 **** **** 0

# MOE 2024.06 (io_trps.svl 2023.06)
