@<TRIPOS>MOLECULE
NONAME
59 61 1 0 0 
SMALL
USER_CHARGES


@<TRIPOS>ATOM
  1 O        0.3930    -0.8100    -0.6030 O.2   1 <1>  -0.5700 
  2 C        0.4100    -1.2410     0.5260 C.2   1 <1>   0.5690 
  3 N        1.5610    -1.3160     1.2520 N.am  1 <1>  -0.7300 
  4 C       -0.9350    -1.6950     1.1240 C.3   1 <1>   0.4040 
  5 C        2.8900    -0.8600     0.7600 C.3   1 <1>   0.1400 
  6 N       -2.1280    -1.0670     0.4400 N.4   1 <1>  -0.9590 
  7 C        3.7320    -2.0570     0.3210 C.3   1 <1>  -0.0170 
  8 C       -3.4110    -1.7910     0.7010 C.3   1 <1>   0.3430 
  9 C       -2.2250     0.3950     0.7210 C.3   1 <1>   0.3430 
 10 C        5.1180    -1.5920    -0.0940 C.ar  1 <1>  -0.1430 
 11 C       -4.5620    -1.2340    -0.1620 C.3   1 <1>   0.0000 
 12 C       -3.3330     1.0070    -0.1350 C.3   1 <1>  -0.1600 
 13 C        5.3410    -1.1290    -1.3810 C.ar  1 <1>  -0.1500 
 14 C        6.1690    -1.6210     0.8100 C.ar  1 <1>  -0.1500 
 15 C       -5.8490    -2.0070     0.1900 C.3   1 <1>   0.2000 
 16 C       -4.6780     0.2920     0.0640 C.3   1 <1>  -0.1600 
 17 C       -4.3470    -1.5950    -1.6430 C.3   1 <1>  -0.1600 
 18 C        6.6010    -0.6990    -1.7580 C.ar  1 <1>  -0.1500 
 19 C        7.4310    -1.1920     0.4350 C.ar  1 <1>  -0.1500 
 20 O       -6.9480    -1.2910    -0.2840 O.3   1 <1>  -0.5600 
 21 C       -5.7420    -3.3210    -0.5940 C.3   1 <1>  -0.1600 
 22 C       -4.8220    -3.0440    -1.7920 C.3   1 <1>  -0.1600 
 23 C        7.6530    -0.7260    -0.8580 C.ar  1 <1>   0.0830 
 24 C       -8.1690    -1.5890     0.3200 C.3   1 <1>   0.0400 
 25 O        8.8550    -0.2870    -1.3070 O.3   1 <1>  -0.3630 
 26 C        9.9920    -0.2830    -0.4730 C.3   1 <1>   0.0400 
 27 H        1.5840    -1.7140     2.1950 H     1 <1>   0.3700 
 28 H       -0.9500    -1.4590     2.1730 H     1 <1>   0.0800 
 29 H       -0.9880    -2.7650     1.0170 H     1 <1>   0.0800 
 30 H        2.7670    -0.1860    -0.0730 H     1 <1>   0.0800 
 31 H        3.3980    -0.3260     1.5450 H     1 <1>   0.0800 
 32 H       -1.9220    -1.1300    -0.5710 H     1 <1>   0.4500 
 33 H        3.8180    -2.7630     1.1270 H     1 <1>   0.0800 
 34 H        3.2570    -2.5460    -0.5110 H     1 <1>   0.0800 
 35 H       -3.2890    -2.8390     0.4830 H     1 <1>   0.0800 
 36 H       -3.6750    -1.6910     1.7410 H     1 <1>   0.0800 
 37 H       -2.4460     0.5560     1.7630 H     1 <1>   0.0800 
 38 H       -1.2890     0.8790     0.4890 H     1 <1>   0.0800 
 39 H       -3.4430     2.0460     0.1260 H     1 <1>   0.0800 
 40 H       -3.0450     0.9710    -1.1720 H     1 <1>   0.0800 
 41 H        4.5380    -1.0990    -2.0970 H     1 <1>   0.1500 
 42 H        6.0140    -1.9790     1.8120 H     1 <1>   0.1500 
 43 H       -5.9610    -2.1570     1.2520 H     1 <1>   0.0800 
 44 H       -5.4060     0.7130    -0.6110 H     1 <1>   0.0800 
 45 H       -5.0330     0.4760     1.0640 H     1 <1>   0.0800 
 46 H       -4.9860    -0.9740    -2.2500 H     1 <1>   0.0800 
 47 H       -3.3360    -1.4680    -1.9870 H     1 <1>   0.0800 
 48 H        6.7780    -0.3390    -2.7560 H     1 <1>   0.1500 
 49 H        8.2230    -1.2270     1.1570 H     1 <1>   0.1500 
 50 H       -5.2970    -4.0770     0.0280 H     1 <1>   0.0800 
 51 H       -6.7050    -3.6770    -0.9170 H     1 <1>   0.0800 
 52 H       -3.9880    -3.7240    -1.7860 H     1 <1>   0.0800 
 53 H       -5.3570    -3.1660    -2.7200 H     1 <1>   0.0800 
 54 H       -8.9290    -0.9900    -0.1520 H     1 <1>   0.0800 
 55 H       -8.1180    -1.3440     1.3670 H     1 <1>   0.0800 
 56 H       -8.3990    -2.6310     0.1850 H     1 <1>   0.0800 
 57 H       10.8210     0.0980    -1.0410 H     1 <1>   0.0800 
 58 H       10.1970    -1.2910    -0.1590 H     1 <1>   0.0800 
 59 H        9.8030     0.3550     0.3720 H     1 <1>   0.0800 
@<TRIPOS>BOND
  1   1   2  2   
  2   2   3  am  
  3   2   4  1   
  4   3   5  1   
  5   3  27  1   
  6   4   6  1   
  7   4  28  1   
  8   4  29  1   
  9   5   7  1   
 10   5  30  1   
 11   5  31  1   
 12   6   8  1   
 13   6   9  1   
 14   6  32  1   
 15   7  10  1   
 16   7  33  1   
 17   7  34  1   
 18   8  11  1   
 19   8  35  1   
 20   8  36  1   
 21   9  12  1   
 22   9  37  1   
 23   9  38  1   
 24  10  13  ar  
 25  10  14  ar  
 26  11  15  1   
 27  11  16  1   
 28  11  17  1   
 29  12  16  1   
 30  12  39  1   
 31  12  40  1   
 32  13  18  ar  
 33  13  41  1   
 34  14  19  ar  
 35  14  42  1   
 36  15  20  1   
 37  15  21  1   
 38  15  43  1   
 39  16  44  1   
 40  16  45  1   
 41  17  22  1   
 42  17  46  1   
 43  17  47  1   
 44  18  23  ar  
 45  18  48  1   
 46  19  23  ar  
 47  19  49  1   
 48  20  24  1   
 49  21  22  1   
 50  21  50  1   
 51  21  51  1   
 52  22  52  1   
 53  22  53  1   
 54  23  25  1   
 55  24  54  1   
 56  24  55  1   
 57  24  56  1   
 58  25  26  1   
 59  26  57  1   
 60  26  58  1   
 61  26  59  1   
@<TRIPOS>SUBSTRUCTURE
  1 ****   1 GROUP 4 **** **** 0

# MOE 2024.06 (io_trps.svl 2023.06)
