@<TRIPOS>MOLECULE
NONAME
45 47 1 0 0 
SMALL
USER_CHARGES


@<TRIPOS>ATOM
  1 F       -2.4360    -0.7020     2.9810 F     1 <1>  -0.1900 
  2 C       -3.0220     0.0180     2.0630 C.ar  1 <1>   0.1900 
  3 C       -3.1700    -0.5070     0.7950 C.ar  1 <1>  -0.1500 
  4 C       -3.4760     1.2770     2.3940 C.ar  1 <1>  -0.1500 
  5 C       -3.8010     0.2450    -0.1870 C.ar  1 <1>  -0.1440 
  6 C       -4.0960     2.0300     1.4130 C.ar  1 <1>  -0.1500 
  7 C       -4.2600     1.5280     0.1270 C.ar  1 <1>  -0.1430 
  8 C       -3.9640    -0.3840    -1.5750 C.3   1 <1>   0.0440 
  9 C       -4.9400     2.4200    -0.9040 C.3   1 <1>  -0.0960 
 10 C       -4.5010    -1.8100    -1.5340 C.2   1 <1>   0.5690 
 11 O       -3.7990    -2.6900    -1.9710 O.2   1 <1>  -0.5700 
 12 N       -5.7450    -2.0810    -1.0280 N.am  1 <1>  -0.6600 
 13 C       -6.6810    -1.1060    -0.4130 C.3   1 <1>   0.1400 
 14 C       -6.2640    -3.4620    -0.8960 C.3   1 <1>   0.1400 
 15 C       -7.8920    -1.9360     0.0110 C.3   1 <1>   0.2000 
 16 C       -7.3790    -3.3690     0.1460 C.3   1 <1>  -0.0800 
 17 O       -8.4110    -1.4990     1.2190 O.3   1 <1>  -0.6800 
 18 C       -8.4850    -4.4210    -0.0330 C.3   1 <1>  -0.0170 
 19 C       -7.9270    -5.8290     0.0920 C.ar  1 <1>  -0.1430 
 20 C       -7.6830    -6.4030     1.3240 C.ar  1 <1>  -0.1500 
 21 C       -7.6320    -6.6060    -1.0110 C.ar  1 <1>  -0.1500 
 22 C       -7.1690    -7.6870     1.3910 C.ar  1 <1>   0.1600 
 23 C       -7.1200    -7.8800    -0.8330 C.ar  1 <1>   0.1600 
 24 N       -6.8810    -8.4400     0.3420 N.ar  1 <1>  -0.6200 
 25 H       -2.7930    -1.4940     0.5900 H     1 <1>   0.1500 
 26 H       -3.3440     1.6550     3.3910 H     1 <1>   0.1500 
 27 H       -4.4490     3.0160     1.6620 H     1 <1>   0.1500 
 28 H       -3.0030    -0.3960    -2.0560 H     1 <1>   0.0800 
 29 H       -4.6220     0.1850    -2.2000 H     1 <1>   0.0800 
 30 H       -5.1340     3.3980    -0.5020 H     1 <1>   0.0800 
 31 H       -5.8780     1.9910    -1.2060 H     1 <1>   0.0800 
 32 H       -4.3080     2.5370    -1.7660 H     1 <1>   0.0800 
 33 H       -6.2150    -0.6540     0.4460 H     1 <1>   0.0800 
 34 H       -6.9640    -0.3530    -1.1260 H     1 <1>   0.0800 
 35 H       -6.6500    -3.7790    -1.8500 H     1 <1>   0.0800 
 36 H       -5.4880    -4.1400    -0.5830 H     1 <1>   0.0800 
 37 H       -8.6640    -1.8640    -0.7360 H     1 <1>   0.0800 
 38 H       -6.9200    -3.4940     1.1110 H     1 <1>   0.0800 
 39 H       -7.7310    -1.5490     1.9190 H     1 <1>   0.4000 
 40 H       -8.9550    -4.3000    -0.9940 H     1 <1>   0.0800 
 41 H       -9.2420    -4.2720     0.7170 H     1 <1>   0.0800 
 42 H       -7.8870    -5.8640     2.2300 H     1 <1>   0.1500 
 43 H       -7.7940    -6.2350    -2.0060 H     1 <1>   0.1500 
 44 H       -6.9850    -8.1180     2.3610 H     1 <1>   0.1500 
 45 H       -6.8950    -8.4720    -1.7040 H     1 <1>   0.1500 
@<TRIPOS>BOND
  1   1   2  1   
  2   2   3  ar  
  3   2   4  ar  
  4   3   5  ar  
  5   3  25  1   
  6   4   6  ar  
  7   4  26  1   
  8   5   7  ar  
  9   5   8  1   
 10   6   7  ar  
 11   6  27  1   
 12   7   9  1   
 13   8  10  1   
 14   8  28  1   
 15   8  29  1   
 16   9  30  1   
 17   9  31  1   
 18   9  32  1   
 19  10  11  2   
 20  10  12  am  
 21  12  13  1   
 22  12  14  1   
 23  13  15  1   
 24  13  33  1   
 25  13  34  1   
 26  14  16  1   
 27  14  35  1   
 28  14  36  1   
 29  15  16  1   
 30  15  17  1   
 31  15  37  1   
 32  16  18  1   
 33  16  38  1   
 34  17  39  1   
 35  18  19  1   
 36  18  40  1   
 37  18  41  1   
 38  19  20  ar  
 39  19  21  ar  
 40  20  22  ar  
 41  20  42  1   
 42  21  23  ar  
 43  21  43  1   
 44  22  24  ar  
 45  22  44  1   
 46  23  24  ar  
 47  23  45  1   
@<TRIPOS>SUBSTRUCTURE
  1 ****  12 GROUP 4 **** **** 0

# MOE 2024.06 (io_trps.svl 2023.06)
