@<TRIPOS>MOLECULE
NONAME
55 58 1 0 0 
SMALL
USER_CHARGES


@<TRIPOS>ATOM
  1 O        0.8380     0.2250     0.4810 O.3   1 <1>  -0.6800 
  2 C        1.8430    -0.1270    -0.4120 C.3   1 <1>   0.2000 
  3 C        2.6630    -1.2470     0.2250 C.3   1 <1>  -0.0800 
  4 C        2.8180     1.0550    -0.5150 C.3   1 <1>   0.3430 
  5 C        3.5720    -0.4720     1.1780 C.3   1 <1>   0.3430 
  6 C        3.4720    -2.0380    -0.8270 C.3   1 <1>   0.0210 
  7 N        3.9330     0.7590     0.4350 N.4   1 <1>  -0.9590 
  8 C        4.2820    -3.1770    -0.2300 C.2   1 <1>   0.1080 
  9 C        4.3470     1.8940     1.2880 C.3   1 <1>   0.4860 
 10 N        4.5690    -3.2920     1.0320 N.2   1 <1>  -0.7070 
 11 C        4.8060    -4.2230    -0.9810 C.2   1 <1>  -0.1500 
 12 C        4.7780     3.0520     0.3970 C.ar  1 <1>  -0.1440 
 13 N        5.2800    -4.4360     1.1190 N.pl3 1 <1>   0.3000 
 14 C        5.4410    -5.0120    -0.0900 C.2   1 <1>  -0.3320 
 15 C        5.9600     3.0040    -0.3540 C.ar  1 <1>  -0.0230 
 16 C        3.9660     4.1750     0.3320 C.ar  1 <1>  -0.1500 
 17 C        6.1990    -6.3060    -0.3220 C.3   1 <1>  -0.0600 
 18 N        6.8370     1.8820    -0.3130 N.pl3 1 <1>   0.5930 
 19 C        6.2850     4.0870    -1.1650 C.ar  1 <1>  -0.1500 
 20 C        4.3090     5.2450    -0.4750 C.ar  1 <1>  -0.1500 
 21 N        6.4730     0.6540    -0.7740 N.2   1 <1>  -0.7070 
 22 C        8.0540     1.8080     0.2870 C.2   1 <1>  -0.3320 
 23 C        5.4690     5.2000    -1.2250 C.ar  1 <1>  -0.1500 
 24 C        7.4560    -0.1340    -0.4770 C.2   1 <1>   0.1080 
 25 C        8.4750     0.5310     0.1910 C.2   1 <1>  -0.1500 
 26 C        8.7690     2.9840     0.9360 C.3   1 <1>  -0.0600 
 27 C        7.4720    -1.6070    -0.8180 C.3   1 <1>  -0.0590 
 28 H        0.1430    -0.4650     0.5220 H     1 <1>   0.4000 
 29 H        1.3920    -0.3820    -1.3560 H     1 <1>   0.0800 
 30 H        2.0420    -1.9380     0.7690 H     1 <1>   0.0800 
 31 H        2.3120     1.9720    -0.2630 H     1 <1>   0.0800 
 32 H        3.2120     1.1290    -1.5150 H     1 <1>   0.0800 
 33 H        4.4480    -1.0330     1.4610 H     1 <1>   0.0800 
 34 H        3.0110    -0.2150     2.0620 H     1 <1>   0.0800 
 35 H        4.1480    -1.3900    -1.3580 H     1 <1>   0.0800 
 36 H        2.7940    -2.4610    -1.5470 H     1 <1>   0.0800 
 37 H        4.7730     0.5280    -0.1370 H     1 <1>   0.4500 
 38 H        3.5270     2.1970     1.9170 H     1 <1>   0.0800 
 39 H        5.1720     1.5970     1.9160 H     1 <1>   0.0800 
 40 H        4.7100    -4.3560    -2.0440 H     1 <1>   0.1500 
 41 H        5.6360    -4.8000     2.0120 H     1 <1>   0.2700 
 42 H        3.0570     4.2340     0.9070 H     1 <1>   0.1500 
 43 H        6.1860    -6.5620    -1.3670 H     1 <1>   0.0800 
 44 H        5.7430    -7.1090     0.2300 H     1 <1>   0.0800 
 45 H        7.2220    -6.2030    -0.0080 H     1 <1>   0.0800 
 46 H        7.1860     4.0600    -1.7570 H     1 <1>   0.1500 
 47 H        3.6760     6.1160    -0.5200 H     1 <1>   0.1500 
 48 H        5.7340     6.0320    -1.8560 H     1 <1>   0.1500 
 49 H        9.3920     0.0910     0.5440 H     1 <1>   0.1500 
 50 H        9.7000     2.6610     1.3690 H     1 <1>   0.0800 
 51 H        8.1620     3.4130     1.7130 H     1 <1>   0.0800 
 52 H        8.9820     3.7430     0.2030 H     1 <1>   0.0800 
 53 H        8.4790    -1.9320    -1.0050 H     1 <1>   0.0800 
 54 H        6.8820    -1.7900    -1.6970 H     1 <1>   0.0800 
 55 H        7.0680    -2.1740     0.0000 H     1 <1>   0.0800 
@<TRIPOS>BOND
  1   1   2  1   
  2   1  28  1   
  3   2   3  1   
  4   2   4  1   
  5   2  29  1   
  6   3   5  1   
  7   3   6  1   
  8   3  30  1   
  9   4   7  1   
 10   4  31  1   
 11   4  32  1   
 12   5   7  1   
 13   5  33  1   
 14   5  34  1   
 15   6   8  1   
 16   6  35  1   
 17   6  36  1   
 18   7   9  1   
 19   7  37  1   
 20   8  10  2   
 21   8  11  1   
 22   9  12  1   
 23   9  38  1   
 24   9  39  1   
 25  10  13  1   
 26  11  14  2   
 27  11  40  1   
 28  12  15  ar  
 29  12  16  ar  
 30  13  14  1   
 31  13  41  1   
 32  14  17  1   
 33  15  18  1   
 34  15  19  ar  
 35  16  20  ar  
 36  16  42  1   
 37  17  43  1   
 38  17  44  1   
 39  17  45  1   
 40  18  21  1   
 41  18  22  1   
 42  19  23  ar  
 43  19  46  1   
 44  20  23  ar  
 45  20  47  1   
 46  21  24  2   
 47  22  25  2   
 48  22  26  1   
 49  23  48  1   
 50  24  25  1   
 51  24  27  1   
 52  25  49  1   
 53  26  50  1   
 54  26  51  1   
 55  26  52  1   
 56  27  53  1   
 57  27  54  1   
 58  27  55  1   
@<TRIPOS>SUBSTRUCTURE
  1 ****   7 GROUP 4 **** **** 0

# MOE 2024.06 (io_trps.svl 2023.06)
