@<TRIPOS>MOLECULE
NONAME
53 54 1 0 0 
SMALL
USER_CHARGES


@<TRIPOS>ATOM
  1 O       -1.8350     4.0520    -1.2120 O.co2 1 <1>  -0.9000 
  2 C       -1.6840     2.8320    -1.0260 C.2   1 <1>   0.9060 
  3 O       -2.2490     1.9940    -1.7210 O.co2 1 <1>  -0.9000 
  4 C       -0.7280     2.4050     0.0860 C.3   1 <1>  -0.1060 
  5 C       -1.3540     2.9300     1.4120 C.3   1 <1>   0.2000 
  6 C        0.5770     3.1490    -0.2300 C.3   1 <1>   0.3430 
  7 C       -0.4340     0.8690     0.0340 C.3   1 <1>  -0.1600 
  8 O       -1.8700     1.9120     2.1880 O.3   1 <1>  -0.6800 
  9 C       -0.3560     3.6980     2.2790 C.3   1 <1>  -0.1600 
 10 N        0.4120     4.5970     0.0670 N.4   1 <1>  -0.9590 
 11 C        0.6260     0.3470     1.0240 C.3   1 <1>  -0.1600 
 12 C        0.2300     4.8920     1.5200 C.3   1 <1>   0.3430 
 13 C        1.4080     5.4500    -0.6340 C.3   1 <1>   0.3430 
 14 C        0.7680    -1.1720     0.9080 C.3   1 <1>  -0.2400 
 15 C        0.8840     6.8720    -0.8350 C.3   1 <1>   0.1200 
 16 O        1.9710     7.6680    -1.2400 O.3   1 <1>  -0.3630 
 17 C        1.8780     9.0220    -1.2170 C.ar  1 <1>   0.0830 
 18 C        3.0520     9.7580    -1.0720 C.ar  1 <1>  -0.1430 
 19 C        0.6560     9.6810    -1.3280 C.ar  1 <1>  -0.1500 
 20 C        2.9850    11.1420    -1.0230 C.ar  1 <1>  -0.1500 
 21 C        4.4120     9.0770    -0.9600 C.3   1 <1>  -0.0170 
 22 C        0.6040    11.0620    -1.2790 C.ar  1 <1>  -0.1500 
 23 C        1.7680    11.7920    -1.1240 C.ar  1 <1>  -0.1500 
 24 C        4.6800     8.6310     0.4790 C.3   1 <1>  -0.2400 
 25 H       -2.1810     3.5890     1.1950 H     1 <1>   0.0800 
 26 H        0.8090     3.0070    -1.2740 H     1 <1>   0.0800 
 27 H        1.3850     2.7540     0.3600 H     1 <1>   0.0800 
 28 H       -1.3560     0.3340     0.1890 H     1 <1>   0.0800 
 29 H       -0.1160     0.6170    -0.9650 H     1 <1>   0.0800 
 30 H       -2.4950     1.3830     1.6500 H     1 <1>   0.4000 
 31 H       -0.8440     4.0550     3.1680 H     1 <1>   0.0800 
 32 H        0.4420     3.0430     2.5810 H     1 <1>   0.0800 
 33 H       -0.5180     4.7720    -0.4050 H     1 <1>   0.4500 
 34 H        1.5850     0.7910     0.8270 H     1 <1>   0.0800 
 35 H        0.3450     0.5870     2.0350 H     1 <1>   0.0800 
 36 H        1.1760     5.1580     1.9640 H     1 <1>   0.0800 
 37 H       -0.4360     5.7340     1.6210 H     1 <1>   0.0800 
 38 H        2.3200     5.4820    -0.0630 H     1 <1>   0.0800 
 39 H        1.6200     5.0310    -1.6040 H     1 <1>   0.0800 
 40 H        1.0660    -1.4490    -0.0880 H     1 <1>   0.0800 
 41 H       -0.1680    -1.6530     1.1340 H     1 <1>   0.0800 
 42 H        1.5100    -1.5290     1.6000 H     1 <1>   0.0800 
 43 H        0.5010     7.2780     0.0840 H     1 <1>   0.0800 
 44 H        0.1330     6.8940    -1.6060 H     1 <1>   0.0800 
 45 H       -0.2610     9.1390    -1.4610 H     1 <1>   0.1500 
 46 H        3.8830    11.7230    -0.9050 H     1 <1>   0.1500 
 47 H        4.4520     8.2290    -1.6200 H     1 <1>   0.0800 
 48 H        5.1860     9.7580    -1.2710 H     1 <1>   0.0800 
 49 H       -0.3400    11.5720    -1.3640 H     1 <1>   0.1500 
 50 H        1.7290    12.8670    -1.0850 H     1 <1>   0.1500 
 51 H        3.9290     7.9300     0.7970 H     1 <1>   0.0800 
 52 H        4.6590     9.4810     1.1380 H     1 <1>   0.0800 
 53 H        5.6450     8.1630     0.5480 H     1 <1>   0.0800 
@<TRIPOS>BOND
  1   1   2  ar  
  2   2   3  ar  
  3   2   4  1   
  4   4   5  1   
  5   4   6  1   
  6   4   7  1   
  7   5   8  1   
  8   5   9  1   
  9   5  25  1   
 10   6  10  1   
 11   6  26  1   
 12   6  27  1   
 13   7  11  1   
 14   7  28  1   
 15   7  29  1   
 16   8  30  1   
 17   9  12  1   
 18   9  31  1   
 19   9  32  1   
 20  10  12  1   
 21  10  13  1   
 22  10  33  1   
 23  11  14  1   
 24  11  34  1   
 25  11  35  1   
 26  12  36  1   
 27  12  37  1   
 28  13  15  1   
 29  13  38  1   
 30  13  39  1   
 31  14  40  1   
 32  14  41  1   
 33  14  42  1   
 34  15  16  1   
 35  15  43  1   
 36  15  44  1   
 37  16  17  1   
 38  17  18  ar  
 39  17  19  ar  
 40  18  20  ar  
 41  18  21  1   
 42  19  22  ar  
 43  19  45  1   
 44  20  23  ar  
 45  20  46  1   
 46  21  24  1   
 47  21  47  1   
 48  21  48  1   
 49  22  23  ar  
 50  22  49  1   
 51  23  50  1   
 52  24  51  1   
 53  24  52  1   
 54  24  53  1   
@<TRIPOS>SUBSTRUCTURE
  1 ****  13 GROUP 4 **** **** 0

# MOE 2024.06 (io_trps.svl 2023.06)
