@<TRIPOS>MOLECULE
NONAME
48 50 1 0 0 
SMALL
USER_CHARGES


@<TRIPOS>ATOM
  1 F       -1.1540     0.9360    -1.7600 F     1 <1>  -0.1900 
  2 C       -1.2870     1.3310    -0.5140 C.ar  1 <1>   0.1900 
  3 C       -0.7670     2.5650    -0.1360 C.ar  1 <1>   0.1000 
  4 C       -1.9430     0.5130     0.3840 C.ar  1 <1>   0.1600 
  5 N       -0.0970     3.4040    -1.0270 N.pl3 1 <1>  -0.8690 
  6 C       -0.9600     2.8740     1.2020 C.ar  1 <1>  -0.1500 
  7 N       -2.1320     0.8200     1.6630 N.ar  1 <1>  -0.6200 
  8 C       -0.2930     4.8650    -1.0260 C.3   1 <1>   0.2090 
  9 C       -1.6320     1.9920     2.0340 C.ar  1 <1>   0.1600 
 10 C        1.0400     5.5060    -0.6330 C.3   1 <1>  -0.1600 
 11 C        1.0670     7.0390    -0.7730 C.3   1 <1>   0.4230 
 12 N        2.3740     7.5900    -0.2870 N.4   1 <1>  -0.9590 
 13 C       -0.0790     7.6940     0.0230 C.3   1 <1>  -0.1600 
 14 C        2.4510     9.0810    -0.3980 C.3   1 <1>   0.3430 
 15 C        3.5830     6.9790    -0.9190 C.3   1 <1>   0.4860 
 16 C       -0.0370     9.2250    -0.0210 C.3   1 <1>  -0.1600 
 17 C        1.3380     9.7290     0.4200 C.3   1 <1>  -0.1600 
 18 C        4.8110     7.4190    -0.1480 C.ar  1 <1>  -0.1430 
 19 C        5.6880     8.3460    -0.6930 C.ar  1 <1>  -0.1500 
 20 C        5.0640     6.8990     1.1140 C.ar  1 <1>  -0.1500 
 21 C        6.7970     8.7610     0.0230 C.ar  1 <1>  -0.1500 
 22 C        6.1740     7.3150     1.8280 C.ar  1 <1>  -0.1500 
 23 C        7.0380     8.2470     1.2840 C.ar  1 <1>  -0.1500 
 24 H       -2.3270    -0.4300     0.0380 H     1 <1>   0.1500 
 25 H       -0.0340     3.0040    -1.9750 H     1 <1>   0.4000 
 26 H       -0.5840     3.7930     1.6020 H     1 <1>   0.1500 
 27 H       -1.0750     5.1270    -0.3330 H     1 <1>   0.0800 
 28 H       -0.5900     5.1790    -2.0130 H     1 <1>   0.0800 
 29 H       -1.7660     2.2620     3.0690 H     1 <1>   0.1500 
 30 H        1.7800     5.0750    -1.2800 H     1 <1>   0.0800 
 31 H        1.2590     5.2280     0.3830 H     1 <1>   0.0800 
 32 H        0.9460     7.2940    -1.8140 H     1 <1>   0.0800 
 33 H        2.4440     7.3790     0.7150 H     1 <1>   0.4500 
 34 H       -0.0410     7.3640     1.0470 H     1 <1>   0.0800 
 35 H       -1.0270     7.3860    -0.3790 H     1 <1>   0.0800 
 36 H        2.3580     9.3760    -1.4310 H     1 <1>   0.0800 
 37 H        3.4020     9.4340    -0.0300 H     1 <1>   0.0800 
 38 H        3.6620     7.2820    -1.9500 H     1 <1>   0.0800 
 39 H        3.5330     5.9040    -0.8810 H     1 <1>   0.0800 
 40 H       -0.7980     9.6320     0.6240 H     1 <1>   0.0800 
 41 H       -0.2410     9.5650    -1.0230 H     1 <1>   0.0800 
 42 H        1.3850    10.7970     0.2920 H     1 <1>   0.0800 
 43 H        1.4940     9.5240     1.4650 H     1 <1>   0.0800 
 44 H        5.5250     8.7560    -1.6760 H     1 <1>   0.1500 
 45 H        4.4130     6.1640     1.5570 H     1 <1>   0.1500 
 46 H        7.4780     9.4810    -0.3990 H     1 <1>   0.1500 
 47 H        6.3720     6.9120     2.8080 H     1 <1>   0.1500 
 48 H        7.9020     8.5700     1.8410 H     1 <1>   0.1500 
@<TRIPOS>BOND
  1   1   2  1   
  2   2   3  ar  
  3   2   4  ar  
  4   3   5  1   
  5   3   6  ar  
  6   4   7  ar  
  7   4  24  1   
  8   5   8  1   
  9   5  25  1   
 10   6   9  ar  
 11   6  26  1   
 12   7   9  ar  
 13   8  10  1   
 14   8  27  1   
 15   8  28  1   
 16   9  29  1   
 17  10  11  1   
 18  10  30  1   
 19  10  31  1   
 20  11  12  1   
 21  11  13  1   
 22  11  32  1   
 23  12  14  1   
 24  12  15  1   
 25  12  33  1   
 26  13  16  1   
 27  13  34  1   
 28  13  35  1   
 29  14  17  1   
 30  14  36  1   
 31  14  37  1   
 32  15  18  1   
 33  15  38  1   
 34  15  39  1   
 35  16  17  1   
 36  16  40  1   
 37  16  41  1   
 38  17  42  1   
 39  17  43  1   
 40  18  19  ar  
 41  18  20  ar  
 42  19  21  ar  
 43  19  44  1   
 44  20  22  ar  
 45  20  45  1   
 46  21  23  ar  
 47  21  46  1   
 48  22  23  ar  
 49  22  47  1   
 50  23  48  1   
@<TRIPOS>SUBSTRUCTURE
  1 ****  10 GROUP 4 **** **** 0

# MOE 2024.06 (io_trps.svl 2023.06)
