@<TRIPOS>MOLECULE
NONAME
47 50 1 0 0 
SMALL
USER_CHARGES


@<TRIPOS>ATOM
  1 CL       0.1880    -0.1230    -0.4910 Cl    1 <1>  -0.1770 
  2 C       -0.0720    -1.8370    -0.6590 C.ar  1 <1>   0.1770 
  3 C        0.7320    -2.7190     0.0370 C.ar  1 <1>  -0.1500 
  4 C       -1.0740    -2.2960    -1.4880 C.ar  1 <1>  -0.1500 
  5 C        0.5340    -4.0860    -0.0860 C.ar  1 <1>  -0.1440 
  6 C       -1.2760    -3.6580    -1.6080 C.ar  1 <1>  -0.1500 
  7 C       -0.4960    -4.5800    -0.9040 C.ar  1 <1>   0.0860 
  8 C        1.4760    -5.0180     0.6680 C.3   1 <1>  -0.0960 
  9 C       -0.7950    -5.9960    -1.0440 C.2   1 <1>   0.5440 
 10 O       -0.9320    -6.4910    -2.1450 O.2   1 <1>  -0.5700 
 11 N       -1.0410    -6.8060     0.0440 N.am  1 <1>  -0.6600 
 12 C       -1.9100    -6.3410     1.1630 C.3   1 <1>   0.1400 
 13 C       -1.0170    -8.2890    -0.1120 C.3   1 <1>   0.1400 
 14 C       -3.3550    -6.8770     0.9960 C.3   1 <1>   0.4230 
 15 C       -2.4460    -8.8100    -0.3320 C.3   1 <1>   0.3430 
 16 N       -3.3890    -8.3820     0.7740 N.4   1 <1>  -0.9590 
 17 C       -4.0820    -6.1340    -0.1500 C.3   1 <1>   0.1200 
 18 C       -4.8060    -8.8240     0.5320 C.3   1 <1>   0.5180 
 19 O       -5.3870    -6.6160    -0.2860 O.3   1 <1>  -0.5600 
 20 C       -4.8340   -10.3470     0.2910 C.3   1 <1>  -0.1950 
 21 C       -5.4770    -7.9830    -0.5830 C.3   1 <1>   0.1200 
 22 C       -4.6670   -11.0070    -1.0480 C.3   1 <1>  -0.2000 
 23 C       -5.9960   -11.0480    -0.3490 C.3   1 <1>  -0.2000 
 24 H        1.5110    -2.3220     0.6630 H     1 <1>   0.1500 
 25 H       -1.6800    -1.5920    -2.0320 H     1 <1>   0.1500 
 26 H       -2.0490    -4.0200    -2.2650 H     1 <1>   0.1500 
 27 H        2.3660    -4.4980     0.9730 H     1 <1>   0.0800 
 28 H        1.7750    -5.8390     0.0400 H     1 <1>   0.0800 
 29 H        0.9940    -5.4070     1.5460 H     1 <1>   0.0800 
 30 H       -1.5010    -6.6900     2.0960 H     1 <1>   0.0800 
 31 H       -1.9260    -5.2650     1.2040 H     1 <1>   0.0800 
 32 H       -0.4020    -8.5630    -0.9540 H     1 <1>   0.0800 
 33 H       -0.5850    -8.7400     0.7640 H     1 <1>   0.0800 
 34 H       -3.8910    -6.6450     1.9020 H     1 <1>   0.0800 
 35 H       -2.4160    -9.8850    -0.3980 H     1 <1>   0.0800 
 36 H       -2.7960    -8.4330    -1.2800 H     1 <1>   0.0800 
 37 H       -3.0770    -8.8380     1.6370 H     1 <1>   0.4500 
 38 H       -3.5710    -6.2540    -1.0900 H     1 <1>   0.0800 
 39 H       -4.1480    -5.0820     0.0690 H     1 <1>   0.0800 
 40 H       -5.3750    -8.6400     1.4290 H     1 <1>   0.0800 
 41 H       -4.4300   -10.8670     1.1430 H     1 <1>   0.1000 
 42 H       -6.5220    -8.2250    -0.6510 H     1 <1>   0.0800 
 43 H       -5.0220    -8.1580    -1.5420 H     1 <1>   0.0800 
 44 H       -4.6120   -10.4360    -1.9600 H     1 <1>   0.1000 
 45 H       -4.1120   -11.9290    -1.1180 H     1 <1>   0.1000 
 46 H       -6.3250   -11.9900     0.0600 H     1 <1>   0.1000 
 47 H       -6.8110   -10.5030    -0.7950 H     1 <1>   0.1000 
@<TRIPOS>BOND
  1   1   2  1   
  2   2   3  ar  
  3   2   4  ar  
  4   3   5  ar  
  5   3  24  1   
  6   4   6  ar  
  7   4  25  1   
  8   5   7  ar  
  9   5   8  1   
 10   6   7  ar  
 11   6  26  1   
 12   7   9  1   
 13   8  27  1   
 14   8  28  1   
 15   8  29  1   
 16   9  10  2   
 17   9  11  am  
 18  11  12  1   
 19  11  13  1   
 20  12  14  1   
 21  12  30  1   
 22  12  31  1   
 23  13  15  1   
 24  13  32  1   
 25  13  33  1   
 26  14  16  1   
 27  14  17  1   
 28  14  34  1   
 29  15  16  1   
 30  15  35  1   
 31  15  36  1   
 32  16  18  1   
 33  16  37  1   
 34  17  19  1   
 35  17  38  1   
 36  17  39  1   
 37  18  20  1   
 38  18  21  1   
 39  18  40  1   
 40  19  21  1   
 41  20  22  1   
 42  20  23  1   
 43  20  41  1   
 44  21  42  1   
 45  21  43  1   
 46  22  23  1   
 47  22  44  1   
 48  22  45  1   
 49  23  46  1   
 50  23  47  1   
@<TRIPOS>SUBSTRUCTURE
  1 ****  11 GROUP 4 **** **** 0

# MOE 2024.06 (io_trps.svl 2023.06)
