@<TRIPOS>MOLECULE
NONAME
56 58 1 0 0 
SMALL
USER_CHARGES


@<TRIPOS>ATOM
  1 S        0.3690     0.2190    -1.4180 S.3   1 <1>  -0.0800 
  2 C       -0.5210     1.3070    -0.3780 C.2   1 <1>  -0.0450 
  3 C       -0.2720    -1.1470    -0.5370 C.2   1 <1>   0.1980 
  4 C       -1.2100     0.5430     0.5020 C.2   1 <1>   0.0460 
  5 C       -0.3730     2.7220    -0.5800 C.2   1 <1>   0.7150 
  6 N       -1.0490    -0.8200     0.4170 N.2   1 <1>  -0.5650 
  7 C        0.1340    -2.5540    -0.9640 C.3   1 <1>   0.1000 
  8 C       -2.1640     1.0270     1.5760 C.3   1 <1>  -0.0590 
  9 O       -0.3440     3.1980    -1.6980 O.2   1 <1>  -0.5700 
 10 N       -0.1250     3.5640     0.4850 N.am  1 <1>  -0.6600 
 11 C        1.6440    -2.7790    -0.8080 C.3   1 <1>  -0.2400 
 12 C       -0.3110    -2.8550    -2.4020 C.3   1 <1>  -0.2400 
 13 C        0.8220     3.1440     1.5550 C.3   1 <1>   0.1400 
 14 C       -0.3810     5.0240     0.3740 C.3   1 <1>   0.1400 
 15 C        2.2480     2.9950     0.9800 C.3   1 <1>   0.3430 
 16 C        0.9250     5.8170     0.2400 C.3   1 <1>  -0.1600 
 17 N        2.8740     4.2710     0.4710 N.4   1 <1>  -0.9590 
 18 C        2.0360     5.0630    -0.4960 C.3   1 <1>   0.3430 
 19 C        4.2040     3.9670    -0.1300 C.3   1 <1>   0.4860 
 20 C        4.9880     5.2550    -0.2690 C.ar  1 <1>  -0.1430 
 21 C        5.1700     5.8220    -1.5200 C.ar  1 <1>   0.1600 
 22 C        5.5300     5.8900     0.8340 C.ar  1 <1>  -0.1500 
 23 N        5.8050     6.9530    -1.7480 N.ar  1 <1>  -0.6200 
 24 C        6.2090     7.0670     0.6080 C.ar  1 <1>  -0.1500 
 25 C        6.3190     7.5620    -0.6910 C.ar  1 <1>   0.3930 
 26 O        6.9650     8.7110    -0.9770 O.3   1 <1>  -0.3620 
 27 C        7.6970     9.4450    -0.0200 C.3   1 <1>   0.0400 
 28 H       -0.3740    -3.2430    -0.3100 H     1 <1>   0.0800 
 29 H       -2.2740     2.0950     1.5490 H     1 <1>   0.0800 
 30 H       -1.8030     0.7310     2.5440 H     1 <1>   0.0800 
 31 H       -3.1290     0.5800     1.4200 H     1 <1>   0.0800 
 32 H        2.1960    -2.1380    -1.4720 H     1 <1>   0.0800 
 33 H        1.8910    -3.8010    -1.0330 H     1 <1>   0.0800 
 34 H        1.9410    -2.5710     0.2040 H     1 <1>   0.0800 
 35 H        0.1970    -2.2180    -3.1030 H     1 <1>   0.0800 
 36 H       -1.3710    -2.6930    -2.4960 H     1 <1>   0.0800 
 37 H       -0.0990    -3.8790    -2.6510 H     1 <1>   0.0800 
 38 H        0.5080     2.1960     1.9570 H     1 <1>   0.0800 
 39 H        0.8150     3.8540     2.3630 H     1 <1>   0.0800 
 40 H       -0.9320     5.3610     1.2360 H     1 <1>   0.0800 
 41 H       -0.9990     5.2120    -0.4900 H     1 <1>   0.0800 
 42 H        2.2070     2.2730     0.1800 H     1 <1>   0.0800 
 43 H        2.8760     2.5800     1.7510 H     1 <1>   0.0800 
 44 H        1.2640     6.1490     1.2050 H     1 <1>   0.0800 
 45 H        0.6950     6.7050    -0.3230 H     1 <1>   0.0800 
 46 H        3.0570     4.8930     1.2670 H     1 <1>   0.4500 
 47 H        2.6550     5.7970    -0.9850 H     1 <1>   0.0800 
 48 H        1.6180     4.4250    -1.2580 H     1 <1>   0.0800 
 49 H        4.0800     3.4990    -1.0940 H     1 <1>   0.0800 
 50 H        4.7540     3.2920     0.5060 H     1 <1>   0.0800 
 51 H        4.7700     5.3310    -2.3920 H     1 <1>   0.1500 
 52 H        5.4440     5.4970     1.8330 H     1 <1>   0.1500 
 53 H        6.6460     7.5920     1.4360 H     1 <1>   0.1500 
 54 H        8.1530    10.2800    -0.5210 H     1 <1>   0.0800 
 55 H        8.4590     8.8120     0.3990 H     1 <1>   0.0800 
 56 H        7.0250     9.8010     0.7400 H     1 <1>   0.0800 
@<TRIPOS>BOND
  1   1   2  1   
  2   1   3  1   
  3   2   4  2   
  4   2   5  1   
  5   3   6  2   
  6   3   7  1   
  7   4   6  1   
  8   4   8  1   
  9   5   9  2   
 10   5  10  am  
 11   7  11  1   
 12   7  12  1   
 13   7  28  1   
 14   8  29  1   
 15   8  30  1   
 16   8  31  1   
 17  10  13  1   
 18  10  14  1   
 19  11  32  1   
 20  11  33  1   
 21  11  34  1   
 22  12  35  1   
 23  12  36  1   
 24  12  37  1   
 25  13  15  1   
 26  13  38  1   
 27  13  39  1   
 28  14  16  1   
 29  14  40  1   
 30  14  41  1   
 31  15  17  1   
 32  15  42  1   
 33  15  43  1   
 34  16  18  1   
 35  16  44  1   
 36  16  45  1   
 37  17  18  1   
 38  17  19  1   
 39  17  46  1   
 40  18  47  1   
 41  18  48  1   
 42  19  20  1   
 43  19  49  1   
 44  19  50  1   
 45  20  21  ar  
 46  20  22  ar  
 47  21  23  ar  
 48  21  51  1   
 49  22  24  ar  
 50  22  52  1   
 51  23  25  ar  
 52  24  25  ar  
 53  24  53  1   
 54  25  26  1   
 55  26  27  1   
 56  27  54  1   
 57  27  55  1   
 58  27  56  1   
@<TRIPOS>SUBSTRUCTURE
  1 ****  15 GROUP 4 **** **** 0

# MOE 2024.06 (io_trps.svl 2023.06)
