@<TRIPOS>MOLECULE
NONAME
54 56 1 0 0 
SMALL
USER_CHARGES


@<TRIPOS>ATOM
  1 O       -0.2710    -1.4750     2.1940 O.2   1 <1>  -0.5700 
  2 C       -1.0190    -1.2550     1.2630 C.2   1 <1>   0.7160 
  3 N       -0.9510    -2.0380     0.1280 N.am  1 <1>  -0.6600 
  4 C       -1.9880    -0.1900     1.3820 C.2   1 <1>  -0.0860 
  5 C        0.2730    -2.7680    -0.3550 C.3   1 <1>   0.2200 
  6 C       -2.1660    -2.3400    -0.6780 C.3   1 <1>   0.1400 
  7 C       -2.3810     0.7660     0.4930 C.2   1 <1>  -0.0400 
  8 C       -2.7550     0.0770     2.5350 C.2   1 <1>  -0.1500 
  9 C        0.0820    -4.3060    -0.2970 C.3   1 <1>   0.0000 
 10 C        1.6220    -2.3260     0.2360 C.3   1 <1>   0.1400 
 11 C       -2.4170    -3.8530    -0.7020 C.3   1 <1>  -0.1600 
 12 O       -3.3090     1.5350     1.0070 O.3   1 <1>  -0.2800 
 13 C       -1.9140     1.0720    -0.9160 C.3   1 <1>  -0.0600 
 14 C       -3.5370     1.1320     2.2380 C.2   1 <1>  -0.0100 
 15 C        1.3140    -4.9880    -0.9640 C.3   1 <1>  -0.1600 
 16 C       -1.1710    -4.6430    -1.1470 C.3   1 <1>  -0.1600 
 17 C       -0.1820    -4.8170     1.1520 C.3   1 <1>   0.1200 
 18 N        2.7110    -2.9570    -0.5730 N.am  1 <1>  -0.6600 
 19 C        2.6910    -4.4440    -0.5300 C.3   1 <1>   0.1400 
 20 O        0.9690    -5.0160     1.8980 O.3   1 <1>  -0.6800 
 21 C        3.6950    -2.2650    -1.2440 C.2   1 <1>   0.5690 
 22 O        4.5210    -2.8440    -1.9150 O.2   1 <1>  -0.5700 
 23 C        3.7660    -0.7330    -1.2350 C.3   1 <1>   0.1810 
 24 O        3.8770    -0.2030     0.0620 O.3   1 <1>  -0.5600 
 25 C        3.9510     1.1800     0.1100 C.3   1 <1>   0.1200 
 26 C        3.9800     1.5820     1.5780 C.3   1 <1>  -0.2400 
 27 H        0.3530    -2.5130    -1.3970 H     1 <1>   0.0800 
 28 H       -3.0320    -1.8480    -0.2680 H     1 <1>   0.0800 
 29 H       -2.0200    -1.9790    -1.6820 H     1 <1>   0.0800 
 30 H       -2.6880    -0.4810     3.4520 H     1 <1>   0.1500 
 31 H        1.7150    -2.6440     1.2600 H     1 <1>   0.0800 
 32 H        1.6850    -1.2560     0.2070 H     1 <1>   0.0800 
 33 H       -2.7310    -4.1690     0.2770 H     1 <1>   0.0800 
 34 H       -3.2290    -4.0600    -1.3760 H     1 <1>   0.0800 
 35 H       -1.0940     0.4370    -1.1930 H     1 <1>   0.0800 
 36 H       -1.5910     2.0960    -0.9710 H     1 <1>   0.0800 
 37 H       -2.7250     0.9280    -1.6060 H     1 <1>   0.0800 
 38 H       -4.2680     1.6550     2.8300 H     1 <1>   0.1500 
 39 H        1.2620    -4.8480    -2.0290 H     1 <1>   0.0800 
 40 H        1.2830    -6.0490    -0.7920 H     1 <1>   0.0800 
 41 H       -0.9800    -4.4040    -2.1790 H     1 <1>   0.0800 
 42 H       -1.3790    -5.6980    -1.0990 H     1 <1>   0.0800 
 43 H       -0.6970    -5.7620     1.1260 H     1 <1>   0.0800 
 44 H       -0.7970    -4.1220     1.6970 H     1 <1>   0.0800 
 45 H        3.4490    -4.8490    -1.1800 H     1 <1>   0.0800 
 46 H        2.9360    -4.7550     0.4690 H     1 <1>   0.0800 
 47 H        1.5020    -5.7390     1.5230 H     1 <1>   0.4000 
 48 H        2.8790    -0.3390    -1.6940 H     1 <1>   0.0800 
 49 H        4.6280    -0.4230    -1.7990 H     1 <1>   0.0800 
 50 H        4.8490     1.4980    -0.3920 H     1 <1>   0.0800 
 51 H        3.0850     1.5960    -0.3780 H     1 <1>   0.0800 
 52 H        4.8380     1.1500     2.0610 H     1 <1>   0.0800 
 53 H        3.0860     1.2430     2.0710 H     1 <1>   0.0800 
 54 H        4.0370     2.6510     1.6650 H     1 <1>   0.0800 
@<TRIPOS>BOND
  1   1   2  2   
  2   2   3  am  
  3   2   4  1   
  4   3   5  1   
  5   3   6  1   
  6   4   7  2   
  7   4   8  1   
  8   5   9  1   
  9   5  10  1   
 10   5  27  1   
 11   6  11  1   
 12   6  28  1   
 13   6  29  1   
 14   7  12  1   
 15   7  13  1   
 16   8  14  2   
 17   8  30  1   
 18   9  15  1   
 19   9  16  1   
 20   9  17  1   
 21  10  18  1   
 22  10  31  1   
 23  10  32  1   
 24  11  16  1   
 25  11  33  1   
 26  11  34  1   
 27  12  14  1   
 28  13  35  1   
 29  13  36  1   
 30  13  37  1   
 31  14  38  1   
 32  15  19  1   
 33  15  39  1   
 34  15  40  1   
 35  16  41  1   
 36  16  42  1   
 37  17  20  1   
 38  17  43  1   
 39  17  44  1   
 40  18  19  1   
 41  18  21  am  
 42  19  45  1   
 43  19  46  1   
 44  20  47  1   
 45  21  22  2   
 46  21  23  1   
 47  23  24  1   
 48  23  48  1   
 49  23  49  1   
 50  24  25  1   
 51  25  26  1   
 52  25  50  1   
 53  25  51  1   
 54  26  52  1   
 55  26  53  1   
 56  26  54  1   
@<TRIPOS>SUBSTRUCTURE
  1 ****   5 GROUP 4 **** **** 0

# MOE 2024.06 (io_trps.svl 2023.06)
