@<TRIPOS>MOLECULE
NONAME
35 36 1 0 0 
SMALL
USER_CHARGES


@<TRIPOS>ATOM
  1 CL       0.7190     0.2980    -1.5600 Cl    1 <1>  -0.1770 
  2 C        1.5770    -0.8320    -0.5230 C.ar  1 <1>   0.1770 
  3 C        1.1750    -2.1580    -0.3660 C.ar  1 <1>   0.4100 
  4 C        2.6910    -0.4090     0.1480 C.ar  1 <1>   0.1600 
  5 N        1.8820    -2.9720     0.4010 N.ar  1 <1>  -0.6200 
  6 N        0.0510    -2.6960    -0.9750 N.pl3 1 <1>  -0.8380 
  7 N        3.3910    -1.2160     0.9280 N.ar  1 <1>  -0.6200 
  8 C        2.9360    -2.4560     1.0040 C.ar  1 <1>   0.4770 
  9 C        0.0580    -4.1000    -1.4700 C.3   1 <1>   0.2090 
 10 C       -1.2900    -2.1060    -0.7190 C.3   1 <1>   0.2090 
 11 C        3.7200    -3.4000     1.8820 C.3   1 <1>  -0.0960 
 12 C       -0.7480    -4.9990    -0.5320 C.3   1 <1>  -0.1600 
 13 C       -2.0900    -3.0110     0.2160 C.3   1 <1>  -0.1600 
 14 C       -2.1570    -4.4360    -0.3280 C.3   1 <1>   0.2000 
 15 O       -2.8400    -5.2030     0.6130 O.3   1 <1>  -0.5600 
 16 C       -3.4410    -6.3560     0.1270 C.3   1 <1>   0.1200 
 17 C       -4.1560    -7.0230     1.2950 C.3   1 <1>  -0.2400 
 18 H        3.0220     0.6090     0.0440 H     1 <1>   0.1500 
 19 H        1.0700    -4.4620    -1.5430 H     1 <1>   0.0800 
 20 H       -0.3720    -4.1210    -2.4570 H     1 <1>   0.0800 
 21 H       -1.8080    -1.9900    -1.6570 H     1 <1>   0.0800 
 22 H       -1.1920    -1.1350    -0.2660 H     1 <1>   0.0800 
 23 H        3.0530    -4.0890     2.3660 H     1 <1>   0.0800 
 24 H        4.2590    -2.8510     2.6320 H     1 <1>   0.0800 
 25 H        4.4170    -3.9490     1.2780 H     1 <1>   0.0800 
 26 H       -0.2380    -5.0520     0.4140 H     1 <1>   0.0800 
 27 H       -0.7920    -5.9840    -0.9550 H     1 <1>   0.0800 
 28 H       -3.0840    -2.6210     0.3260 H     1 <1>   0.0800 
 29 H       -1.6140    -3.0160     1.1810 H     1 <1>   0.0800 
 30 H       -2.7090    -4.4400    -1.2530 H     1 <1>   0.0800 
 31 H       -2.6860    -7.0100    -0.2730 H     1 <1>   0.0800 
 32 H       -4.1450    -6.0860    -0.6420 H     1 <1>   0.0800 
 33 H       -3.4480    -7.2730     2.0650 H     1 <1>   0.0800 
 34 H       -4.6380    -7.9240     0.9630 H     1 <1>   0.0800 
 35 H       -4.9020    -6.3610     1.6970 H     1 <1>   0.0800 
@<TRIPOS>BOND
  1   1   2  1   
  2   2   3  ar  
  3   2   4  ar  
  4   3   5  ar  
  5   3   6  1   
  6   4   7  ar  
  7   4  18  1   
  8   5   8  ar  
  9   6   9  1   
 10   6  10  1   
 11   7   8  ar  
 12   8  11  1   
 13   9  12  1   
 14   9  19  1   
 15   9  20  1   
 16  10  13  1   
 17  10  21  1   
 18  10  22  1   
 19  11  23  1   
 20  11  24  1   
 21  11  25  1   
 22  12  14  1   
 23  12  26  1   
 24  12  27  1   
 25  13  14  1   
 26  13  28  1   
 27  13  29  1   
 28  14  15  1   
 29  14  30  1   
 30  15  16  1   
 31  16  17  1   
 32  16  31  1   
 33  16  32  1   
 34  17  33  1   
 35  17  34  1   
 36  17  35  1   
@<TRIPOS>SUBSTRUCTURE
  1 ****   6 GROUP 4 **** **** 0

# MOE 2024.06 (io_trps.svl 2023.06)
