@<TRIPOS>MOLECULE
NONAME
53 54 1 0 0 
SMALL
USER_CHARGES


@<TRIPOS>ATOM
  1 O       -1.8880     0.1180    -0.9010 O.2   1 <1>  -0.5700 
  2 C       -2.1870     0.6660     0.1350 C.2   1 <1>   0.5690 
  3 N       -2.7320    -0.0540     1.1740 N.am  1 <1>  -0.6600 
  4 C       -1.9650     2.1840     0.2360 C.3   1 <1>  -0.0190 
  5 C       -2.7940    -1.5460     1.0870 C.3   1 <1>   0.1400 
  6 C       -3.3460     0.5230     2.3980 C.3   1 <1>   0.1400 
  7 C       -3.1090     2.9590    -0.4450 C.3   1 <1>  -0.1600 
  8 C       -0.5930     2.6300    -0.3340 C.3   1 <1>  -0.1600 
  9 C       -3.9880    -1.9880     0.2420 C.3   1 <1>   0.1200 
 10 C       -2.3150     0.5480     3.5250 C.3   1 <1>  -0.2400 
 11 C       -3.0050     4.4820    -0.2050 C.3   1 <1>   0.2000 
 12 C       -0.5210     4.1320    -0.6780 C.3   1 <1>  -0.1600 
 13 O       -4.1740    -3.3760     0.4200 O.3   1 <1>  -0.3630 
 14 O       -3.4710     5.1450    -1.3540 O.3   1 <1>  -0.5600 
 15 C       -1.5570     4.9470     0.0990 C.3   1 <1>   0.2000 
 16 C       -5.1930    -4.0300    -0.1930 C.ar  1 <1>   0.0820 
 17 C       -4.8570     5.2220    -1.4780 C.3   1 <1>   0.0400 
 18 O       -1.4200     6.2720    -0.2610 O.3   1 <1>  -0.6800 
 19 C       -5.3610    -5.3660     0.1290 C.ar  1 <1>  -0.1500 
 20 C       -6.0580    -3.4350    -1.1070 C.ar  1 <1>  -0.1500 
 21 C       -6.3800    -6.1050    -0.4460 C.ar  1 <1>  -0.1500 
 22 C       -7.0770    -4.1770    -1.6800 C.ar  1 <1>  -0.1500 
 23 C       -7.2450    -5.5130    -1.3520 C.ar  1 <1>  -0.1440 
 24 C       -8.3630    -6.3230    -1.9850 C.3   1 <1>  -0.0970 
 25 H       -1.9590     2.4530     1.2740 H     1 <1>   0.0800 
 26 H       -1.8890    -1.9160     0.6380 H     1 <1>   0.0800 
 27 H       -2.8790    -1.9640     2.0750 H     1 <1>   0.0800 
 28 H       -3.7100     1.5170     2.2040 H     1 <1>   0.0800 
 29 H       -4.1920    -0.0760     2.6920 H     1 <1>   0.0800 
 30 H       -4.0550     2.6060    -0.0770 H     1 <1>   0.0800 
 31 H       -3.0620     2.7570    -1.5020 H     1 <1>   0.0800 
 32 H        0.1690     2.3880     0.3860 H     1 <1>   0.0800 
 33 H       -0.3660     2.0780    -1.2300 H     1 <1>   0.0800 
 34 H       -3.7970    -1.7970    -0.8000 H     1 <1>   0.0800 
 35 H       -4.8840    -1.4880     0.5640 H     1 <1>   0.0800 
 36 H       -1.4600     1.1360     3.2440 H     1 <1>   0.0800 
 37 H       -1.9950    -0.4500     3.7630 H     1 <1>   0.0800 
 38 H       -2.7530     0.9810     4.4060 H     1 <1>   0.0800 
 39 H       -3.6210     4.7680     0.6310 H     1 <1>   0.0800 
 40 H       -0.7160     4.2530    -1.7310 H     1 <1>   0.0800 
 41 H        0.4680     4.5030    -0.4740 H     1 <1>   0.0800 
 42 H       -1.3520     4.8710     1.1530 H     1 <1>   0.0800 
 43 H       -5.0810     5.7610    -2.3810 H     1 <1>   0.0800 
 44 H       -5.2610     5.7510    -0.6320 H     1 <1>   0.0800 
 45 H       -5.2700     4.2300    -1.5400 H     1 <1>   0.0800 
 46 H       -2.0070     6.3980    -1.0410 H     1 <1>   0.4000 
 47 H       -4.6890    -5.8240     0.8320 H     1 <1>   0.1500 
 48 H       -5.9540    -2.4050    -1.3870 H     1 <1>   0.1500 
 49 H       -6.4950    -7.1420    -0.1850 H     1 <1>   0.1500 
 50 H       -7.7390    -3.7090    -2.3870 H     1 <1>   0.1500 
 51 H       -8.6940    -7.0950    -1.3130 H     1 <1>   0.0800 
 52 H       -8.0120    -6.7790    -2.8930 H     1 <1>   0.0800 
 53 H       -9.2020    -5.6910    -2.2140 H     1 <1>   0.0800 
@<TRIPOS>BOND
  1   1   2  2   
  2   2   3  am  
  3   2   4  1   
  4   3   5  1   
  5   3   6  1   
  6   4   7  1   
  7   4   8  1   
  8   4  25  1   
  9   5   9  1   
 10   5  26  1   
 11   5  27  1   
 12   6  10  1   
 13   6  28  1   
 14   6  29  1   
 15   7  11  1   
 16   7  30  1   
 17   7  31  1   
 18   8  12  1   
 19   8  32  1   
 20   8  33  1   
 21   9  13  1   
 22   9  34  1   
 23   9  35  1   
 24  10  36  1   
 25  10  37  1   
 26  10  38  1   
 27  11  14  1   
 28  11  15  1   
 29  11  39  1   
 30  12  15  1   
 31  12  40  1   
 32  12  41  1   
 33  13  16  1   
 34  14  17  1   
 35  15  18  1   
 36  15  42  1   
 37  16  19  ar  
 38  16  20  ar  
 39  17  43  1   
 40  17  44  1   
 41  17  45  1   
 42  18  46  1   
 43  19  21  ar  
 44  19  47  1   
 45  20  22  ar  
 46  20  48  1   
 47  21  23  ar  
 48  21  49  1   
 49  22  23  ar  
 50  22  50  1   
 51  23  24  1   
 52  24  51  1   
 53  24  52  1   
 54  24  53  1   
@<TRIPOS>SUBSTRUCTURE
  1 ****   3 GROUP 4 **** **** 0

# MOE 2024.06 (io_trps.svl 2023.06)
