@<TRIPOS>MOLECULE
NONAME
54 56 1 0 0 
SMALL
USER_CHARGES


@<TRIPOS>ATOM
  1 O        1.1250     0.1760     1.3900 O.2   1 <1>  -0.5700 
  2 C        1.3670    -0.3590     0.3350 C.2   1 <1>   0.5690 
  3 N        0.7980    -1.5410     0.0000 N.am  1 <1>  -0.7300 
  4 C        2.3400     0.2730    -0.6620 C.3   1 <1>  -0.0190 
  5 C        0.0120    -2.3800     0.9180 C.3   1 <1>   0.2840 
  6 C        3.6400    -0.5500    -0.7580 C.3   1 <1>  -0.1600 
  7 C        2.6780     1.7410    -0.3300 C.3   1 <1>  -0.1600 
  8 C        0.4270    -3.8200     0.6790 C.ar  1 <1>  -0.1440 
  9 C        4.6230     0.0640    -1.7570 C.3   1 <1>   0.2090 
 10 C        3.6780     2.3360    -1.3240 C.3   1 <1>   0.2090 
 11 C        1.6530    -4.2700     1.1460 C.ar  1 <1>  -0.1500 
 12 C       -0.3980    -4.6930    -0.0140 C.ar  1 <1>  -0.1500 
 13 N        4.8950     1.4770    -1.3730 N.pl3 1 <1>  -0.8380 
 14 C        2.0500    -5.5750     0.9200 C.ar  1 <1>  -0.1500 
 15 C       -0.0040    -6.0010    -0.2400 C.ar  1 <1>  -0.1500 
 16 C        6.1540     1.9420    -1.0740 C.ar  1 <1>   0.7200 
 17 C        1.2290    -6.4490     0.2270 C.ar  1 <1>   0.0820 
 18 N        6.3100     3.2580    -0.9270 N.ar  1 <1>  -0.6200 
 19 N        7.1350     1.0490    -0.9570 N.ar  1 <1>  -0.6200 
 20 O        1.6940    -7.7100     0.0450 O.3   1 <1>  -0.3620 
 21 C        7.5020     3.7030    -0.6260 C.ar  1 <1>   0.1670 
 22 C        8.3170     1.5140    -0.6450 C.ar  1 <1>   0.1600 
 23 C        0.9260    -8.6860    -0.6220 C.3   1 <1>   0.0400 
 24 C        8.5870     2.8540    -0.4270 C.ar  1 <1>   0.0860 
 25 C        7.6150     5.2160    -0.5390 C.3   1 <1>  -0.0970 
 26 C        9.9120     3.2410    -0.0280 C.2   1 <1>   0.4230 
 27 O       10.9010     2.7700    -0.5260 O.2   1 <1>  -0.5700 
 28 C       10.1270     4.2240     1.1060 C.3   1 <1>  -0.1790 
 29 H        1.0610    -2.0140    -0.8650 H     1 <1>   0.3700 
 30 H        1.8590     0.2590    -1.6230 H     1 <1>   0.0800 
 31 H       -1.0370    -2.2460     0.7190 H     1 <1>   0.0800 
 32 H        0.2080    -2.1010     1.9400 H     1 <1>   0.0800 
 33 H        3.4200    -1.5570    -1.0610 H     1 <1>   0.0800 
 34 H        4.1140    -0.5940     0.2070 H     1 <1>   0.0800 
 35 H        3.1020     1.8040     0.6570 H     1 <1>   0.0800 
 36 H        1.7780     2.3300    -0.3350 H     1 <1>   0.0800 
 37 H        4.1990     0.0480    -2.7460 H     1 <1>   0.0800 
 38 H        5.5220    -0.5260    -1.7800 H     1 <1>   0.0800 
 39 H        3.9100     3.3420    -1.0220 H     1 <1>   0.0800 
 40 H        3.2410     2.3810    -2.3060 H     1 <1>   0.0800 
 41 H        2.3030    -3.6000     1.6840 H     1 <1>   0.1500 
 42 H       -1.3530    -4.3590    -0.3820 H     1 <1>   0.1500 
 43 H        3.0000    -5.9260     1.2800 H     1 <1>   0.1500 
 44 H       -0.6650    -6.6530    -0.7790 H     1 <1>   0.1500 
 45 H        9.1230     0.8050    -0.5480 H     1 <1>   0.1500 
 46 H        1.4910    -9.6020    -0.6360 H     1 <1>   0.0800 
 47 H        0.7400    -8.3570    -1.6290 H     1 <1>   0.0800 
 48 H        0.0060    -8.8330    -0.0860 H     1 <1>   0.0800 
 49 H        6.8550     5.6750    -1.1470 H     1 <1>   0.0800 
 50 H        8.5690     5.5540    -0.8990 H     1 <1>   0.0800 
 51 H        7.4730     5.5380     0.4760 H     1 <1>   0.0800 
 52 H        9.2470     4.3030     1.7180 H     1 <1>   0.0800 
 53 H       10.3830     5.1880     0.7100 H     1 <1>   0.0800 
 54 H       10.9390     3.8820     1.7220 H     1 <1>   0.0800 
@<TRIPOS>BOND
  1   1   2  2   
  2   2   3  am  
  3   2   4  1   
  4   3   5  1   
  5   3  29  1   
  6   4   6  1   
  7   4   7  1   
  8   4  30  1   
  9   5   8  1   
 10   5  31  1   
 11   5  32  1   
 12   6   9  1   
 13   6  33  1   
 14   6  34  1   
 15   7  10  1   
 16   7  35  1   
 17   7  36  1   
 18   8  11  ar  
 19   8  12  ar  
 20   9  13  1   
 21   9  37  1   
 22   9  38  1   
 23  10  13  1   
 24  10  39  1   
 25  10  40  1   
 26  11  14  ar  
 27  11  41  1   
 28  12  15  ar  
 29  12  42  1   
 30  13  16  1   
 31  14  17  ar  
 32  14  43  1   
 33  15  17  ar  
 34  15  44  1   
 35  16  18  ar  
 36  16  19  ar  
 37  17  20  1   
 38  18  21  ar  
 39  19  22  ar  
 40  20  23  1   
 41  21  24  ar  
 42  21  25  1   
 43  22  24  ar  
 44  22  45  1   
 45  23  46  1   
 46  23  47  1   
 47  23  48  1   
 48  24  26  1   
 49  25  49  1   
 50  25  50  1   
 51  25  51  1   
 52  26  27  2   
 53  26  28  1   
 54  28  52  1   
 55  28  53  1   
 56  28  54  1   
@<TRIPOS>SUBSTRUCTURE
  1 ****   6 GROUP 4 **** **** 0

# MOE 2024.06 (io_trps.svl 2023.06)
