@<TRIPOS>MOLECULE
NONAME
47 49 1 0 0 
SMALL
USER_CHARGES


@<TRIPOS>ATOM
  1 O        0.1440     1.1760    -1.2030 O.2   1 <1>  -0.5700 
  2 C       -0.1690     2.3260    -1.0010 C.2   1 <1>   0.5690 
  3 N       -1.2500     2.7010    -0.2420 N.am  1 <1>  -0.6600 
  4 C        0.6880     3.4120    -1.6420 C.3   1 <1>   0.1810 
  5 C       -1.5900     4.1540    -0.0650 C.3   1 <1>   0.3640 
  6 C       -2.1140     1.7620     0.5260 C.3   1 <1>   0.2200 
  7 O        0.7330     4.5700    -0.8520 O.3   1 <1>  -0.5600 
  8 C       -2.9490     4.4330    -0.7130 C.ar  1 <1>  -0.1440 
  9 C       -0.5370     5.1590    -0.6140 C.3   1 <1>   0.2610 
 10 C       -1.2970     1.0650     1.6130 C.3   1 <1>  -0.2400 
 11 C       -2.8100     0.7600    -0.3960 C.3   1 <1>  -0.2400 
 12 C       -3.2440     3.9790    -1.9930 C.ar  1 <1>  -0.1500 
 13 C       -3.9090     5.1580    -0.0220 C.ar  1 <1>  -0.1500 
 14 C       -0.3970     6.3460     0.3500 C.2   1 <1>   0.5690 
 15 C       -4.4750     4.2410    -2.5680 C.ar  1 <1>  -0.1500 
 16 C       -5.1410     5.4210    -0.5950 C.ar  1 <1>  -0.1500 
 17 O       -1.3840     6.9160     0.7530 O.2   1 <1>  -0.5700 
 18 N        0.8400     6.7380     0.7440 N.am  1 <1>  -0.7300 
 19 C       -5.4250     4.9630    -1.8690 C.ar  1 <1>  -0.1500 
 20 C        1.1530     7.8980     1.5940 C.3   1 <1>   0.3200 
 21 C        2.4240     8.5500     1.0840 C.2   1 <1>  -0.0400 
 22 O        3.5480     7.8550     1.0910 O.3   1 <1>  -0.2800 
 23 C        2.6390     9.7880     0.5890 C.2   1 <1>  -0.1500 
 24 C        4.4970     8.6290     0.6050 C.2   1 <1>  -0.0100 
 25 C        4.0030     9.8410     0.2740 C.2   1 <1>  -0.1500 
 26 H        0.2990     3.6650    -2.6110 H     1 <1>   0.0800 
 27 H        1.6950     3.0510    -1.7520 H     1 <1>   0.0800 
 28 H       -1.6800     4.3270     0.9940 H     1 <1>   0.0800 
 29 H       -2.8880     2.3300     1.0170 H     1 <1>   0.0800 
 30 H       -0.8810     5.5510    -1.5540 H     1 <1>   0.0800 
 31 H       -0.5510     0.4240     1.1800 H     1 <1>   0.0800 
 32 H       -1.9430     0.4620     2.2240 H     1 <1>   0.0800 
 33 H       -0.8170     1.7940     2.2400 H     1 <1>   0.0800 
 34 H       -2.1020     0.0980    -0.8590 H     1 <1>   0.0800 
 35 H       -3.3640     1.2780    -1.1570 H     1 <1>   0.0800 
 36 H       -3.4990     0.1640     0.1730 H     1 <1>   0.0800 
 37 H       -2.5180     3.4110    -2.5490 H     1 <1>   0.1500 
 38 H       -3.7030     5.5320     0.9670 H     1 <1>   0.1500 
 39 H       -4.6940     3.8830    -3.5580 H     1 <1>   0.1500 
 40 H       -5.8770     5.9870    -0.0500 H     1 <1>   0.1500 
 41 H        1.6560     6.2380     0.3750 H     1 <1>   0.3700 
 42 H       -6.3830     5.1680    -2.3140 H     1 <1>   0.1500 
 43 H        0.3400     8.6040     1.5690 H     1 <1>   0.0800 
 44 H        1.2970     7.5700     2.6080 H     1 <1>   0.0800 
 45 H        1.9360    10.5910     0.4480 H     1 <1>   0.1500 
 46 H        5.4970     8.2390     0.5300 H     1 <1>   0.1500 
 47 H        4.5170    10.6880    -0.1440 H     1 <1>   0.1500 
@<TRIPOS>BOND
  1   1   2  2   
  2   2   3  am  
  3   2   4  1   
  4   3   5  1   
  5   3   6  1   
  6   4   7  1   
  7   4  26  1   
  8   4  27  1   
  9   5   8  1   
 10   5   9  1   
 11   5  28  1   
 12   6  10  1   
 13   6  11  1   
 14   6  29  1   
 15   7   9  1   
 16   8  12  ar  
 17   8  13  ar  
 18   9  14  1   
 19   9  30  1   
 20  10  31  1   
 21  10  32  1   
 22  10  33  1   
 23  11  34  1   
 24  11  35  1   
 25  11  36  1   
 26  12  15  ar  
 27  12  37  1   
 28  13  16  ar  
 29  13  38  1   
 30  14  17  2   
 31  14  18  am  
 32  15  19  ar  
 33  15  39  1   
 34  16  19  ar  
 35  16  40  1   
 36  18  20  1   
 37  18  41  1   
 38  19  42  1   
 39  20  21  1   
 40  20  43  1   
 41  20  44  1   
 42  21  22  1   
 43  21  23  2   
 44  22  24  1   
 45  23  25  1   
 46  23  45  1   
 47  24  25  2   
 48  24  46  1   
 49  25  47  1   
@<TRIPOS>SUBSTRUCTURE
  1 ****   9 GROUP 4 **** **** 0

# MOE 2024.06 (io_trps.svl 2023.06)
