@<TRIPOS>MOLECULE
NONAME
47 49 1 0 0 
SMALL
USER_CHARGES


@<TRIPOS>ATOM
  1 O       -0.7030     0.0660    -2.3590 O.2   1 <1>  -0.5700 
  2 C       -1.3240     0.7830    -1.6090 C.2   1 <1>   0.5690 
  3 N       -2.2140     0.2620    -0.7060 N.am  1 <1>  -0.6600 
  4 C       -1.1170     2.2900    -1.7370 C.3   1 <1>   0.1810 
  5 C       -3.0210     1.0310     0.2760 C.3   1 <1>   0.1400 
  6 C       -2.4050    -1.1950    -0.5170 C.3   1 <1>   0.1400 
  7 O       -0.7670     2.8800    -0.4940 O.3   1 <1>  -0.3620 
  8 C       -3.9080    -0.0140     0.9510 C.3   1 <1>   0.2000 
  9 C       -3.1510    -1.3320     0.8100 C.3   1 <1>  -0.0800 
 10 C       -0.6720     4.2250    -0.3580 C.ar  1 <1>   0.0820 
 11 O       -4.1200     0.2790     2.2880 O.3   1 <1>  -0.6800 
 12 C       -4.0610    -2.5670     0.8820 C.3   1 <1>   0.0210 
 13 C       -0.4950     4.7090     0.9280 C.ar  1 <1>  -0.1500 
 14 C       -0.7460     5.1180    -1.4230 C.ar  1 <1>  -0.1500 
 15 C       -3.2740    -3.8370     0.6210 C.2   1 <1>   0.1080 
 16 C       -0.3990     6.0700     1.1660 C.ar  1 <1>  -0.1430 
 17 C       -0.6490     6.4780    -1.1890 C.ar  1 <1>  -0.1500 
 18 N       -2.2760    -4.2100     1.3600 N.2   1 <1>  -0.7070 
 19 C       -3.5150    -4.7230    -0.4240 C.2   1 <1>  -0.1500 
 20 C       -0.4760     6.9530     0.1010 C.ar  1 <1>  -0.1500 
 21 C       -0.2050     6.5940     2.5780 C.3   1 <1>  -0.0970 
 22 N       -1.8480    -5.3560     0.7990 N.pl3 1 <1>   0.3000 
 23 C       -2.5820    -5.6870    -0.2840 C.2   1 <1>  -0.3320 
 24 C       -2.3420    -6.9230    -1.1310 C.3   1 <1>  -0.0600 
 25 H       -2.0270     2.7420    -2.0850 H     1 <1>   0.0800 
 26 H       -0.3210     2.4830    -2.4330 H     1 <1>   0.0800 
 27 H       -2.3620     1.4880     0.9940 H     1 <1>   0.0800 
 28 H       -3.6130     1.7800    -0.2180 H     1 <1>   0.0800 
 29 H       -2.9910    -1.5800    -1.3340 H     1 <1>   0.0800 
 30 H       -1.4570    -1.7080    -0.4890 H     1 <1>   0.0800 
 31 H       -4.8630    -0.0530     0.4560 H     1 <1>   0.0800 
 32 H       -2.4040    -1.4020     1.5820 H     1 <1>   0.0800 
 33 H       -3.2840     0.1920     2.7870 H     1 <1>   0.4000 
 34 H       -4.8550    -2.4860     0.1620 H     1 <1>   0.0800 
 35 H       -4.5020    -2.6310     1.8610 H     1 <1>   0.0800 
 36 H       -0.4320     4.0080     1.7400 H     1 <1>   0.1500 
 37 H       -0.8740     4.7810    -2.4340 H     1 <1>   0.1500 
 38 H       -0.7050     7.1720    -2.0090 H     1 <1>   0.1500 
 39 H       -4.2840    -4.6330    -1.1700 H     1 <1>   0.1500 
 40 H       -0.4010     8.0120     0.2710 H     1 <1>   0.1500 
 41 H       -0.7500     7.5110     2.7140 H     1 <1>   0.0800 
 42 H        0.8390     6.7800     2.7550 H     1 <1>   0.0800 
 43 H       -0.5570     5.8790     3.2990 H     1 <1>   0.0800 
 44 H       -1.0530    -5.8850     1.1780 H     1 <1>   0.2700 
 45 H       -3.0560    -6.9650    -1.9340 H     1 <1>   0.0800 
 46 H       -2.4470    -7.8110    -0.5330 H     1 <1>   0.0800 
 47 H       -1.3530    -6.8980    -1.5540 H     1 <1>   0.0800 
@<TRIPOS>BOND
  1   1   2  2   
  2   2   3  am  
  3   2   4  1   
  4   3   5  1   
  5   3   6  1   
  6   4   7  1   
  7   4  25  1   
  8   4  26  1   
  9   5   8  1   
 10   5  27  1   
 11   5  28  1   
 12   6   9  1   
 13   6  29  1   
 14   6  30  1   
 15   7  10  1   
 16   8   9  1   
 17   8  11  1   
 18   8  31  1   
 19   9  12  1   
 20   9  32  1   
 21  10  13  ar  
 22  10  14  ar  
 23  11  33  1   
 24  12  15  1   
 25  12  34  1   
 26  12  35  1   
 27  13  16  ar  
 28  13  36  1   
 29  14  17  ar  
 30  14  37  1   
 31  15  18  2   
 32  15  19  1   
 33  16  20  ar  
 34  16  21  1   
 35  17  20  ar  
 36  17  38  1   
 37  18  22  1   
 38  19  23  2   
 39  19  39  1   
 40  20  40  1   
 41  21  41  1   
 42  21  42  1   
 43  21  43  1   
 44  22  23  1   
 45  22  44  1   
 46  23  24  1   
 47  24  45  1   
 48  24  46  1   
 49  24  47  1   
@<TRIPOS>SUBSTRUCTURE
  1 ****   3 GROUP 4 **** **** 0

# MOE 2024.06 (io_trps.svl 2023.06)
