@<TRIPOS>MOLECULE
NONAME
49 53 1 0 0 
SMALL
USER_CHARGES


@<TRIPOS>ATOM
  1 O       -0.8720     0.7340    -1.1610 O.2   1 <1>  -0.5700 
  2 C       -1.9320     1.2240    -0.8080 C.2   1 <1>   0.5440 
  3 N       -3.0880     0.5050    -1.0790 N.am  1 <1>  -0.6600 
  4 C       -1.9080     2.5060    -0.1000 C.ar  1 <1>   0.3960 
  5 C       -4.3870     0.6990    -0.3790 C.3   1 <1>   0.1400 
  6 C       -3.1210    -0.5780    -2.1030 C.3   1 <1>   0.1400 
  7 N       -2.8810     3.4190    -0.2650 N.ar  1 <1>  -0.6200 
  8 C       -0.8260     2.7590     0.7510 C.ar  1 <1>   0.1600 
  9 C       -4.7820    -0.6080     0.3120 C.3   1 <1>  -0.1600 
 10 C       -3.4980    -1.8970    -1.4300 C.3   1 <1>  -0.1600 
 11 C       -2.6940     4.5180     0.4430 C.ar  1 <1>   0.1600 
 12 N       -0.6450     3.8560     1.4700 N.ar  1 <1>  -0.6200 
 13 C       -4.8250    -1.7820    -0.6750 C.3   1 <1>   0.4600 
 14 C       -1.6110     4.7350     1.2890 C.ar  1 <1>   0.1670 
 15 O       -5.8170    -1.5340    -1.6480 O.3   1 <1>  -0.5600 
 16 C       -5.1410    -3.0900     0.0420 C.2   1 <1>  -0.3320 
 17 C       -1.4810     6.0300     2.0660 C.3   1 <1>  -0.0970 
 18 C       -7.1570    -1.8150    -1.3190 C.3   1 <1>   0.1200 
 19 N       -4.3400    -3.7390     0.9400 N.pl3 1 <1>   0.0330 
 20 C       -6.2790    -3.7920    -0.1270 C.2   1 <1>  -0.1810 
 21 C       -7.3630    -3.3170    -1.0610 C.3   1 <1>   0.0210 
 22 C       -4.9910    -4.8800     1.3420 C.ar  1 <1>  -0.1520 
 23 C       -6.2170    -4.9440     0.6850 C.ar  1 <1>   0.0000 
 24 C       -4.6070    -5.8810     2.2380 C.ar  1 <1>  -0.1500 
 25 C       -7.0750    -6.0220     0.9220 C.ar  1 <1>  -0.1500 
 26 C       -5.4620    -6.9360     2.4640 C.ar  1 <1>  -0.1500 
 27 C       -6.6960    -7.0060     1.8050 C.ar  1 <1>  -0.1500 
 28 H       -5.1370     0.9810    -1.0980 H     1 <1>   0.0800 
 29 H       -4.3200     1.4750     0.3610 H     1 <1>   0.0800 
 30 H       -2.1660    -0.6770    -2.5900 H     1 <1>   0.0800 
 31 H       -3.8510    -0.3280    -2.8540 H     1 <1>   0.0800 
 32 H       -0.0690     1.9980     0.8350 H     1 <1>   0.1500 
 33 H       -5.7320    -0.4980     0.7980 H     1 <1>   0.0800 
 34 H       -4.0580    -0.8180     1.0770 H     1 <1>   0.0800 
 35 H       -2.7110    -2.1680    -0.7520 H     1 <1>   0.0800 
 36 H       -3.5790    -2.6750    -2.1670 H     1 <1>   0.0800 
 37 H       -3.4380     5.2890     0.3480 H     1 <1>   0.1500 
 38 H       -2.3040     6.6900     1.8660 H     1 <1>   0.0800 
 39 H       -0.5650     6.5220     1.7930 H     1 <1>   0.0800 
 40 H       -1.4550     5.8150     3.1190 H     1 <1>   0.0800 
 41 H       -7.7710    -1.4920    -2.1410 H     1 <1>   0.0800 
 42 H       -7.4220    -1.2460    -0.4460 H     1 <1>   0.0800 
 43 H       -3.4090    -3.4490     1.2540 H     1 <1>   0.2700 
 44 H       -7.3070    -3.8600    -1.9870 H     1 <1>   0.0800 
 45 H       -8.3300    -3.4800    -0.6220 H     1 <1>   0.0800 
 46 H       -3.6580    -5.8210     2.7390 H     1 <1>   0.1500 
 47 H       -8.0180    -6.0630     0.4090 H     1 <1>   0.1500 
 48 H       -5.1900    -7.7190     3.1490 H     1 <1>   0.1500 
 49 H       -7.3450    -7.8420     1.9990 H     1 <1>   0.1500 
@<TRIPOS>BOND
  1   1   2  2   
  2   2   3  am  
  3   2   4  1   
  4   3   5  1   
  5   3   6  1   
  6   4   7  ar  
  7   4   8  ar  
  8   5   9  1   
  9   5  28  1   
 10   5  29  1   
 11   6  10  1   
 12   6  30  1   
 13   6  31  1   
 14   7  11  ar  
 15   8  12  ar  
 16   8  32  1   
 17   9  13  1   
 18   9  33  1   
 19   9  34  1   
 20  10  13  1   
 21  10  35  1   
 22  10  36  1   
 23  11  14  ar  
 24  11  37  1   
 25  12  14  ar  
 26  13  15  1   
 27  13  16  1   
 28  14  17  1   
 29  15  18  1   
 30  16  19  1   
 31  16  20  2   
 32  17  38  1   
 33  17  39  1   
 34  17  40  1   
 35  18  21  1   
 36  18  41  1   
 37  18  42  1   
 38  19  22  1   
 39  19  43  1   
 40  20  21  1   
 41  20  23  1   
 42  21  44  1   
 43  21  45  1   
 44  22  23  ar  
 45  22  24  ar  
 46  23  25  ar  
 47  24  26  ar  
 48  24  46  1   
 49  25  27  ar  
 50  25  47  1   
 51  26  27  ar  
 52  26  48  1   
 53  27  49  1   
@<TRIPOS>SUBSTRUCTURE
  1 ****   9 GROUP 4 **** **** 0

# MOE 2024.06 (io_trps.svl 2023.06)
