@<TRIPOS>MOLECULE
NONAME
44 46 1 0 0 
SMALL
USER_CHARGES


@<TRIPOS>ATOM
  1 O       -0.6640    -1.4280     0.2980 O.2   1 <1>  -0.5700 
  2 C       -1.8360    -1.6960     0.2420 C.2   1 <1>   0.5690 
  3 N       -2.8070    -0.8050     0.6030 N.am  1 <1>  -0.3680 
  4 C       -2.3050    -3.0380    -0.2680 C.3   1 <1>  -0.0990 
  5 N       -4.1690    -1.0250     0.6340 N.2   1 <1>  -0.5120 
  6 C       -3.6630    -3.4130     0.3530 C.3   1 <1>  -0.0990 
  7 C       -4.6390    -2.2240     0.4870 C.2   1 <1>   0.3890 
  8 C       -6.0540    -2.5760     0.4900 C.2   1 <1>   0.6300 
  9 O       -6.3780    -3.7330     0.7280 O.2   1 <1>  -0.5700 
 10 N       -7.0880    -1.6800     0.2360 N.am  1 <1>  -0.6600 
 11 C       -8.4870    -1.9410     0.7060 C.3   1 <1>   0.1400 
 12 C       -6.9450    -0.4230    -0.5500 C.3   1 <1>   0.1400 
 13 C       -9.4770    -2.0050    -0.4830 C.3   1 <1>   0.0000 
 14 C       -7.9140    -0.4310    -1.7390 C.3   1 <1>  -0.1600 
 15 C      -10.9180    -2.2430     0.0030 C.3   1 <1>   0.2000 
 16 C       -9.3640    -0.7050    -1.3070 C.3   1 <1>  -0.1600 
 17 C       -9.2240    -3.2640    -1.3300 C.3   1 <1>  -0.1600 
 18 O      -11.1990    -1.5090     1.1580 O.3   1 <1>  -0.5600 
 19 C      -11.0280    -3.7500     0.2570 C.3   1 <1>  -0.1600 
 20 C       -9.9260    -4.4050    -0.5880 C.3   1 <1>  -0.1600 
 21 C      -12.5500    -1.4240     1.4850 C.3   1 <1>   0.0400 
 22 H       -2.4530     0.1230     0.8570 H     1 <1>   0.3700 
 23 H       -2.4030    -2.9660    -1.3350 H     1 <1>   0.0800 
 24 H       -1.5690    -3.7890    -0.0440 H     1 <1>   0.0800 
 25 H       -3.5010    -3.8060     1.3410 H     1 <1>   0.0800 
 26 H       -4.1050    -4.1950    -0.2400 H     1 <1>   0.0800 
 27 H       -8.5340    -2.8510     1.2780 H     1 <1>   0.0800 
 28 H       -8.7710    -1.1390     1.3650 H     1 <1>   0.0800 
 29 H       -7.1580     0.4150     0.0930 H     1 <1>   0.0800 
 30 H       -5.9460    -0.3120    -0.9290 H     1 <1>   0.0800 
 31 H       -7.8640     0.5210    -2.2370 H     1 <1>   0.0800 
 32 H       -7.5940    -1.1800    -2.4410 H     1 <1>   0.0800 
 33 H      -11.6040    -1.9520    -0.7750 H     1 <1>   0.0800 
 34 H       -9.9960    -0.7580    -2.1760 H     1 <1>   0.0800 
 35 H       -9.7090     0.1170    -0.7030 H     1 <1>   0.0800 
 36 H       -9.6820    -3.1470    -2.2970 H     1 <1>   0.0800 
 37 H       -8.1780    -3.4710    -1.4710 H     1 <1>   0.0800 
 38 H      -10.8560    -3.9660     1.2980 H     1 <1>   0.0800 
 39 H      -11.9970    -4.1120    -0.0330 H     1 <1>   0.0800 
 40 H       -9.2210    -4.8990     0.0600 H     1 <1>   0.0800 
 41 H      -10.3270    -5.1270    -1.2780 H     1 <1>   0.0800 
 42 H      -12.6400    -0.8240     2.3730 H     1 <1>   0.0800 
 43 H      -12.9370    -2.4100     1.6760 H     1 <1>   0.0800 
 44 H      -13.0840    -0.9560     0.6760 H     1 <1>   0.0800 
@<TRIPOS>BOND
  1   1   2  2   
  2   2   3  am  
  3   2   4  1   
  4   3   5  1   
  5   3  22  1   
  6   4   6  1   
  7   4  23  1   
  8   4  24  1   
  9   5   7  2   
 10   6   7  1   
 11   6  25  1   
 12   6  26  1   
 13   7   8  1   
 14   8   9  2   
 15   8  10  am  
 16  10  11  1   
 17  10  12  1   
 18  11  13  1   
 19  11  27  1   
 20  11  28  1   
 21  12  14  1   
 22  12  29  1   
 23  12  30  1   
 24  13  15  1   
 25  13  16  1   
 26  13  17  1   
 27  14  16  1   
 28  14  31  1   
 29  14  32  1   
 30  15  18  1   
 31  15  19  1   
 32  15  33  1   
 33  16  34  1   
 34  16  35  1   
 35  17  20  1   
 36  17  36  1   
 37  17  37  1   
 38  18  21  1   
 39  19  20  1   
 40  19  38  1   
 41  19  39  1   
 42  20  40  1   
 43  20  41  1   
 44  21  42  1   
 45  21  43  1   
 46  21  44  1   
@<TRIPOS>SUBSTRUCTURE
  1 ****  10 GROUP 4 **** **** 0

# MOE 2024.06 (io_trps.svl 2023.06)
