@<TRIPOS>MOLECULE
NONAME
44 46 1 0 0 
SMALL
USER_CHARGES


@<TRIPOS>ATOM
  1 O       -0.1420    -0.0110     0.6220 O.2   1 <1>  -0.5700 
  2 C       -0.2180    -1.2180     0.4950 C.2   1 <1>   0.7800 
  3 O        0.8010    -1.9170    -0.0130 O.3   1 <1>  -0.4300 
  4 N       -1.3400    -1.9200     0.8630 N.am  1 <1>  -0.6600 
  5 C        2.0430    -1.4210    -0.4630 C.3   1 <1>   0.2800 
  6 C       -2.5290    -1.2320     1.4350 C.3   1 <1>   0.1400 
  7 C       -1.4510    -3.3980     0.7340 C.3   1 <1>   0.1400 
  8 C        1.8370    -0.4670    -1.6450 C.3   1 <1>  -0.2400 
  9 C        2.8140    -2.6530    -0.9390 C.3   1 <1>  -0.2400 
 10 C        2.8050    -0.7650     0.6950 C.3   1 <1>  -0.2400 
 11 C       -3.7760    -1.5870     0.6200 C.3   1 <1>  -0.1600 
 12 C       -2.6830    -3.7450    -0.1050 C.3   1 <1>  -0.1600 
 13 C       -3.9630    -3.1080     0.4670 C.3   1 <1>   0.1430 
 14 C       -5.1600    -3.3890    -0.4200 C.ar  1 <1>  -0.1440 
 15 C       -4.3990    -3.7750     1.8040 C.3   1 <1>   0.2090 
 16 C       -6.1710    -3.9500     0.3340 C.ar  1 <1>   0.4100 
 17 C       -5.3480    -3.1840    -1.7670 C.ar  1 <1>  -0.1500 
 18 N       -5.8390    -4.0840     1.6420 N.pl3 1 <1>  -0.8690 
 19 N       -7.3390    -4.3610    -0.1170 N.ar  1 <1>  -0.6200 
 20 C       -6.5740    -3.5870    -2.2670 C.ar  1 <1>  -0.1500 
 21 C       -7.5100    -4.1590    -1.4150 C.ar  1 <1>   0.1600 
 22 H       -2.3920    -0.1630     1.4250 H     1 <1>   0.0800 
 23 H       -2.6490    -1.5350     2.4600 H     1 <1>   0.0800 
 24 H       -1.5320    -3.8290     1.7170 H     1 <1>   0.0800 
 25 H       -0.5760    -3.8140     0.2650 H     1 <1>   0.0800 
 26 H        1.2380    -0.9360    -2.4040 H     1 <1>   0.0800 
 27 H        2.7870    -0.2040    -2.0740 H     1 <1>   0.0800 
 28 H        1.3610     0.4440    -1.3310 H     1 <1>   0.0800 
 29 H        2.2820    -3.1410    -1.7360 H     1 <1>   0.0800 
 30 H        2.9460    -3.3460    -0.1280 H     1 <1>   0.0800 
 31 H        3.7840    -2.3690    -1.3030 H     1 <1>   0.0800 
 32 H        2.3280     0.1450     1.0070 H     1 <1>   0.0800 
 33 H        3.8030    -0.5170     0.3830 H     1 <1>   0.0800 
 34 H        2.8660    -1.4380     1.5310 H     1 <1>   0.0800 
 35 H       -3.6820    -1.1380    -0.3530 H     1 <1>   0.0800 
 36 H       -4.6460    -1.1600     1.0880 H     1 <1>   0.0800 
 37 H       -2.7980    -4.8130    -0.1590 H     1 <1>   0.0800 
 38 H       -2.5190    -3.3880    -1.1060 H     1 <1>   0.0800 
 39 H       -4.2590    -3.1200     2.6460 H     1 <1>   0.0800 
 40 H       -3.8610    -4.6910     1.9730 H     1 <1>   0.0800 
 41 H       -4.5940    -2.7420    -2.3930 H     1 <1>   0.1500 
 42 H       -6.2270    -4.9200     2.0850 H     1 <1>   0.4000 
 43 H       -6.8010    -3.4600    -3.3100 H     1 <1>   0.1500 
 44 H       -8.4550    -4.4690    -1.8280 H     1 <1>   0.1500 
@<TRIPOS>BOND
  1   1   2  2   
  2   2   3  1   
  3   2   4  am  
  4   3   5  1   
  5   4   6  1   
  6   4   7  1   
  7   5   8  1   
  8   5   9  1   
  9   5  10  1   
 10   6  11  1   
 11   6  22  1   
 12   6  23  1   
 13   7  12  1   
 14   7  24  1   
 15   7  25  1   
 16   8  26  1   
 17   8  27  1   
 18   8  28  1   
 19   9  29  1   
 20   9  30  1   
 21   9  31  1   
 22  10  32  1   
 23  10  33  1   
 24  10  34  1   
 25  11  13  1   
 26  11  35  1   
 27  11  36  1   
 28  12  13  1   
 29  12  37  1   
 30  12  38  1   
 31  13  14  1   
 32  13  15  1   
 33  14  16  ar  
 34  14  17  ar  
 35  15  18  1   
 36  15  39  1   
 37  15  40  1   
 38  16  18  1   
 39  16  19  ar  
 40  17  20  ar  
 41  17  41  1   
 42  18  42  1   
 43  19  21  ar  
 44  20  21  ar  
 45  20  43  1   
 46  21  44  1   
@<TRIPOS>SUBSTRUCTURE
  1 ****  12 GROUP 4 **** **** 0

# MOE 2024.06 (io_trps.svl 2023.06)
