@<TRIPOS>MOLECULE
NONAME
50 52 1 0 0 
SMALL
USER_CHARGES


@<TRIPOS>ATOM
  1 N       -0.8470    -1.3220    -2.0130 N.ar  1 <1>  -0.6200 
  2 C       -0.2960    -2.4090    -1.5130 C.ar  1 <1>   0.1600 
  3 C       -1.3690    -0.4820    -1.1340 C.ar  1 <1>   0.1600 
  4 C       -0.2770    -2.7360    -0.1640 C.ar  1 <1>  -0.1440 
  5 C       -1.3780    -0.6940     0.2330 C.ar  1 <1>  -0.1500 
  6 C       -0.8220    -1.8470     0.7440 C.ar  1 <1>  -0.1500 
  7 C        0.3220    -4.0490     0.2900 C.3   1 <1>   0.4870 
  8 N       -0.6030    -5.1670    -0.1090 N.4   1 <1>  -0.9590 
  9 C       -1.9530    -4.9970     0.5650 C.3   1 <1>   0.3430 
 10 C        0.0330    -6.4770     0.2080 C.3   1 <1>   0.3430 
 11 C       -3.1120    -5.9000     0.0460 C.3   1 <1>   0.3430 
 12 C       -0.3860    -7.5740    -0.7740 C.3   1 <1>  -0.1600 
 13 N       -2.8000    -7.3720    -0.1210 N.4   1 <1>  -0.9590 
 14 C       -1.8420    -7.6070    -1.2430 C.3   1 <1>   0.3430 
 15 C       -4.0780    -8.1210    -0.3630 C.3   1 <1>   0.3430 
 16 C       -3.8770    -9.6060    -0.0620 C.3   1 <1>  -0.1600 
 17 C       -5.1810   -10.3980    -0.2330 C.3   1 <1>   0.0960 
 18 N       -4.9180   -11.8170     0.0550 N.pl3 1 <1>   0.0480 
 19 C       -4.5110   -12.7580    -0.8380 C.2   1 <1>  -0.3020 
 20 C       -4.9540   -12.4110     1.2770 C.2   1 <1>  -0.3020 
 21 C       -4.2950   -13.9320    -0.1910 C.2   1 <1>  -0.1500 
 22 C       -4.5770   -13.7110     1.1600 C.2   1 <1>  -0.1500 
 23 H        0.1580    -3.0690    -2.2330 H     1 <1>   0.1500 
 24 H       -1.8090     0.4220    -1.5240 H     1 <1>   0.1500 
 25 H       -1.8140     0.0450     0.8840 H     1 <1>   0.1500 
 26 H       -0.8200    -2.0200     1.8090 H     1 <1>   0.1500 
 27 H        0.4610    -4.0360     1.3590 H     1 <1>   0.0800 
 28 H        1.2870    -4.1770    -0.1750 H     1 <1>   0.0800 
 29 H       -0.7080    -5.0640    -1.1270 H     1 <1>   0.4500 
 30 H       -2.2790    -3.9750     0.4520 H     1 <1>   0.0800 
 31 H       -1.8400    -5.1650     1.6240 H     1 <1>   0.0800 
 32 H       -0.2260    -6.7690     1.2140 H     1 <1>   0.0800 
 33 H        1.1080    -6.3850     0.1690 H     1 <1>   0.0800 
 34 H       -3.4490    -5.5040    -0.8990 H     1 <1>   0.0800 
 35 H       -3.9360    -5.7920     0.7330 H     1 <1>   0.0800 
 36 H       -0.1500    -8.5250    -0.3290 H     1 <1>   0.0800 
 37 H        0.2390    -7.5020    -1.6480 H     1 <1>   0.0800 
 38 H       -2.4150    -7.7650     0.7500 H     1 <1>   0.4500 
 39 H       -2.0260    -8.5700    -1.6940 H     1 <1>   0.0800 
 40 H       -1.9970    -6.8650    -2.0110 H     1 <1>   0.0800 
 41 H       -4.4040    -7.9900    -1.3840 H     1 <1>   0.0800 
 42 H       -4.8520    -7.7430     0.2870 H     1 <1>   0.0800 
 43 H       -3.5430    -9.7270     0.9550 H     1 <1>   0.0800 
 44 H       -3.1430   -10.0290    -0.7250 H     1 <1>   0.0800 
 45 H       -5.5530   -10.3210    -1.2400 H     1 <1>   0.0800 
 46 H       -5.9400   -10.0500     0.4450 H     1 <1>   0.0800 
 47 H       -4.3960   -12.5550    -1.8880 H     1 <1>   0.1500 
 48 H       -5.2450   -11.8890     2.1710 H     1 <1>   0.1500 
 49 H       -3.9700   -14.8700    -0.6090 H     1 <1>   0.1500 
 50 H       -4.5030   -14.4530     1.9370 H     1 <1>   0.1500 
@<TRIPOS>BOND
  1   1   2  ar  
  2   1   3  ar  
  3   2   4  ar  
  4   2  23  1   
  5   3   5  ar  
  6   3  24  1   
  7   4   6  ar  
  8   4   7  1   
  9   5   6  ar  
 10   5  25  1   
 11   6  26  1   
 12   7   8  1   
 13   7  27  1   
 14   7  28  1   
 15   8   9  1   
 16   8  10  1   
 17   8  29  1   
 18   9  11  1   
 19   9  30  1   
 20   9  31  1   
 21  10  12  1   
 22  10  32  1   
 23  10  33  1   
 24  11  13  1   
 25  11  34  1   
 26  11  35  1   
 27  12  14  1   
 28  12  36  1   
 29  12  37  1   
 30  13  14  1   
 31  13  15  1   
 32  13  38  1   
 33  14  39  1   
 34  14  40  1   
 35  15  16  1   
 36  15  41  1   
 37  15  42  1   
 38  16  17  1   
 39  16  43  1   
 40  16  44  1   
 41  17  18  1   
 42  17  45  1   
 43  17  46  1   
 44  18  19  1   
 45  18  20  1   
 46  19  21  2   
 47  19  47  1   
 48  20  22  2   
 49  20  48  1   
 50  21  22  1   
 51  21  49  1   
 52  22  50  1   
@<TRIPOS>SUBSTRUCTURE
  1 ****  13 GROUP 4 **** **** 0

# MOE 2024.06 (io_trps.svl 2023.06)
