@<TRIPOS>MOLECULE
NONAME
53 56 1 0 0 
SMALL
USER_CHARGES


@<TRIPOS>ATOM
  1 O       -0.6510    -4.8230     2.3450 O.2   1 <1>  -0.5700 
  2 C       -0.4900    -4.1390     1.3430 C.2   1 <1>   0.7670 
  3 N       -1.4640    -3.2300     1.0410 N.2   1 <1>  -0.6610 
  4 C        0.6420    -4.3270     0.4880 C.2   1 <1>  -0.1240 
  5 C       -1.3480    -2.5800    -0.0540 C.2   1 <1>   0.4390 
  6 C        0.7090    -3.6190    -0.6680 C.2   1 <1>  -0.0380 
  7 C        1.6850    -5.3600     0.9220 C.3   1 <1>   0.0390 
  8 N       -0.3070    -2.7390    -0.9160 N.pl3 1 <1>  -0.5500 
  9 C       -2.4100    -1.5840    -0.4480 C.3   1 <1>  -0.1790 
 10 C        1.7810    -3.7070    -1.7430 C.3   1 <1>  -0.1020 
 11 C        1.2470    -6.7420     0.4870 C.2   1 <1>   0.5690 
 12 O        1.8250    -7.2830    -0.4250 O.2   1 <1>  -0.5700 
 13 N        0.1780    -7.3080     1.0980 N.am  1 <1>  -0.7300 
 14 C       -0.5170    -8.5310     0.6380 C.3   1 <1>   0.2200 
 15 C       -1.8260    -8.1790    -0.0550 C.3   1 <1>  -0.0800 
 16 C       -1.0250    -9.3200     1.8410 C.3   1 <1>   0.1200 
 17 C       -2.7710    -7.9880     1.1300 C.3   1 <1>   0.1200 
 18 C       -1.7610    -6.9990    -1.0450 C.3   1 <1>  -0.0170 
 19 O       -2.2820    -8.7960     2.1610 O.3   1 <1>  -0.5600 
 20 C       -3.0710    -6.8220    -1.8080 C.ar  1 <1>  -0.1440 
 21 C       -4.0950    -5.9290    -1.4080 C.ar  1 <1>   0.0000 
 22 C       -3.2800    -7.5480    -2.9430 C.ar  1 <1>  -0.1500 
 23 C       -5.2570    -5.8560    -2.2160 C.ar  1 <1>   0.3100 
 24 C       -4.0430    -5.1000    -0.2630 C.ar  1 <1>  -0.1500 
 25 C       -4.4680    -7.4030    -3.6690 C.ar  1 <1>   0.1600 
 26 N       -5.4280    -6.5990    -3.3390 N.ar  1 <1>  -0.6200 
 27 C       -6.2890    -4.9760    -1.8520 C.ar  1 <1>  -0.1500 
 28 C       -5.0640    -4.2520     0.0650 C.ar  1 <1>  -0.1500 
 29 C       -6.2040    -4.1860    -0.7380 C.ar  1 <1>  -0.1500 
 30 H        1.8090    -5.3490     1.9900 H     1 <1>   0.0800 
 31 H        2.6470    -5.1440     0.4990 H     1 <1>   0.0800 
 32 H       -0.3090    -2.1840    -1.7760 H     1 <1>   0.4000 
 33 H       -1.9700    -0.6170    -0.6030 H     1 <1>   0.0800 
 34 H       -3.1490    -1.5060     0.3290 H     1 <1>   0.0800 
 35 H       -2.8960    -1.9080    -1.3500 H     1 <1>   0.0800 
 36 H        1.3220    -3.8000    -2.7110 H     1 <1>   0.0800 
 37 H        2.4190    -4.5610    -1.6090 H     1 <1>   0.0800 
 38 H        2.3870    -2.8190    -1.7310 H     1 <1>   0.0800 
 39 H       -0.3170    -6.7810     1.8350 H     1 <1>   0.3700 
 40 H        0.1350    -9.1220     0.0170 H     1 <1>   0.0800 
 41 H       -2.1590    -9.0500    -0.5920 H     1 <1>   0.0800 
 42 H       -0.3740    -9.2410     2.6930 H     1 <1>   0.0800 
 43 H       -1.1650   -10.3540     1.5800 H     1 <1>   0.0800 
 44 H       -3.7830    -8.2740     0.9000 H     1 <1>   0.0800 
 45 H       -2.7500    -6.9740     1.4900 H     1 <1>   0.0800 
 46 H       -0.9750    -7.1970    -1.7530 H     1 <1>   0.0800 
 47 H       -1.4920    -6.0870    -0.5490 H     1 <1>   0.0800 
 48 H       -2.5460    -8.2440    -3.3080 H     1 <1>   0.1500 
 49 H       -3.1830    -5.1270     0.3760 H     1 <1>   0.1500 
 50 H       -4.5900    -7.9980    -4.5580 H     1 <1>   0.1500 
 51 H       -7.1560    -4.9440    -2.4850 H     1 <1>   0.1500 
 52 H       -4.9990    -3.6310     0.9430 H     1 <1>   0.1500 
 53 H       -7.0020    -3.5150    -0.4700 H     1 <1>   0.1500 
@<TRIPOS>BOND
  1   1   2  2   
  2   2   3  1   
  3   2   4  1   
  4   3   5  2   
  5   4   6  2   
  6   4   7  1   
  7   5   8  1   
  8   5   9  1   
  9   6   8  1   
 10   6  10  1   
 11   7  11  1   
 12   7  30  1   
 13   7  31  1   
 14   8  32  1   
 15   9  33  1   
 16   9  34  1   
 17   9  35  1   
 18  10  36  1   
 19  10  37  1   
 20  10  38  1   
 21  11  12  2   
 22  11  13  am  
 23  13  14  1   
 24  13  39  1   
 25  14  15  1   
 26  14  16  1   
 27  14  40  1   
 28  15  17  1   
 29  15  18  1   
 30  15  41  1   
 31  16  19  1   
 32  16  42  1   
 33  16  43  1   
 34  17  19  1   
 35  17  44  1   
 36  17  45  1   
 37  18  20  1   
 38  18  46  1   
 39  18  47  1   
 40  20  21  ar  
 41  20  22  ar  
 42  21  23  ar  
 43  21  24  ar  
 44  22  25  ar  
 45  22  48  1   
 46  23  26  ar  
 47  23  27  ar  
 48  24  28  ar  
 49  24  49  1   
 50  25  26  ar  
 51  25  50  1   
 52  27  29  ar  
 53  27  51  1   
 54  28  29  ar  
 55  28  52  1   
 56  29  53  1   
@<TRIPOS>SUBSTRUCTURE
  1 ****  18 GROUP 4 **** **** 0

# MOE 2024.06 (io_trps.svl 2023.06)
