@<TRIPOS>MOLECULE
NONAME
53 55 1 0 0 
SMALL
USER_CHARGES


@<TRIPOS>ATOM
  1 S        0.4310     1.9150    -1.6130 S.o2  1 <1>   1.3330 
  2 O        0.0340     1.2260    -2.8140 O.2   1 <1>  -0.6500 
  3 O        0.8520     3.3000    -1.6570 O.2   1 <1>  -0.6500 
  4 N        1.7210     1.0520    -0.9250 N.am  1 <1>  -0.8490 
  5 C       -0.8690     1.7810    -0.3720 C.3   1 <1>  -0.0550 
  6 C        2.9810     1.3270    -1.6330 C.3   1 <1>   0.1160 
  7 C        1.5150    -0.4080    -0.9550 C.3   1 <1>   0.1160 
  8 C       -0.7540     2.7050     0.8690 C.3   1 <1>  -0.0800 
  9 C       -1.2150     4.1400     0.5560 C.3   1 <1>   0.2000 
 10 C        0.6640     2.8570     1.4410 C.3   1 <1>   0.3430 
 11 O       -2.3150     4.4570     1.3400 O.3   1 <1>  -0.6800 
 12 C       -0.0350     5.0650     0.8720 C.3   1 <1>   0.3430 
 13 N        1.1490     4.1660     0.9460 N.4   1 <1>  -0.9590 
 14 C        2.3280     4.7270     1.6400 C.3   1 <1>   0.5230 
 15 C        2.5590     6.1150     1.0880 C.2   1 <1>  -0.3320 
 16 N        2.4450     7.2310     1.8780 N.pl3 1 <1>   0.0330 
 17 C        2.8750     6.4960    -0.1760 C.2   1 <1>  -0.1810 
 18 C        2.6630     8.3320     1.0980 C.ar  1 <1>  -0.1520 
 19 C        2.9370     7.9070    -0.1960 C.ar  1 <1>   0.0000 
 20 C        3.1350     5.6560    -1.4130 C.3   1 <1>  -0.0590 
 21 C        2.6440     9.6910     1.4180 C.ar  1 <1>  -0.1500 
 22 C        3.1940     8.8550    -1.1920 C.ar  1 <1>  -0.1500 
 23 C        2.8990    10.6100     0.4260 C.ar  1 <1>  -0.1500 
 24 C        3.1750    10.1970    -0.8840 C.ar  1 <1>  -0.1440 
 25 C        3.4490    11.2480    -1.9440 C.3   1 <1>  -0.0970 
 26 H       -1.8110     1.9830    -0.8470 H     1 <1>   0.0800 
 27 H       -0.9220     0.7650    -0.0370 H     1 <1>   0.0800 
 28 H        3.7930     0.7820    -1.1820 H     1 <1>   0.0800 
 29 H        3.2170     2.3750    -1.5900 H     1 <1>   0.0800 
 30 H        2.9000     1.0390    -2.6700 H     1 <1>   0.0800 
 31 H        2.3480    -0.9110    -0.4920 H     1 <1>   0.0800 
 32 H        1.4260    -0.7590    -1.9720 H     1 <1>   0.0800 
 33 H        0.6240    -0.6840    -0.4210 H     1 <1>   0.0800 
 34 H       -1.3780     2.2770     1.6340 H     1 <1>   0.0800 
 35 H       -1.5050     4.2610    -0.4750 H     1 <1>   0.0800 
 36 H        1.3170     2.0520     1.1470 H     1 <1>   0.0800 
 37 H        0.6090     2.8820     2.5180 H     1 <1>   0.0800 
 38 H       -2.1720     4.3060     2.2940 H     1 <1>   0.4000 
 39 H       -0.1940     5.5540     1.8180 H     1 <1>   0.0800 
 40 H        0.0980     5.8060     0.0980 H     1 <1>   0.0800 
 41 H        1.4290     4.0420    -0.0490 H     1 <1>   0.4500 
 42 H        2.1520     4.7750     2.7020 H     1 <1>   0.0800 
 43 H        3.1950     4.1120     1.4580 H     1 <1>   0.0800 
 44 H        2.2560     7.2850     2.8850 H     1 <1>   0.2700 
 45 H        4.0490     5.9730    -1.8810 H     1 <1>   0.0800 
 46 H        2.3290     5.7770    -2.1150 H     1 <1>   0.0800 
 47 H        3.2280     4.6190    -1.1600 H     1 <1>   0.0800 
 48 H        2.4340    10.0110     2.4230 H     1 <1>   0.1500 
 49 H        3.4030     8.5150    -2.1890 H     1 <1>   0.1500 
 50 H        2.8880    11.6620     0.6530 H     1 <1>   0.1500 
 51 H        4.2970    11.8430    -1.6570 H     1 <1>   0.0800 
 52 H        2.5930    11.8890    -2.0530 H     1 <1>   0.0800 
 53 H        3.6580    10.7900    -2.8940 H     1 <1>   0.0800 
@<TRIPOS>BOND
  1   1   2  2   
  2   1   3  2   
  3   1   4  am  
  4   1   5  1   
  5   4   6  1   
  6   4   7  1   
  7   5   8  1   
  8   5  26  1   
  9   5  27  1   
 10   6  28  1   
 11   6  29  1   
 12   6  30  1   
 13   7  31  1   
 14   7  32  1   
 15   7  33  1   
 16   8   9  1   
 17   8  10  1   
 18   8  34  1   
 19   9  11  1   
 20   9  12  1   
 21   9  35  1   
 22  10  13  1   
 23  10  36  1   
 24  10  37  1   
 25  11  38  1   
 26  12  13  1   
 27  12  39  1   
 28  12  40  1   
 29  13  14  1   
 30  13  41  1   
 31  14  15  1   
 32  14  42  1   
 33  14  43  1   
 34  15  16  1   
 35  15  17  2   
 36  16  18  1   
 37  16  44  1   
 38  17  19  1   
 39  17  20  1   
 40  18  19  ar  
 41  18  21  ar  
 42  19  22  ar  
 43  20  45  1   
 44  20  46  1   
 45  20  47  1   
 46  21  23  ar  
 47  21  48  1   
 48  22  24  ar  
 49  22  49  1   
 50  23  24  ar  
 51  23  50  1   
 52  24  25  1   
 53  25  51  1   
 54  25  52  1   
 55  25  53  1   
@<TRIPOS>SUBSTRUCTURE
  1 ****  13 GROUP 4 **** **** 0

# MOE 2024.06 (io_trps.svl 2023.06)
