@<TRIPOS>MOLECULE
NONAME
48 50 1 0 0 
SMALL
USER_CHARGES


@<TRIPOS>ATOM
  1 O        0.6770     0.6450    -0.1620 O.3   1 <1>  -0.8290 
  2 C        0.6020     1.8870    -0.3090 C.ar  1 <1>   0.1390 
  3 N        0.4370     2.6770     0.7800 N.ar  1 <1>  -0.3100 
  4 C        0.6940     2.4180    -1.5920 C.ar  1 <1>  -0.1500 
  5 N        0.3650     3.9790     0.6410 N.ar  1 <1>  -0.3100 
  6 C        0.6210     3.7740    -1.7270 C.ar  1 <1>  -0.1500 
  7 C        0.4580     4.5180    -0.5690 C.ar  1 <1>   0.1670 
  8 C        0.3910     6.0330    -0.6470 C.3   1 <1>  -0.0160 
  9 C        1.6270     6.6650     0.0160 C.3   1 <1>  -0.0990 
 10 C        1.6700     8.1830    -0.0630 C.2   1 <1>   0.5690 
 11 O        0.8680     8.7470    -0.7710 O.2   1 <1>  -0.5700 
 12 N        2.6140     8.8880     0.6450 N.am  1 <1>  -0.6600 
 13 C        3.7170     8.2730     1.4520 C.3   1 <1>   0.1400 
 14 C        2.6290    10.3770     0.6420 C.3   1 <1>   0.1400 
 15 C        5.0800     8.7590     0.9460 C.3   1 <1>   0.2000 
 16 C        3.9600    10.8690     0.0700 C.3   1 <1>  -0.1600 
 17 O        6.0550     8.2920     1.8170 O.3   1 <1>  -0.6800 
 18 C        5.1430    10.3010     0.8610 C.3   1 <1>   0.2200 
 19 N        6.3980    10.7650     0.2130 N.am  1 <1>  -0.7300 
 20 C        7.6170    10.8650     0.8180 C.2   1 <1>   0.5440 
 21 O        7.7240    10.4330     1.9490 O.2   1 <1>  -0.5700 
 22 C        8.7560    11.4350     0.1180 C.ar  1 <1>   0.0860 
 23 C       10.0580    11.0400     0.4300 C.ar  1 <1>  -0.1500 
 24 C        8.6020    12.3920    -0.8880 C.ar  1 <1>  -0.1500 
 25 C       11.1520    11.5620    -0.2350 C.ar  1 <1>  -0.1500 
 26 C        9.6930    12.9170    -1.5580 C.ar  1 <1>  -0.1500 
 27 C       10.9710    12.5010    -1.2340 C.ar  1 <1>  -0.1500 
 28 H        0.8190     1.7410    -2.4130 H     1 <1>   0.1500 
 29 H        0.6890     4.2380    -2.6900 H     1 <1>   0.1500 
 30 H        0.3310     6.3430    -1.6750 H     1 <1>   0.0800 
 31 H       -0.5010     6.3690    -0.1480 H     1 <1>   0.0800 
 32 H        2.5100     6.2720    -0.4530 H     1 <1>   0.0800 
 33 H        1.6350     6.3740     1.0510 H     1 <1>   0.0800 
 34 H        3.5940     8.5630     2.4810 H     1 <1>   0.0800 
 35 H        3.6960     7.2000     1.3990 H     1 <1>   0.0800 
 36 H        1.8160    10.7670     0.0520 H     1 <1>   0.0800 
 37 H        2.5030    10.7310     1.6510 H     1 <1>   0.0800 
 38 H        5.2730     8.3310    -0.0220 H     1 <1>   0.0800 
 39 H        3.9800    11.9430     0.1150 H     1 <1>   0.0800 
 40 H        4.0180    10.5660    -0.9600 H     1 <1>   0.0800 
 41 H        6.7720     8.9770     1.8960 H     1 <1>   0.4000 
 42 H        5.1000    10.6950     1.8630 H     1 <1>   0.0800 
 43 H        6.3300    10.9540    -0.7870 H     1 <1>   0.3700 
 44 H       10.2090    10.3120     1.2090 H     1 <1>   0.1500 
 45 H        7.6180    12.7390    -1.1470 H     1 <1>   0.1500 
 46 H       12.1460    11.2380     0.0250 H     1 <1>   0.1500 
 47 H        9.5500    13.6520    -2.3320 H     1 <1>   0.1500 
 48 H       11.8210    12.9080    -1.7540 H     1 <1>   0.1500 
@<TRIPOS>BOND
  1   1   2  1   
  2   2   3  ar  
  3   2   4  ar  
  4   3   5  ar  
  5   4   6  ar  
  6   4  28  1   
  7   5   7  ar  
  8   6   7  ar  
  9   6  29  1   
 10   7   8  1   
 11   8   9  1   
 12   8  30  1   
 13   8  31  1   
 14   9  10  1   
 15   9  32  1   
 16   9  33  1   
 17  10  11  2   
 18  10  12  am  
 19  12  13  1   
 20  12  14  1   
 21  13  15  1   
 22  13  34  1   
 23  13  35  1   
 24  14  16  1   
 25  14  36  1   
 26  14  37  1   
 27  15  17  1   
 28  15  18  1   
 29  15  38  1   
 30  16  18  1   
 31  16  39  1   
 32  16  40  1   
 33  17  41  1   
 34  18  19  1   
 35  18  42  1   
 36  19  20  am  
 37  19  43  1   
 38  20  21  2   
 39  20  22  1   
 40  22  23  ar  
 41  22  24  ar  
 42  23  25  ar  
 43  23  44  1   
 44  24  26  ar  
 45  24  45  1   
 46  25  27  ar  
 47  25  46  1   
 48  26  27  ar  
 49  26  47  1   
 50  27  48  1   
@<TRIPOS>SUBSTRUCTURE
  1 ****  15 GROUP 4 **** **** 0

# MOE 2024.06 (io_trps.svl 2023.06)
