@<TRIPOS>MOLECULE
NONAME
51 54 1 0 0 
SMALL
USER_CHARGES


@<TRIPOS>ATOM
  1 O        1.5000     2.6130     2.8040 O.co2 1 <1>  -0.9000 
  2 C        2.6960     2.4390     2.5320 C.2   1 <1>   0.9470 
  3 O        3.5840     3.0320     3.1620 O.co2 1 <1>  -0.9000 
  4 C        3.0880     1.6710     1.2650 C.3   1 <1>  -0.2420 
  5 C        3.3490     0.2070     1.0030 C.3   1 <1>  -0.2420 
  6 C        4.0960     2.4640     0.4560 C.3   1 <1>   0.2350 
  7 C        2.0420     0.8250     0.5810 C.3   1 <1>  -0.2000 
  8 C        3.3420    -0.9900     1.9550 C.2   1 <1>   0.9470 
  9 C        4.4950     0.0990     0.0110 C.3   1 <1>   0.2350 
 10 N        4.7270     1.4870    -0.4760 N.am  1 <1>  -0.6600 
 11 O        2.3890    -1.7810     1.9270 O.co2 1 <1>  -0.9000 
 12 O        4.3570    -1.2340     2.6210 O.co2 1 <1>  -0.9000 
 13 C        5.4220     1.7690    -1.6200 C.2   1 <1>   0.5690 
 14 O        5.7910     0.8900    -2.3680 O.2   1 <1>  -0.5700 
 15 C        5.7350     3.2250    -2.0130 C.3   1 <1>   0.1710 
 16 N        7.0710     3.7410    -1.5930 N.3   1 <1>  -0.8100 
 17 C        7.3240     5.0920    -2.1340 C.3   1 <1>   0.1100 
 18 C        7.2200     3.7580    -0.1170 C.3   1 <1>   0.1100 
 19 C        8.7250     5.6060    -1.7530 C.3   1 <1>   0.2090 
 20 C        8.6030     4.2730     0.3240 C.3   1 <1>   0.2090 
 21 N        8.9150     5.6090    -0.2740 N.pl3 1 <1>  -0.8380 
 22 C       10.0720     6.2230     0.1910 C.ar  1 <1>   0.1000 
 23 C       11.3350     5.7150    -0.0930 C.ar  1 <1>  -0.1500 
 24 C        9.9730     7.3730     0.9590 C.ar  1 <1>  -0.1500 
 25 C       12.4780     6.3400     0.3760 C.ar  1 <1>  -0.1440 
 26 C       11.1070     8.0050     1.4330 C.ar  1 <1>  -0.1500 
 27 C       12.3590     7.4890     1.1420 C.ar  1 <1>  -0.1500 
 28 C       13.8550     5.7820     0.0640 C.3   1 <1>  -0.0970 
 29 H        4.8500     2.8690     1.1080 H     1 <1>   0.0800 
 30 H        3.5990     3.2580    -0.0710 H     1 <1>   0.0800 
 31 H        1.8390     0.9700    -0.4630 H     1 <1>   0.1000 
 32 H        1.1620     0.5560     1.1410 H     1 <1>   0.1000 
 33 H        4.2410    -0.5620    -0.7990 H     1 <1>   0.0800 
 34 H        5.3830    -0.2570     0.5050 H     1 <1>   0.0800 
 35 H        4.9680     3.8720    -1.6330 H     1 <1>   0.0800 
 36 H        5.6820     3.2680    -3.0850 H     1 <1>   0.0800 
 37 H        7.2460     5.0650    -3.2060 H     1 <1>   0.0800 
 38 H        6.5880     5.7810    -1.7570 H     1 <1>   0.0800 
 39 H        6.4650     4.3860     0.3220 H     1 <1>   0.0800 
 40 H        7.0940     2.7610     0.2700 H     1 <1>   0.0800 
 41 H        8.8540     6.6070    -2.1260 H     1 <1>   0.0800 
 42 H        9.4660     4.9760    -2.2120 H     1 <1>   0.0800 
 43 H        9.3510     3.5600     0.0240 H     1 <1>   0.0800 
 44 H        8.6260     4.3510     1.3970 H     1 <1>   0.0800 
 45 H       11.4080     4.8230    -0.6860 H     1 <1>   0.1500 
 46 H        8.9960     7.7610     1.1780 H     1 <1>   0.1500 
 47 H       11.0170     8.8970     2.0280 H     1 <1>   0.1500 
 48 H       13.2380     7.9850     1.5130 H     1 <1>   0.1500 
 49 H       14.4500     6.5310    -0.4260 H     1 <1>   0.0800 
 50 H       13.7840     4.9240    -0.5800 H     1 <1>   0.0800 
 51 H       14.3440     5.4880     0.9750 H     1 <1>   0.0800 
@<TRIPOS>BOND
  1   1   2  ar  
  2   2   3  ar  
  3   2   4  1   
  4   4   5  1   
  5   4   6  1   
  6   4   7  1   
  7   5   7  1   
  8   5   8  1   
  9   5   9  1   
 10   6  10  1   
 11   6  29  1   
 12   6  30  1   
 13   7  31  1   
 14   7  32  1   
 15   8  11  ar  
 16   8  12  ar  
 17   9  10  1   
 18   9  33  1   
 19   9  34  1   
 20  10  13  am  
 21  13  14  2   
 22  13  15  1   
 23  15  16  1   
 24  15  35  1   
 25  15  36  1   
 26  16  17  1   
 27  16  18  1   
 28  17  19  1   
 29  17  37  1   
 30  17  38  1   
 31  18  20  1   
 32  18  39  1   
 33  18  40  1   
 34  19  21  1   
 35  19  41  1   
 36  19  42  1   
 37  20  21  1   
 38  20  43  1   
 39  20  44  1   
 40  21  22  1   
 41  22  23  ar  
 42  22  24  ar  
 43  23  25  ar  
 44  23  45  1   
 45  24  26  ar  
 46  24  46  1   
 47  25  27  ar  
 48  25  28  1   
 49  26  27  ar  
 50  26  47  1   
 51  27  48  1   
 52  28  49  1   
 53  28  50  1   
 54  28  51  1   
@<TRIPOS>SUBSTRUCTURE
  1 ****  18 GROUP 4 **** **** 0

# MOE 2024.06 (io_trps.svl 2023.06)
