@<TRIPOS>MOLECULE
NONAME
55 57 1 0 0 
SMALL
USER_CHARGES


@<TRIPOS>ATOM
  1 F       -3.7180    -3.1150    -4.0260 F     1 <1>  -0.1900 
  2 C       -3.5260    -2.9200    -2.7470 C.ar  1 <1>   0.1900 
  3 C       -3.7490    -3.9540    -1.8470 C.ar  1 <1>  -0.1440 
  4 C       -3.1010    -1.6640    -2.3600 C.ar  1 <1>  -0.1500 
  5 C       -3.5360    -3.7010    -0.4890 C.ar  1 <1>   0.1170 
  6 C       -4.2140    -5.3320    -2.3220 C.3   1 <1>  -0.0970 
  7 C       -2.8870    -1.4230    -1.0160 C.ar  1 <1>  -0.1500 
  8 N       -3.7670    -4.7300     0.4390 N.am  1 <1>  -0.5470 
  9 C       -3.1030    -2.4340    -0.0960 C.ar  1 <1>  -0.1500 
 10 C       -3.7170    -4.8180     1.8020 C.2   1 <1>   0.5690 
 11 O       -3.4100    -3.9170     2.5420 O.2   1 <1>  -0.5700 
 12 C       -4.1060    -6.1710     2.4020 C.3   1 <1>   0.1710 
 13 N       -5.1480    -6.9100     1.6160 N.3   1 <1>  -0.8100 
 14 C       -6.4450    -6.2230     1.7220 C.3   1 <1>   0.1100 
 15 C       -5.2240    -8.3030     2.0700 C.3   1 <1>   0.1100 
 16 C       -7.4530    -6.9120     0.8070 C.3   1 <1>  -0.1600 
 17 C       -6.1930    -9.0710     1.1710 C.3   1 <1>  -0.1600 
 18 C       -7.5650    -8.3950     1.1820 C.3   1 <1>   0.4230 
 19 N       -8.5120    -9.1340     0.3030 N.4   1 <1>  -0.9590 
 20 C       -8.2180    -9.0540    -1.1590 C.3   1 <1>   0.3430 
 21 C       -9.9300    -8.7630     0.5690 C.3   1 <1>   0.3430 
 22 C       -9.0610   -10.0910    -1.8870 C.3   1 <1>  -0.1600 
 23 C      -10.8400    -9.7870    -0.0940 C.3   1 <1>  -0.1600 
 24 C      -10.5650    -9.9120    -1.6050 C.3   1 <1>  -0.1860 
 25 C      -11.3570   -11.0640    -2.1980 C.2   1 <1>   0.9060 
 26 O      -12.1680   -10.8160    -3.0890 O.co2 1 <1>  -0.9000 
 27 O      -11.1420   -12.1960    -1.7560 O.co2 1 <1>  -0.9000 
 28 H       -2.9420    -0.8960    -3.0960 H     1 <1>   0.1500 
 29 H       -4.3220    -5.3720    -3.3910 H     1 <1>   0.0800 
 30 H       -5.1650    -5.5700    -1.8830 H     1 <1>   0.0800 
 31 H       -3.4940    -6.0780    -2.0370 H     1 <1>   0.0800 
 32 H       -2.5540    -0.4540    -0.6850 H     1 <1>   0.1500 
 33 H       -4.1120    -5.6010     0.0330 H     1 <1>   0.3700 
 34 H       -2.9280    -2.2210     0.9420 H     1 <1>   0.1500 
 35 H       -4.4460    -6.0140     3.4110 H     1 <1>   0.0800 
 36 H       -3.2070    -6.7600     2.4480 H     1 <1>   0.0800 
 37 H       -6.3450    -5.1920     1.4190 H     1 <1>   0.0800 
 38 H       -6.7890    -6.2370     2.7440 H     1 <1>   0.0800 
 39 H       -5.5490    -8.3420     3.0980 H     1 <1>   0.0800 
 40 H       -4.2490    -8.7590     2.0070 H     1 <1>   0.0800 
 41 H       -7.1170    -6.7900    -0.2060 H     1 <1>   0.0800 
 42 H       -8.4040    -6.4240     0.9170 H     1 <1>   0.0800 
 43 H       -6.2770   -10.0790     1.5330 H     1 <1>   0.0800 
 44 H       -5.7770    -9.0930     0.1810 H     1 <1>   0.0800 
 45 H       -7.9340    -8.4460     2.1940 H     1 <1>   0.0800 
 46 H       -8.4510   -10.1340     0.5340 H     1 <1>   0.4500 
 47 H       -7.1760    -9.2520    -1.3470 H     1 <1>   0.0800 
 48 H       -8.4540    -8.0710    -1.5310 H     1 <1>   0.0800 
 49 H      -10.1380    -7.7840     0.1710 H     1 <1>   0.0800 
 50 H      -10.1220    -8.7530     1.6300 H     1 <1>   0.0800 
 51 H       -8.7520   -11.0780    -1.5900 H     1 <1>   0.0800 
 52 H       -8.8940   -10.0130    -2.9480 H     1 <1>   0.0800 
 53 H      -11.8690    -9.5050     0.0510 H     1 <1>   0.0800 
 54 H      -10.7060   -10.7450     0.3800 H     1 <1>   0.0800 
 55 H      -10.9030    -9.0150    -2.0920 H     1 <1>   0.0800 
@<TRIPOS>BOND
  1   1   2  1   
  2   2   3  ar  
  3   2   4  ar  
  4   3   5  ar  
  5   3   6  1   
  6   4   7  ar  
  7   4  28  1   
  8   5   8  1   
  9   5   9  ar  
 10   6  29  1   
 11   6  30  1   
 12   6  31  1   
 13   7   9  ar  
 14   7  32  1   
 15   8  10  am  
 16   8  33  1   
 17   9  34  1   
 18  10  11  2   
 19  10  12  1   
 20  12  13  1   
 21  12  35  1   
 22  12  36  1   
 23  13  14  1   
 24  13  15  1   
 25  14  16  1   
 26  14  37  1   
 27  14  38  1   
 28  15  17  1   
 29  15  39  1   
 30  15  40  1   
 31  16  18  1   
 32  16  41  1   
 33  16  42  1   
 34  17  18  1   
 35  17  43  1   
 36  17  44  1   
 37  18  19  1   
 38  18  45  1   
 39  19  20  1   
 40  19  21  1   
 41  19  46  1   
 42  20  22  1   
 43  20  47  1   
 44  20  48  1   
 45  21  23  1   
 46  21  49  1   
 47  21  50  1   
 48  22  24  1   
 49  22  51  1   
 50  22  52  1   
 51  23  24  1   
 52  23  53  1   
 53  23  54  1   
 54  24  25  1   
 55  24  55  1   
 56  25  26  ar  
 57  25  27  ar  
@<TRIPOS>SUBSTRUCTURE
  1 ****  16 GROUP 4 **** **** 0

# MOE 2024.06 (io_trps.svl 2023.06)
