@<TRIPOS>MOLECULE
NONAME
56 59 1 0 0 
SMALL
USER_CHARGES


@<TRIPOS>ATOM
  1 O       -0.2400     0.1750     1.0600 O.3   1 <1>  -0.2800 
  2 C        0.6430    -0.8030     0.8790 C.ar  1 <1>   0.1400 
  3 C        0.3500     1.3080     0.7120 C.2   1 <1>  -0.0400 
  4 C        1.8320    -0.2920     0.3990 C.ar  1 <1>   0.0000 
  5 C        0.4620    -2.1580     1.1100 C.ar  1 <1>  -0.1500 
  6 C        1.6240     1.1050     0.2950 C.2   1 <1>  -0.0540 
  7 C       -0.4500     2.5870     0.8420 C.3   1 <1>  -0.0600 
  8 C        2.8890    -1.1570     0.1240 C.ar  1 <1>  -0.1500 
  9 C        1.5090    -3.0180     0.8360 C.ar  1 <1>  -0.1430 
 10 C        2.6120     2.0470    -0.1720 C.ar  1 <1>   0.0540 
 11 C        2.7260    -2.5180     0.3430 C.ar  1 <1>   0.0820 
 12 C        1.3370    -4.5070     1.0630 C.3   1 <1>   0.4870 
 13 C        3.8290     2.1930     0.4880 C.ar  1 <1>  -0.1500 
 14 C        2.3780     2.8290    -1.2980 C.ar  1 <1>  -0.1500 
 15 O        3.7070    -3.4300     0.0860 O.3   1 <1>  -0.3630 
 16 N        1.4860    -5.2070    -0.2410 N.4   1 <1>  -0.9590 
 17 C        4.7820     3.0890     0.0380 C.ar  1 <1>  -0.1500 
 18 C        3.3270     3.7270    -1.7540 C.ar  1 <1>  -0.1500 
 19 C        5.0270    -3.0050    -0.1960 C.3   1 <1>   0.0400 
 20 C        1.5840    -6.6910    -0.0320 C.3   1 <1>   0.3430 
 21 C        0.4470    -4.7960    -1.2300 C.3   1 <1>   0.3430 
 22 C        4.5320     3.8570    -1.0860 C.ar  1 <1>  -0.1500 
 23 C        0.3410    -7.4630    -0.5030 C.3   1 <1>  -0.0800 
 24 C       -0.9500    -5.3000    -0.8340 C.3   1 <1>  -0.1600 
 25 C       -0.9480    -6.6930    -0.1830 C.3   1 <1>   0.2000 
 26 C        0.3340    -8.8690     0.1070 C.3   1 <1>   0.1200 
 27 O       -1.0330    -6.5300     1.1900 O.3   1 <1>  -0.6800 
 28 O        1.5600    -9.4550    -0.1600 O.3   1 <1>  -0.6800 
 29 H       -0.4860    -2.4920     1.4930 H     1 <1>   0.1500 
 30 H        0.1480     3.4360     0.5640 H     1 <1>   0.0800 
 31 H       -0.7740     2.7090     1.8590 H     1 <1>   0.0800 
 32 H       -1.3140     2.5420     0.2040 H     1 <1>   0.0800 
 33 H        3.7970    -0.7310    -0.2580 H     1 <1>   0.1500 
 34 H        0.3710    -4.7100     1.4920 H     1 <1>   0.0800 
 35 H        2.0950    -4.8470     1.7500 H     1 <1>   0.0800 
 36 H        4.0230     1.6020     1.3650 H     1 <1>   0.1500 
 37 H        1.4440     2.7280    -1.8210 H     1 <1>   0.1500 
 38 H        2.4010    -4.8610    -0.5760 H     1 <1>   0.4500 
 39 H        5.7170     3.1920     0.5610 H     1 <1>   0.1500 
 40 H        3.1300     4.3230    -2.6280 H     1 <1>   0.1500 
 41 H        5.6540    -3.8760    -0.2730 H     1 <1>   0.0800 
 42 H        5.3750    -2.3790     0.6080 H     1 <1>   0.0800 
 43 H        5.0350    -2.4690    -1.1290 H     1 <1>   0.0800 
 44 H        2.4420    -7.0800    -0.5550 H     1 <1>   0.0800 
 45 H        1.7300    -6.8940     1.0170 H     1 <1>   0.0800 
 46 H        0.4330    -3.7230    -1.3360 H     1 <1>   0.0800 
 47 H        0.7040    -5.2160    -2.1890 H     1 <1>   0.0800 
 48 H        5.2720     4.5550    -1.4390 H     1 <1>   0.1500 
 49 H        0.4010    -7.5860    -1.5700 H     1 <1>   0.0800 
 50 H       -1.5310    -5.3480    -1.7370 H     1 <1>   0.0800 
 51 H       -1.4330    -4.5800    -0.1970 H     1 <1>   0.0800 
 52 H       -1.8110    -7.2580    -0.4980 H     1 <1>   0.0800 
 53 H       -0.4400    -9.4770    -0.3310 H     1 <1>   0.0800 
 54 H        0.2030    -8.8340     1.1770 H     1 <1>   0.0800 
 55 H       -1.9580    -6.3450     1.4570 H     1 <1>   0.4000 
 56 H        1.5750   -10.3870     0.1460 H     1 <1>   0.4000 
@<TRIPOS>BOND
  1   1   2  1   
  2   1   3  1   
  3   2   4  ar  
  4   2   5  ar  
  5   3   6  2   
  6   3   7  1   
  7   4   6  1   
  8   4   8  ar  
  9   5   9  ar  
 10   5  29  1   
 11   6  10  1   
 12   7  30  1   
 13   7  31  1   
 14   7  32  1   
 15   8  11  ar  
 16   8  33  1   
 17   9  11  ar  
 18   9  12  1   
 19  10  13  ar  
 20  10  14  ar  
 21  11  15  1   
 22  12  16  1   
 23  12  34  1   
 24  12  35  1   
 25  13  17  ar  
 26  13  36  1   
 27  14  18  ar  
 28  14  37  1   
 29  15  19  1   
 30  16  20  1   
 31  16  21  1   
 32  16  38  1   
 33  17  22  ar  
 34  17  39  1   
 35  18  22  ar  
 36  18  40  1   
 37  19  41  1   
 38  19  42  1   
 39  19  43  1   
 40  20  23  1   
 41  20  44  1   
 42  20  45  1   
 43  21  24  1   
 44  21  46  1   
 45  21  47  1   
 46  22  48  1   
 47  23  25  1   
 48  23  26  1   
 49  23  49  1   
 50  24  25  1   
 51  24  50  1   
 52  24  51  1   
 53  25  27  1   
 54  25  52  1   
 55  26  28  1   
 56  26  53  1   
 57  26  54  1   
 58  27  55  1   
 59  28  56  1   
@<TRIPOS>SUBSTRUCTURE
  1 ****   9 GROUP 4 **** **** 0

# MOE 2024.06 (io_trps.svl 2023.06)
