@<TRIPOS>MOLECULE
NONAME
53 55 1 0 0 
SMALL
USER_CHARGES


@<TRIPOS>ATOM
  1 O       -0.9780    -1.0870     1.2710 O.co2 1 <1>  -0.9000 
  2 C       -0.6670    -1.5110     0.1430 C.2   1 <1>   1.0330 
  3 O       -1.3360    -1.1360    -0.8380 O.co2 1 <1>  -0.9000 
  4 C        0.4740    -2.3500    -0.0300 C.2   1 <1>  -0.2330 
  5 C        0.4430    -3.7360    -0.1690 C.2   1 <1>   0.3720 
  6 C        1.7970    -2.0480    -0.0930 C.2   1 <1>   0.0870 
  7 N        1.6310    -4.2190    -0.2970 N.2   1 <1>  -0.4100 
  8 N       -0.7110    -4.5230    -0.1630 N.pl3 1 <1>  -0.8210 
  9 O        2.4330    -3.1870    -0.2520 O.3   1 <1>  -0.0190 
 10 C        2.5410    -0.8110    -0.0250 C.ar  1 <1>   0.0530 
 11 C       -1.6110    -4.3700    -1.3350 C.3   1 <1>   0.2090 
 12 C       -0.5950    -5.9430     0.2390 C.3   1 <1>   0.2090 
 13 C        3.8440    -0.7320    -0.5210 C.ar  1 <1>  -0.1500 
 14 C        2.0080     0.3520     0.5340 C.ar  1 <1>  -0.1500 
 15 C       -3.0040    -4.9180    -0.9820 C.3   1 <1>   0.1100 
 16 C       -1.9960    -6.4900     0.5810 C.3   1 <1>   0.1100 
 17 C        4.5730     0.4410    -0.4650 C.ar  1 <1>  -0.1500 
 18 C        2.7270     1.5310     0.5930 C.ar  1 <1>  -0.1500 
 19 N       -2.9740    -6.3440    -0.5390 N.3   1 <1>  -0.8100 
 20 C        4.0240     1.5850     0.0910 C.ar  1 <1>   0.0830 
 21 C       -4.3230    -6.7760    -0.1590 C.3   1 <1>   0.1100 
 22 O        4.7970     2.6970     0.1080 O.3   1 <1>  -0.3630 
 23 C       -4.4020    -8.3100    -0.1290 C.3   1 <1>   0.3430 
 24 C        4.3110     3.9150     0.6260 C.3   1 <1>   0.0400 
 25 N       -5.8080    -8.8130     0.0410 N.4   1 <1>  -0.9590 
 26 C       -6.3800    -8.4610     1.3800 C.3   1 <1>   0.2630 
 27 C       -5.8540   -10.2930    -0.1750 C.3   1 <1>   0.2630 
 28 H       -1.2080    -4.9080    -2.1740 H     1 <1>   0.0800 
 29 H       -1.6960    -3.3370    -1.6160 H     1 <1>   0.0800 
 30 H        0.0450    -6.0160     1.1010 H     1 <1>   0.0800 
 31 H       -0.1570    -6.5130    -0.5610 H     1 <1>   0.0800 
 32 H        4.2910    -1.6060    -0.9610 H     1 <1>   0.1500 
 33 H        1.0100     0.3370     0.9360 H     1 <1>   0.1500 
 34 H       -3.6330    -4.8210    -1.8490 H     1 <1>   0.0800 
 35 H       -3.4110    -4.2960    -0.2020 H     1 <1>   0.0800 
 36 H       -2.3510    -5.9530     1.4450 H     1 <1>   0.0800 
 37 H       -1.8950    -7.5270     0.8460 H     1 <1>   0.0800 
 38 H        5.5740     0.4800    -0.8530 H     1 <1>   0.1500 
 39 H        2.2590     2.3890     1.0330 H     1 <1>   0.1500 
 40 H       -5.0180    -6.4150    -0.8980 H     1 <1>   0.0800 
 41 H       -4.5810    -6.3530     0.7960 H     1 <1>   0.0800 
 42 H       -3.7820    -8.6790     0.6700 H     1 <1>   0.0800 
 43 H       -4.0040    -8.6750    -1.0610 H     1 <1>   0.0800 
 44 H        5.0860     4.6540     0.5250 H     1 <1>   0.0800 
 45 H        4.0670     3.7790     1.6650 H     1 <1>   0.0800 
 46 H        3.4450     4.2120     0.0620 H     1 <1>   0.0800 
 47 H       -6.3850    -8.3700    -0.6910 H     1 <1>   0.4500 
 48 H       -5.7900    -8.9010     2.1670 H     1 <1>   0.0800 
 49 H       -7.3910    -8.8270     1.4620 H     1 <1>   0.0800 
 50 H       -6.3940    -7.3920     1.5150 H     1 <1>   0.0800 
 51 H       -5.2550   -10.7990     0.5640 H     1 <1>   0.0800 
 52 H       -5.4760   -10.5400    -1.1540 H     1 <1>   0.0800 
 53 H       -6.8690   -10.6510    -0.1010 H     1 <1>   0.0800 
@<TRIPOS>BOND
  1   1   2  ar  
  2   2   3  ar  
  3   2   4  1   
  4   4   5  1   
  5   4   6  2   
  6   5   7  2   
  7   5   8  1   
  8   6   9  1   
  9   6  10  1   
 10   7   9  1   
 11   8  11  1   
 12   8  12  1   
 13  10  13  ar  
 14  10  14  ar  
 15  11  15  1   
 16  11  28  1   
 17  11  29  1   
 18  12  16  1   
 19  12  30  1   
 20  12  31  1   
 21  13  17  ar  
 22  13  32  1   
 23  14  18  ar  
 24  14  33  1   
 25  15  19  1   
 26  15  34  1   
 27  15  35  1   
 28  16  19  1   
 29  16  36  1   
 30  16  37  1   
 31  17  20  ar  
 32  17  38  1   
 33  18  20  ar  
 34  18  39  1   
 35  19  21  1   
 36  20  22  1   
 37  21  23  1   
 38  21  40  1   
 39  21  41  1   
 40  22  24  1   
 41  23  25  1   
 42  23  42  1   
 43  23  43  1   
 44  24  44  1   
 45  24  45  1   
 46  24  46  1   
 47  25  26  1   
 48  25  27  1   
 49  25  47  1   
 50  26  48  1   
 51  26  49  1   
 52  26  50  1   
 53  27  51  1   
 54  27  52  1   
 55  27  53  1   
@<TRIPOS>SUBSTRUCTURE
  1 ****   5 GROUP 4 **** **** 0

# MOE 2024.06 (io_trps.svl 2023.06)
