@<TRIPOS>MOLECULE
NONAME
42 44 1 0 0 
SMALL
USER_CHARGES


@<TRIPOS>ATOM
  1 O       -1.2750    -0.5260     0.4910 O.3   1 <1>  -0.2800 
  2 C       -1.6050    -0.9220    -0.7260 C.2   1 <1>  -0.0400 
  3 C       -1.1890     0.7890     0.4710 C.2   1 <1>  -0.0100 
  4 C       -1.7420     0.1420    -1.5490 C.2   1 <1>  -0.1500 
  5 C       -1.7780    -2.4070    -0.9740 C.3   1 <1>   0.5230 
  6 C       -1.4670     1.2660    -0.7600 C.2   1 <1>  -0.1500 
  7 N       -2.7280    -2.9300     0.0400 N.4   1 <1>  -0.9590 
  8 C       -4.1040    -2.4130    -0.1520 C.3   1 <1>   0.3430 
  9 C       -2.8210    -4.4090     0.1010 C.3   1 <1>   0.3430 
 10 C       -4.9870    -3.3760     0.6300 C.3   1 <1>  -0.0800 
 11 C       -4.2620    -4.7340     0.5110 C.3   1 <1>  -0.0800 
 12 C       -6.4710    -3.3660     0.1810 C.3   1 <1>   0.2800 
 13 C       -4.9170    -5.6710    -0.5180 C.3   1 <1>  -0.1600 
 14 O       -6.5190    -3.1570    -1.1830 O.3   1 <1>  -0.6800 
 15 C       -7.1110    -4.7360     0.4660 C.3   1 <1>  -0.1600 
 16 C       -7.3060    -2.2490     0.8470 C.3   1 <1>  -0.1600 
 17 C       -6.4010    -5.9280    -0.2090 C.3   1 <1>  -0.1600 
 18 C       -6.8370    -0.8040     0.6000 C.3   1 <1>  -0.2400 
 19 H       -0.9220     1.3110     1.3760 H     1 <1>   0.1500 
 20 H       -2.0030     0.1760    -2.5930 H     1 <1>   0.1500 
 21 H       -0.8220    -2.8920    -0.8680 H     1 <1>   0.0800 
 22 H       -2.1510    -2.5800    -1.9700 H     1 <1>   0.0800 
 23 H       -1.4810     2.2880    -1.0980 H     1 <1>   0.1500 
 24 H       -2.3950    -2.5640     0.9440 H     1 <1>   0.4500 
 25 H       -4.2000    -1.3980     0.1970 H     1 <1>   0.0800 
 26 H       -4.3640    -2.4530    -1.1980 H     1 <1>   0.0800 
 27 H       -2.6240    -4.8330    -0.8700 H     1 <1>   0.0800 
 28 H       -2.1160    -4.8110     0.8110 H     1 <1>   0.0800 
 29 H       -4.9520    -3.0870     1.6660 H     1 <1>   0.0800 
 30 H       -4.2590    -5.2300     1.4670 H     1 <1>   0.0800 
 31 H       -4.8480    -5.2250    -1.4960 H     1 <1>   0.0800 
 32 H       -4.3960    -6.6130    -0.5560 H     1 <1>   0.0800 
 33 H       -7.4450    -3.2330    -1.4870 H     1 <1>   0.4000 
 34 H       -7.0840    -4.8950     1.5300 H     1 <1>   0.0800 
 35 H       -8.1500    -4.7330     0.1850 H     1 <1>   0.0800 
 36 H       -8.3240    -2.3340     0.5090 H     1 <1>   0.0800 
 37 H       -7.3250    -2.4180     1.9100 H     1 <1>   0.0800 
 38 H       -6.4930    -6.7900     0.4310 H     1 <1>   0.0800 
 39 H       -6.9030    -6.1650    -1.1320 H     1 <1>   0.0800 
 40 H       -6.7320    -0.6070    -0.4530 H     1 <1>   0.0800 
 41 H       -5.9050    -0.6070     1.0960 H     1 <1>   0.0800 
 42 H       -7.5670    -0.1190     0.9950 H     1 <1>   0.0800 
@<TRIPOS>BOND
  1   1   2  1   
  2   1   3  1   
  3   2   4  2   
  4   2   5  1   
  5   3   6  2   
  6   3  19  1   
  7   4   6  1   
  8   4  20  1   
  9   5   7  1   
 10   5  21  1   
 11   5  22  1   
 12   6  23  1   
 13   7   8  1   
 14   7   9  1   
 15   7  24  1   
 16   8  10  1   
 17   8  25  1   
 18   8  26  1   
 19   9  11  1   
 20   9  27  1   
 21   9  28  1   
 22  10  11  1   
 23  10  12  1   
 24  10  29  1   
 25  11  13  1   
 26  11  30  1   
 27  12  14  1   
 28  12  15  1   
 29  12  16  1   
 30  13  17  1   
 31  13  31  1   
 32  13  32  1   
 33  14  33  1   
 34  15  17  1   
 35  15  34  1   
 36  15  35  1   
 37  16  18  1   
 38  16  36  1   
 39  16  37  1   
 40  17  38  1   
 41  17  39  1   
 42  18  40  1   
 43  18  41  1   
 44  18  42  1   
@<TRIPOS>SUBSTRUCTURE
  1 ****   8 GROUP 4 **** **** 0

# MOE 2024.06 (io_trps.svl 2023.06)
