@<TRIPOS>MOLECULE
NONAME
17 17 1 0 0 
SMALL
USER_CHARGES


@<TRIPOS>ATOM
  1 O        4.1950     0.2150     1.7070 O.2   1 <1>  -0.5700 
  2 C        5.0290    -0.2330     0.9280 C.2   1 <1>   0.6300 
  3 N        5.0550    -1.5880     0.7510 N.am  1 <1>  -0.5390 
  4 C        5.9900     0.5540     0.1840 C.2   1 <1>   0.3890 
  5 C        5.9820    -2.1320    -0.1120 C.2   1 <1>  -0.0410 
  6 N        6.8660     0.0480    -0.6280 N.2   1 <1>  -0.6210 
  7 C        5.9820     2.0700     0.3580 C.3   1 <1>  -0.0990 
  8 C        6.8510    -1.3180    -0.7700 C.2   1 <1>   0.0210 
  9 C        4.9090     2.7470    -0.5070 C.3   1 <1>  -0.2400 
 10 H        4.3710    -2.1320     1.2800 H     1 <1>   0.3700 
 11 H        5.9880    -3.2020    -0.2380 H     1 <1>   0.1500 
 12 H        6.9480     2.4590     0.0880 H     1 <1>   0.0800 
 13 H        5.8150     2.3080     1.3940 H     1 <1>   0.0800 
 14 H        7.5850    -1.7210    -1.4490 H     1 <1>   0.1500 
 15 H        5.0740     2.5220    -1.5460 H     1 <1>   0.0800 
 16 H        4.9470     3.8140    -0.3750 H     1 <1>   0.0800 
 17 H        3.9280     2.4020    -0.2270 H     1 <1>   0.0800 
@<TRIPOS>BOND
  1   1   2  2   
  2   2   3  am  
  3   2   4  1   
  4   3   5  1   
  5   3  10  1   
  6   4   6  2   
  7   4   7  1   
  8   5   8  2   
  9   5  11  1   
 10   6   8  1   
 11   7   9  1   
 12   7  12  1   
 13   7  13  1   
 14   8  14  1   
 15   9  15  1   
 16   9  16  1   
 17   9  17  1   
@<TRIPOS>SUBSTRUCTURE
  1 ****   4 GROUP 4 **** **** 0

# MOE 2024.06 (io_trps.svl 2023.06)
