@<TRIPOS>MOLECULE
NONAME
56 59 1 0 0 
SMALL
USER_CHARGES


@<TRIPOS>ATOM
  1 O       -1.6960     1.1430     1.2410 O.2   1 <1>  -0.5700 
  2 C       -0.9750     2.0320     0.8190 C.2   1 <1>   0.5440 
  3 N       -0.2260     1.7670    -0.3220 N.am  1 <1>  -0.6600 
  4 C       -0.9660     3.3160     1.5220 C.ar  1 <1>   0.3960 
  5 C       -0.1030     0.3890    -0.8790 C.3   1 <1>   0.0600 
  6 C        0.4730     2.8150    -1.1170 C.3   1 <1>   0.0600 
  7 N        0.1610     4.0400     1.6200 N.ar  1 <1>  -0.6200 
  8 C       -2.1660     3.7580     2.0890 C.ar  1 <1>   0.1600 
  9 C        0.0110     5.1800     2.2700 C.ar  1 <1>   0.4100 
 10 N       -2.3380     4.9000     2.7430 N.ar  1 <1>  -0.6200 
 11 N        1.1310     5.9850     2.3710 N.pl3 1 <1>  -0.8380 
 12 C       -1.2150     5.5860     2.8150 C.ar  1 <1>   0.1600 
 13 C        2.4530     5.3460     2.6870 C.3   1 <1>   0.2090 
 14 C        1.2660     7.0860     1.3620 C.3   1 <1>   0.2090 
 15 C        3.2320     4.9040     1.4280 C.3   1 <1>   0.2090 
 16 C        1.9800     6.6000     0.0890 C.3   1 <1>   0.2090 
 17 N        3.3140     6.0020     0.4170 N.pl3 1 <1>  -0.7880 
 18 C        4.4750     6.6250     0.0710 C.2   1 <1>   0.4860 
 19 N        4.4370     7.9390    -0.0750 N.2   1 <1>  -0.6210 
 20 C        5.6620     5.8930    -0.1250 C.2   1 <1>  -0.1360 
 21 C        5.5410     8.5680    -0.4600 C.2   1 <1>   0.2710 
 22 C        6.7950     6.5420    -0.4900 C.2   1 <1>  -0.0380 
 23 N        6.7060     7.8800    -0.6510 N.pl3 1 <1>  -0.6000 
 24 C        5.5360     9.9720    -0.6450 C.2   1 <1>   0.0140 
 25 C        8.1290     5.8710    -0.7380 C.3   1 <1>  -0.1020 
 26 C        4.5540    10.6370    -1.4310 C.2   1 <1>   0.5410 
 27 C        6.5270    10.7640    -0.0350 C.2   1 <1>  -0.1500 
 28 O        3.6520    10.0460    -2.0610 O.2   1 <1>  -0.5700 
 29 C        4.6110    12.0420    -1.5470 C.2   1 <1>  -0.1360 
 30 C        6.5640    12.1300    -0.1750 C.2   1 <1>  -0.1500 
 31 C        5.5910    12.7780    -0.9400 C.2   1 <1>  -0.1500 
 32 H       -0.4320    -0.3450    -0.1640 H     1 <1>   0.0800 
 33 H        0.9240     0.1860    -1.1260 H     1 <1>   0.0800 
 34 H       -0.7060     0.3020    -1.7660 H     1 <1>   0.0800 
 35 H       -0.0160     3.7660    -1.0020 H     1 <1>   0.0800 
 36 H        0.4650     2.5570    -2.1610 H     1 <1>   0.0800 
 37 H        1.4920     2.9020    -0.7830 H     1 <1>   0.0800 
 38 H       -3.0310     3.1260     1.9890 H     1 <1>   0.1500 
 39 H       -1.2340     6.5280     3.3300 H     1 <1>   0.1500 
 40 H        2.2950     4.4910     3.3220 H     1 <1>   0.0800 
 41 H        3.0550     6.0520     3.2340 H     1 <1>   0.0800 
 42 H        1.8330     7.8960     1.7880 H     1 <1>   0.0800 
 43 H        0.2940     7.4640     1.0990 H     1 <1>   0.0800 
 44 H        2.7410     4.0550     0.9870 H     1 <1>   0.0800 
 45 H        4.2170     4.5970     1.7280 H     1 <1>   0.0800 
 46 H        2.0880     7.4220    -0.5980 H     1 <1>   0.0800 
 47 H        1.3710     5.8560    -0.3920 H     1 <1>   0.0800 
 48 H        5.6400     4.8320     0.0020 H     1 <1>   0.1500 
 49 H        7.5210     8.4090    -0.9640 H     1 <1>   0.4000 
 50 H        8.8700     6.2670    -0.0670 H     1 <1>   0.0800 
 51 H        8.4430     6.0450    -1.7510 H     1 <1>   0.0800 
 52 H        8.0520     4.8110    -0.5800 H     1 <1>   0.0800 
 53 H        7.2690    10.2740     0.5710 H     1 <1>   0.1500 
 54 H        3.8470    12.5080    -2.1400 H     1 <1>   0.1500 
 55 H        7.3330    12.7130     0.3030 H     1 <1>   0.1500 
 56 H        5.6250    13.8500    -1.0400 H     1 <1>   0.1500 
@<TRIPOS>BOND
  1   1   2  2   
  2   2   3  am  
  3   2   4  1   
  4   3   5  1   
  5   3   6  1   
  6   4   7  ar  
  7   4   8  ar  
  8   5  32  1   
  9   5  33  1   
 10   5  34  1   
 11   6  35  1   
 12   6  36  1   
 13   6  37  1   
 14   7   9  ar  
 15   8  10  ar  
 16   8  38  1   
 17   9  11  1   
 18   9  12  ar  
 19  10  12  ar  
 20  11  13  1   
 21  11  14  1   
 22  12  39  1   
 23  13  15  1   
 24  13  40  1   
 25  13  41  1   
 26  14  16  1   
 27  14  42  1   
 28  14  43  1   
 29  15  17  1   
 30  15  44  1   
 31  15  45  1   
 32  16  17  1   
 33  16  46  1   
 34  16  47  1   
 35  17  18  1   
 36  18  19  2   
 37  18  20  1   
 38  19  21  1   
 39  20  22  2   
 40  20  48  1   
 41  21  23  1   
 42  21  24  2   
 43  22  23  1   
 44  22  25  1   
 45  23  49  1   
 46  24  26  1   
 47  24  27  1   
 48  25  50  1   
 49  25  51  1   
 50  25  52  1   
 51  26  28  2   
 52  26  29  1   
 53  27  30  2   
 54  27  53  1   
 55  29  31  2   
 56  29  54  1   
 57  30  31  1   
 58  30  55  1   
 59  31  56  1   
@<TRIPOS>SUBSTRUCTURE
  1 ****  17 GROUP 4 **** **** 0

# MOE 2024.06 (io_trps.svl 2023.06)
