@<TRIPOS>MOLECULE
NONAME
47 48 1 0 0 
SMALL
USER_CHARGES


@<TRIPOS>ATOM
  1 S        1.0290     1.3770    -1.0580 S.o2  1 <1>   1.3330 
  2 O       -0.0790     2.0350    -1.7100 O.2   1 <1>  -0.6500 
  3 O        2.3260     1.4180    -1.6970 O.2   1 <1>  -0.6500 
  4 N        0.6010    -0.2510    -0.8470 N.am  1 <1>  -0.8490 
  5 C        1.1710     2.0340     0.6140 C.3   1 <1>  -0.0550 
  6 C        0.9430    -1.0700    -2.0140 C.3   1 <1>   0.1160 
  7 C       -0.8200    -0.4380    -0.5250 C.3   1 <1>   0.1160 
  8 C        2.1570     1.3820     1.6140 C.3   1 <1>  -0.0800 
  9 C        3.5830     1.1610     1.1440 C.3   1 <1>   0.2890 
 10 C        1.8110     0.0050     2.1630 C.3   1 <1>   0.1200 
 11 N        4.3240     2.4470     1.1470 N.pl3 1 <1>  -0.8690 
 12 C        4.1090     0.1470     2.1610 C.3   1 <1>   0.1200 
 13 O        2.9860    -0.4330     2.7680 O.3   1 <1>  -0.5600 
 14 C        4.8670     3.1090     0.1240 C.ar  1 <1>   0.4100 
 15 N        5.2290     4.3590     0.4070 N.ar  1 <1>  -0.6200 
 16 C        5.0370     2.5840    -1.1610 C.ar  1 <1>  -0.1500 
 17 C        5.6970     5.0930    -0.5600 C.ar  1 <1>   0.5280 
 18 C        5.5200     3.3810    -2.1530 C.ar  1 <1>   0.2180 
 19 N        5.8430     4.6480    -1.8270 N.ar  1 <1>  -0.1790 
 20 C        6.0960     6.5310    -0.2490 C.3   1 <1>  -0.0170 
 21 C        5.7010     2.9030    -3.5830 C.3   1 <1>  -0.0970 
 22 C        7.5870     6.8120    -0.4990 C.3   1 <1>  -0.2400 
 23 H        1.4540     3.0650     0.5230 H     1 <1>   0.0800 
 24 H        0.1970     2.0290     1.0640 H     1 <1>   0.0800 
 25 H        0.6720    -2.0980    -1.8420 H     1 <1>   0.0800 
 26 H        2.0030    -1.0300    -2.1970 H     1 <1>   0.0800 
 27 H        0.4260    -0.7100    -2.8890 H     1 <1>   0.0800 
 28 H       -1.0190    -1.4760    -0.3220 H     1 <1>   0.0800 
 29 H       -1.4390    -0.1170    -1.3470 H     1 <1>   0.0800 
 30 H       -1.0840     0.1330     0.3480 H     1 <1>   0.0800 
 31 H        2.1890     2.0270     2.4750 H     1 <1>   0.0800 
 32 H        3.6070     0.6910     0.1800 H     1 <1>   0.0800 
 33 H        1.5660    -0.7020     1.3910 H     1 <1>   0.0800 
 34 H        1.0260     0.0350     2.8990 H     1 <1>   0.0800 
 35 H        4.3200     2.9320     2.0500 H     1 <1>   0.4000 
 36 H        4.6910     0.6200     2.9310 H     1 <1>   0.0800 
 37 H        4.6790    -0.6300     1.6840 H     1 <1>   0.0800 
 38 H        4.7770     1.5630    -1.3570 H     1 <1>   0.1500 
 39 H        6.2100     5.2870    -2.5310 H     1 <1>   0.4570 
 40 H        5.4930     7.2020    -0.8350 H     1 <1>   0.0800 
 41 H        5.8790     6.7330     0.7860 H     1 <1>   0.0800 
 42 H        5.3750     1.8810    -3.6790 H     1 <1>   0.0800 
 43 H        6.7360     2.9540    -3.8720 H     1 <1>   0.0800 
 44 H        5.1140     3.5020    -4.2570 H     1 <1>   0.0800 
 45 H        7.8470     6.7050    -1.5370 H     1 <1>   0.0800 
 46 H        8.1960     6.1440     0.0860 H     1 <1>   0.0800 
 47 H        7.8190     7.8200    -0.2000 H     1 <1>   0.0800 
@<TRIPOS>BOND
  1   1   2  2   
  2   1   3  2   
  3   1   4  am  
  4   1   5  1   
  5   4   6  1   
  6   4   7  1   
  7   5   8  1   
  8   5  23  1   
  9   5  24  1   
 10   6  25  1   
 11   6  26  1   
 12   6  27  1   
 13   7  28  1   
 14   7  29  1   
 15   7  30  1   
 16   8   9  1   
 17   8  10  1   
 18   8  31  1   
 19   9  11  1   
 20   9  12  1   
 21   9  32  1   
 22  10  13  1   
 23  10  33  1   
 24  10  34  1   
 25  11  14  1   
 26  11  35  1   
 27  12  13  1   
 28  12  36  1   
 29  12  37  1   
 30  14  15  ar  
 31  14  16  ar  
 32  15  17  ar  
 33  16  18  ar  
 34  16  38  1   
 35  17  19  ar  
 36  17  20  1   
 37  18  19  ar  
 38  18  21  1   
 39  19  39  1   
 40  20  22  1   
 41  20  40  1   
 42  20  41  1   
 43  21  42  1   
 44  21  43  1   
 45  21  44  1   
 46  22  45  1   
 47  22  46  1   
 48  22  47  1   
@<TRIPOS>SUBSTRUCTURE
  1 ****  11 GROUP 4 **** **** 0

# MOE 2024.06 (io_trps.svl 2023.06)
