@<TRIPOS>MOLECULE
NONAME
57 59 1 0 0 
SMALL
USER_CHARGES


@<TRIPOS>ATOM
  1 O        1.2600    -0.4330     1.4860 O.co2 1 <1>  -0.9000 
  2 C        1.3100     0.4020     0.5690 C.2   1 <1>   0.9060 
  3 O        0.4870     1.3110     0.4790 O.co2 1 <1>  -0.9000 
  4 C        2.4530     0.2910    -0.4580 C.3   1 <1>  -0.1060 
  5 C        3.7490    -0.0590     0.3110 C.3   1 <1>   0.4230 
  6 C        2.6870     1.6500    -1.1840 C.3   1 <1>  -0.1600 
  7 C        2.1070    -0.8120    -1.5020 C.3   1 <1>  -0.1600 
  8 N        3.6270    -1.4270     0.9180 N.4   1 <1>  -0.9590 
  9 C        4.1010     1.0690     1.3050 C.3   1 <1>   0.1400 
 10 C        3.1200     2.7710    -0.2230 C.3   1 <1>   0.1400 
 11 C        3.1080    -1.9790    -1.4900 C.3   1 <1>  -0.1600 
 12 C        3.3680    -2.5130    -0.0730 C.3   1 <1>   0.3430 
 13 C        4.6700    -1.7900     1.9140 C.3   1 <1>   0.2630 
 14 N        4.3300     2.3230     0.5270 N.am  1 <1>  -0.6600 
 15 C        5.5920     2.8320     0.3720 C.2   1 <1>   0.5690 
 16 O        6.5600     2.2070     0.7420 O.2   1 <1>  -0.5700 
 17 C        5.7970     4.1860    -0.2980 C.3   1 <1>  -0.0990 
 18 C        7.1880     4.8060    -0.0670 C.3   1 <1>  -0.1600 
 19 C        7.3130     6.1800    -0.7370 C.3   1 <1>  -0.0170 
 20 C        8.6870     6.7780    -0.4810 C.ar  1 <1>  -0.1430 
 21 C        8.9150     7.5530     0.6450 C.ar  1 <1>  -0.1500 
 22 C        9.7260     6.5530    -1.3720 C.ar  1 <1>  -0.1500 
 23 C       10.1640     8.1020     0.8820 C.ar  1 <1>  -0.1500 
 24 C       10.9750     7.1010    -1.1390 C.ar  1 <1>  -0.1500 
 25 C       11.2050     7.8770    -0.0150 C.ar  1 <1>   0.0830 
 26 O       12.4570     8.3770     0.1380 O.3   1 <1>  -0.3630 
 27 C       12.7960     9.1690     1.2540 C.3   1 <1>   0.0400 
 28 H        4.5580    -0.0900    -0.3980 H     1 <1>   0.0800 
 29 H        1.7760     1.9550    -1.6710 H     1 <1>   0.0800 
 30 H        3.4390     1.5400    -1.9450 H     1 <1>   0.0800 
 31 H        1.1250    -1.2020    -1.2870 H     1 <1>   0.0800 
 32 H        2.0590    -0.3990    -2.4950 H     1 <1>   0.0800 
 33 H        2.7070    -1.3140     1.4260 H     1 <1>   0.4500 
 34 H        4.9880     0.8220     1.8560 H     1 <1>   0.0800 
 35 H        3.3010     1.2290     2.0080 H     1 <1>   0.0800 
 36 H        2.3290     2.9910     0.4770 H     1 <1>   0.0800 
 37 H        3.3120     3.6660    -0.7850 H     1 <1>   0.0800 
 38 H        4.0410    -1.6640    -1.9240 H     1 <1>   0.0800 
 39 H        2.7300    -2.7800    -2.1010 H     1 <1>   0.0800 
 40 H        4.2070    -3.1880    -0.1050 H     1 <1>   0.0800 
 41 H        2.5040    -3.0700     0.2510 H     1 <1>   0.0800 
 42 H        5.6410    -1.8040     1.4480 H     1 <1>   0.0800 
 43 H        4.4630    -2.7640     2.3270 H     1 <1>   0.0800 
 44 H        4.6790    -1.0760     2.7210 H     1 <1>   0.0800 
 45 H        5.6360     4.0630    -1.3530 H     1 <1>   0.0800 
 46 H        5.0550     4.8640     0.0830 H     1 <1>   0.0800 
 47 H        7.3620     4.9070     0.9910 H     1 <1>   0.0800 
 48 H        7.9460     4.1500    -0.4610 H     1 <1>   0.0800 
 49 H        6.5600     6.8450    -0.3520 H     1 <1>   0.0800 
 50 H        7.1560     6.0850    -1.7970 H     1 <1>   0.0800 
 51 H        8.1180     7.7310     1.3460 H     1 <1>   0.1500 
 52 H        9.5680     5.9500    -2.2480 H     1 <1>   0.1500 
 53 H       10.3060     8.6960     1.7630 H     1 <1>   0.1500 
 54 H       11.7820     6.9280    -1.8270 H     1 <1>   0.1500 
 55 H       13.8310     9.4450     1.1660 H     1 <1>   0.0800 
 56 H       12.6450     8.5920     2.1500 H     1 <1>   0.0800 
 57 H       12.1810    10.0520     1.2550 H     1 <1>   0.0800 
@<TRIPOS>BOND
  1   1   2  ar  
  2   2   3  ar  
  3   2   4  1   
  4   4   5  1   
  5   4   6  1   
  6   4   7  1   
  7   5   8  1   
  8   5   9  1   
  9   5  28  1   
 10   6  10  1   
 11   6  29  1   
 12   6  30  1   
 13   7  11  1   
 14   7  31  1   
 15   7  32  1   
 16   8  12  1   
 17   8  13  1   
 18   8  33  1   
 19   9  14  1   
 20   9  34  1   
 21   9  35  1   
 22  10  14  1   
 23  10  36  1   
 24  10  37  1   
 25  11  12  1   
 26  11  38  1   
 27  11  39  1   
 28  12  40  1   
 29  12  41  1   
 30  13  42  1   
 31  13  43  1   
 32  13  44  1   
 33  14  15  am  
 34  15  16  2   
 35  15  17  1   
 36  17  18  1   
 37  17  45  1   
 38  17  46  1   
 39  18  19  1   
 40  18  47  1   
 41  18  48  1   
 42  19  20  1   
 43  19  49  1   
 44  19  50  1   
 45  20  21  ar  
 46  20  22  ar  
 47  21  23  ar  
 48  21  51  1   
 49  22  24  ar  
 50  22  52  1   
 51  23  25  ar  
 52  23  53  1   
 53  24  25  ar  
 54  24  54  1   
 55  25  26  1   
 56  26  27  1   
 57  27  55  1   
 58  27  56  1   
 59  27  57  1   
@<TRIPOS>SUBSTRUCTURE
  1 ****  15 GROUP 4 **** **** 0

# MOE 2024.06 (io_trps.svl 2023.06)
