@<TRIPOS>MOLECULE
NONAME
57 60 1 0 0 
SMALL
USER_CHARGES


@<TRIPOS>ATOM
  1 O       -0.3980    -1.7040     1.8960 O.2   1 <1>  -0.5700 
  2 C       -0.9580    -0.9600     1.1300 C.2   1 <1>   0.5690 
  3 N       -1.9980    -1.2670     0.2960 N.am  1 <1>  -0.4770 
  4 C       -0.5480     0.4810     0.9900 C.3   1 <1>  -0.0990 
  5 C       -2.6860    -2.4880     0.1800 C.ar  1 <1>   0.1170 
  6 C       -2.3850    -0.0880    -0.5070 C.3   1 <1>   0.1400 
  7 C       -1.6790     1.0980     0.1580 C.3   1 <1>  -0.1600 
  8 C       -3.1860    -2.9220    -1.0440 C.ar  1 <1>  -0.1500 
  9 C       -2.8990    -3.3060     1.2850 C.ar  1 <1>  -0.1500 
 10 C       -3.8730    -4.1160    -1.1550 C.ar  1 <1>  -0.1500 
 11 C       -3.5840    -4.5000     1.1720 C.ar  1 <1>  -0.1500 
 12 C       -4.0960    -4.9420    -0.0500 C.ar  1 <1>   0.0860 
 13 C       -4.8190    -6.1980    -0.1540 C.2   1 <1>   0.5440 
 14 O       -4.9600    -6.9470     0.7990 O.2   1 <1>  -0.5700 
 15 N       -5.4200    -6.6010    -1.3220 N.am  1 <1>  -0.6600 
 16 C       -6.8910    -6.3560    -1.4460 C.3   1 <1>   0.1400 
 17 C       -5.0100    -7.9300    -1.8830 C.3   1 <1>   0.1400 
 18 C       -7.7210    -7.4560    -0.7260 C.3   1 <1>   0.4230 
 19 C       -5.9740    -9.0700    -1.4680 C.3   1 <1>   0.3430 
 20 N       -6.8700    -8.6440    -0.3360 N.4   1 <1>  -0.9590 
 21 C       -8.9310    -7.9020    -1.5790 C.3   1 <1>   0.1200 
 22 C       -7.7110    -9.7100     0.2950 C.3   1 <1>   0.4230 
 23 O       -9.6490    -8.9140    -0.9320 O.3   1 <1>  -0.5600 
 24 C       -8.9150   -10.0650    -0.6100 C.3   1 <1>   0.1200 
 25 C       -6.8530   -10.9310     0.6630 C.3   1 <1>  -0.1600 
 26 C       -7.5770   -11.8900     1.6210 C.3   1 <1>  -0.1600 
 27 C       -6.6610   -13.0470     2.0290 C.3   1 <1>  -0.2400 
 28 H       -0.4560     0.9470     1.9540 H     1 <1>   0.0800 
 29 H        0.3900     0.5260     0.4680 H     1 <1>   0.0800 
 30 H       -2.0330    -0.2170    -1.5160 H     1 <1>   0.0800 
 31 H       -3.4550     0.0390    -0.5050 H     1 <1>   0.0800 
 32 H       -1.3140     1.8040    -0.5670 H     1 <1>   0.0800 
 33 H       -2.3760     1.5970     0.8090 H     1 <1>   0.0800 
 34 H       -3.0290    -2.3250    -1.9230 H     1 <1>   0.1500 
 35 H       -2.5210    -3.0030     2.2460 H     1 <1>   0.1500 
 36 H       -4.2370    -4.4150    -2.1220 H     1 <1>   0.1500 
 37 H       -3.7240    -5.1050     2.0520 H     1 <1>   0.1500 
 38 H       -7.1360    -5.3970    -1.0210 H     1 <1>   0.0800 
 39 H       -7.1490    -6.3150    -2.4900 H     1 <1>   0.0800 
 40 H       -4.9590    -7.8700    -2.9570 H     1 <1>   0.0800 
 41 H       -4.0200    -8.1700    -1.5310 H     1 <1>   0.0800 
 42 H       -8.1180    -7.0170     0.1740 H     1 <1>   0.0800 
 43 H       -5.3850    -9.9240    -1.1780 H     1 <1>   0.0800 
 44 H       -6.5720    -9.3570    -2.3160 H     1 <1>   0.0800 
 45 H       -6.2150    -8.2570     0.3780 H     1 <1>   0.4500 
 46 H       -8.6200    -8.2660    -2.5420 H     1 <1>   0.0800 
 47 H       -9.6040    -7.0750    -1.7280 H     1 <1>   0.0800 
 48 H       -8.1140    -9.3160     1.2130 H     1 <1>   0.0800 
 49 H       -9.5840   -10.7330    -0.0960 H     1 <1>   0.0800 
 50 H       -8.5950   -10.5390    -1.5210 H     1 <1>   0.0800 
 51 H       -6.5770   -11.4750    -0.2230 H     1 <1>   0.0800 
 52 H       -5.9560   -10.5900     1.1520 H     1 <1>   0.0800 
 53 H       -7.8850   -11.3620     2.5080 H     1 <1>   0.0800 
 54 H       -8.4570   -12.3000     1.1540 H     1 <1>   0.0800 
 55 H       -5.7840   -12.6800     2.5330 H     1 <1>   0.0800 
 56 H       -6.3550   -13.6150     1.1680 H     1 <1>   0.0800 
 57 H       -7.1820   -13.7080     2.7000 H     1 <1>   0.0800 
@<TRIPOS>BOND
  1   1   2  2   
  2   2   3  am  
  3   2   4  1   
  4   3   5  1   
  5   3   6  1   
  6   4   7  1   
  7   4  28  1   
  8   4  29  1   
  9   5   8  ar  
 10   5   9  ar  
 11   6   7  1   
 12   6  30  1   
 13   6  31  1   
 14   7  32  1   
 15   7  33  1   
 16   8  10  ar  
 17   8  34  1   
 18   9  11  ar  
 19   9  35  1   
 20  10  12  ar  
 21  10  36  1   
 22  11  12  ar  
 23  11  37  1   
 24  12  13  1   
 25  13  14  2   
 26  13  15  am  
 27  15  16  1   
 28  15  17  1   
 29  16  18  1   
 30  16  38  1   
 31  16  39  1   
 32  17  19  1   
 33  17  40  1   
 34  17  41  1   
 35  18  20  1   
 36  18  21  1   
 37  18  42  1   
 38  19  20  1   
 39  19  43  1   
 40  19  44  1   
 41  20  22  1   
 42  20  45  1   
 43  21  23  1   
 44  21  46  1   
 45  21  47  1   
 46  22  24  1   
 47  22  25  1   
 48  22  48  1   
 49  23  24  1   
 50  24  49  1   
 51  24  50  1   
 52  25  26  1   
 53  25  51  1   
 54  25  52  1   
 55  26  27  1   
 56  26  53  1   
 57  26  54  1   
 58  27  55  1   
 59  27  56  1   
 60  27  57  1   
@<TRIPOS>SUBSTRUCTURE
  1 ****  13 GROUP 4 **** **** 0

# MOE 2024.06 (io_trps.svl 2023.06)
