@<TRIPOS>MOLECULE
NONAME
60 62 1 0 0 
SMALL
USER_CHARGES


@<TRIPOS>ATOM
  1 S       -0.3920     0.0620     1.3780 S.o2  1 <1>   1.4470 
  2 O       -0.2210    -1.3360     1.7330 O.2   1 <1>  -0.6500 
  3 O       -0.7550     0.9870     2.4280 O.2   1 <1>  -0.6500 
  4 N       -1.6730     0.0240     0.2590 N.am  1 <1>  -0.8490 
  5 C        1.0510     0.6330     0.4470 C.ar  1 <1>  -0.0090 
  6 C       -1.5900    -1.1250    -0.6660 C.3   1 <1>   0.1960 
  7 C       -2.9780     0.2050     0.9340 C.3   1 <1>   0.1960 
  8 C        1.0300     1.8340    -0.2560 C.ar  1 <1>   0.0820 
  9 C        2.2170    -0.1250     0.4250 C.ar  1 <1>  -0.1500 
 10 C       -2.4420    -2.2800    -0.1060 C.3   1 <1>   0.4230 
 11 C       -4.1410    -0.4150     0.1390 C.3   1 <1>  -0.1600 
 12 O       -0.1060     2.5730    -0.2100 O.3   1 <1>  -0.3630 
 13 C        2.1500     2.2420    -0.9750 C.ar  1 <1>  -0.1500 
 14 C        3.3390     0.2730    -0.2850 C.ar  1 <1>  -0.1440 
 15 N       -2.0960    -3.6930    -0.5110 N.4   1 <1>  -0.9590 
 16 C       -3.9550    -1.9370    -0.1450 C.3   1 <1>   0.0000 
 17 C       -0.1620     3.8960    -0.6950 C.3   1 <1>   0.0400 
 18 C        3.2920     1.4660    -0.9880 C.ar  1 <1>  -0.1500 
 19 C        4.5980    -0.5930    -0.2760 C.3   1 <1>   0.0630 
 20 C       -3.1250    -4.6820    -0.0450 C.3   1 <1>   0.3430 
 21 C       -1.8150    -3.8550    -1.9740 C.3   1 <1>   0.2630 
 22 C       -4.6010    -2.7960     0.9750 C.3   1 <1>  -0.1600 
 23 C       -4.6710    -2.2670    -1.4840 C.3   1 <1>   0.1200 
 24 C        5.7760     0.1630     0.3450 C.3   1 <1>  -0.2400 
 25 C        4.9440    -1.0720    -1.6900 C.3   1 <1>  -0.2400 
 26 C       -3.9050    -4.1680     1.1800 C.3   1 <1>  -0.1600 
 27 O       -3.9820    -1.7560    -2.5740 O.3   1 <1>  -0.6800 
 28 H       -1.9510    -0.8160    -1.6290 H     1 <1>   0.0800 
 29 H       -0.5650    -1.4330    -0.7840 H     1 <1>   0.0800 
 30 H       -2.9530    -0.2520     1.9110 H     1 <1>   0.0800 
 31 H       -3.1480     1.2610     1.0790 H     1 <1>   0.0800 
 32 H        2.2470    -1.0470     0.9810 H     1 <1>   0.1500 
 33 H       -2.2030    -2.2530     0.9440 H     1 <1>   0.0800 
 34 H       -5.0630    -0.2430     0.6680 H     1 <1>   0.0800 
 35 H       -4.2110     0.1410    -0.7800 H     1 <1>   0.0800 
 36 H        2.1530     3.1600    -1.5310 H     1 <1>   0.1500 
 37 H       -1.2260    -3.9000     0.0020 H     1 <1>   0.4500 
 38 H       -1.1320     4.2960    -0.4590 H     1 <1>   0.0800 
 39 H       -0.0220     3.8860    -1.7610 H     1 <1>   0.0800 
 40 H        0.6000     4.4790    -0.2090 H     1 <1>   0.0800 
 41 H        4.1480     1.7980    -1.5480 H     1 <1>   0.1500 
 42 H        4.4160    -1.4660     0.3290 H     1 <1>   0.0800 
 43 H       -3.8260    -4.8720    -0.8400 H     1 <1>   0.0800 
 44 H       -2.6460    -5.6180     0.1960 H     1 <1>   0.0800 
 45 H       -2.7070    -3.6850    -2.5530 H     1 <1>   0.0800 
 46 H       -1.4620    -4.8530    -2.1780 H     1 <1>   0.0800 
 47 H       -1.0620    -3.1550    -2.2950 H     1 <1>   0.0800 
 48 H       -4.5550    -2.2680     1.9130 H     1 <1>   0.0800 
 49 H       -5.6460    -2.9470     0.7620 H     1 <1>   0.0800 
 50 H       -5.6670    -1.8560    -1.4960 H     1 <1>   0.0800 
 51 H       -4.7570    -3.3270    -1.6350 H     1 <1>   0.0800 
 52 H        6.0380     1.0210    -0.2470 H     1 <1>   0.0800 
 53 H        6.6350    -0.4800     0.4170 H     1 <1>   0.0800 
 54 H        5.5160     0.4970     1.3340 H     1 <1>   0.0800 
 55 H        5.1890    -0.2410    -2.3270 H     1 <1>   0.0800 
 56 H        4.1070    -1.5950    -2.1160 H     1 <1>   0.0800 
 57 H        5.7860    -1.7400    -1.6600 H     1 <1>   0.0800 
 58 H       -4.6450    -4.9000     1.4550 H     1 <1>   0.0800 
 59 H       -3.2200    -4.0990     2.0080 H     1 <1>   0.0800 
 60 H       -4.3620    -0.8960    -2.8550 H     1 <1>   0.4000 
@<TRIPOS>BOND
  1   1   2  2   
  2   1   3  2   
  3   1   4  am  
  4   1   5  1   
  5   4   6  1   
  6   4   7  1   
  7   5   8  ar  
  8   5   9  ar  
  9   6  10  1   
 10   6  28  1   
 11   6  29  1   
 12   7  11  1   
 13   7  30  1   
 14   7  31  1   
 15   8  12  1   
 16   8  13  ar  
 17   9  14  ar  
 18   9  32  1   
 19  10  15  1   
 20  10  16  1   
 21  10  33  1   
 22  11  16  1   
 23  11  34  1   
 24  11  35  1   
 25  12  17  1   
 26  13  18  ar  
 27  13  36  1   
 28  14  18  ar  
 29  14  19  1   
 30  15  20  1   
 31  15  21  1   
 32  15  37  1   
 33  16  22  1   
 34  16  23  1   
 35  17  38  1   
 36  17  39  1   
 37  17  40  1   
 38  18  41  1   
 39  19  24  1   
 40  19  25  1   
 41  19  42  1   
 42  20  26  1   
 43  20  43  1   
 44  20  44  1   
 45  21  45  1   
 46  21  46  1   
 47  21  47  1   
 48  22  26  1   
 49  22  48  1   
 50  22  49  1   
 51  23  27  1   
 52  23  50  1   
 53  23  51  1   
 54  24  52  1   
 55  24  53  1   
 56  24  54  1   
 57  25  55  1   
 58  25  56  1   
 59  25  57  1   
 60  26  58  1   
 61  26  59  1   
 62  27  60  1   
@<TRIPOS>SUBSTRUCTURE
  1 ****   6 GROUP 4 **** **** 0

# MOE 2024.06 (io_trps.svl 2023.06)
