@<TRIPOS>MOLECULE
NONAME
54 56 1 0 0 
SMALL
USER_CHARGES


@<TRIPOS>ATOM
  1 O        0.1290     0.4070    -0.1840 O.2   1 <1>  -0.5700 
  2 C        0.0330     1.6120    -0.2000 C.2   1 <1>   0.5690 
  3 N       -1.1860     2.2330    -0.0800 N.am  1 <1>  -0.6600 
  4 C        1.3010     2.4430    -0.3740 C.3   1 <1>  -0.0990 
  5 C       -2.4020     1.4210     0.2300 C.3   1 <1>   0.1400 
  6 C       -1.3880     3.7040    -0.2580 C.3   1 <1>   0.1400 
  7 C        2.6050     1.6880    -0.0540 C.3   1 <1>  -0.1600 
  8 C       -3.4030     2.2410     1.0460 C.3   1 <1>  -0.1600 
  9 C       -2.8150     3.9860    -0.7230 C.3   1 <1>  -0.1600 
 10 C        3.8280     2.5850    -0.2340 C.3   1 <1>   0.1200 
 11 C       -3.8370     3.5350     0.3330 C.3   1 <1>   0.4180 
 12 O        4.9520     1.8440     0.0980 O.3   1 <1>  -0.5600 
 13 O       -3.8970     4.5130     1.3430 O.3   1 <1>  -0.5600 
 14 C       -5.2100     3.3370    -0.3080 C.2   1 <1>  -0.2880 
 15 C        6.1580     2.5240    -0.0680 C.3   1 <1>   0.2630 
 16 C       -4.7150     5.6310     1.1310 C.3   1 <1>   0.1200 
 17 C       -6.2870     4.0720    -0.0240 C.2   1 <1>  -0.2760 
 18 C        7.3180     1.6270     0.3420 C.ar  1 <1>  -0.1440 
 19 C       -6.1820     5.2130     0.9700 C.3   1 <1>  -0.0220 
 20 C       -7.6650     3.8520    -0.6240 C.3   1 <1>  -0.1020 
 21 C        8.3830     2.1500     1.0620 C.ar  1 <1>  -0.1500 
 22 C        7.3350     0.2840    -0.0060 C.ar  1 <1>  -0.1500 
 23 C        9.4480     1.3440     1.4270 C.ar  1 <1>  -0.1500 
 24 C        8.3990    -0.5240     0.3570 C.ar  1 <1>  -0.1500 
 25 C        9.4570     0.0060     1.0740 C.ar  1 <1>  -0.1500 
 26 H        1.2410     3.2980     0.2740 H     1 <1>   0.0800 
 27 H        1.3330     2.7860    -1.3910 H     1 <1>   0.0800 
 28 H       -2.1230     0.5440     0.7900 H     1 <1>   0.0800 
 29 H       -2.8520     1.0970    -0.6930 H     1 <1>   0.0800 
 30 H       -0.6990     4.0860    -0.9900 H     1 <1>   0.0800 
 31 H       -1.2090     4.2030     0.6810 H     1 <1>   0.0800 
 32 H        2.6950     0.8360    -0.7060 H     1 <1>   0.0800 
 33 H        2.5700     1.3340     0.9630 H     1 <1>   0.0800 
 34 H       -2.9360     2.4800     1.9850 H     1 <1>   0.0800 
 35 H       -4.2650     1.6370     1.2600 H     1 <1>   0.0800 
 36 H       -2.9800     3.4500    -1.6410 H     1 <1>   0.0800 
 37 H       -2.9330     5.0290    -0.9440 H     1 <1>   0.0800 
 38 H        3.7740     3.4390     0.4210 H     1 <1>   0.0800 
 39 H        3.9130     2.9070    -1.2580 H     1 <1>   0.0800 
 40 H       -5.2250     2.5240    -1.0110 H     1 <1>   0.1500 
 41 H        6.1360     3.4100     0.5420 H     1 <1>   0.0800 
 42 H        6.2590     2.7970    -1.1050 H     1 <1>   0.0800 
 43 H       -4.3760     6.1470     0.2510 H     1 <1>   0.0800 
 44 H       -4.6040     6.2840     1.9790 H     1 <1>   0.0800 
 45 H       -6.7430     6.0620     0.6250 H     1 <1>   0.0800 
 46 H       -6.5810     4.9080     1.9210 H     1 <1>   0.0800 
 47 H       -8.3780     3.6480     0.1550 H     1 <1>   0.0800 
 48 H       -7.6510     3.0180    -1.3010 H     1 <1>   0.0800 
 49 H       -7.9790     4.7270    -1.1650 H     1 <1>   0.0800 
 50 H        8.3890     3.1880     1.3440 H     1 <1>   0.1500 
 51 H        6.5110    -0.1340    -0.5590 H     1 <1>   0.1500 
 52 H       10.2690     1.7570     1.9860 H     1 <1>   0.1500 
 53 H        8.3990    -1.5640     0.0830 H     1 <1>   0.1500 
 54 H       10.2840    -0.6220     1.3570 H     1 <1>   0.1500 
@<TRIPOS>BOND
  1   1   2  2   
  2   2   3  am  
  3   2   4  1   
  4   3   5  1   
  5   3   6  1   
  6   4   7  1   
  7   4  26  1   
  8   4  27  1   
  9   5   8  1   
 10   5  28  1   
 11   5  29  1   
 12   6   9  1   
 13   6  30  1   
 14   6  31  1   
 15   7  10  1   
 16   7  32  1   
 17   7  33  1   
 18   8  11  1   
 19   8  34  1   
 20   8  35  1   
 21   9  11  1   
 22   9  36  1   
 23   9  37  1   
 24  10  12  1   
 25  10  38  1   
 26  10  39  1   
 27  11  13  1   
 28  11  14  1   
 29  12  15  1   
 30  13  16  1   
 31  14  17  2   
 32  14  40  1   
 33  15  18  1   
 34  15  41  1   
 35  15  42  1   
 36  16  19  1   
 37  16  43  1   
 38  16  44  1   
 39  17  19  1   
 40  17  20  1   
 41  18  21  ar  
 42  18  22  ar  
 43  19  45  1   
 44  19  46  1   
 45  20  47  1   
 46  20  48  1   
 47  20  49  1   
 48  21  23  ar  
 49  21  50  1   
 50  22  24  ar  
 51  22  51  1   
 52  23  25  ar  
 53  23  52  1   
 54  24  25  ar  
 55  24  53  1   
 56  25  54  1   
@<TRIPOS>SUBSTRUCTURE
  1 ****   4 GROUP 4 **** **** 0

# MOE 2024.06 (io_trps.svl 2023.06)
