@<TRIPOS>MOLECULE
NONAME
40 42 1 0 0 
SMALL
USER_CHARGES


@<TRIPOS>ATOM
  1 O       -0.0400     1.0240     1.0460 O.2   1 <1>  -0.5700 
  2 C       -0.1060     2.1870     0.7410 C.2   1 <1>   0.5690 
  3 N       -1.1410     2.9520     1.1500 N.am  1 <1>  -0.7300 
  4 C        0.9690     2.8170    -0.1430 C.3   1 <1>   0.1810 
  5 C       -1.3160     4.3800     0.7810 C.3   1 <1>   0.3640 
  6 O        1.0430     4.2140     0.0300 O.3   1 <1>  -0.5600 
  7 C       -2.6910     4.5320     0.1390 C.ar  1 <1>  -0.1440 
  8 C       -0.1890     4.9100    -0.1530 C.3   1 <1>   0.2610 
  9 C       -3.1330     3.6420    -0.8330 C.ar  1 <1>   0.1600 
 10 C       -3.5260     5.5690     0.5070 C.ar  1 <1>  -0.1500 
 11 C        0.0180     6.4130     0.0800 C.2   1 <1>   0.5690 
 12 N       -4.3020     3.7060    -1.4490 N.ar  1 <1>  -0.6200 
 13 C       -4.7490     5.6500    -0.1230 C.ar  1 <1>  -0.1500 
 14 O       -0.9230     7.1660     0.0070 O.2   1 <1>  -0.5700 
 15 N        1.2660     6.8730     0.3690 N.am  1 <1>  -0.7300 
 16 C       -5.0830     4.7070    -1.0800 C.ar  1 <1>   0.1600 
 17 C        1.6310     8.2860     0.6330 C.3   1 <1>   0.1400 
 18 C        2.1890     8.9310    -0.6360 C.3   1 <1>   0.0210 
 19 C        2.5950    10.3670    -0.3630 C.2   1 <1>  -0.1810 
 20 C        3.7580    10.8030     0.2650 C.2   1 <1>   0.1390 
 21 C        1.9240    11.4980    -0.6630 C.2   1 <1>  -0.3020 
 22 N        3.8130    12.0970     0.3540 N.2   1 <1>  -0.7070 
 23 N        2.6750    12.5260    -0.2220 N.pl3 1 <1>   0.3000 
 24 H       -1.8660     2.5200     1.7260 H     1 <1>   0.3700 
 25 H        0.7590     2.6070    -1.1760 H     1 <1>   0.0800 
 26 H        1.9270     2.4010     0.1110 H     1 <1>   0.0800 
 27 H       -1.2950     4.9550     1.6920 H     1 <1>   0.0800 
 28 H       -0.4830     4.7760    -1.1780 H     1 <1>   0.0800 
 29 H       -2.4930     2.8270    -1.1250 H     1 <1>   0.1500 
 30 H       -3.2400     6.2990     1.2470 H     1 <1>   0.1500 
 31 H       -5.4380     6.4380     0.1210 H     1 <1>   0.1500 
 32 H        2.0190     6.1770     0.4080 H     1 <1>   0.3700 
 33 H       -6.0400     4.7820    -1.5670 H     1 <1>   0.1500 
 34 H        0.7590     8.8320     0.9540 H     1 <1>   0.0800 
 35 H        2.3620     8.3250     1.4220 H     1 <1>   0.0800 
 36 H        3.0440     8.3800    -0.9850 H     1 <1>   0.0800 
 37 H        1.4320     8.9170    -1.4000 H     1 <1>   0.0800 
 38 H        4.5340    10.1550     0.6380 H     1 <1>   0.1500 
 39 H        0.9750    11.6270    -1.1520 H     1 <1>   0.1500 
 40 H        2.4420    13.5240    -0.2980 H     1 <1>   0.2700 
@<TRIPOS>BOND
  1   1   2  2   
  2   2   3  am  
  3   2   4  1   
  4   3   5  1   
  5   3  24  1   
  6   4   6  1   
  7   4  25  1   
  8   4  26  1   
  9   5   7  1   
 10   5   8  1   
 11   5  27  1   
 12   6   8  1   
 13   7   9  ar  
 14   7  10  ar  
 15   8  11  1   
 16   8  28  1   
 17   9  12  ar  
 18   9  29  1   
 19  10  13  ar  
 20  10  30  1   
 21  11  14  2   
 22  11  15  am  
 23  12  16  ar  
 24  13  16  ar  
 25  13  31  1   
 26  15  17  1   
 27  15  32  1   
 28  16  33  1   
 29  17  18  1   
 30  17  34  1   
 31  17  35  1   
 32  18  19  1   
 33  18  36  1   
 34  18  37  1   
 35  19  20  1   
 36  19  21  2   
 37  20  22  2   
 38  20  38  1   
 39  21  23  1   
 40  21  39  1   
 41  22  23  1   
 42  23  40  1   
@<TRIPOS>SUBSTRUCTURE
  1 ****  11 GROUP 4 **** **** 0

# MOE 2024.06 (io_trps.svl 2023.06)
