@<TRIPOS>MOLECULE
NONAME
58 61 1 0 0 
SMALL
USER_CHARGES


@<TRIPOS>ATOM
  1 O        0.7690    -0.6210     1.3690 O.3   1 <1>  -0.5600 
  2 C        1.8180    -1.0740     0.5440 C.3   1 <1>   0.4240 
  3 C       -0.5320    -0.9560     1.0000 C.3   1 <1>   0.1200 
  4 C        1.5550    -2.5000     0.0140 C.ar  1 <1>  -0.1440 
  5 C        3.0690    -1.0540     1.4290 C.3   1 <1>  -0.1600 
  6 C        1.9830    -0.0730    -0.6090 C.3   1 <1>  -0.1600 
  7 C       -0.7010    -2.4680     1.1070 C.3   1 <1>  -0.0160 
  8 C        0.3640    -3.1620     0.2810 C.ar  1 <1>  -0.1440 
  9 C        2.5110    -3.1550    -0.7520 C.ar  1 <1>  -0.1500 
 10 C        3.3910     0.3590     1.9120 C.3   1 <1>   0.2090 
 11 C        2.3200     1.3300    -0.1050 C.3   1 <1>   0.2090 
 12 C        0.1430    -4.4410    -0.2030 C.ar  1 <1>  -0.1500 
 13 C        2.3110    -4.4350    -1.2390 C.ar  1 <1>   0.0820 
 14 N        3.5500     1.2710     0.7370 N.pl3 1 <1>  -0.8380 
 15 C        1.1010    -5.0950    -0.9730 C.ar  1 <1>   0.0820 
 16 O        3.3540    -4.9380    -1.9600 O.3   1 <1>  -0.3630 
 17 C        4.7490     1.7860     0.3780 C.ar  1 <1>   0.4100 
 18 O        0.8740    -6.3430    -1.4800 O.3   1 <1>  -0.3630 
 19 C        3.6320    -6.3200    -1.9840 C.3   1 <1>   0.0400 
 20 N        5.7970     0.9740     0.5800 N.ar  1 <1>  -0.6200 
 21 C        4.9390     3.0680    -0.1930 C.ar  1 <1>  -0.1430 
 22 C       -0.3800    -6.9810    -1.3770 C.3   1 <1>   0.0400 
 23 C        6.9610     1.3390     0.1560 C.ar  1 <1>   0.5280 
 24 C        6.1910     3.3990    -0.6470 C.ar  1 <1>   0.2180 
 25 C        3.7930     4.0860    -0.2420 C.3   1 <1>  -0.0970 
 26 N        7.1860     2.5090    -0.4650 N.ar  1 <1>  -0.1790 
 27 C        8.1280     0.3960     0.3680 C.3   1 <1>  -0.0970 
 28 C        6.5610     4.7100    -1.3330 C.3   1 <1>  -0.0970 
 29 H       -0.7170    -0.6160    -0.0040 H     1 <1>   0.0800 
 30 H       -1.2050    -0.4540     1.6720 H     1 <1>   0.0800 
 31 H        3.9190    -1.4220     0.8860 H     1 <1>   0.0800 
 32 H        2.9150    -1.7020     2.2710 H     1 <1>   0.0800 
 33 H        1.0910    -0.0470    -1.2050 H     1 <1>   0.0800 
 34 H        2.7810    -0.3960    -1.2510 H     1 <1>   0.0800 
 35 H       -1.6810    -2.7400     0.7580 H     1 <1>   0.0800 
 36 H       -0.6130    -2.7660     2.1370 H     1 <1>   0.0800 
 37 H        3.4440    -2.6760    -0.9850 H     1 <1>   0.1500 
 38 H        4.2880     0.3450     2.5070 H     1 <1>   0.0800 
 39 H        2.5920     0.7230     2.5350 H     1 <1>   0.0800 
 40 H        1.5040     1.7230     0.4790 H     1 <1>   0.0800 
 41 H        2.4700     1.9650    -0.9570 H     1 <1>   0.0800 
 42 H       -0.7900    -4.9140     0.0330 H     1 <1>   0.1500 
 43 H        4.6520    -6.4520    -2.2960 H     1 <1>   0.0800 
 44 H        2.9720    -6.7940    -2.6870 H     1 <1>   0.0800 
 45 H        3.4930    -6.7240    -0.9960 H     1 <1>   0.0800 
 46 H       -0.3230    -7.9150    -1.9080 H     1 <1>   0.0800 
 47 H       -1.1300    -6.3530    -1.8230 H     1 <1>   0.0800 
 48 H       -0.5940    -7.1650    -0.3390 H     1 <1>   0.0800 
 49 H        3.0690     3.8830     0.5280 H     1 <1>   0.0800 
 50 H        3.3020     4.0590    -1.1990 H     1 <1>   0.0800 
 51 H        4.1500     5.0840    -0.0640 H     1 <1>   0.0800 
 52 H        8.1310     2.7220    -0.7800 H     1 <1>   0.4570 
 53 H        7.7920    -0.4970     0.8660 H     1 <1>   0.0800 
 54 H        8.8780     0.8600     0.9830 H     1 <1>   0.0800 
 55 H        8.5580     0.1120    -0.5750 H     1 <1>   0.0800 
 56 H        5.6970     5.1960    -1.7500 H     1 <1>   0.0800 
 57 H        7.2470     4.5360    -2.1430 H     1 <1>   0.0800 
 58 H        7.0190     5.3810    -0.6270 H     1 <1>   0.0800 
@<TRIPOS>BOND
  1   1   2  1   
  2   1   3  1   
  3   2   4  1   
  4   2   5  1   
  5   2   6  1   
  6   3   7  1   
  7   3  29  1   
  8   3  30  1   
  9   4   8  ar  
 10   4   9  ar  
 11   5  10  1   
 12   5  31  1   
 13   5  32  1   
 14   6  11  1   
 15   6  33  1   
 16   6  34  1   
 17   7   8  1   
 18   7  35  1   
 19   7  36  1   
 20   8  12  ar  
 21   9  13  ar  
 22   9  37  1   
 23  10  14  1   
 24  10  38  1   
 25  10  39  1   
 26  11  14  1   
 27  11  40  1   
 28  11  41  1   
 29  12  15  ar  
 30  12  42  1   
 31  13  15  ar  
 32  13  16  1   
 33  14  17  1   
 34  15  18  1   
 35  16  19  1   
 36  17  20  ar  
 37  17  21  ar  
 38  18  22  1   
 39  19  43  1   
 40  19  44  1   
 41  19  45  1   
 42  20  23  ar  
 43  21  24  ar  
 44  21  25  1   
 45  22  46  1   
 46  22  47  1   
 47  22  48  1   
 48  23  26  ar  
 49  23  27  1   
 50  24  26  ar  
 51  24  28  1   
 52  25  49  1   
 53  25  50  1   
 54  25  51  1   
 55  26  52  1   
 56  27  53  1   
 57  27  54  1   
 58  27  55  1   
 59  28  56  1   
 60  28  57  1   
 61  28  58  1   
@<TRIPOS>SUBSTRUCTURE
  1 ****   2 GROUP 4 **** **** 0

# MOE 2024.06 (io_trps.svl 2023.06)
