@<TRIPOS>MOLECULE
NONAME
52 54 1 0 0 
SMALL
USER_CHARGES


@<TRIPOS>ATOM
  1 O       -0.9260    -0.9660     2.1310 O.2   1 <1>  -0.5700 
  2 C       -1.3170    -1.0710     0.9900 C.2   1 <1>   0.5440 
  3 N       -1.5210     0.0850     0.3180 N.am  1 <1>  -0.8000 
  4 C       -1.5390    -2.3730     0.3850 C.ar  1 <1>   0.0860 
  5 C       -0.8280    -3.4900     0.8220 C.ar  1 <1>  -0.1500 
  6 C       -2.4640    -2.5700    -0.6400 C.ar  1 <1>  -0.1500 
  7 C       -1.0270    -4.7420     0.2700 C.ar  1 <1>  -0.1500 
  8 C       -2.6720    -3.8190    -1.1980 C.ar  1 <1>  -0.1500 
  9 C       -1.9610    -4.9180    -0.7390 C.ar  1 <1>  -0.1430 
 10 C       -2.2100    -6.2940    -1.3260 C.3   1 <1>   0.4860 
 11 N       -2.9540    -7.1110    -0.3190 N.4   1 <1>  -0.9590 
 12 C       -3.0540    -8.5530    -0.7570 C.3   1 <1>   0.3430 
 13 C       -4.2970    -6.5040    -0.0570 C.3   1 <1>   0.3430 
 14 C       -3.9000    -9.4550     0.2000 C.3   1 <1>   0.4230 
 15 C       -5.0570    -7.3430     0.9740 C.3   1 <1>  -0.1600 
 16 N       -3.9950   -10.9290    -0.1960 N.4   1 <1>  -0.9590 
 17 C       -5.2780    -8.8200     0.5500 C.3   1 <1>   0.0000 
 18 C       -5.0800   -11.6820     0.5250 C.3   1 <1>   0.3430 
 19 C       -4.1310   -11.1850    -1.6710 C.3   1 <1>   0.2630 
 20 C       -5.8780    -9.5870     1.7630 C.3   1 <1>  -0.1600 
 21 C       -6.3090    -8.8720    -0.6150 C.3   1 <1>   0.1200 
 22 C       -5.3900   -11.0470     1.8810 C.3   1 <1>  -0.1600 
 23 O       -5.7590    -8.4230    -1.8080 O.3   1 <1>  -0.6800 
 24 H       -1.3120     0.9620     0.7960 H     1 <1>   0.3700 
 25 H       -1.6950     0.1440    -0.6840 H     1 <1>   0.3700 
 26 H       -0.1050    -3.3610     1.6110 H     1 <1>   0.1500 
 27 H       -3.0350    -1.7310    -1.0010 H     1 <1>   0.1500 
 28 H       -0.4390    -5.5640     0.6420 H     1 <1>   0.1500 
 29 H       -3.3960    -3.9180    -1.9900 H     1 <1>   0.1500 
 30 H       -1.2630    -6.7540    -1.5580 H     1 <1>   0.0800 
 31 H       -2.7810    -6.2090    -2.2360 H     1 <1>   0.0800 
 32 H       -2.4130    -7.0230     0.5530 H     1 <1>   0.4500 
 33 H       -3.5000    -8.5810    -1.7360 H     1 <1>   0.0800 
 34 H       -2.0620    -8.9660    -0.8320 H     1 <1>   0.0800 
 35 H       -4.1800    -5.4990     0.3200 H     1 <1>   0.0800 
 36 H       -4.8630    -6.4490    -0.9730 H     1 <1>   0.0800 
 37 H       -3.3570    -9.4430     1.1310 H     1 <1>   0.0800 
 38 H       -4.5140    -7.2920     1.9030 H     1 <1>   0.0800 
 39 H       -6.0110    -6.8740     1.1520 H     1 <1>   0.0800 
 40 H       -3.1160   -11.3770     0.1050 H     1 <1>   0.4500 
 41 H       -5.9810   -11.6800    -0.0660 H     1 <1>   0.0800 
 42 H       -4.7830   -12.7110     0.6630 H     1 <1>   0.0800 
 43 H       -5.0330   -10.7350    -2.0530 H     1 <1>   0.0800 
 44 H       -4.1740   -12.2450    -1.8630 H     1 <1>   0.0800 
 45 H       -3.2900   -10.7810    -2.2110 H     1 <1>   0.0800 
 46 H       -5.6330    -9.0970     2.6920 H     1 <1>   0.0800 
 47 H       -6.9540    -9.5790     1.7040 H     1 <1>   0.0800 
 48 H       -7.1620    -8.2520    -0.3880 H     1 <1>   0.0800 
 49 H       -6.6680    -9.8730    -0.7800 H     1 <1>   0.0800 
 50 H       -6.1470   -11.6310     2.3780 H     1 <1>   0.0800 
 51 H       -4.5090   -11.0950     2.4990 H     1 <1>   0.0800 
 52 H       -6.4680    -8.3140    -2.4860 H     1 <1>   0.4000 
@<TRIPOS>BOND
  1   1   2  2   
  2   2   3  am  
  3   2   4  1   
  4   3  24  1   
  5   3  25  1   
  6   4   5  ar  
  7   4   6  ar  
  8   5   7  ar  
  9   5  26  1   
 10   6   8  ar  
 11   6  27  1   
 12   7   9  ar  
 13   7  28  1   
 14   8   9  ar  
 15   8  29  1   
 16   9  10  1   
 17  10  11  1   
 18  10  30  1   
 19  10  31  1   
 20  11  12  1   
 21  11  13  1   
 22  11  32  1   
 23  12  14  1   
 24  12  33  1   
 25  12  34  1   
 26  13  15  1   
 27  13  35  1   
 28  13  36  1   
 29  14  16  1   
 30  14  17  1   
 31  14  37  1   
 32  15  17  1   
 33  15  38  1   
 34  15  39  1   
 35  16  18  1   
 36  16  19  1   
 37  16  40  1   
 38  17  20  1   
 39  17  21  1   
 40  18  22  1   
 41  18  41  1   
 42  18  42  1   
 43  19  43  1   
 44  19  44  1   
 45  19  45  1   
 46  20  22  1   
 47  20  46  1   
 48  20  47  1   
 49  21  23  1   
 50  21  48  1   
 51  21  49  1   
 52  22  50  1   
 53  22  51  1   
 54  23  52  1   
@<TRIPOS>SUBSTRUCTURE
  1 ****  11 GROUP 4 **** **** 0

# MOE 2024.06 (io_trps.svl 2023.06)
