@<TRIPOS>MOLECULE
NONAME
39 40 1 0 0 
SMALL
USER_CHARGES


@<TRIPOS>ATOM
  1 CL      -0.5040     0.9010     2.2360 Cl    1 <1>  -0.1770 
  2 C       -1.2590     1.1070     0.6660 C.ar  1 <1>   0.1770 
  3 C       -1.4690     2.3960     0.1510 C.ar  1 <1>   0.4100 
  4 C       -1.6310    -0.0130    -0.0380 C.ar  1 <1>  -0.1500 
  5 N       -2.0330     2.6110    -1.0370 N.ar  1 <1>  -0.6200 
  6 N       -1.0990     3.5110     0.8790 N.pl3 1 <1>  -0.8690 
  7 C       -2.2150     0.2280    -1.2630 C.ar  1 <1>   0.1770 
  8 C       -2.3920     1.5250    -1.7130 C.ar  1 <1>   0.1600 
  9 C       -0.8240     4.8320     0.2640 C.3   1 <1>   0.2890 
 10 CL      -2.7300    -1.1210    -2.2480 Cl    1 <1>  -0.1770 
 11 C        0.4770     5.4290     0.8250 C.3   1 <1>   0.1400 
 12 C       -2.0320     5.7500     0.5120 C.3   1 <1>  -0.1600 
 13 N        0.7720     6.7860     0.2500 N.am  1 <1>  -0.6600 
 14 C       -1.6470     7.2360     0.6480 C.3   1 <1>  -0.1600 
 15 C        2.0770     7.2140     0.1840 C.2   1 <1>   0.5690 
 16 C       -0.4080     7.6000    -0.1780 C.3   1 <1>   0.1400 
 17 O        2.9680     6.5550     0.6690 O.2   1 <1>  -0.5700 
 18 C        2.4510     8.5440    -0.4970 C.3   1 <1>  -0.0190 
 19 C        3.7860     8.4600    -1.2600 C.3   1 <1>  -0.2400 
 20 C        2.5170     9.6890     0.5270 C.3   1 <1>  -0.2400 
 21 H       -1.4800    -1.0080     0.3380 H     1 <1>   0.1500 
 22 H       -0.5860     3.3240     1.7450 H     1 <1>   0.4000 
 23 H       -2.8520     1.6740    -2.6740 H     1 <1>   0.1500 
 24 H       -0.6840     4.7140    -0.7980 H     1 <1>   0.0800 
 25 H        1.2890     4.7600     0.5990 H     1 <1>   0.0800 
 26 H        0.3970     5.5240     1.8940 H     1 <1>   0.0800 
 27 H       -2.5490     5.4490     1.4060 H     1 <1>   0.0800 
 28 H       -2.7080     5.6280    -0.3150 H     1 <1>   0.0800 
 29 H       -1.4410     7.4620     1.6800 H     1 <1>   0.0800 
 30 H       -2.4780     7.8500     0.3450 H     1 <1>   0.0800 
 31 H       -0.6010     7.4180    -1.2220 H     1 <1>   0.0800 
 32 H       -0.2030     8.6470    -0.0460 H     1 <1>   0.0800 
 33 H        1.7000     8.7810    -1.2270 H     1 <1>   0.0800 
 34 H        4.5950     8.2600    -0.5800 H     1 <1>   0.0800 
 35 H        3.9860     9.3820    -1.7760 H     1 <1>   0.0800 
 36 H        3.7470     7.6630    -1.9810 H     1 <1>   0.0800 
 37 H        3.2880     9.4910     1.2520 H     1 <1>   0.0800 
 38 H        1.5810     9.7820     1.0470 H     1 <1>   0.0800 
 39 H        2.7340    10.6220     0.0380 H     1 <1>   0.0800 
@<TRIPOS>BOND
  1   1   2  1   
  2   2   3  ar  
  3   2   4  ar  
  4   3   5  ar  
  5   3   6  1   
  6   4   7  ar  
  7   4  21  1   
  8   5   8  ar  
  9   6   9  1   
 10   6  22  1   
 11   7   8  ar  
 12   7  10  1   
 13   8  23  1   
 14   9  11  1   
 15   9  12  1   
 16   9  24  1   
 17  11  13  1   
 18  11  25  1   
 19  11  26  1   
 20  12  14  1   
 21  12  27  1   
 22  12  28  1   
 23  13  15  am  
 24  13  16  1   
 25  14  16  1   
 26  14  29  1   
 27  14  30  1   
 28  15  17  2   
 29  15  18  1   
 30  16  31  1   
 31  16  32  1   
 32  18  19  1   
 33  18  20  1   
 34  18  33  1   
 35  19  34  1   
 36  19  35  1   
 37  19  36  1   
 38  20  37  1   
 39  20  38  1   
 40  20  39  1   
@<TRIPOS>SUBSTRUCTURE
  1 ****   9 GROUP 4 **** **** 0

# MOE 2024.06 (io_trps.svl 2023.06)
