@<TRIPOS>MOLECULE
NONAME
52 54 1 0 0 
SMALL
USER_CHARGES


@<TRIPOS>ATOM
  1 O        1.6460    -0.5700    -2.6970 O.2   1 <1>  -0.5700 
  2 C        1.4960    -0.9540    -1.5610 C.2   1 <1>   0.5690 
  3 N        1.5370    -0.1120    -0.4970 N.am  1 <1>  -0.7300 
  4 C        1.2560    -2.4440    -1.2990 C.3   1 <1>   0.1710 
  5 C        1.8160     1.3400    -0.5370 C.3   1 <1>   0.1400 
  6 N        0.4940    -2.7430    -0.0490 N.3   1 <1>  -0.8100 
  7 C        3.0090     1.6900     0.3670 C.3   1 <1>  -0.0800 
  8 C       -0.9080    -2.3110    -0.1360 C.3   1 <1>   0.1100 
  9 C        0.4390    -4.1870     0.2230 C.3   1 <1>   0.1100 
 10 C        3.2110     3.2160     0.3980 C.3   1 <1>  -0.1600 
 11 C        4.3030     0.9900    -0.0940 C.3   1 <1>  -0.1600 
 12 C       -1.6030    -3.1010     0.9650 C.3   1 <1>   0.2000 
 13 C       -0.9120    -4.4630     0.9110 C.3   1 <1>  -0.0800 
 14 C        4.4090     3.6110     1.2720 C.3   1 <1>  -0.1600 
 15 C        5.5030     1.3870     0.7750 C.3   1 <1>  -0.1600 
 16 O       -1.2770    -2.5130     2.1720 O.3   1 <1>  -0.6800 
 17 C       -1.7630    -5.4880     0.1390 C.3   1 <1>  -0.0170 
 18 C        5.6890     2.9090     0.8050 C.3   1 <1>  -0.1600 
 19 C       -1.0840    -6.8470     0.0670 C.ar  1 <1>   0.1670 
 20 N       -0.4450    -7.1340    -1.0560 N.ar  1 <1>  -0.6200 
 21 C       -1.1540    -7.7130     1.1560 C.ar  1 <1>   0.1600 
 22 C        0.1120    -8.3340    -1.0180 C.ar  1 <1>   0.1600 
 23 N       -0.5940    -8.9110     1.1970 N.ar  1 <1>  -0.6200 
 24 C        0.0400    -9.1930     0.0720 C.ar  1 <1>   0.1600 
 25 H        1.3610    -0.5340     0.4190 H     1 <1>   0.3700 
 26 H        2.2220    -2.9120    -1.2370 H     1 <1>   0.0800 
 27 H        0.7440    -2.8600    -2.1490 H     1 <1>   0.0800 
 28 H        2.0270     1.6400    -1.5500 H     1 <1>   0.0800 
 29 H        0.9390     1.8690    -0.2070 H     1 <1>   0.0800 
 30 H        2.7780     1.3660     1.3680 H     1 <1>   0.0800 
 31 H       -1.0130    -1.2490     0.0050 H     1 <1>   0.0800 
 32 H       -1.3230    -2.5870    -1.0910 H     1 <1>   0.0800 
 33 H        0.5130    -4.7390    -0.7000 H     1 <1>   0.0800 
 34 H        1.2610    -4.4710     0.8580 H     1 <1>   0.0800 
 35 H        3.3750     3.5760    -0.6030 H     1 <1>   0.0800 
 36 H        2.3240     3.6930     0.7790 H     1 <1>   0.0800 
 37 H        4.1800    -0.0780    -0.0500 H     1 <1>   0.0800 
 38 H        4.5050     1.2510    -1.1190 H     1 <1>   0.0800 
 39 H       -2.6750    -3.1330     0.8720 H     1 <1>   0.0800 
 40 H       -0.7470    -4.8410     1.9060 H     1 <1>   0.0800 
 41 H        4.5490     4.6780     1.2320 H     1 <1>   0.0800 
 42 H        4.2080     3.3430     2.2960 H     1 <1>   0.0800 
 43 H        5.3510     1.0270     1.7780 H     1 <1>   0.0800 
 44 H        6.3950     0.9230     0.3910 H     1 <1>   0.0800 
 45 H       -0.3100    -2.3570     2.1510 H     1 <1>   0.4000 
 46 H       -1.9530    -5.1340    -0.8600 H     1 <1>   0.0800 
 47 H       -2.7140    -5.6020     0.6270 H     1 <1>   0.0800 
 48 H        6.5010     3.1600     1.4660 H     1 <1>   0.0800 
 49 H        5.9470     3.2550    -0.1810 H     1 <1>   0.0800 
 50 H       -1.6940    -7.4010     2.0320 H     1 <1>   0.1500 
 51 H        0.6510    -8.6540    -1.8920 H     1 <1>   0.1500 
 52 H        0.5260   -10.1500     0.0090 H     1 <1>   0.1500 
@<TRIPOS>BOND
  1   1   2  2   
  2   2   3  am  
  3   2   4  1   
  4   3   5  1   
  5   3  25  1   
  6   4   6  1   
  7   4  26  1   
  8   4  27  1   
  9   5   7  1   
 10   5  28  1   
 11   5  29  1   
 12   6   8  1   
 13   6   9  1   
 14   7  10  1   
 15   7  11  1   
 16   7  30  1   
 17   8  12  1   
 18   8  31  1   
 19   8  32  1   
 20   9  13  1   
 21   9  33  1   
 22   9  34  1   
 23  10  14  1   
 24  10  35  1   
 25  10  36  1   
 26  11  15  1   
 27  11  37  1   
 28  11  38  1   
 29  12  13  1   
 30  12  16  1   
 31  12  39  1   
 32  13  17  1   
 33  13  40  1   
 34  14  18  1   
 35  14  41  1   
 36  14  42  1   
 37  15  18  1   
 38  15  43  1   
 39  15  44  1   
 40  16  45  1   
 41  17  19  1   
 42  17  46  1   
 43  17  47  1   
 44  18  48  1   
 45  18  49  1   
 46  19  20  ar  
 47  19  21  ar  
 48  20  22  ar  
 49  21  23  ar  
 50  21  50  1   
 51  22  24  ar  
 52  22  51  1   
 53  23  24  ar  
 54  24  52  1   
@<TRIPOS>SUBSTRUCTURE
  1 ****   6 GROUP 4 **** **** 0

# MOE 2024.06 (io_trps.svl 2023.06)
