@<TRIPOS>MOLECULE
NONAME
45 47 1 0 0 
SMALL
USER_CHARGES


@<TRIPOS>ATOM
  1 S       -0.6740    -0.3930     0.3250 S.3   1 <1>  -0.0800 
  2 C       -1.0130    -2.1150     0.2570 C.2   1 <1>  -0.1400 
  3 C        0.2310    -0.5800     1.8160 C.2   1 <1>  -0.1100 
  4 C       -0.4540    -2.7430     1.3110 C.2   1 <1>  -0.1500 
  5 C       -1.8400    -2.5940    -0.9210 C.3   1 <1>   0.3200 
  6 C        0.2520    -1.8700     2.1990 C.2   1 <1>  -0.1500 
  7 N       -2.2080    -4.0050    -0.7230 N.am  1 <1>  -0.7300 
  8 C       -2.2660    -4.9580    -1.6810 C.2   1 <1>   0.5690 
  9 O       -2.0720    -4.7070    -2.8470 O.2   1 <1>  -0.5700 
 10 C       -2.5860    -6.3970    -1.2590 C.3   1 <1>   0.1710 
 11 N       -3.3260    -6.5150     0.0330 N.3   1 <1>  -0.8100 
 12 C       -4.7130    -6.0330    -0.0590 C.3   1 <1>   0.1100 
 13 C       -3.4130    -7.9070     0.5100 C.3   1 <1>   0.1100 
 14 C       -5.4070    -6.6720     1.1370 C.3   1 <1>   0.2000 
 15 C       -4.7870    -8.0670     1.1880 C.3   1 <1>  -0.0800 
 16 O       -5.0070    -5.9840     2.2670 O.3   1 <1>  -0.6800 
 17 C       -5.6730    -9.0960     0.4590 C.3   1 <1>   0.0210 
 18 C       -5.0370   -10.4740     0.4190 C.2   1 <1>   0.1080 
 19 N       -4.6270   -11.0950     1.4810 N.2   1 <1>  -0.7070 
 20 C       -4.8250   -11.2170    -0.7380 C.2   1 <1>  -0.1500 
 21 N       -4.1430   -12.2660     1.0260 N.pl3 1 <1>   0.3000 
 22 C       -4.2490   -12.3620    -0.3160 C.2   1 <1>  -0.3320 
 23 C       -3.7910   -13.5640    -1.1220 C.3   1 <1>  -0.0600 
 24 H        0.6550     0.3060     2.2530 H     1 <1>   0.1500 
 25 H       -0.5020    -3.8000     1.5100 H     1 <1>   0.1500 
 26 H       -1.2780    -2.4830    -1.8330 H     1 <1>   0.0800 
 27 H       -2.7370    -2.0040    -0.9970 H     1 <1>   0.0800 
 28 H        0.7410    -2.2530     3.0780 H     1 <1>   0.1500 
 29 H       -2.4430    -4.2880     0.2320 H     1 <1>   0.3700 
 30 H       -1.6490    -6.9150    -1.1710 H     1 <1>   0.0800 
 31 H       -3.1480    -6.8680    -2.0470 H     1 <1>   0.0800 
 32 H       -4.7710    -4.9590    -0.0250 H     1 <1>   0.0800 
 33 H       -5.1690    -6.3860    -0.9680 H     1 <1>   0.0800 
 34 H       -3.3110    -8.5970    -0.3110 H     1 <1>   0.0800 
 35 H       -2.6220    -8.0980     1.2160 H     1 <1>   0.0800 
 36 H       -6.4820    -6.6580     1.0830 H     1 <1>   0.0800 
 37 H       -4.6660    -8.3960     2.2060 H     1 <1>   0.0800 
 38 H       -4.0300    -5.9330     2.2290 H     1 <1>   0.4000 
 39 H       -5.8690    -8.7700    -0.5460 H     1 <1>   0.0800 
 40 H       -6.6140    -9.1790     0.9730 H     1 <1>   0.0800 
 41 H       -5.0780   -10.9210    -1.7400 H     1 <1>   0.1500 
 42 H       -3.7520   -12.9770     1.6570 H     1 <1>   0.2700 
 43 H       -3.9820   -13.4020    -2.1680 H     1 <1>   0.0800 
 44 H       -4.3210   -14.4460    -0.8100 H     1 <1>   0.0800 
 45 H       -2.7350   -13.7220    -0.9880 H     1 <1>   0.0800 
@<TRIPOS>BOND
  1   1   2  1   
  2   1   3  1   
  3   2   4  2   
  4   2   5  1   
  5   3   6  2   
  6   3  24  1   
  7   4   6  1   
  8   4  25  1   
  9   5   7  1   
 10   5  26  1   
 11   5  27  1   
 12   6  28  1   
 13   7   8  am  
 14   7  29  1   
 15   8   9  2   
 16   8  10  1   
 17  10  11  1   
 18  10  30  1   
 19  10  31  1   
 20  11  12  1   
 21  11  13  1   
 22  12  14  1   
 23  12  32  1   
 24  12  33  1   
 25  13  15  1   
 26  13  34  1   
 27  13  35  1   
 28  14  15  1   
 29  14  16  1   
 30  14  36  1   
 31  15  17  1   
 32  15  37  1   
 33  16  38  1   
 34  17  18  1   
 35  17  39  1   
 36  17  40  1   
 37  18  19  2   
 38  18  20  1   
 39  19  21  1   
 40  20  22  2   
 41  20  41  1   
 42  21  22  1   
 43  21  42  1   
 44  22  23  1   
 45  23  43  1   
 46  23  44  1   
 47  23  45  1   
@<TRIPOS>SUBSTRUCTURE
  1 ****  11 GROUP 4 **** **** 0

# MOE 2024.06 (io_trps.svl 2023.06)
