@<TRIPOS>MOLECULE
NONAME
47 49 1 0 0 
SMALL
USER_CHARGES


@<TRIPOS>ATOM
  1 F        1.7630    -3.1700     1.3430 F     1 <1>  -0.3400 
  2 C        0.9060    -2.7150     0.4380 C.3   1 <1>   1.1640 
  3 F        1.6090    -1.9470    -0.3870 F     1 <1>  -0.3400 
  4 F        0.0800    -1.9010     1.0840 F     1 <1>  -0.3400 
  5 C        0.1780    -3.8570    -0.2870 C.ar  1 <1>  -0.1440 
  6 C       -1.0530    -4.3250     0.1680 C.ar  1 <1>  -0.1500 
  7 C        0.7410    -4.4550    -1.4100 C.ar  1 <1>  -0.1500 
  8 C       -1.7110    -5.3580    -0.4810 C.ar  1 <1>  -0.1440 
  9 C        0.0910    -5.4870    -2.0620 C.ar  1 <1>  -0.1500 
 10 C       -1.1310    -5.9360    -1.5990 C.ar  1 <1>  -0.1500 
 11 C       -3.0600    -5.8640     0.0190 C.3   1 <1>   0.3530 
 12 N       -2.9590    -7.2820     0.4710 N.pl3 1 <1>  -0.8380 
 13 C       -4.0680    -8.1030     0.3980 C.ar  1 <1>   0.4100 
 14 C       -1.8540    -7.5840     1.4220 C.3   1 <1>   0.1290 
 15 N       -5.2580    -7.5270     0.3850 N.ar  1 <1>  -0.6200 
 16 C       -3.9490    -9.4710     0.3400 C.ar  1 <1>  -0.1500 
 17 C       -6.2850    -8.3510     0.3220 C.ar  1 <1>   0.4700 
 18 C       -5.0910   -10.2320     0.2840 C.ar  1 <1>   0.4100 
 19 N       -6.2850    -9.6680     0.2720 N.ar  1 <1>  -0.6200 
 20 N       -5.0310   -11.6120     0.2460 N.pl3 1 <1>  -0.8380 
 21 C       -6.1110   -12.3620    -0.4500 C.3   1 <1>   0.2090 
 22 C       -4.4480   -12.3170     1.4160 C.3   1 <1>   0.2090 
 23 C       -5.5710   -13.7130    -0.9180 C.3   1 <1>  -0.1600 
 24 C       -3.8840   -13.6640     0.9660 C.3   1 <1>  -0.1600 
 25 C       -4.9650   -14.4790     0.2570 C.3   1 <1>   0.2000 
 26 O       -4.3950   -15.6370    -0.2230 O.3   1 <1>  -0.6800 
 27 H       -1.5070    -3.8820     1.0390 H     1 <1>   0.1500 
 28 H        1.6940    -4.1200    -1.7870 H     1 <1>   0.1500 
 29 H        0.5340    -5.9430    -2.9300 H     1 <1>   0.1500 
 30 H       -1.6360    -6.7430    -2.1020 H     1 <1>   0.1500 
 31 H       -3.7750    -5.7890    -0.7820 H     1 <1>   0.0800 
 32 H       -3.4130    -5.2600     0.8360 H     1 <1>   0.0800 
 33 H       -1.7240    -6.7640     2.1080 H     1 <1>   0.0800 
 34 H       -0.9380    -7.7310     0.8760 H     1 <1>   0.0800 
 35 H       -2.0710    -8.4710     1.9910 H     1 <1>   0.0800 
 36 H       -2.9880    -9.9390     0.3240 H     1 <1>   0.1500 
 37 H       -7.2550    -7.8850     0.3110 H     1 <1>   0.1500 
 38 H       -6.4580   -11.7960    -1.2990 H     1 <1>   0.0800 
 39 H       -6.9390   -12.5010     0.2250 H     1 <1>   0.0800 
 40 H       -5.2180   -12.4670     2.1550 H     1 <1>   0.0800 
 41 H       -3.6680   -11.7230     1.8590 H     1 <1>   0.0800 
 42 H       -4.8270   -13.5360    -1.6740 H     1 <1>   0.0800 
 43 H       -6.3740   -14.2840    -1.3480 H     1 <1>   0.0800 
 44 H       -3.5300   -14.2040     1.8250 H     1 <1>   0.0800 
 45 H       -3.0570   -13.4820     0.3030 H     1 <1>   0.0800 
 46 H       -5.7370   -14.7580     0.9550 H     1 <1>   0.0800 
 47 H       -3.7040   -15.4170    -0.8750 H     1 <1>   0.4000 
@<TRIPOS>BOND
  1   1   2  1   
  2   2   3  1   
  3   2   4  1   
  4   2   5  1   
  5   5   6  ar  
  6   5   7  ar  
  7   6   8  ar  
  8   6  27  1   
  9   7   9  ar  
 10   7  28  1   
 11   8  10  ar  
 12   8  11  1   
 13   9  10  ar  
 14   9  29  1   
 15  10  30  1   
 16  11  12  1   
 17  11  31  1   
 18  11  32  1   
 19  12  13  1   
 20  12  14  1   
 21  13  15  ar  
 22  13  16  ar  
 23  14  33  1   
 24  14  34  1   
 25  14  35  1   
 26  15  17  ar  
 27  16  18  ar  
 28  16  36  1   
 29  17  19  ar  
 30  17  37  1   
 31  18  19  ar  
 32  18  20  1   
 33  20  21  1   
 34  20  22  1   
 35  21  23  1   
 36  21  38  1   
 37  21  39  1   
 38  22  24  1   
 39  22  40  1   
 40  22  41  1   
 41  23  25  1   
 42  23  42  1   
 43  23  43  1   
 44  24  25  1   
 45  24  44  1   
 46  24  45  1   
 47  25  26  1   
 48  25  46  1   
 49  26  47  1   
@<TRIPOS>SUBSTRUCTURE
  1 ****  12 GROUP 4 **** **** 0

# MOE 2024.06 (io_trps.svl 2023.06)
