@<TRIPOS>MOLECULE
NONAME
51 54 1 0 0 
SMALL
USER_CHARGES


@<TRIPOS>ATOM
  1 O        1.7570     0.1740    -0.9290 O.3   1 <1>  -0.6800 
  2 C        1.7460     0.1650     0.4540 C.3   1 <1>   0.2800 
  3 C        3.2230     0.2330     0.9180 C.3   1 <1>  -0.0800 
  4 C        1.0770    -1.1550     0.9140 C.3   1 <1>  -0.1600 
  5 C        0.8630     1.3510     0.9170 C.3   1 <1>  -0.1600 
  6 C        4.0580    -1.0160     0.5520 C.3   1 <1>  -0.0800 
  7 C        3.9740     1.4020     0.2780 C.3   1 <1>   0.3430 
  8 C        2.0070    -2.3740     1.0650 C.3   1 <1>  -0.1600 
  9 C        1.1630     2.7560     0.3580 C.3   1 <1>  -0.2400 
 10 C        3.2430    -2.2660     0.1760 C.3   1 <1>  -0.1600 
 11 C        4.9540    -0.5670    -0.5930 C.3   1 <1>   0.3430 
 12 N        5.2300     0.8560    -0.3060 N.4   1 <1>  -0.9590 
 13 C        5.6740     1.6170    -1.5020 C.3   1 <1>   0.4860 
 14 C        5.9490     3.0490    -1.0840 C.ar  1 <1>  -0.1440 
 15 C        7.1210     3.3940    -0.4640 C.ar  1 <1>  -0.1500 
 16 C        4.9800     4.0350    -1.3270 C.ar  1 <1>  -0.1500 
 17 C        7.3730     4.7170    -0.0480 C.ar  1 <1>   0.0000 
 18 C        5.2000     5.3260    -0.9340 C.ar  1 <1>  -0.1500 
 19 C        6.3910     5.7010    -0.2830 C.ar  1 <1>   0.0000 
 20 C        8.5690     5.0940     0.5970 C.ar  1 <1>  -0.1500 
 21 C        6.6400     7.0230     0.1390 C.ar  1 <1>  -0.1500 
 22 C        8.7840     6.3840     0.9970 C.ar  1 <1>  -0.1500 
 23 C        7.8080     7.3590     0.7660 C.ar  1 <1>  -0.1500 
 24 H        0.8410     0.0680    -1.2550 H     1 <1>   0.4000 
 25 H        3.2280     0.3540     1.9870 H     1 <1>   0.0800 
 26 H        0.6210    -1.0000     1.8770 H     1 <1>   0.0800 
 27 H        0.2760    -1.4010     0.2380 H     1 <1>   0.0800 
 28 H       -0.1590     1.1200     0.6660 H     1 <1>   0.0800 
 29 H        0.8980     1.4060     1.9920 H     1 <1>   0.0800 
 30 H        4.6850    -1.2610     1.3940 H     1 <1>   0.0800 
 31 H        4.1850     2.1770     0.9970 H     1 <1>   0.0800 
 32 H        3.3690     1.8190    -0.5100 H     1 <1>   0.0800 
 33 H        2.3260    -2.4530     2.0910 H     1 <1>   0.0800 
 34 H        1.4630    -3.2730     0.8290 H     1 <1>   0.0800 
 35 H        1.2330     2.7420    -0.7150 H     1 <1>   0.0800 
 36 H        2.0640     3.1640     0.7740 H     1 <1>   0.0800 
 37 H        0.3600     3.4210     0.6250 H     1 <1>   0.0800 
 38 H        2.9230    -2.2180    -0.8510 H     1 <1>   0.0800 
 39 H        3.8510    -3.1480     0.2860 H     1 <1>   0.0800 
 40 H        4.4060    -0.6510    -1.5180 H     1 <1>   0.0800 
 41 H        5.8570    -1.1530    -0.6500 H     1 <1>   0.0800 
 42 H        5.9590     0.9280     0.4120 H     1 <1>   0.4500 
 43 H        6.5740     1.1820    -1.9040 H     1 <1>   0.0800 
 44 H        4.9110     1.5960    -2.2630 H     1 <1>   0.0800 
 45 H        7.8890     2.6650    -0.2750 H     1 <1>   0.1500 
 46 H        4.0620     3.7790    -1.8280 H     1 <1>   0.1500 
 47 H        4.4620     6.0860    -1.1190 H     1 <1>   0.1500 
 48 H        9.3200     4.3450     0.7730 H     1 <1>   0.1500 
 49 H        5.8890     7.7710    -0.0420 H     1 <1>   0.1500 
 50 H        9.6980     6.6670     1.4890 H     1 <1>   0.1500 
 51 H        7.9930     8.3700     1.0860 H     1 <1>   0.1500 
@<TRIPOS>BOND
  1   1   2  1   
  2   1  24  1   
  3   2   3  1   
  4   2   4  1   
  5   2   5  1   
  6   3   6  1   
  7   3   7  1   
  8   3  25  1   
  9   4   8  1   
 10   4  26  1   
 11   4  27  1   
 12   5   9  1   
 13   5  28  1   
 14   5  29  1   
 15   6  10  1   
 16   6  11  1   
 17   6  30  1   
 18   7  12  1   
 19   7  31  1   
 20   7  32  1   
 21   8  10  1   
 22   8  33  1   
 23   8  34  1   
 24   9  35  1   
 25   9  36  1   
 26   9  37  1   
 27  10  38  1   
 28  10  39  1   
 29  11  12  1   
 30  11  40  1   
 31  11  41  1   
 32  12  13  1   
 33  12  42  1   
 34  13  14  1   
 35  13  43  1   
 36  13  44  1   
 37  14  15  ar  
 38  14  16  ar  
 39  15  17  ar  
 40  15  45  1   
 41  16  18  ar  
 42  16  46  1   
 43  17  19  ar  
 44  17  20  ar  
 45  18  19  ar  
 46  18  47  1   
 47  19  21  ar  
 48  20  22  ar  
 49  20  48  1   
 50  21  23  ar  
 51  21  49  1   
 52  22  23  ar  
 53  22  50  1   
 54  23  51  1   
@<TRIPOS>SUBSTRUCTURE
  1 ****   7 GROUP 4 **** **** 0

# MOE 2024.06 (io_trps.svl 2023.06)
