@<TRIPOS>MOLECULE
NONAME
46 48 1 0 0 
SMALL
USER_CHARGES


@<TRIPOS>ATOM
  1 CL       2.2910     2.1120    -2.4710 Cl    1 <1>  -0.1770 
  2 C        1.2120     2.9040    -1.3440 C.ar  1 <1>   0.1770 
  3 C        1.4930     2.9630     0.0190 C.ar  1 <1>  -0.1440 
  4 C        0.0660     3.4710    -1.8710 C.ar  1 <1>  -0.1500 
  5 C        0.5850     3.6200     0.8420 C.ar  1 <1>  -0.1500 
  6 C        2.7410     2.3440     0.6480 C.3   1 <1>   0.3640 
  7 C       -0.8270     4.1170    -1.0360 C.ar  1 <1>  -0.1500 
  8 C       -0.5640     4.1910     0.3200 C.ar  1 <1>  -0.1500 
  9 N        2.7070     0.8800     0.4170 N.am  1 <1>  -0.7300 
 10 C        4.0640     3.0110     0.1740 C.3   1 <1>   0.2610 
 11 C        3.7500     0.1760    -0.0760 C.2   1 <1>   0.5690 
 12 O        5.1740     2.1260     0.2870 O.3   1 <1>  -0.5600 
 13 C        4.3170     4.2870     0.9850 C.2   1 <1>   0.5690 
 14 O        3.6680    -1.0140    -0.2410 O.2   1 <1>  -0.5700 
 15 C        5.0360     0.9210    -0.4360 C.3   1 <1>   0.1810 
 16 O        3.4910     5.1690     0.9910 O.2   1 <1>  -0.5700 
 17 N        5.4740     4.4120     1.6820 N.am  1 <1>  -0.7300 
 18 C        5.9140     5.6300     2.3980 C.3   1 <1>   0.3210 
 19 C        6.8960     6.4080     1.5420 C.2   1 <1>   0.1080 
 20 N        8.1580     6.5010     1.7740 N.2   1 <1>  -0.4100 
 21 C        6.5520     7.1170     0.3940 C.2   1 <1>  -0.1500 
 22 O        8.6440     7.2440     0.8220 O.3   1 <1>  -0.0190 
 23 C        7.7210     7.6320    -0.0200 C.2   1 <1>  -0.0400 
 24 C        8.1060     8.5080    -1.2040 C.3   1 <1>   0.1000 
 25 C        8.5800     9.8800    -0.7150 C.3   1 <1>  -0.2400 
 26 C        6.9360     8.6740    -2.1810 C.3   1 <1>  -0.2400 
 27 H       -0.1230     3.4060    -2.9280 H     1 <1>   0.1500 
 28 H        0.7660     3.7000     1.9010 H     1 <1>   0.1500 
 29 H        2.6840     2.4880     1.7140 H     1 <1>   0.0800 
 30 H       -1.7210     4.5620    -1.4390 H     1 <1>   0.1500 
 31 H       -1.2550     4.6970     0.9720 H     1 <1>   0.1500 
 32 H        1.8330     0.3880     0.6030 H     1 <1>   0.3700 
 33 H        3.9870     3.2990    -0.8570 H     1 <1>   0.0800 
 34 H        5.0410     1.1480    -1.4860 H     1 <1>   0.0800 
 35 H        5.8830     0.3010    -0.2080 H     1 <1>   0.0800 
 36 H        6.1850     3.6840     1.5540 H     1 <1>   0.3700 
 37 H        5.0670     6.2530     2.6240 H     1 <1>   0.0800 
 38 H        6.3860     5.3490     3.3240 H     1 <1>   0.0800 
 39 H        5.5650     7.2010    -0.0240 H     1 <1>   0.1500 
 40 H        8.9170     8.0260    -1.7240 H     1 <1>   0.0800 
 41 H        7.7940    10.3750    -0.1730 H     1 <1>   0.0800 
 42 H        8.8730    10.4960    -1.5460 H     1 <1>   0.0800 
 43 H        9.4260     9.7650    -0.0600 H     1 <1>   0.0800 
 44 H        6.1090     9.1650    -1.7000 H     1 <1>   0.0800 
 45 H        6.6100     7.7110    -2.5340 H     1 <1>   0.0800 
 46 H        7.2390     9.2610    -3.0300 H     1 <1>   0.0800 
@<TRIPOS>BOND
  1   1   2  1   
  2   2   3  ar  
  3   2   4  ar  
  4   3   5  ar  
  5   3   6  1   
  6   4   7  ar  
  7   4  27  1   
  8   5   8  ar  
  9   5  28  1   
 10   6   9  1   
 11   6  10  1   
 12   6  29  1   
 13   7   8  ar  
 14   7  30  1   
 15   8  31  1   
 16   9  11  am  
 17   9  32  1   
 18  10  12  1   
 19  10  13  1   
 20  10  33  1   
 21  11  14  2   
 22  11  15  1   
 23  12  15  1   
 24  13  16  2   
 25  13  17  am  
 26  15  34  1   
 27  15  35  1   
 28  17  18  1   
 29  17  36  1   
 30  18  19  1   
 31  18  37  1   
 32  18  38  1   
 33  19  20  2   
 34  19  21  1   
 35  20  22  1   
 36  21  23  2   
 37  21  39  1   
 38  22  23  1   
 39  23  24  1   
 40  24  25  1   
 41  24  26  1   
 42  24  40  1   
 43  25  41  1   
 44  25  42  1   
 45  25  43  1   
 46  26  44  1   
 47  26  45  1   
 48  26  46  1   
@<TRIPOS>SUBSTRUCTURE
  1 ****  13 GROUP 4 **** **** 0

# MOE 2024.06 (io_trps.svl 2023.06)
