@<TRIPOS>MOLECULE
NONAME
47 49 1 0 0 
SMALL
USER_CHARGES


@<TRIPOS>ATOM
  1 F       -2.4700     0.0230    -0.5430 F     1 <1>  -0.3400 
  2 C       -2.7550    -1.2270    -0.2070 C.3   1 <1>   1.3000 
  3 F       -4.0320    -1.4430    -0.4960 F     1 <1>  -0.3400 
  4 F       -2.6000    -1.3370     1.1070 F     1 <1>  -0.3400 
  5 O       -1.9090    -2.1190    -0.9010 O.3   1 <1>  -0.3630 
  6 C       -2.1010    -3.4390    -0.7210 C.ar  1 <1>   0.0830 
  7 C       -2.8960    -4.1470    -1.6080 C.ar  1 <1>  -0.1500 
  8 C       -1.4870    -4.0960     0.3340 C.ar  1 <1>  -0.1500 
  9 C       -3.0880    -5.5040    -1.4260 C.ar  1 <1>  -0.1500 
 10 C       -1.6890    -5.4530     0.5070 C.ar  1 <1>  -0.1500 
 11 C       -2.5010    -6.1880    -0.3580 C.ar  1 <1>   0.0860 
 12 C       -2.7080    -7.6090    -0.1500 C.2   1 <1>   0.5440 
 13 O       -1.7550    -8.3260     0.0960 O.2   1 <1>  -0.5700 
 14 N       -3.9600    -8.1780    -0.2050 N.am  1 <1>  -0.6600 
 15 C       -5.2380    -7.4380    -0.1030 C.3   1 <1>   0.1400 
 16 C       -4.1820    -9.6290    -0.0280 C.3   1 <1>   0.1400 
 17 C       -6.2160    -8.4170     0.5600 C.3   1 <1>  -0.0800 
 18 C       -5.6920    -9.8080     0.1550 C.3   1 <1>  -0.0800 
 19 C       -7.7310    -8.1730     0.2760 C.3   1 <1>   0.2800 
 20 C       -6.3860   -10.3070    -1.1230 C.3   1 <1>  -0.1600 
 21 O       -7.8970    -7.5360    -0.9400 O.3   1 <1>  -0.6800 
 22 C       -8.4730    -9.5180     0.1680 C.3   1 <1>  -0.1600 
 23 C       -8.4030    -7.2830     1.3450 C.3   1 <1>  -0.1600 
 24 C       -7.9060   -10.4520    -0.9240 C.3   1 <1>  -0.1600 
 25 C       -7.8150    -5.8700     1.5020 C.3   1 <1>  -0.2400 
 26 H       -3.3570    -3.6400    -2.4370 H     1 <1>   0.1500 
 27 H       -0.8530    -3.5530     1.0120 H     1 <1>   0.1500 
 28 H       -3.6990    -6.0530    -2.1220 H     1 <1>   0.1500 
 29 H       -1.2100    -5.9680     1.3230 H     1 <1>   0.1500 
 30 H       -5.1240    -6.5400     0.4770 H     1 <1>   0.0800 
 31 H       -5.5520    -7.1830    -1.1000 H     1 <1>   0.0800 
 32 H       -3.8110   -10.1690    -0.8820 H     1 <1>   0.0800 
 33 H       -3.6570    -9.9590     0.8520 H     1 <1>   0.0800 
 34 H       -6.0620    -8.3420     1.6210 H     1 <1>   0.0800 
 35 H       -5.8700   -10.5230     0.9400 H     1 <1>   0.0800 
 36 H       -6.2030    -9.5960    -1.9120 H     1 <1>   0.0800 
 37 H       -5.9700   -11.2500    -1.4320 H     1 <1>   0.0800 
 38 H       -8.8470    -7.4800    -1.1450 H     1 <1>   0.4000 
 39 H       -8.3860   -10.0190     1.1160 H     1 <1>   0.0800 
 40 H       -9.5230    -9.3590    -0.0030 H     1 <1>   0.0800 
 41 H       -9.4500    -7.1930     1.1130 H     1 <1>   0.0800 
 42 H       -8.3400    -7.7810     2.2960 H     1 <1>   0.0800 
 43 H       -8.1390   -11.4690    -0.6610 H     1 <1>   0.0800 
 44 H       -8.3910   -10.2430    -1.8620 H     1 <1>   0.0800 
 45 H       -7.8060    -5.3520     0.5590 H     1 <1>   0.0800 
 46 H       -6.8120    -5.9120     1.8850 H     1 <1>   0.0800 
 47 H       -8.4110    -5.3020     2.1940 H     1 <1>   0.0800 
@<TRIPOS>BOND
  1   1   2  1   
  2   2   3  1   
  3   2   4  1   
  4   2   5  1   
  5   5   6  1   
  6   6   7  ar  
  7   6   8  ar  
  8   7   9  ar  
  9   7  26  1   
 10   8  10  ar  
 11   8  27  1   
 12   9  11  ar  
 13   9  28  1   
 14  10  11  ar  
 15  10  29  1   
 16  11  12  1   
 17  12  13  2   
 18  12  14  am  
 19  14  15  1   
 20  14  16  1   
 21  15  17  1   
 22  15  30  1   
 23  15  31  1   
 24  16  18  1   
 25  16  32  1   
 26  16  33  1   
 27  17  18  1   
 28  17  19  1   
 29  17  34  1   
 30  18  20  1   
 31  18  35  1   
 32  19  21  1   
 33  19  22  1   
 34  19  23  1   
 35  20  24  1   
 36  20  36  1   
 37  20  37  1   
 38  21  38  1   
 39  22  24  1   
 40  22  39  1   
 41  22  40  1   
 42  23  25  1   
 43  23  41  1   
 44  23  42  1   
 45  24  43  1   
 46  24  44  1   
 47  25  45  1   
 48  25  46  1   
 49  25  47  1   
@<TRIPOS>SUBSTRUCTURE
  1 ****  15 GROUP 4 **** **** 0

# MOE 2024.06 (io_trps.svl 2023.06)
