@<TRIPOS>MOLECULE
NONAME
33 33 1 0 0 
SMALL
USER_CHARGES


@<TRIPOS>ATOM
  1 S        0.2260     1.6920    -1.1930 S.3   1 <1>  -0.4600 
  2 C        1.5320     1.5370     0.0520 C.3   1 <1>   0.0700 
  3 C       -0.3970    -0.0030    -1.3440 C.3   1 <1>  -0.0100 
  4 C        2.2160     2.8990     0.1850 C.3   1 <1>  -0.1600 
  5 C        3.2510     2.9310     1.3210 C.3   1 <1>   0.2890 
  6 N        3.7740     4.3100     1.4750 N.pl3 1 <1>  -0.8690 
  7 C        4.4020     1.9140     1.1590 C.3   1 <1>   0.1200 
  8 C        4.4090     5.0370     0.5270 C.ar  1 <1>   0.7200 
  9 O        4.0260     0.6550     1.6290 O.3   1 <1>  -0.6800 
 10 N        4.1920     6.3370     0.6320 N.ar  1 <1>  -0.6200 
 11 N        5.1560     4.4050    -0.3730 N.ar  1 <1>  -0.6200 
 12 C        4.7830     7.1010    -0.2610 C.ar  1 <1>   0.3930 
 13 C        5.7430     5.1760    -1.2640 C.ar  1 <1>   0.1600 
 14 O        4.5270     8.4200    -0.1060 O.3   1 <1>  -0.3620 
 15 C        5.5860     6.5370    -1.2490 C.ar  1 <1>   0.1900 
 16 C        5.0550     9.4440    -0.9210 C.3   1 <1>   0.0400 
 17 F        6.2050     7.2420    -2.1710 F     1 <1>  -0.1900 
 18 H        1.0650     1.2310     0.9720 H     1 <1>   0.0800 
 19 H        2.2140     0.7790    -0.2900 H     1 <1>   0.0800 
 20 H       -1.1850     0.0030    -2.0760 H     1 <1>   0.0800 
 21 H       -0.7680    -0.3080    -0.3820 H     1 <1>   0.0800 
 22 H        0.4180    -0.6290    -1.6620 H     1 <1>   0.0800 
 23 H        2.6940     3.1330    -0.7490 H     1 <1>   0.0800 
 24 H        1.4650     3.6430     0.3800 H     1 <1>   0.0800 
 25 H        2.7450     2.6960     2.2420 H     1 <1>   0.0800 
 26 H        3.1720     4.9220     2.0250 H     1 <1>   0.4000 
 27 H        5.2650     2.2310     1.7180 H     1 <1>   0.0800 
 28 H        4.6710     1.8150     0.1210 H     1 <1>   0.0800 
 29 H        4.0880     0.6250     2.6040 H     1 <1>   0.4000 
 30 H        6.3590     4.7160    -2.0160 H     1 <1>   0.1500 
 31 H        4.6860    10.3850    -0.5540 H     1 <1>   0.0800 
 32 H        4.7230     9.2940    -1.9330 H     1 <1>   0.0800 
 33 H        6.1290     9.4260    -0.8570 H     1 <1>   0.0800 
@<TRIPOS>BOND
  1   1   2  1   
  2   1   3  1   
  3   2   4  1   
  4   2  18  1   
  5   2  19  1   
  6   3  20  1   
  7   3  21  1   
  8   3  22  1   
  9   4   5  1   
 10   4  23  1   
 11   4  24  1   
 12   5   6  1   
 13   5   7  1   
 14   5  25  1   
 15   6   8  1   
 16   6  26  1   
 17   7   9  1   
 18   7  27  1   
 19   7  28  1   
 20   8  10  ar  
 21   8  11  ar  
 22   9  29  1   
 23  10  12  ar  
 24  11  13  ar  
 25  12  14  1   
 26  12  15  ar  
 27  13  15  ar  
 28  13  30  1   
 29  14  16  1   
 30  15  17  1   
 31  16  31  1   
 32  16  32  1   
 33  16  33  1   
@<TRIPOS>SUBSTRUCTURE
  1 ****   8 GROUP 4 **** **** 0

# MOE 2024.06 (io_trps.svl 2023.06)
