@<TRIPOS>MOLECULE
NONAME
16 15 1 0 0 
SMALL
USER_CHARGES


@<TRIPOS>ATOM
  1 F       -2.2640     1.9440    -0.1620 F     1 <1>  -0.3400 
  2 C       -3.5760     1.6800     0.0130 C.3   1 <1>   0.6350 
  3 F       -3.9190     1.0640    -1.1360 F     1 <1>  -0.3400 
  4 C       -4.3860     2.9730     0.1490 C.2   1 <1>   0.6590 
  5 C       -3.8190     0.8040     1.2660 C.2   1 <1>   0.9060 
  6 O       -3.8910     4.0820     0.1830 O.2   1 <1>  -0.5700 
  7 O       -5.7160     2.8430     0.1800 O.3   1 <1>  -0.4300 
  8 O       -3.9920     1.3480     2.3740 O.co2 1 <1>  -0.9000 
  9 O       -3.8480    -0.4400     1.1940 O.co2 1 <1>  -0.9000 
 10 C       -6.5680     3.9470     0.3600 C.3   1 <1>   0.1200 
 11 C       -8.0050     3.4360     0.3620 C.3   1 <1>  -0.2400 
 12 H       -6.4020     4.6420    -0.4460 H     1 <1>   0.0800 
 13 H       -6.3210     4.4120     1.2990 H     1 <1>   0.0800 
 14 H       -8.2300     2.9600    -0.5750 H     1 <1>   0.0800 
 15 H       -8.6830     4.2570     0.5050 H     1 <1>   0.0800 
 16 H       -8.1410     2.7320     1.1640 H     1 <1>   0.0800 
@<TRIPOS>BOND
  1   1   2  1   
  2   2   3  1   
  3   2   4  1   
  4   2   5  1   
  5   4   6  2   
  6   4   7  1   
  7   5   8  ar  
  8   5   9  ar  
  9   7  10  1   
 10  10  11  1   
 11  10  12  1   
 12  10  13  1   
 13  11  14  1   
 14  11  15  1   
 15  11  16  1   
@<TRIPOS>SUBSTRUCTURE
  1 ****   4 GROUP 4 **** **** 0

# MOE 2024.06 (io_trps.svl 2023.06)
