@<TRIPOS>MOLECULE
NONAME
44 46 1 0 0 
SMALL
USER_CHARGES


@<TRIPOS>ATOM
  1 F       -1.7910    -2.8170     0.4020 F     1 <1>  -0.1900 
  2 C       -2.2170    -1.5900     0.2340 C.ar  1 <1>   0.1900 
  3 C       -1.6360    -0.7800    -0.7270 C.ar  1 <1>   0.1900 
  4 C       -3.2570    -1.1350     1.0260 C.ar  1 <1>  -0.1440 
  5 F       -0.6710    -1.2570    -1.4730 F     1 <1>  -0.1900 
  6 C       -2.0690     0.5240    -0.9170 C.ar  1 <1>  -0.1440 
  7 C       -3.6920     0.1730     0.8450 C.ar  1 <1>  -0.1500 
  8 C       -3.8870    -2.0640     2.0420 C.3   1 <1>   0.4870 
  9 C       -3.1040     0.9880    -0.1140 C.ar  1 <1>  -0.1500 
 10 C       -1.4340     1.4240    -1.9670 C.3   1 <1>  -0.0970 
 11 N       -4.8440    -2.9390     1.3260 N.4   1 <1>  -0.9590 
 12 C       -6.0670    -2.2640     0.7980 C.3   1 <1>   0.3430 
 13 C       -5.2870    -4.1620     2.0320 C.3   1 <1>   0.3430 
 14 C       -7.1620    -3.3390     0.7630 C.3   1 <1>   0.2000 
 15 C       -6.5050    -4.6420     1.2400 C.3   1 <1>  -0.0800 
 16 O       -8.1730    -2.9910     1.6510 O.3   1 <1>  -0.6800 
 17 C       -6.1320    -5.5920     0.0720 C.3   1 <1>  -0.0170 
 18 C       -4.8760    -5.2280    -0.7170 C.ar  1 <1>   0.1670 
 19 N       -4.8770    -4.0590    -1.3450 N.ar  1 <1>  -0.6200 
 20 C       -3.8090    -6.1140    -0.7450 C.ar  1 <1>  -0.1500 
 21 C       -3.7900    -3.7810    -2.0540 C.ar  1 <1>   0.1600 
 22 C       -2.6750    -5.7990    -1.4630 C.ar  1 <1>  -0.1500 
 23 C       -2.6780    -4.5990    -2.1370 C.ar  1 <1>  -0.1500 
 24 H       -4.4910     0.5760     1.4460 H     1 <1>   0.1500 
 25 H       -4.3910    -1.4990     2.8090 H     1 <1>   0.0800 
 26 H       -3.1150    -2.6600     2.5020 H     1 <1>   0.0800 
 27 H       -3.4590     1.9990    -0.2340 H     1 <1>   0.1500 
 28 H       -1.8790     2.4020    -1.9620 H     1 <1>   0.0800 
 29 H       -1.5610     0.9950    -2.9460 H     1 <1>   0.0800 
 30 H       -0.3810     1.5280    -1.7730 H     1 <1>   0.0800 
 31 H       -4.3670    -3.2780     0.4640 H     1 <1>   0.4500 
 32 H       -6.3730    -1.4510     1.4360 H     1 <1>   0.0800 
 33 H       -5.8790    -1.8920    -0.1960 H     1 <1>   0.0800 
 34 H       -4.5080    -4.9090     2.0570 H     1 <1>   0.0800 
 35 H       -5.5820    -3.9160     3.0390 H     1 <1>   0.0800 
 36 H       -7.6010    -3.4200    -0.2180 H     1 <1>   0.0800 
 37 H       -7.1770    -5.1830     1.8850 H     1 <1>   0.0800 
 38 H       -7.9170    -3.0890     2.5880 H     1 <1>   0.4000 
 39 H       -6.9580    -5.6540    -0.6160 H     1 <1>   0.0800 
 40 H       -6.0050    -6.5810     0.4760 H     1 <1>   0.0800 
 41 H       -3.8530    -7.0510    -0.2200 H     1 <1>   0.1500 
 42 H       -3.7790    -2.8500    -2.5980 H     1 <1>   0.1500 
 43 H       -1.8280    -6.4640    -1.5050 H     1 <1>   0.1500 
 44 H       -1.8280    -4.2990    -2.7250 H     1 <1>   0.1500 
@<TRIPOS>BOND
  1   1   2  1   
  2   2   3  ar  
  3   2   4  ar  
  4   3   5  1   
  5   3   6  ar  
  6   4   7  ar  
  7   4   8  1   
  8   6   9  ar  
  9   6  10  1   
 10   7   9  ar  
 11   7  24  1   
 12   8  11  1   
 13   8  25  1   
 14   8  26  1   
 15   9  27  1   
 16  10  28  1   
 17  10  29  1   
 18  10  30  1   
 19  11  12  1   
 20  11  13  1   
 21  11  31  1   
 22  12  14  1   
 23  12  32  1   
 24  12  33  1   
 25  13  15  1   
 26  13  34  1   
 27  13  35  1   
 28  14  15  1   
 29  14  16  1   
 30  14  36  1   
 31  15  17  1   
 32  15  37  1   
 33  16  38  1   
 34  17  18  1   
 35  17  39  1   
 36  17  40  1   
 37  18  19  ar  
 38  18  20  ar  
 39  19  21  ar  
 40  20  22  ar  
 41  20  41  1   
 42  21  23  ar  
 43  21  42  1   
 44  22  23  ar  
 45  22  43  1   
 46  23  44  1   
@<TRIPOS>SUBSTRUCTURE
  1 ****  11 GROUP 4 **** **** 0

# MOE 2024.06 (io_trps.svl 2023.06)
