@<TRIPOS>MOLECULE
NONAME
49 51 1 0 0 
SMALL
USER_CHARGES


@<TRIPOS>ATOM
  1 O       -0.6050    -1.6990    -0.8360 O.3   1 <1>  -0.3630 
  2 C       -1.8300    -1.7080    -0.2570 C.ar  1 <1>   0.0830 
  3 C       -0.0740    -0.5280    -1.4190 C.3   1 <1>   0.0400 
  4 C       -2.7000    -0.6230    -0.2560 C.ar  1 <1>  -0.1500 
  5 C       -2.2040    -2.8920     0.3580 C.ar  1 <1>  -0.1500 
  6 C       -3.9400    -0.7350     0.3640 C.ar  1 <1>   0.0830 
  7 C       -3.4420    -3.0120     0.9690 C.ar  1 <1>  -0.1430 
  8 O       -4.8550     0.2640     0.4150 O.3   1 <1>  -0.3630 
  9 C       -4.3010    -1.9250     0.9740 C.ar  1 <1>  -0.1500 
 10 C       -3.8540    -4.3200     1.6100 C.3   1 <1>   0.4860 
 11 C       -4.5740     1.5490    -0.0960 C.3   1 <1>   0.0400 
 12 N       -4.1770    -5.2750     0.5170 N.4   1 <1>  -0.9590 
 13 C       -5.4620    -4.8860    -0.1530 C.3   1 <1>   0.3430 
 14 C       -4.3590    -6.6600     1.0510 C.3   1 <1>   0.3430 
 15 C       -6.5150    -5.8720     0.3620 C.3   1 <1>   0.2000 
 16 C       -5.7200    -7.1590     0.5470 C.3   1 <1>  -0.0800 
 17 O       -6.9360    -5.4430     1.6170 O.3   1 <1>  -0.6800 
 18 C       -5.5920    -7.9560    -0.7680 C.3   1 <1>  -0.0170 
 19 C       -4.5700    -9.0720    -0.6290 C.ar  1 <1>  -0.1430 
 20 C       -4.7820   -10.1570     0.1990 C.ar  1 <1>  -0.1500 
 21 C       -3.3730    -9.0550    -1.3190 C.ar  1 <1>  -0.1500 
 22 C       -3.8050   -11.1320     0.3120 C.ar  1 <1>   0.1600 
 23 C       -2.4630   -10.0830    -1.1350 C.ar  1 <1>   0.1600 
 24 N       -2.6480   -11.1120    -0.3270 N.ar  1 <1>  -0.6200 
 25 H        0.9140    -0.7510    -1.7780 H     1 <1>   0.0800 
 26 H       -0.0240     0.2440    -0.6710 H     1 <1>   0.0800 
 27 H       -0.7010    -0.2290    -2.2400 H     1 <1>   0.0800 
 28 H       -2.4170     0.2930    -0.7310 H     1 <1>   0.1500 
 29 H       -1.5020    -3.7070     0.3460 H     1 <1>   0.1500 
 30 H       -5.2660    -1.9760     1.4510 H     1 <1>   0.1500 
 31 H       -4.7140    -4.1740     2.2460 H     1 <1>   0.0800 
 32 H       -3.0400    -4.6950     2.2080 H     1 <1>   0.0800 
 33 H       -5.4290     2.1750     0.0880 H     1 <1>   0.0800 
 34 H       -4.3970     1.4750    -1.1540 H     1 <1>   0.0800 
 35 H       -3.7150     1.9480     0.4140 H     1 <1>   0.0800 
 36 H       -3.4080    -5.2280    -0.1620 H     1 <1>   0.4500 
 37 H       -5.7480    -3.8690     0.0580 H     1 <1>   0.0800 
 38 H       -5.3580    -5.0050    -1.2190 H     1 <1>   0.0800 
 39 H       -3.5560    -7.3110     0.7440 H     1 <1>   0.0800 
 40 H       -4.3850    -6.6310     2.1290 H     1 <1>   0.0800 
 41 H       -7.3700    -5.9560    -0.2890 H     1 <1>   0.0800 
 42 H       -6.1750    -7.7960     1.2850 H     1 <1>   0.0800 
 43 H       -7.7530    -5.9080     1.8970 H     1 <1>   0.4000 
 44 H       -5.3020    -7.3120    -1.5810 H     1 <1>   0.0800 
 45 H       -6.5460    -8.3860    -1.0250 H     1 <1>   0.0800 
 46 H       -5.6940   -10.2620     0.7580 H     1 <1>   0.1500 
 47 H       -3.1310    -8.2630    -2.0030 H     1 <1>   0.1500 
 48 H       -3.9840   -11.9730     0.9620 H     1 <1>   0.1500 
 49 H       -1.5340   -10.0590    -1.6800 H     1 <1>   0.1500 
@<TRIPOS>BOND
  1   1   2  1   
  2   1   3  1   
  3   2   4  ar  
  4   2   5  ar  
  5   3  25  1   
  6   3  26  1   
  7   3  27  1   
  8   4   6  ar  
  9   4  28  1   
 10   5   7  ar  
 11   5  29  1   
 12   6   8  1   
 13   6   9  ar  
 14   7   9  ar  
 15   7  10  1   
 16   8  11  1   
 17   9  30  1   
 18  10  12  1   
 19  10  31  1   
 20  10  32  1   
 21  11  33  1   
 22  11  34  1   
 23  11  35  1   
 24  12  13  1   
 25  12  14  1   
 26  12  36  1   
 27  13  15  1   
 28  13  37  1   
 29  13  38  1   
 30  14  16  1   
 31  14  39  1   
 32  14  40  1   
 33  15  16  1   
 34  15  17  1   
 35  15  41  1   
 36  16  18  1   
 37  16  42  1   
 38  17  43  1   
 39  18  19  1   
 40  18  44  1   
 41  18  45  1   
 42  19  20  ar  
 43  19  21  ar  
 44  20  22  ar  
 45  20  46  1   
 46  21  23  ar  
 47  21  47  1   
 48  22  24  ar  
 49  22  48  1   
 50  23  24  ar  
 51  23  49  1   
@<TRIPOS>SUBSTRUCTURE
  1 ****  12 GROUP 4 **** **** 0

# MOE 2024.06 (io_trps.svl 2023.06)
