@<TRIPOS>MOLECULE
NONAME
48 50 1 0 0 
SMALL
USER_CHARGES


@<TRIPOS>ATOM
  1 O        0.2700    -0.9710    -0.8030 O.3   1 <1>  -0.3630 
  2 C       -0.0020    -2.1750    -0.2450 C.ar  1 <1>   0.0830 
  3 C        1.5410    -0.6720    -1.3370 C.3   1 <1>   0.0400 
  4 C        0.9020    -3.2310    -0.1930 C.ar  1 <1>  -0.1500 
  5 C       -1.2610    -2.3340     0.3030 C.ar  1 <1>  -0.1500 
  6 C        0.5510    -4.4390     0.3920 C.ar  1 <1>  -0.1430 
  7 C       -1.6230    -3.5330     0.8850 C.ar  1 <1>  -0.1500 
  8 C       -0.7290    -4.5950     0.9230 C.ar  1 <1>  -0.1440 
  9 C        1.5960    -5.5490     0.4380 C.3   1 <1>  -0.0970 
 10 C       -1.1890    -5.9010     1.5440 C.3   1 <1>   0.4860 
 11 N       -1.5020    -6.8510     0.4430 N.4   1 <1>  -0.9590 
 12 C       -2.7560    -6.4380    -0.2670 C.3   1 <1>   0.3430 
 13 C       -1.7350    -8.2290     0.9780 C.3   1 <1>   0.3430 
 14 C       -3.8600    -7.3470     0.2790 C.3   1 <1>   0.2000 
 15 C       -3.1310    -8.6670     0.5130 C.3   1 <1>  -0.0800 
 16 O       -4.2630    -6.8520     1.5140 O.3   1 <1>  -0.6800 
 17 C       -3.0680    -9.5260    -0.7660 C.3   1 <1>  -0.0170 
 18 C       -2.1240   -10.7040    -0.5840 C.ar  1 <1>  -0.1430 
 19 C       -2.3940   -11.7240     0.3080 C.ar  1 <1>  -0.1500 
 20 C       -0.9460   -10.8140    -1.2980 C.ar  1 <1>  -0.1500 
 21 C       -1.4880   -12.7610     0.4560 C.ar  1 <1>   0.1600 
 22 C       -0.1090   -11.8950    -1.0750 C.ar  1 <1>   0.1600 
 23 N       -0.3480   -12.8610    -0.2060 N.ar  1 <1>  -0.6200 
 24 H        1.5210     0.3400    -1.6990 H     1 <1>   0.0800 
 25 H        1.7460    -1.3460    -2.1500 H     1 <1>   0.0800 
 26 H        2.2780    -0.7670    -0.5590 H     1 <1>   0.0800 
 27 H        1.8860    -3.1150    -0.6060 H     1 <1>   0.1500 
 28 H       -1.9510    -1.5090     0.2690 H     1 <1>   0.1500 
 29 H       -2.6100    -3.6240     1.3080 H     1 <1>   0.1500 
 30 H        2.5740    -5.1550     0.2250 H     1 <1>   0.0800 
 31 H        1.3770    -6.3040    -0.2940 H     1 <1>   0.0800 
 32 H        1.6380    -5.9950     1.4150 H     1 <1>   0.0800 
 33 H       -2.0630    -5.7370     2.1540 H     1 <1>   0.0800 
 34 H       -0.4050    -6.2950     2.1680 H     1 <1>   0.0800 
 35 H       -0.7110    -6.8150    -0.2110 H     1 <1>   0.4500 
 36 H       -2.9960    -5.3990    -0.1140 H     1 <1>   0.0800 
 37 H       -2.6430    -6.6160    -1.3240 H     1 <1>   0.0800 
 38 H       -0.9740    -8.9150     0.6410 H     1 <1>   0.0800 
 39 H       -1.7220    -8.2060     2.0560 H     1 <1>   0.0800 
 40 H       -4.7150    -7.4120    -0.3730 H     1 <1>   0.0800 
 41 H       -3.6120    -9.2440     1.2840 H     1 <1>   0.0800 
 42 H       -5.1000    -7.2730     1.8110 H     1 <1>   0.4000 
 43 H       -2.7410    -8.9390    -1.6070 H     1 <1>   0.0800 
 44 H       -4.0510    -9.9010    -1.0000 H     1 <1>   0.0800 
 45 H       -3.2970   -11.7320     0.8900 H     1 <1>   0.1500 
 46 H       -0.6650   -10.0800    -2.0310 H     1 <1>   0.1500 
 47 H       -1.7110   -13.5490     1.1560 H     1 <1>   0.1500 
 48 H        0.8050   -11.9700    -1.6400 H     1 <1>   0.1500 
@<TRIPOS>BOND
  1   1   2  1   
  2   1   3  1   
  3   2   4  ar  
  4   2   5  ar  
  5   3  24  1   
  6   3  25  1   
  7   3  26  1   
  8   4   6  ar  
  9   4  27  1   
 10   5   7  ar  
 11   5  28  1   
 12   6   8  ar  
 13   6   9  1   
 14   7   8  ar  
 15   7  29  1   
 16   8  10  1   
 17   9  30  1   
 18   9  31  1   
 19   9  32  1   
 20  10  11  1   
 21  10  33  1   
 22  10  34  1   
 23  11  12  1   
 24  11  13  1   
 25  11  35  1   
 26  12  14  1   
 27  12  36  1   
 28  12  37  1   
 29  13  15  1   
 30  13  38  1   
 31  13  39  1   
 32  14  15  1   
 33  14  16  1   
 34  14  40  1   
 35  15  17  1   
 36  15  41  1   
 37  16  42  1   
 38  17  18  1   
 39  17  43  1   
 40  17  44  1   
 41  18  19  ar  
 42  18  20  ar  
 43  19  21  ar  
 44  19  45  1   
 45  20  22  ar  
 46  20  46  1   
 47  21  23  ar  
 48  21  47  1   
 49  22  23  ar  
 50  22  48  1   
@<TRIPOS>SUBSTRUCTURE
  1 ****  11 GROUP 4 **** **** 0

# MOE 2024.06 (io_trps.svl 2023.06)
