@<TRIPOS>MOLECULE
NONAME
44 44 1 0 0 
SMALL
USER_CHARGES


@<TRIPOS>ATOM
  1 S       -0.8530    -0.1220     1.3160 S.o2  1 <1>   1.3330 
  2 O        0.2720     0.2710     2.1320 O.2   1 <1>  -0.6500 
  3 O       -2.2050     0.1450     1.7490 O.2   1 <1>  -0.6500 
  4 N       -0.6470     0.5520    -0.2310 N.am  1 <1>  -0.8490 
  5 C       -0.7420    -1.8850     0.9830 C.3   1 <1>  -0.0550 
  6 C        0.7620     0.7620    -0.5860 C.3   1 <1>   0.1160 
  7 C       -1.3780     1.8160    -0.3810 C.3   1 <1>   0.1160 
  8 C       -1.8650    -2.4020     0.0630 C.3   1 <1>  -0.1600 
  9 C       -1.7140    -3.8940    -0.2250 C.3   1 <1>   0.3430 
 10 N       -2.9330    -4.4110    -0.9070 N.4   1 <1>  -0.9590 
 11 C       -2.9800    -5.9010    -0.8760 C.3   1 <1>   0.5230 
 12 C       -3.1830    -3.8440    -2.2660 C.3   1 <1>   0.2630 
 13 C       -3.4530    -6.3250     0.5090 C.2   1 <1>   0.0070 
 14 N       -3.9190    -5.4830     1.3830 N.2   1 <1>  -0.5650 
 15 N       -3.4420    -7.6120     0.9450 N.pl3 1 <1>   0.0480 
 16 C       -4.2270    -6.2530     2.4420 C.2   1 <1>   0.0770 
 17 C       -3.9430    -7.5480     2.1910 C.2   1 <1>  -0.3020 
 18 C       -3.0080    -8.8530     0.2610 C.3   1 <1>   0.0960 
 19 C       -4.1020    -9.3630    -0.6810 C.3   1 <1>  -0.2400 
 20 H       -0.7890    -2.4080     1.9200 H     1 <1>   0.0800 
 21 H        0.2130    -2.0930     0.5400 H     1 <1>   0.0800 
 22 H        1.3120    -0.1600    -0.4960 H     1 <1>   0.0800 
 23 H        1.2110     1.4930     0.0670 H     1 <1>   0.0800 
 24 H        0.8410     1.1070    -1.6030 H     1 <1>   0.0800 
 25 H       -2.4330     1.6540    -0.2360 H     1 <1>   0.0800 
 26 H       -1.2320     2.2190    -1.3690 H     1 <1>   0.0800 
 27 H       -1.0370     2.5340     0.3470 H     1 <1>   0.0800 
 28 H       -1.8400    -1.8440    -0.8560 H     1 <1>   0.0800 
 29 H       -2.8080    -2.2220     0.5510 H     1 <1>   0.0800 
 30 H       -1.5900    -4.4140     0.7130 H     1 <1>   0.0800 
 31 H       -0.8400    -4.0700    -0.8310 H     1 <1>   0.0800 
 32 H       -3.7160    -4.1730    -0.2660 H     1 <1>   0.4500 
 33 H       -2.0090    -6.3150    -1.0890 H     1 <1>   0.0800 
 34 H       -3.6860    -6.2630    -1.6040 H     1 <1>   0.0800 
 35 H       -2.3730    -4.0900    -2.9330 H     1 <1>   0.0800 
 36 H       -3.2730    -2.7710    -2.2130 H     1 <1>   0.0800 
 37 H       -4.1010    -4.2390    -2.6730 H     1 <1>   0.0800 
 38 H       -4.6450    -5.8320     3.3430 H     1 <1>   0.1500 
 39 H       -4.0740    -8.4070     2.8250 H     1 <1>   0.1500 
 40 H       -2.7990    -9.5990     1.0080 H     1 <1>   0.0800 
 41 H       -2.1010    -8.6630    -0.2830 H     1 <1>   0.0800 
 42 H       -5.0030    -9.5680    -0.1280 H     1 <1>   0.0800 
 43 H       -3.7810   -10.2790    -1.1460 H     1 <1>   0.0800 
 44 H       -4.3160    -8.6490    -1.4550 H     1 <1>   0.0800 
@<TRIPOS>BOND
  1   1   2  2   
  2   1   3  2   
  3   1   4  am  
  4   1   5  1   
  5   4   6  1   
  6   4   7  1   
  7   5   8  1   
  8   5  20  1   
  9   5  21  1   
 10   6  22  1   
 11   6  23  1   
 12   6  24  1   
 13   7  25  1   
 14   7  26  1   
 15   7  27  1   
 16   8   9  1   
 17   8  28  1   
 18   8  29  1   
 19   9  10  1   
 20   9  30  1   
 21   9  31  1   
 22  10  11  1   
 23  10  12  1   
 24  10  32  1   
 25  11  13  1   
 26  11  33  1   
 27  11  34  1   
 28  12  35  1   
 29  12  36  1   
 30  12  37  1   
 31  13  14  2   
 32  13  15  1   
 33  14  16  1   
 34  15  17  1   
 35  15  18  1   
 36  16  17  2   
 37  16  38  1   
 38  17  39  1   
 39  18  19  1   
 40  18  40  1   
 41  18  41  1   
 42  19  42  1   
 43  19  43  1   
 44  19  44  1   
@<TRIPOS>SUBSTRUCTURE
  1 ****   9 GROUP 4 **** **** 0

# MOE 2024.06 (io_trps.svl 2023.06)
