@<TRIPOS>MOLECULE
NONAME
44 45 1 0 0 
SMALL
USER_CHARGES


@<TRIPOS>ATOM
  1 O        0.5300    -0.1070    -0.5230 O.3   1 <1>  -0.5600 
  2 C        1.6930    -0.8730    -0.7230 C.3   1 <1>   0.2000 
  3 C        0.6510     1.2550    -0.8020 C.3   1 <1>   0.1200 
  4 C        2.8950    -0.2970     0.0760 C.3   1 <1>   0.5660 
  5 C        1.4030    -2.3190    -0.2870 C.3   1 <1>   0.1200 
  6 C        1.7290     1.8830     0.0970 C.3   1 <1>   0.3430 
  7 N        3.0550     1.1930    -0.0590 N.4   1 <1>  -0.9590 
  8 C        4.2020    -0.9520    -0.3570 C.ar  1 <1>  -0.1430 
  9 O        1.3800    -2.4060     1.1040 O.3   1 <1>  -0.6800 
 10 C        4.0760     1.6930     0.9000 C.3   1 <1>   0.3430 
 11 C        4.9080    -1.7080     0.5680 C.ar  1 <1>  -0.1500 
 12 C        4.7060    -0.8110    -1.6450 C.ar  1 <1>  -0.1500 
 13 C        4.4920     3.1080     0.5170 C.3   1 <1>  -0.2400 
 14 C        6.1060    -2.3100     0.2260 C.ar  1 <1>   0.0820 
 15 C        5.9100    -1.4020    -1.9910 C.ar  1 <1>  -0.1500 
 16 O        6.7170    -3.0490     1.1820 O.3   1 <1>  -0.3620 
 17 C        6.6250    -2.1360    -1.0610 C.ar  1 <1>   0.0820 
 18 C        6.8540    -4.4310     0.9270 C.3   1 <1>   0.0400 
 19 O        7.8110    -2.6550    -1.4600 O.3   1 <1>  -0.3630 
 20 C        8.9690    -2.1640    -0.8220 C.3   1 <1>   0.0400 
 21 H        1.9030    -0.8670    -1.7770 H     1 <1>   0.0800 
 22 H        0.8840     1.3810    -1.8450 H     1 <1>   0.0800 
 23 H       -0.3040     1.7120    -0.6070 H     1 <1>   0.0800 
 24 H        2.7260    -0.5300     1.1140 H     1 <1>   0.0800 
 25 H        2.1700    -2.9850    -0.6450 H     1 <1>   0.0800 
 26 H        0.4500    -2.6390    -0.6720 H     1 <1>   0.0800 
 27 H        1.3990     1.8120     1.1210 H     1 <1>   0.0800 
 28 H        1.8270     2.9280    -0.1470 H     1 <1>   0.0800 
 29 H        3.4140     1.3530    -1.0050 H     1 <1>   0.4500 
 30 H        0.9720    -3.2500     1.3910 H     1 <1>   0.4000 
 31 H        3.6840     1.6780     1.9050 H     1 <1>   0.0800 
 32 H        4.9490     1.0590     0.8710 H     1 <1>   0.0800 
 33 H        4.5370    -1.8530     1.5690 H     1 <1>   0.1500 
 34 H        4.1820    -0.2490    -2.3990 H     1 <1>   0.1500 
 35 H        3.6790     3.8030     0.6230 H     1 <1>   0.0800 
 36 H        4.8700     3.1370    -0.4890 H     1 <1>   0.0800 
 37 H        5.2810     3.4290     1.1740 H     1 <1>   0.0800 
 38 H        6.3080    -1.2960    -2.9850 H     1 <1>   0.1500 
 39 H        7.2460    -4.8980     1.8120 H     1 <1>   0.0800 
 40 H        7.5320    -4.5800     0.1060 H     1 <1>   0.0800 
 41 H        5.8880    -4.8400     0.6920 H     1 <1>   0.0800 
 42 H        9.8270    -2.5970    -1.3030 H     1 <1>   0.0800 
 43 H        8.9540    -2.4430     0.2160 H     1 <1>   0.0800 
 44 H        8.9940    -1.0930    -0.9210 H     1 <1>   0.0800 
@<TRIPOS>BOND
  1   1   2  1   
  2   1   3  1   
  3   2   4  1   
  4   2   5  1   
  5   2  21  1   
  6   3   6  1   
  7   3  22  1   
  8   3  23  1   
  9   4   7  1   
 10   4   8  1   
 11   4  24  1   
 12   5   9  1   
 13   5  25  1   
 14   5  26  1   
 15   6   7  1   
 16   6  27  1   
 17   6  28  1   
 18   7  10  1   
 19   7  29  1   
 20   8  11  ar  
 21   8  12  ar  
 22   9  30  1   
 23  10  13  1   
 24  10  31  1   
 25  10  32  1   
 26  11  14  ar  
 27  11  33  1   
 28  12  15  ar  
 29  12  34  1   
 30  13  35  1   
 31  13  36  1   
 32  13  37  1   
 33  14  16  1   
 34  14  17  ar  
 35  15  17  ar  
 36  15  38  1   
 37  16  18  1   
 38  17  19  1   
 39  18  39  1   
 40  18  40  1   
 41  18  41  1   
 42  19  20  1   
 43  20  42  1   
 44  20  43  1   
 45  20  44  1   
@<TRIPOS>SUBSTRUCTURE
  1 ****   8 GROUP 4 **** **** 0

# MOE 2024.06 (io_trps.svl 2023.06)
