@<TRIPOS>MOLECULE
NONAME
42 44 1 0 0 
SMALL
USER_CHARGES


@<TRIPOS>ATOM
  1 S       -3.4890    -2.7250     3.2570 S.3   1 <1>  -0.0800 
  2 C       -3.9160    -3.6240     1.8140 C.2   1 <1>  -0.1100 
  3 C       -2.5730    -1.5640     2.3160 C.2   1 <1>  -0.1100 
  4 C       -3.3870    -3.0470     0.7170 C.2   1 <1>  -0.1810 
  5 C       -2.6150    -1.8720     1.0070 C.2   1 <1>  -0.1500 
  6 C       -3.5730    -3.5470    -0.6980 C.3   1 <1>   0.5240 
  7 N       -4.9400    -3.1650    -1.1160 N.4   1 <1>  -0.9590 
  8 C       -5.4770    -3.9960    -2.2380 C.3   1 <1>   0.3430 
  9 C       -5.1380    -1.7020    -1.3030 C.3   1 <1>   0.3430 
 10 C       -7.0210    -4.0290    -2.2380 C.3   1 <1>   0.1400 
 11 C       -6.4130    -1.2510    -0.5830 C.3   1 <1>  -0.1600 
 12 N       -7.6070    -3.3730    -1.0230 N.am  1 <1>  -0.6600 
 13 C       -7.7110    -1.8900    -1.0960 C.3   1 <1>   0.1400 
 14 C       -8.0310    -4.0740     0.0960 C.2   1 <1>   0.7150 
 15 O       -8.7900    -3.5140     0.8640 O.2   1 <1>  -0.5700 
 16 C       -7.5370    -5.4030     0.4010 C.2   1 <1>   0.0550 
 17 O       -6.2990    -5.7680     0.0550 O.3   1 <1>  -0.2800 
 18 C       -8.1170    -6.4490     1.0610 C.2   1 <1>  -0.1810 
 19 C       -6.0850    -6.9970     0.4670 C.2   1 <1>  -0.0100 
 20 C       -7.1750    -7.4770     1.0990 C.2   1 <1>  -0.1500 
 21 C       -9.5040    -6.5560     1.6730 C.3   1 <1>  -0.0590 
 22 H       -4.5310    -4.4980     1.9570 H     1 <1>   0.1500 
 23 H       -2.0900    -0.7670     2.8550 H     1 <1>   0.1500 
 24 H       -2.1190    -1.3070     0.2350 H     1 <1>   0.1500 
 25 H       -3.4760    -4.6210    -0.7020 H     1 <1>   0.0800 
 26 H       -2.8320    -3.1250    -1.3570 H     1 <1>   0.0800 
 27 H       -5.5400    -3.4070    -0.3100 H     1 <1>   0.4500 
 28 H       -5.1310    -5.0110    -2.1250 H     1 <1>   0.0800 
 29 H       -5.1160    -3.6330    -3.1860 H     1 <1>   0.0800 
 30 H       -5.1980    -1.4630    -2.3530 H     1 <1>   0.0800 
 31 H       -4.3030    -1.1630    -0.8830 H     1 <1>   0.0800 
 32 H       -7.3520    -5.0520    -2.2950 H     1 <1>   0.0800 
 33 H       -7.3890    -3.5380    -3.1220 H     1 <1>   0.0800 
 34 H       -6.5030    -0.1850    -0.6980 H     1 <1>   0.0800 
 35 H       -6.3170    -1.4370     0.4730 H     1 <1>   0.0800 
 36 H       -7.9040    -1.5850    -2.1110 H     1 <1>   0.0800 
 37 H       -8.5400    -1.5450    -0.4980 H     1 <1>   0.0800 
 38 H       -5.1360    -7.4690     0.2790 H     1 <1>   0.1500 
 39 H       -7.3180    -8.4440     1.5500 H     1 <1>   0.1500 
 40 H      -10.0940    -5.6860     1.4480 H     1 <1>   0.0800 
 41 H       -9.4250    -6.6470     2.7410 H     1 <1>   0.0800 
 42 H      -10.0110    -7.4210     1.2860 H     1 <1>   0.0800 
@<TRIPOS>BOND
  1   1   2  1   
  2   1   3  1   
  3   2   4  2   
  4   2  22  1   
  5   3   5  2   
  6   3  23  1   
  7   4   5  1   
  8   4   6  1   
  9   5  24  1   
 10   6   7  1   
 11   6  25  1   
 12   6  26  1   
 13   7   8  1   
 14   7   9  1   
 15   7  27  1   
 16   8  10  1   
 17   8  28  1   
 18   8  29  1   
 19   9  11  1   
 20   9  30  1   
 21   9  31  1   
 22  10  12  1   
 23  10  32  1   
 24  10  33  1   
 25  11  13  1   
 26  11  34  1   
 27  11  35  1   
 28  12  13  1   
 29  12  14  am  
 30  13  36  1   
 31  13  37  1   
 32  14  15  2   
 33  14  16  1   
 34  16  17  1   
 35  16  18  2   
 36  17  19  1   
 37  18  20  1   
 38  18  21  1   
 39  19  20  2   
 40  19  38  1   
 41  20  39  1   
 42  21  40  1   
 43  21  41  1   
 44  21  42  1   
@<TRIPOS>SUBSTRUCTURE
  1 ****   7 GROUP 4 **** **** 0

# MOE 2024.06 (io_trps.svl 2023.06)
