@<TRIPOS>MOLECULE
NONAME
56 58 1 0 0 
SMALL
USER_CHARGES


@<TRIPOS>ATOM
  1 O        5.1520    -1.3070    -0.6680 O.2   1 <1>  -0.5700 
  2 C        4.0140    -1.3820    -1.1010 C.2   1 <1>   0.5440 
  3 N        3.4990    -0.2260    -1.6420 N.am  1 <1>  -0.6600 
  4 C        3.2210    -2.5920    -0.9590 C.ar  1 <1>   0.0860 
  5 C        4.3510     0.6410    -2.5210 C.3   1 <1>   0.1400 
  6 C        2.3380     0.4420    -0.9990 C.3   1 <1>   0.1400 
  7 C        3.5150    -3.5350     0.0270 C.ar  1 <1>  -0.1500 
  8 C        2.1350    -2.8610    -1.7940 C.ar  1 <1>  -0.1500 
  9 C        5.0550     1.7770    -1.7470 C.3   1 <1>   0.3430 
 10 C        2.7390     0.9730     0.3880 C.3   1 <1>  -0.1600 
 11 C        2.7550    -4.6790     0.1830 C.ar  1 <1>  -0.1500 
 12 C        1.3720    -4.0040    -1.6410 C.ar  1 <1>  -0.1500 
 13 N        5.0950     1.4750    -0.2820 N.4   1 <1>  -0.9590 
 14 C        3.8820     1.9980     0.4130 C.3   1 <1>   0.3430 
 15 C        1.6760    -4.9210    -0.6490 C.ar  1 <1>  -0.1430 
 16 C        6.3990     1.8370     0.3470 C.3   1 <1>   0.3430 
 17 C        0.8370    -6.1780    -0.4780 C.3   1 <1>  -0.0170 
 18 C        6.6690     0.9890     1.5960 C.3   1 <1>   0.0960 
 19 C       -0.3220    -5.9230     0.4930 C.3   1 <1>  -0.1600 
 20 N        8.0080     1.3140     2.1050 N.pl3 1 <1>   0.0480 
 21 C       -1.1830    -7.1780     0.6840 C.3   1 <1>  -0.1600 
 22 C        8.3680     2.2770     2.9560 C.2   1 <1>   0.0360 
 23 C        9.1760     0.7570     1.7820 C.2   1 <1>   0.0360 
 24 C       -2.3360    -6.9110     1.6550 C.3   1 <1>  -0.2400 
 25 N        9.6420     2.3110     3.1240 N.2   1 <1>  -0.3380 
 26 N       10.1600     1.3380     2.3720 N.2   1 <1>  -0.3380 
 27 H        3.7540     1.0540    -3.3160 H     1 <1>   0.0800 
 28 H        5.1060     0.0250    -2.9830 H     1 <1>   0.0800 
 29 H        1.5330    -0.2680    -0.8900 H     1 <1>   0.0800 
 30 H        1.9820     1.2450    -1.6230 H     1 <1>   0.0800 
 31 H        4.3540    -3.3710     0.6800 H     1 <1>   0.1500 
 32 H        1.8840    -2.1710    -2.5790 H     1 <1>   0.1500 
 33 H        4.5360     2.7060    -1.9190 H     1 <1>   0.0800 
 34 H        6.0540     1.8840    -2.1380 H     1 <1>   0.0800 
 35 H        2.9900     0.1450     1.0270 H     1 <1>   0.0800 
 36 H        1.8730     1.4380     0.8250 H     1 <1>   0.0800 
 37 H        3.0060    -5.3850     0.9560 H     1 <1>   0.1500 
 38 H        0.5380    -4.1820    -2.2980 H     1 <1>   0.1500 
 39 H        5.0200     0.4310    -0.2730 H     1 <1>   0.4500 
 40 H        4.1170     2.2190     1.4410 H     1 <1>   0.0800 
 41 H        3.5610     2.9150    -0.0550 H     1 <1>   0.0800 
 42 H        6.4080     2.8850     0.6020 H     1 <1>   0.0800 
 43 H        7.1940     1.6510    -0.3580 H     1 <1>   0.0800 
 44 H        1.4560    -6.9750    -0.1050 H     1 <1>   0.0800 
 45 H        0.4500    -6.4860    -1.4340 H     1 <1>   0.0800 
 46 H        6.6410    -0.0580     1.3490 H     1 <1>   0.0800 
 47 H        5.9470     1.1940     2.3640 H     1 <1>   0.0800 
 48 H       -0.9310    -5.1220     0.1120 H     1 <1>   0.0800 
 49 H        0.0770    -5.6130     1.4440 H     1 <1>   0.0800 
 50 H       -0.5770    -7.9800     1.0680 H     1 <1>   0.0800 
 51 H       -1.5860    -7.4890    -0.2650 H     1 <1>   0.0800 
 52 H        7.6760     2.9430     3.4390 H     1 <1>   0.1500 
 53 H        9.2790    -0.0740     1.1070 H     1 <1>   0.1500 
 54 H       -1.9570    -6.6190     2.6190 H     1 <1>   0.0800 
 55 H       -2.9290    -7.8000     1.7760 H     1 <1>   0.0800 
 56 H       -2.9710    -6.1260     1.2800 H     1 <1>   0.0800 
@<TRIPOS>BOND
  1   1   2  2   
  2   2   3  am  
  3   2   4  1   
  4   3   5  1   
  5   3   6  1   
  6   4   7  ar  
  7   4   8  ar  
  8   5   9  1   
  9   5  27  1   
 10   5  28  1   
 11   6  10  1   
 12   6  29  1   
 13   6  30  1   
 14   7  11  ar  
 15   7  31  1   
 16   8  12  ar  
 17   8  32  1   
 18   9  13  1   
 19   9  33  1   
 20   9  34  1   
 21  10  14  1   
 22  10  35  1   
 23  10  36  1   
 24  11  15  ar  
 25  11  37  1   
 26  12  15  ar  
 27  12  38  1   
 28  13  14  1   
 29  13  16  1   
 30  13  39  1   
 31  14  40  1   
 32  14  41  1   
 33  15  17  1   
 34  16  18  1   
 35  16  42  1   
 36  16  43  1   
 37  17  19  1   
 38  17  44  1   
 39  17  45  1   
 40  18  20  1   
 41  18  46  1   
 42  18  47  1   
 43  19  21  1   
 44  19  48  1   
 45  19  49  1   
 46  20  22  1   
 47  20  23  1   
 48  21  24  1   
 49  21  50  1   
 50  21  51  1   
 51  22  25  2   
 52  22  52  1   
 53  23  26  2   
 54  23  53  1   
 55  24  54  1   
 56  24  55  1   
 57  24  56  1   
 58  25  26  1   
@<TRIPOS>SUBSTRUCTURE
  1 ****   2 GROUP 4 **** **** 0

# MOE 2024.06 (io_trps.svl 2023.06)
