@<TRIPOS>MOLECULE
NONAME
38 40 1 0 0 
SMALL
USER_CHARGES


@<TRIPOS>ATOM
  1 CL      -0.8190     0.5620     1.7680 Cl    1 <1>  -0.1770 
  2 C       -2.2720     1.1760     1.0120 C.ar  1 <1>   0.1770 
  3 C       -2.4700     2.5390     0.8880 C.ar  1 <1>   0.1600 
  4 C       -3.2180     0.2930     0.5400 C.ar  1 <1>  -0.1500 
  5 N       -3.5400     3.0920     0.3330 N.ar  1 <1>  -0.6200 
  6 C       -4.3310     0.8580    -0.0410 C.ar  1 <1>  -0.1500 
  7 C       -4.4600     2.2460    -0.1240 C.ar  1 <1>   0.4100 
  8 N       -5.5940     2.7880    -0.7020 N.pl3 1 <1>  -0.8380 
  9 C       -6.9170     2.5390    -0.0820 C.3   1 <1>   0.2090 
 10 C       -5.5130     4.0560    -1.4760 C.3   1 <1>   0.2090 
 11 C       -7.2720     3.7100     0.8330 C.3   1 <1>  -0.1600 
 12 C       -5.8910     5.2410    -0.5840 C.3   1 <1>  -0.1600 
 13 C       -7.2630     5.0590     0.0820 C.3   1 <1>   0.2800 
 14 O       -8.1860     5.0640    -0.9860 O.3   1 <1>  -0.5600 
 15 C       -7.5060     6.2600     1.0310 C.3   1 <1>   0.1400 
 16 C       -9.5500     4.8120    -0.7910 C.3   1 <1>   0.1200 
 17 N       -8.7570     6.1700     1.8320 N.am  1 <1>  -0.7300 
 18 C      -10.2510     6.0000    -0.1370 C.3   1 <1>  -0.0990 
 19 C      -10.0070     6.0310     1.3510 C.2   1 <1>   0.5690 
 20 O      -10.9370     5.9170     2.1070 O.2   1 <1>  -0.5700 
 21 H       -1.7110     3.2000     1.2640 H     1 <1>   0.1500 
 22 H       -3.0830    -0.7700     0.6220 H     1 <1>   0.1500 
 23 H       -5.1120     0.2430    -0.4450 H     1 <1>   0.1500 
 24 H       -6.8940     1.6280     0.4900 H     1 <1>   0.0800 
 25 H       -7.6560     2.4340    -0.8590 H     1 <1>   0.0800 
 26 H       -6.1870     3.9990    -2.3140 H     1 <1>   0.0800 
 27 H       -4.5150     4.1880    -1.8590 H     1 <1>   0.0800 
 28 H       -6.5400     3.7450     1.6190 H     1 <1>   0.0800 
 29 H       -8.2190     3.5340     1.3050 H     1 <1>   0.0800 
 30 H       -5.8870     6.1410    -1.1710 H     1 <1>   0.0800 
 31 H       -5.1310     5.3430     0.1700 H     1 <1>   0.0800 
 32 H       -7.5190     7.1680     0.4540 H     1 <1>   0.0800 
 33 H       -6.6790     6.3250     1.7170 H     1 <1>   0.0800 
 34 H       -9.6880     3.9080    -0.2280 H     1 <1>   0.0800 
 35 H       -9.9700     4.6590    -1.7700 H     1 <1>   0.0800 
 36 H       -8.6660     6.1930     2.8500 H     1 <1>   0.3700 
 37 H      -11.3090     5.9030    -0.2960 H     1 <1>   0.0800 
 38 H       -9.9330     6.9200    -0.5880 H     1 <1>   0.0800 
@<TRIPOS>BOND
  1   1   2  1   
  2   2   3  ar  
  3   2   4  ar  
  4   3   5  ar  
  5   3  21  1   
  6   4   6  ar  
  7   4  22  1   
  8   5   7  ar  
  9   6   7  ar  
 10   6  23  1   
 11   7   8  1   
 12   8   9  1   
 13   8  10  1   
 14   9  11  1   
 15   9  24  1   
 16   9  25  1   
 17  10  12  1   
 18  10  26  1   
 19  10  27  1   
 20  11  13  1   
 21  11  28  1   
 22  11  29  1   
 23  12  13  1   
 24  12  30  1   
 25  12  31  1   
 26  13  14  1   
 27  13  15  1   
 28  14  16  1   
 29  15  17  1   
 30  15  32  1   
 31  15  33  1   
 32  16  18  1   
 33  16  34  1   
 34  16  35  1   
 35  17  19  am  
 36  17  36  1   
 37  18  19  1   
 38  18  37  1   
 39  18  38  1   
 40  19  20  2   
@<TRIPOS>SUBSTRUCTURE
  1 ****  11 GROUP 4 **** **** 0

# MOE 2024.06 (io_trps.svl 2023.06)
