@<TRIPOS>MOLECULE
NONAME
32 34 1 0 0 
SMALL
USER_CHARGES


@<TRIPOS>ATOM
  1 O       -2.4670     0.2560    -2.7670 O.2   1 <1>  -0.5700 
  2 C       -2.5580     0.7730    -1.6830 C.2   1 <1>   0.5690 
  3 N       -3.6740     1.2890    -1.1600 N.am  1 <1>  -0.7300 
  4 C       -1.4180     0.9070    -0.7160 C.3   1 <1>  -0.0990 
  5 C       -3.5320     1.8010     0.1990 C.3   1 <1>   0.3000 
  6 C       -1.9990     1.8060     0.3920 C.3   1 <1>  -0.1600 
  7 C       -4.1610     3.1990     0.2770 C.3   1 <1>  -0.1600 
  8 C       -4.2580     0.8520     1.1670 C.3   1 <1>  -0.1600 
  9 C       -5.7130     3.1800     0.1470 C.3   1 <1>  -0.1600 
 10 C       -5.7460     1.2340     1.3390 C.3   1 <1>  -0.1600 
 11 C       -6.3820     1.7450    -0.0160 C.3   1 <1>   0.5600 
 12 O       -7.0170     2.1880    -1.1870 O.3   1 <1>  -0.5600 
 13 O       -6.8950     0.4540    -0.2250 O.3   1 <1>  -0.5600 
 14 C       -8.3390     1.8030    -1.2020 C.3   1 <1>   0.1200 
 15 C       -8.2460     0.4980    -0.4870 C.3   1 <1>   0.1200 
 16 H       -4.5940     1.2070    -1.6050 H     1 <1>   0.3700 
 17 H       -0.5650     1.3510    -1.1930 H     1 <1>   0.0800 
 18 H       -1.1680    -0.0670    -0.3370 H     1 <1>   0.0800 
 19 H       -1.6260     2.8060     0.2570 H     1 <1>   0.0800 
 20 H       -1.7060     1.4730     1.3710 H     1 <1>   0.0800 
 21 H       -3.7370     3.8210    -0.4920 H     1 <1>   0.0800 
 22 H       -3.9000     3.6390     1.2240 H     1 <1>   0.0800 
 23 H       -3.7950     0.8900     2.1360 H     1 <1>   0.0800 
 24 H       -4.1780    -0.1600     0.8080 H     1 <1>   0.0800 
 25 H       -5.9120     3.8750    -0.6570 H     1 <1>   0.0800 
 26 H       -6.1430     3.6800     0.9970 H     1 <1>   0.0800 
 27 H       -5.8140     1.9640     2.1270 H     1 <1>   0.0800 
 28 H       -6.2480     0.3880     1.7870 H     1 <1>   0.0800 
 29 H       -8.6690     1.7000    -2.2210 H     1 <1>   0.0800 
 30 H       -8.9320     2.5230    -0.6670 H     1 <1>   0.0800 
 31 H       -8.7960     0.4970     0.4380 H     1 <1>   0.0800 
 32 H       -8.5170    -0.3390    -1.1060 H     1 <1>   0.0800 
@<TRIPOS>BOND
  1   1   2  2   
  2   2   3  am  
  3   2   4  1   
  4   3   5  1   
  5   3  16  1   
  6   4   6  1   
  7   4  17  1   
  8   4  18  1   
  9   5   6  1   
 10   5   7  1   
 11   5   8  1   
 12   6  19  1   
 13   6  20  1   
 14   7   9  1   
 15   7  21  1   
 16   7  22  1   
 17   8  10  1   
 18   8  23  1   
 19   8  24  1   
 20   9  11  1   
 21   9  25  1   
 22   9  26  1   
 23  10  11  1   
 24  10  27  1   
 25  10  28  1   
 26  11  12  1   
 27  11  13  1   
 28  12  14  1   
 29  13  15  1   
 30  14  15  1   
 31  14  29  1   
 32  14  30  1   
 33  15  31  1   
 34  15  32  1   
@<TRIPOS>SUBSTRUCTURE
  1 ****   3 GROUP 4 **** **** 0

# MOE 2024.06 (io_trps.svl 2023.06)
