@<TRIPOS>MOLECULE
NONAME
45 46 1 0 0 
SMALL
USER_CHARGES


@<TRIPOS>ATOM
  1 CL      -0.1820     0.5520    -2.1770 Cl    1 <1>  -0.1770 
  2 C        1.1420     0.9920    -1.1230 C.ar  1 <1>   0.1770 
  3 C        2.0550     0.0410    -0.6910 C.ar  1 <1>  -0.1440 
  4 C        1.2420     2.3200    -0.7420 C.ar  1 <1>  -0.1500 
  5 C        3.0790     0.4850     0.1330 C.ar  1 <1>   0.1900 
  6 C        1.9530    -1.4240    -1.0950 C.3   1 <1>   0.2540 
  7 C        2.2730     2.7290     0.0880 C.ar  1 <1>  -0.1500 
  8 F        3.9740    -0.3760     0.5470 F     1 <1>  -0.1900 
  9 C        3.2080     1.8090     0.5360 C.ar  1 <1>  -0.1440 
 10 N        1.3330    -2.2130    -0.0200 N.3   1 <1>  -0.8100 
 11 C        4.3460     2.2480     1.4480 C.3   1 <1>  -0.0970 
 12 C       -0.0620    -1.8650     0.2570 C.3   1 <1>   0.1100 
 13 C        1.3360    -3.6530    -0.2970 C.3   1 <1>   0.1100 
 14 C       -0.5590    -3.0360     1.0940 C.3   1 <1>   0.2000 
 15 C        0.1290    -4.2450     0.4570 C.3   1 <1>  -0.0800 
 16 O       -0.0450    -2.8820     2.3650 O.3   1 <1>  -0.6800 
 17 C       -0.8430    -4.9940    -0.4770 C.3   1 <1>  -0.0550 
 18 S       -0.2010    -6.5190    -1.1750 S.o2  1 <1>   1.3330 
 19 O       -1.2980    -7.2530    -1.7630 O.2   1 <1>  -0.6500 
 20 O        0.9550    -6.2040    -1.9850 O.2   1 <1>  -0.6500 
 21 N        0.3340    -7.3960     0.1770 N.am  1 <1>  -0.8490 
 22 C        1.3520    -8.3890    -0.1770 C.3   1 <1>   0.1160 
 23 C       -0.7520    -8.0410     0.9220 C.3   1 <1>   0.1160 
 24 H        0.5140     3.0280    -1.0960 H     1 <1>   0.1500 
 25 H        2.9440    -1.8050    -1.2790 H     1 <1>   0.0800 
 26 H        1.3910    -1.5350    -2.0060 H     1 <1>   0.0800 
 27 H        2.3410     3.7630     0.3800 H     1 <1>   0.1500 
 28 H        4.2810     3.2970     1.6710 H     1 <1>   0.0800 
 29 H        5.2910     2.0550     0.9720 H     1 <1>   0.0800 
 30 H        4.3060     1.6980     2.3710 H     1 <1>   0.0800 
 31 H       -0.1460    -0.9300     0.7850 H     1 <1>   0.0800 
 32 H       -0.6220    -1.8130    -0.6620 H     1 <1>   0.0800 
 33 H        1.2440    -3.8200    -1.3570 H     1 <1>   0.0800 
 34 H        2.2600    -4.0920     0.0440 H     1 <1>   0.0800 
 35 H       -1.6310    -3.1040     1.1590 H     1 <1>   0.0800 
 36 H        0.4670    -4.9250     1.2210 H     1 <1>   0.0800 
 37 H        0.8910    -2.6050     2.2500 H     1 <1>   0.4000 
 38 H       -1.1380    -4.3420    -1.2770 H     1 <1>   0.0800 
 39 H       -1.7260    -5.2300     0.0830 H     1 <1>   0.0800 
 40 H        1.6850    -8.9120     0.7030 H     1 <1>   0.0800 
 41 H        2.2050    -7.9010    -0.6200 H     1 <1>   0.0800 
 42 H        0.9540    -9.0980    -0.8840 H     1 <1>   0.0800 
 43 H       -0.3610    -8.5150     1.8070 H     1 <1>   0.0800 
 44 H       -1.2380    -8.7850     0.3120 H     1 <1>   0.0800 
 45 H       -1.4810    -7.3100     1.2250 H     1 <1>   0.0800 
@<TRIPOS>BOND
  1   1   2  1   
  2   2   3  ar  
  3   2   4  ar  
  4   3   5  ar  
  5   3   6  1   
  6   4   7  ar  
  7   4  24  1   
  8   5   8  1   
  9   5   9  ar  
 10   6  10  1   
 11   6  25  1   
 12   6  26  1   
 13   7   9  ar  
 14   7  27  1   
 15   9  11  1   
 16  10  12  1   
 17  10  13  1   
 18  11  28  1   
 19  11  29  1   
 20  11  30  1   
 21  12  14  1   
 22  12  31  1   
 23  12  32  1   
 24  13  15  1   
 25  13  33  1   
 26  13  34  1   
 27  14  15  1   
 28  14  16  1   
 29  14  35  1   
 30  15  17  1   
 31  15  36  1   
 32  16  37  1   
 33  17  18  1   
 34  17  38  1   
 35  17  39  1   
 36  18  19  2   
 37  18  20  2   
 38  18  21  am  
 39  21  22  1   
 40  21  23  1   
 41  22  40  1   
 42  22  41  1   
 43  22  42  1   
 44  23  43  1   
 45  23  44  1   
 46  23  45  1   
@<TRIPOS>SUBSTRUCTURE
  1 ****  10 GROUP 4 **** **** 0

# MOE 2024.06 (io_trps.svl 2023.06)
