@<TRIPOS>MOLECULE
NONAME
52 55 1 0 0 
SMALL
USER_CHARGES


@<TRIPOS>ATOM
  1 S       -0.2260     0.3660    -0.8680 S.3   1 <1>  -0.3320 
  2 C        1.3100     0.0460     0.0180 C.ar  1 <1>   0.1020 
  3 C       -1.1510     1.6270     0.1170 C.3   1 <1>   0.2500 
  4 C        2.1820    -0.8620    -0.5550 C.ar  1 <1>  -0.1500 
  5 C        1.6210     0.6700     1.2160 C.ar  1 <1>  -0.1500 
  6 C       -2.4660     1.9260    -0.5790 C.2   1 <1>  -0.0400 
  7 C        3.3810    -1.1510     0.0740 C.ar  1 <1>  -0.1500 
  8 C        2.8220     0.3780     1.8410 C.ar  1 <1>  -0.1500 
  9 O       -3.4750     1.0970    -0.4290 O.3   1 <1>  -0.2800 
 10 C       -2.8250     2.9570    -1.3730 C.2   1 <1>  -0.1500 
 11 C        3.7000    -0.5300     1.2710 C.ar  1 <1>  -0.1500 
 12 C       -4.5200     1.5480    -1.1180 C.2   1 <1>   0.0550 
 13 C       -4.1520     2.7120    -1.7270 C.2   1 <1>  -0.1500 
 14 C       -5.7750     0.8230    -1.1390 C.2   1 <1>   0.7150 
 15 O       -5.7830    -0.3960    -1.1090 O.2   1 <1>  -0.5700 
 16 N       -6.9910     1.4810    -1.2060 N.am  1 <1>  -0.6600 
 17 C       -8.2320     0.7890    -1.6580 C.3   1 <1>   0.1400 
 18 C       -7.2200     2.8510    -0.6720 C.3   1 <1>   0.1400 
 19 C       -9.2300     0.7140    -0.5010 C.3   1 <1>  -0.1600 
 20 C       -8.2130     2.7820     0.4910 C.3   1 <1>  -0.1600 
 21 C       -9.5240     2.0990     0.0820 C.3   1 <1>   0.4180 
 22 O      -10.1340     2.8400    -0.9480 O.3   1 <1>  -0.5600 
 23 C      -10.4680     1.9640     1.2740 C.2   1 <1>  -0.2880 
 24 C      -10.8840     3.9630    -0.5770 C.3   1 <1>   0.1200 
 25 C      -11.6370     2.6010     1.3810 C.2   1 <1>  -0.2760 
 26 C      -12.0840     3.5530     0.2870 C.3   1 <1>  -0.0220 
 27 C      -12.6010     2.4420     2.5430 C.3   1 <1>  -0.1020 
 28 H       -0.5320     2.5030     0.1650 H     1 <1>   0.0800 
 29 H       -1.3180     1.2210     1.0970 H     1 <1>   0.0800 
 30 H        1.9220    -1.3370    -1.4840 H     1 <1>   0.1500 
 31 H        0.9550     1.3740     1.6740 H     1 <1>   0.1500 
 32 H        4.0640    -1.8570    -0.3660 H     1 <1>   0.1500 
 33 H        3.0760     0.8560     2.7720 H     1 <1>   0.1500 
 34 H       -2.2350     3.7980    -1.6910 H     1 <1>   0.1500 
 35 H        4.6320    -0.7550     1.7600 H     1 <1>   0.1500 
 36 H       -4.7500     3.3320    -2.3700 H     1 <1>   0.1500 
 37 H       -8.0090    -0.2040    -2.0110 H     1 <1>   0.0800 
 38 H       -8.6620     1.3410    -2.4760 H     1 <1>   0.0800 
 39 H       -7.6150     3.4740    -1.4570 H     1 <1>   0.0800 
 40 H       -6.3020     3.2860    -0.3200 H     1 <1>   0.0800 
 41 H       -8.8210     0.0770     0.2610 H     1 <1>   0.0800 
 42 H      -10.1480     0.2710    -0.8400 H     1 <1>   0.0800 
 43 H       -8.4100     3.7670     0.8680 H     1 <1>   0.0800 
 44 H       -7.7620     2.2240     1.2910 H     1 <1>   0.0800 
 45 H      -10.0960     1.2880     2.0230 H     1 <1>   0.1500 
 46 H      -11.2210     4.4450    -1.4780 H     1 <1>   0.0800 
 47 H      -10.2470     4.6410    -0.0390 H     1 <1>   0.0800 
 48 H      -12.8290     3.0790    -0.3260 H     1 <1>   0.0800 
 49 H      -12.5150     4.4390     0.7170 H     1 <1>   0.0800 
 50 H      -12.7500     3.3860     3.0350 H     1 <1>   0.0800 
 51 H      -12.2140     1.7400     3.2610 H     1 <1>   0.0800 
 52 H      -13.5490     2.0780     2.1890 H     1 <1>   0.0800 
@<TRIPOS>BOND
  1   1   2  1   
  2   1   3  1   
  3   2   4  ar  
  4   2   5  ar  
  5   3   6  1   
  6   3  28  1   
  7   3  29  1   
  8   4   7  ar  
  9   4  30  1   
 10   5   8  ar  
 11   5  31  1   
 12   6   9  1   
 13   6  10  2   
 14   7  11  ar  
 15   7  32  1   
 16   8  11  ar  
 17   8  33  1   
 18   9  12  1   
 19  10  13  1   
 20  10  34  1   
 21  11  35  1   
 22  12  13  2   
 23  12  14  1   
 24  13  36  1   
 25  14  15  2   
 26  14  16  am  
 27  16  17  1   
 28  16  18  1   
 29  17  19  1   
 30  17  37  1   
 31  17  38  1   
 32  18  20  1   
 33  18  39  1   
 34  18  40  1   
 35  19  21  1   
 36  19  41  1   
 37  19  42  1   
 38  20  21  1   
 39  20  43  1   
 40  20  44  1   
 41  21  22  1   
 42  21  23  1   
 43  22  24  1   
 44  23  25  2   
 45  23  45  1   
 46  24  26  1   
 47  24  46  1   
 48  24  47  1   
 49  25  26  1   
 50  25  27  1   
 51  26  48  1   
 52  26  49  1   
 53  27  50  1   
 54  27  51  1   
 55  27  52  1   
@<TRIPOS>SUBSTRUCTURE
  1 ****  12 GROUP 4 **** **** 0

# MOE 2024.06 (io_trps.svl 2023.06)
