@<TRIPOS>MOLECULE
NONAME
40 41 1 0 0 
SMALL
USER_CHARGES


@<TRIPOS>ATOM
  1 F       -0.0290     0.6100    -1.8450 F     1 <1>  -0.3400 
  2 C        0.0580     1.6410    -1.0030 C.3   1 <1>   0.9600 
  3 F        0.7630     2.5570    -1.6700 F     1 <1>  -0.3400 
  4 O        0.8180     1.2050     0.1190 O.3   1 <1>  -0.3630 
  5 C       -1.3620     2.1800    -0.6690 C.3   1 <1>   0.6000 
  6 C        2.1250     0.8990    -0.0300 C.ar  1 <1>   0.0830 
  7 F       -1.3440     3.2090     0.1790 F     1 <1>  -0.3400 
  8 F       -2.1230     1.2630    -0.0650 F     1 <1>  -0.3400 
  9 C        3.1210     1.8680     0.1650 C.ar  1 <1>   0.0860 
 10 C        2.4530    -0.4080    -0.3570 C.ar  1 <1>  -0.1500 
 11 C        2.8180     3.2410     0.5160 C.2   1 <1>   0.5440 
 12 C        4.4480     1.4630    -0.0010 C.ar  1 <1>  -0.1500 
 13 C        3.7750    -0.7780    -0.5160 C.ar  1 <1>  -0.1500 
 14 O        1.9840     3.5190     1.3560 O.2   1 <1>  -0.5700 
 15 N        3.4830     4.2610    -0.0980 N.am  1 <1>  -0.7300 
 16 C        4.7740     0.1620    -0.3380 C.ar  1 <1>  -0.1500 
 17 C        3.3830     5.7040     0.2360 C.3   1 <1>   0.1400 
 18 C        4.7820     6.3590     0.2970 C.3   1 <1>   0.2800 
 19 O        5.5040     5.9970    -0.8480 O.3   1 <1>  -0.5600 
 20 C        4.7160     7.8900     0.2870 C.3   1 <1>  -0.1600 
 21 C        5.5950     5.8460     1.4910 C.3   1 <1>  -0.2400 
 22 C        5.9600     7.1050    -1.5600 C.3   1 <1>   0.1200 
 23 C        5.8750     8.2840    -0.6060 C.3   1 <1>  -0.1600 
 24 H       -1.8790     2.4990    -1.5530 H     1 <1>   0.0800 
 25 H        1.6720    -1.1360    -0.4860 H     1 <1>   0.1500 
 26 H        5.2370     2.1800     0.1450 H     1 <1>   0.1500 
 27 H        4.0270    -1.7930    -0.7740 H     1 <1>   0.1500 
 28 H        4.2120     4.0690    -0.7920 H     1 <1>   0.3700 
 29 H        5.8060    -0.1220    -0.4600 H     1 <1>   0.1500 
 30 H        2.8810     5.8330     1.1800 H     1 <1>   0.0800 
 31 H        2.7930     6.1880    -0.5210 H     1 <1>   0.0800 
 32 H        4.7920     8.3140     1.2720 H     1 <1>   0.0800 
 33 H        3.7930     8.2190    -0.1570 H     1 <1>   0.0800 
 34 H        5.7030     4.7780     1.4370 H     1 <1>   0.0800 
 35 H        5.0910     6.0860     2.4100 H     1 <1>   0.0800 
 36 H        6.5700     6.2970     1.5060 H     1 <1>   0.0800 
 37 H        5.3040     7.2430    -2.4030 H     1 <1>   0.0800 
 38 H        6.9640     6.9190    -1.8990 H     1 <1>   0.0800 
 39 H        6.7870     8.3480    -0.0380 H     1 <1>   0.0800 
 40 H        5.7100     9.2120    -1.1230 H     1 <1>   0.0800 
@<TRIPOS>BOND
  1   1   2  1   
  2   2   3  1   
  3   2   4  1   
  4   2   5  1   
  5   4   6  1   
  6   5   7  1   
  7   5   8  1   
  8   5  24  1   
  9   6   9  ar  
 10   6  10  ar  
 11   9  11  1   
 12   9  12  ar  
 13  10  13  ar  
 14  10  25  1   
 15  11  14  2   
 16  11  15  am  
 17  12  16  ar  
 18  12  26  1   
 19  13  16  ar  
 20  13  27  1   
 21  15  17  1   
 22  15  28  1   
 23  16  29  1   
 24  17  18  1   
 25  17  30  1   
 26  17  31  1   
 27  18  19  1   
 28  18  20  1   
 29  18  21  1   
 30  19  22  1   
 31  20  23  1   
 32  20  32  1   
 33  20  33  1   
 34  21  34  1   
 35  21  35  1   
 36  21  36  1   
 37  22  23  1   
 38  22  37  1   
 39  22  38  1   
 40  23  39  1   
 41  23  40  1   
@<TRIPOS>SUBSTRUCTURE
  1 ****  11 GROUP 4 **** **** 0

# MOE 2024.06 (io_trps.svl 2023.06)
