@<TRIPOS>MOLECULE
NONAME
50 53 1 0 0 
SMALL
USER_CHARGES


@<TRIPOS>ATOM
  1 S       -0.2500     0.0980    -0.1190 S.3   1 <1>  -0.0800 
  2 C        1.4300    -0.2870     0.1960 C.2   1 <1>  -0.0450 
  3 C        0.2450     1.5700    -0.9100 C.2   1 <1>   0.2280 
  4 C        2.1710     0.7240    -0.3120 C.2   1 <1>   0.0460 
  5 C        1.7720    -1.4910     0.9100 C.2   1 <1>   0.7150 
  6 N        1.5040     1.7570    -0.9380 N.2   1 <1>  -0.5650 
  7 C        3.6820     0.8320    -0.2630 C.3   1 <1>  -0.0590 
  8 O        2.4920    -1.4040     1.8890 O.2   1 <1>  -0.5700 
  9 N        1.3230    -2.7320     0.5110 N.am  1 <1>  -0.6600 
 10 C        1.6560    -3.9560     1.3170 C.3   1 <1>   0.2200 
 11 C        0.7350    -2.9540    -0.8500 C.3   1 <1>   0.1400 
 12 C        2.8520    -4.7540     0.7390 C.3   1 <1>   0.1200 
 13 C        0.4180    -4.8390     1.5980 C.3   1 <1>   0.1100 
 14 C        0.9610    -4.3650    -1.4380 C.3   1 <1>  -0.0800 
 15 O        3.2460    -4.3330    -0.5370 O.3   1 <1>  -0.5600 
 16 N       -0.5170    -5.0760     0.4690 N.3   1 <1>  -0.8100 
 17 C        2.4500    -4.7280    -1.6080 C.3   1 <1>   0.1200 
 18 C        0.1570    -5.5000    -0.7630 C.3   1 <1>   0.1100 
 19 C       -1.6130    -5.9820     0.8820 C.3   1 <1>   0.2900 
 20 C       -1.2030    -7.4540     0.9590 C.2   1 <1>   0.0070 
 21 N       -0.4840    -7.9760     1.8920 N.2   1 <1>  -0.5650 
 22 N       -1.5640    -8.3800     0.0560 N.pl3 1 <1>   0.3140 
 23 C       -0.4190    -9.2540     1.5030 C.2   1 <1>   0.3660 
 24 N       -1.0430    -9.5450     0.4120 N.2   1 <1>  -0.7070 
 25 C       -2.4150    -8.2580    -1.1500 C.3   1 <1>   0.0960 
 26 C       -3.9010    -8.3890    -0.7950 C.3   1 <1>  -0.2400 
 27 H       -0.5290     2.2010    -1.3100 H     1 <1>   0.1500 
 28 H        4.1140    -0.0250     0.2210 H     1 <1>   0.0800 
 29 H        3.9610     1.7140     0.2820 H     1 <1>   0.0800 
 30 H        4.0720     0.9000    -1.2610 H     1 <1>   0.0800 
 31 H        1.9790    -3.6450     2.2950 H     1 <1>   0.0800 
 32 H       -0.3230    -2.7670    -0.7970 H     1 <1>   0.0800 
 33 H        1.1620    -2.2400    -1.5320 H     1 <1>   0.0800 
 34 H        2.6510    -5.8100     0.7140 H     1 <1>   0.0800 
 35 H        3.6990    -4.6020     1.3840 H     1 <1>   0.0800 
 36 H       -0.1350    -4.3610     2.3880 H     1 <1>   0.0800 
 37 H        0.7650    -5.7780     1.9910 H     1 <1>   0.0800 
 38 H        0.5760    -4.3240    -2.4410 H     1 <1>   0.0800 
 39 H        2.8410    -4.2200    -2.4720 H     1 <1>   0.0800 
 40 H        2.5830    -5.7850    -1.7560 H     1 <1>   0.0800 
 41 H        0.7880    -6.3480    -0.5560 H     1 <1>   0.0800 
 42 H       -0.5920    -5.8210    -1.4650 H     1 <1>   0.0800 
 43 H       -1.9770    -5.6770     1.8480 H     1 <1>   0.0800 
 44 H       -2.4290    -5.8650     0.1930 H     1 <1>   0.0800 
 45 H        0.1280    -9.9800     2.0830 H     1 <1>   0.1500 
 46 H       -2.2260    -7.3130    -1.6220 H     1 <1>   0.0800 
 47 H       -2.1360    -9.0390    -1.8340 H     1 <1>   0.0800 
 48 H       -4.2050    -7.6110    -0.1180 H     1 <1>   0.0800 
 49 H       -4.0860    -9.3470    -0.3390 H     1 <1>   0.0800 
 50 H       -4.4970    -8.3180    -1.6870 H     1 <1>   0.0800 
@<TRIPOS>BOND
  1   1   2  1   
  2   1   3  1   
  3   2   4  2   
  4   2   5  1   
  5   3   6  2   
  6   3  27  1   
  7   4   6  1   
  8   4   7  1   
  9   5   8  2   
 10   5   9  am  
 11   7  28  1   
 12   7  29  1   
 13   7  30  1   
 14   9  10  1   
 15   9  11  1   
 16  10  12  1   
 17  10  13  1   
 18  10  31  1   
 19  11  14  1   
 20  11  32  1   
 21  11  33  1   
 22  12  15  1   
 23  12  34  1   
 24  12  35  1   
 25  13  16  1   
 26  13  36  1   
 27  13  37  1   
 28  14  17  1   
 29  14  18  1   
 30  14  38  1   
 31  15  17  1   
 32  16  18  1   
 33  16  19  1   
 34  17  39  1   
 35  17  40  1   
 36  18  41  1   
 37  18  42  1   
 38  19  20  1   
 39  19  43  1   
 40  19  44  1   
 41  20  21  2   
 42  20  22  1   
 43  21  23  1   
 44  22  24  1   
 45  22  25  1   
 46  23  24  2   
 47  23  45  1   
 48  25  26  1   
 49  25  46  1   
 50  25  47  1   
 51  26  48  1   
 52  26  49  1   
 53  26  50  1   
@<TRIPOS>SUBSTRUCTURE
  1 ****  16 GROUP 4 **** **** 0

# MOE 2024.06 (io_trps.svl 2023.06)
