@<TRIPOS>MOLECULE
NONAME
46 49 1 0 0 
SMALL
USER_CHARGES


@<TRIPOS>ATOM
  1 O        3.7620    -1.5930    -2.1060 O.2   1 <1>  -0.5700 
  2 C        2.9320    -1.5110    -1.2210 C.2   1 <1>   0.6160 
  3 N        2.8300    -0.2900    -0.6040 N.am  1 <1>  -0.6600 
  4 C        2.2540    -2.6930    -0.7270 C.2   1 <1>  -0.0140 
  5 C        3.3180    -0.2090     0.8170 C.3   1 <1>   0.2200 
  6 C        2.8370     0.9550    -1.4390 C.3   1 <1>   0.1400 
  7 C        0.8830    -2.6550    -0.2520 C.ar  1 <1>   0.0280 
  8 C        2.9250    -3.8800    -0.6660 C.2   1 <1>  -0.1360 
  9 C        2.7690     1.0070     1.5810 C.3   1 <1>   0.1200 
 10 C        4.8710    -0.2330     0.8530 C.3   1 <1>   0.3430 
 11 C        3.8640     2.0220    -1.0110 C.3   1 <1>  -0.0800 
 12 C        0.3560    -3.8040     0.3710 C.ar  1 <1>   0.1170 
 13 C        0.0280    -1.5530    -0.3860 C.ar  1 <1>  -0.1500 
 14 C        2.3730    -5.0450    -0.0790 C.2   1 <1>   0.6160 
 15 O        3.5910     2.1190     1.3870 O.3   1 <1>  -0.5600 
 16 N        5.4940     0.1090    -0.4780 N.4   1 <1>  -0.9590 
 17 C        3.3890     2.8250     0.2100 C.3   1 <1>   0.1200 
 18 C        5.3260     1.5440    -0.8690 C.3   1 <1>   0.3430 
 19 N        1.1290    -4.9530     0.4490 N.am  1 <1>  -0.5470 
 20 C       -0.9360    -3.8010     0.8890 C.ar  1 <1>  -0.1500 
 21 C       -1.2540    -1.5630     0.1220 C.ar  1 <1>  -0.1500 
 22 O        2.9720    -6.0990    -0.0010 O.2   1 <1>  -0.5700 
 23 C        6.9210    -0.3130    -0.5440 C.3   1 <1>   0.2630 
 24 C       -1.7370    -2.6880     0.7720 C.ar  1 <1>  -0.1500 
 25 H        2.9600    -1.0770     1.3430 H     1 <1>   0.0800 
 26 H        3.0240     0.6940    -2.4680 H     1 <1>   0.0800 
 27 H        1.8500     1.3860    -1.4110 H     1 <1>   0.0800 
 28 H        3.9230    -3.9920    -1.0470 H     1 <1>   0.1500 
 29 H        2.7880     0.7970     2.6360 H     1 <1>   0.0800 
 30 H        1.7540     1.2360     1.3020 H     1 <1>   0.0800 
 31 H        5.1760    -1.2270     1.1360 H     1 <1>   0.0800 
 32 H        5.2260     0.4410     1.6150 H     1 <1>   0.0800 
 33 H        3.8720     2.7430    -1.8090 H     1 <1>   0.0800 
 34 H        0.3520    -0.6710    -0.9030 H     1 <1>   0.1500 
 35 H        4.9540    -0.4440    -1.1810 H     1 <1>   0.4500 
 36 H        2.3470     3.0930     0.1350 H     1 <1>   0.0800 
 37 H        3.9590     3.7350     0.2930 H     1 <1>   0.0800 
 38 H        5.8280     2.1740    -0.1520 H     1 <1>   0.0800 
 39 H        5.8110     1.6890    -1.8210 H     1 <1>   0.0800 
 40 H        0.7640    -5.8130     0.8570 H     1 <1>   0.3700 
 41 H       -1.3130    -4.6810     1.3790 H     1 <1>   0.1500 
 42 H       -1.8910    -0.7010     0.0140 H     1 <1>   0.1500 
 43 H        7.5080     0.2340     0.1760 H     1 <1>   0.0800 
 44 H        7.3190    -0.1270    -1.5290 H     1 <1>   0.0800 
 45 H        7.0080    -1.3670    -0.3360 H     1 <1>   0.0800 
 46 H       -2.7370    -2.6890     1.1720 H     1 <1>   0.1500 
@<TRIPOS>BOND
  1   1   2  2   
  2   2   3  am  
  3   2   4  1   
  4   3   5  1   
  5   3   6  1   
  6   4   7  1   
  7   4   8  2   
  8   5   9  1   
  9   5  10  1   
 10   5  25  1   
 11   6  11  1   
 12   6  26  1   
 13   6  27  1   
 14   7  12  ar  
 15   7  13  ar  
 16   8  14  1   
 17   8  28  1   
 18   9  15  1   
 19   9  29  1   
 20   9  30  1   
 21  10  16  1   
 22  10  31  1   
 23  10  32  1   
 24  11  17  1   
 25  11  18  1   
 26  11  33  1   
 27  12  19  1   
 28  12  20  ar  
 29  13  21  ar  
 30  13  34  1   
 31  14  19  am  
 32  14  22  2   
 33  15  17  1   
 34  16  18  1   
 35  16  23  1   
 36  16  35  1   
 37  17  36  1   
 38  17  37  1   
 39  18  38  1   
 40  18  39  1   
 41  19  40  1   
 42  20  24  ar  
 43  20  41  1   
 44  21  24  ar  
 45  21  42  1   
 46  23  43  1   
 47  23  44  1   
 48  23  45  1   
 49  24  46  1   
@<TRIPOS>SUBSTRUCTURE
  1 ****   2 GROUP 4 **** **** 0

# MOE 2024.06 (io_trps.svl 2023.06)
