@<TRIPOS>MOLECULE
NONAME
52 54 1 0 0 
SMALL
USER_CHARGES


@<TRIPOS>ATOM
  1 CL       0.5570     0.1160     3.8710 Cl    1 <1>  -0.1770 
  2 C        1.7380    -0.7390     2.9130 C.ar  1 <1>   0.1770 
  3 C        1.9850    -0.3310     1.6180 C.ar  1 <1>  -0.1500 
  4 C        2.4130    -1.8100     3.4590 C.ar  1 <1>  -0.1500 
  5 C        2.9210    -1.0100     0.8570 C.ar  1 <1>  -0.1500 
  6 C        3.3490    -2.4820     2.6920 C.ar  1 <1>  -0.1500 
  7 C        3.6180    -2.1010     1.3800 C.ar  1 <1>  -0.1430 
  8 C        4.6740    -2.9090     0.5850 C.3   1 <1>   0.2040 
  9 C        4.3660    -4.4400     0.7010 C.2   1 <1>   0.5690 
 10 C        4.7480    -2.5000    -0.9160 C.3   1 <1>  -0.1600 
 11 C        6.0550    -2.5380     1.2010 C.3   1 <1>  -0.1600 
 12 O        5.0920    -5.1330     1.3820 O.2   1 <1>  -0.5700 
 13 N        3.3170    -5.0420     0.0420 N.am  1 <1>  -0.6600 
 14 C        5.9030    -3.1780    -1.6690 C.3   1 <1>  -0.1600 
 15 C        7.2710    -3.1250     0.4550 C.3   1 <1>  -0.1600 
 16 C        3.4810    -6.4430    -0.4680 C.3   1 <1>   0.3210 
 17 C        1.9770    -4.4010    -0.2000 C.3   1 <1>   0.1400 
 18 C        7.2440    -2.7890    -1.0390 C.3   1 <1>  -0.1600 
 19 C        2.4060    -7.3930     0.0430 C.2   1 <1>   0.0460 
 20 C        0.9230    -4.7410     0.8750 C.3   1 <1>   0.1200 
 21 N        1.3350    -7.6970    -0.7230 N.2   1 <1>  -0.5650 
 22 C        2.3410    -8.0290     1.2360 C.2   1 <1>  -0.3320 
 23 O        1.5210    -4.9590     2.1050 O.3   1 <1>  -0.6800 
 24 C        0.6460    -8.5020     0.0170 C.2   1 <1>   0.0360 
 25 N        1.2020    -8.7430     1.2220 N.pl3 1 <1>   0.0330 
 26 C        3.2870    -8.0100     2.4260 C.3   1 <1>  -0.0600 
 27 H        1.4480     0.5080     1.2150 H     1 <1>   0.1500 
 28 H        2.2050    -2.1200     4.4670 H     1 <1>   0.1500 
 29 H        3.0830    -0.6620    -0.1460 H     1 <1>   0.1500 
 30 H        3.8620    -3.3210     3.1320 H     1 <1>   0.1500 
 31 H        4.9080    -1.4400    -0.9890 H     1 <1>   0.0800 
 32 H        3.8270    -2.7250    -1.4190 H     1 <1>   0.0800 
 33 H        6.0940    -2.8620     2.2260 H     1 <1>   0.0800 
 34 H        6.1490    -1.4660     1.2070 H     1 <1>   0.0800 
 35 H        5.8920    -2.8690    -2.7000 H     1 <1>   0.0800 
 36 H        5.7870    -4.2480    -1.6460 H     1 <1>   0.0800 
 37 H        7.2910    -4.1940     0.5740 H     1 <1>   0.0800 
 38 H        8.1760    -2.7400     0.8920 H     1 <1>   0.0800 
 39 H        4.4430    -6.8330    -0.1860 H     1 <1>   0.0800 
 40 H        3.4450    -6.4290    -1.5430 H     1 <1>   0.0800 
 41 H        1.6020    -4.7080    -1.1620 H     1 <1>   0.0800 
 42 H        2.0730    -3.3350    -0.2330 H     1 <1>   0.0800 
 43 H        7.4060    -1.7320    -1.1680 H     1 <1>   0.0800 
 44 H        8.0440    -3.3070    -1.5400 H     1 <1>   0.0800 
 45 H        0.3900    -5.6340     0.6060 H     1 <1>   0.0800 
 46 H        0.2130    -3.9400     0.9800 H     1 <1>   0.0800 
 47 H        2.3150    -5.5160     1.9460 H     1 <1>   0.4000 
 48 H       -0.2870    -8.9480    -0.2800 H     1 <1>   0.1500 
 49 H        0.8300    -9.3390     1.9670 H     1 <1>   0.2700 
 50 H        4.1570    -7.4170     2.2110 H     1 <1>   0.0800 
 51 H        3.6100    -9.0090     2.6610 H     1 <1>   0.0800 
 52 H        2.7940    -7.5900     3.2840 H     1 <1>   0.0800 
@<TRIPOS>BOND
  1   1   2  1   
  2   2   3  ar  
  3   2   4  ar  
  4   3   5  ar  
  5   3  27  1   
  6   4   6  ar  
  7   4  28  1   
  8   5   7  ar  
  9   5  29  1   
 10   6   7  ar  
 11   6  30  1   
 12   7   8  1   
 13   8   9  1   
 14   8  10  1   
 15   8  11  1   
 16   9  12  2   
 17   9  13  am  
 18  10  14  1   
 19  10  31  1   
 20  10  32  1   
 21  11  15  1   
 22  11  33  1   
 23  11  34  1   
 24  13  16  1   
 25  13  17  1   
 26  14  18  1   
 27  14  35  1   
 28  14  36  1   
 29  15  18  1   
 30  15  37  1   
 31  15  38  1   
 32  16  19  1   
 33  16  39  1   
 34  16  40  1   
 35  17  20  1   
 36  17  41  1   
 37  17  42  1   
 38  18  43  1   
 39  18  44  1   
 40  19  21  1   
 41  19  22  2   
 42  20  23  1   
 43  20  45  1   
 44  20  46  1   
 45  21  24  2   
 46  22  25  1   
 47  22  26  1   
 48  23  47  1   
 49  24  25  1   
 50  24  48  1   
 51  25  49  1   
 52  26  50  1   
 53  26  51  1   
 54  26  52  1   
@<TRIPOS>SUBSTRUCTURE
  1 ****   9 GROUP 4 **** **** 0

# MOE 2024.06 (io_trps.svl 2023.06)
