@<TRIPOS>MOLECULE
NONAME
49 52 1 0 0 
SMALL
USER_CHARGES


@<TRIPOS>ATOM
  1 N       -0.2840    -1.1050     0.8600 N.ar  1 <1>  -0.1790 
  2 C        0.4260    -0.2800     0.0080 C.ar  1 <1>   0.3610 
  3 C        0.0490    -2.3560     1.1710 C.ar  1 <1>   0.4610 
  4 C        1.5480    -0.8290    -0.6440 C.ar  1 <1>   0.0000 
  5 C        0.0440     1.0600    -0.2070 C.ar  1 <1>  -0.1440 
  6 N       -0.7000    -3.0540     2.0360 N.3   1 <1>  -0.5900 
  7 C        1.1750    -2.9100     0.5220 C.ar  1 <1>  -0.1500 
  8 C        1.9110    -2.1860    -0.3650 C.ar  1 <1>  -0.1430 
  9 C        2.2500    -0.0060    -1.5350 C.ar  1 <1>  -0.1500 
 10 C        0.7740     1.8410    -1.0840 C.ar  1 <1>  -0.1430 
 11 C       -1.1500     1.6740     0.5360 C.3   1 <1>  -0.0970 
 12 C       -1.8200    -2.6630     2.9670 C.3   1 <1>   0.2450 
 13 C       -1.4350    -4.3370     1.7610 C.3   1 <1>   0.2450 
 14 C        3.1180    -2.8190    -1.0480 C.3   1 <1>  -0.0970 
 15 C        1.8690     1.2930    -1.7480 C.ar  1 <1>  -0.1500 
 16 C        0.4440     3.3040    -1.3640 C.3   1 <1>  -0.0970 
 17 C       -2.7360    -3.5710     2.1180 C.3   1 <1>   0.0850 
 18 N       -3.3260    -2.8780     0.9410 N.pl3 1 <1>   0.4850 
 19 N       -3.0500    -1.5850     0.6010 N.2   1 <1>  -0.7070 
 20 C       -4.1800    -3.4360     0.0520 C.2   1 <1>  -0.3320 
 21 C       -3.7410    -1.3740    -0.4780 C.2   1 <1>   0.1080 
 22 C       -4.4630    -2.4920    -0.8690 C.2   1 <1>  -0.1500 
 23 C       -4.7060    -4.8630     0.1120 C.3   1 <1>  -0.0600 
 24 C       -3.7550    -0.0550    -1.2190 C.3   1 <1>  -0.0590 
 25 H       -1.2410    -0.8290     1.1090 H     1 <1>   0.4570 
 26 H        1.4230    -3.9290     0.7630 H     1 <1>   0.1500 
 27 H        3.1050    -0.3860    -2.0650 H     1 <1>   0.1500 
 28 H       -1.8500     0.9450     0.8940 H     1 <1>   0.0800 
 29 H       -1.7000     2.3350    -0.1100 H     1 <1>   0.0800 
 30 H       -0.7970     2.2450     1.3770 H     1 <1>   0.0800 
 31 H       -2.0500    -1.6130     2.9450 H     1 <1>   0.0000 
 32 H       -1.6420    -3.0410     3.9590 H     1 <1>   0.0000 
 33 H       -1.1670    -5.0990     2.4710 H     1 <1>   0.0000 
 34 H       -1.3680    -4.6450     0.7320 H     1 <1>   0.0000 
 35 H        4.0120    -2.2700    -0.8090 H     1 <1>   0.0800 
 36 H        2.9830    -2.8200    -2.1160 H     1 <1>   0.0800 
 37 H        3.2560    -3.8370    -0.7290 H     1 <1>   0.0800 
 38 H        2.4310     1.9000    -2.4390 H     1 <1>   0.1500 
 39 H        0.2820     3.8410    -0.4470 H     1 <1>   0.0800 
 40 H       -0.4390     3.3740    -1.9740 H     1 <1>   0.0800 
 41 H        1.2500     3.7900    -1.8860 H     1 <1>   0.0800 
 42 H       -3.4580    -4.1360     2.6790 H     1 <1>   0.0000 
 43 H       -5.1080    -2.5630    -1.7280 H     1 <1>   0.1500 
 44 H       -3.8960    -5.5680     0.0520 H     1 <1>   0.0800 
 45 H       -5.3740    -5.0450    -0.7110 H     1 <1>   0.0800 
 46 H       -5.2470    -5.0250     1.0280 H     1 <1>   0.0800 
 47 H       -4.0440     0.7350    -0.5510 H     1 <1>   0.0800 
 48 H       -4.4580    -0.0930    -2.0310 H     1 <1>   0.0800 
 49 H       -2.7790     0.1520    -1.6170 H     1 <1>   0.0800 
@<TRIPOS>BOND
  1   1   2  ar  
  2   1   3  ar  
  3   1  25  1   
  4   2   4  ar  
  5   2   5  ar  
  6   3   6  1   
  7   3   7  ar  
  8   4   8  ar  
  9   4   9  ar  
 10   5  10  ar  
 11   5  11  1   
 12   6  12  1   
 13   6  13  1   
 14   7   8  ar  
 15   7  26  1   
 16   8  14  1   
 17   9  15  ar  
 18   9  27  1   
 19  10  15  ar  
 20  10  16  1   
 21  11  28  1   
 22  11  29  1   
 23  11  30  1   
 24  12  17  1   
 25  12  31  1   
 26  12  32  1   
 27  13  17  1   
 28  13  33  1   
 29  13  34  1   
 30  14  35  1   
 31  14  36  1   
 32  14  37  1   
 33  15  38  1   
 34  16  39  1   
 35  16  40  1   
 36  16  41  1   
 37  17  18  1   
 38  17  42  1   
 39  18  19  1   
 40  18  20  1   
 41  19  21  2   
 42  20  22  2   
 43  20  23  1   
 44  21  22  1   
 45  21  24  1   
 46  22  43  1   
 47  23  44  1   
 48  23  45  1   
 49  23  46  1   
 50  24  47  1   
 51  24  48  1   
 52  24  49  1   
@<TRIPOS>SUBSTRUCTURE
  1 ****   1 GROUP 4 **** **** 0

# MOE 2024.06 (io_trps.svl 2023.06)
