@<TRIPOS>MOLECULE
NONAME
42 43 1 0 0 
SMALL
USER_CHARGES


@<TRIPOS>ATOM
  1 O        0.2990     0.2210     0.0220 O.2   1 <1>  -0.5700 
  2 C        1.1670    -0.3520    -0.6000 C.2   1 <1>   0.5690 
  3 N        2.2940     0.2850    -1.0470 N.am  1 <1>  -0.4930 
  4 C        0.9360    -1.8640    -0.8730 C.3   1 <1>   0.4840 
  5 C        2.6560     1.6450    -0.8750 C.2   1 <1>   0.0630 
  6 N       -0.0870    -2.4430     0.0760 N.4   1 <1>  -0.9590 
  7 C        2.2280    -2.6960    -0.8380 C.3   1 <1>  -0.2400 
  8 C        1.9430     2.6960    -0.2920 C.2   1 <1>   0.1390 
  9 C        3.8210     2.2030    -1.2640 C.2   1 <1>  -0.3020 
 10 C        0.3450    -2.6180     1.4840 C.3   1 <1>   0.3430 
 11 C       -0.7420    -3.7050    -0.3430 C.3   1 <1>   0.3430 
 12 N        2.6080     3.8120    -0.3110 N.2   1 <1>  -0.7070 
 13 N        3.7740     3.5090    -0.9170 N.pl3 1 <1>   0.3140 
 14 C       -0.7640    -3.4600     2.0940 C.3   1 <1>  -0.1600 
 15 C       -1.3670    -4.2580     0.9340 C.3   1 <1>  -0.1600 
 16 C        4.8230     4.5180    -1.1210 C.3   1 <1>   0.1570 
 17 C        5.6130     4.7070     0.1540 C.2   1 <1>   0.5690 
 18 O        6.8170     4.7350     0.0820 O.2   1 <1>  -0.5700 
 19 N        4.9530     4.8480     1.3370 N.am  1 <1>  -0.7300 
 20 C        5.5780     5.0500     2.6660 C.3   1 <1>   0.0600 
 21 H        2.9950    -0.2540    -1.5560 H     1 <1>   0.3700 
 22 H        0.5300    -1.9280    -1.8680 H     1 <1>   0.0800 
 23 H       -0.8180    -1.7110     0.1310 H     1 <1>   0.4500 
 24 H        2.7630    -2.5450     0.0830 H     1 <1>   0.0800 
 25 H        2.8740    -2.3990    -1.6450 H     1 <1>   0.0800 
 26 H        2.0210    -3.7430    -0.9640 H     1 <1>   0.0800 
 27 H        0.9560     2.6060     0.1290 H     1 <1>   0.1500 
 28 H        4.6690     1.7630    -1.7530 H     1 <1>   0.1500 
 29 H        0.4560    -1.6710     1.9900 H     1 <1>   0.0800 
 30 H        1.2730    -3.1650     1.5260 H     1 <1>   0.0800 
 31 H       -0.0060    -4.4010    -0.7110 H     1 <1>   0.0800 
 32 H       -1.4860    -3.5320    -1.1050 H     1 <1>   0.0800 
 33 H       -1.5060    -2.8090     2.5250 H     1 <1>   0.0800 
 34 H       -0.3790    -4.0990     2.8700 H     1 <1>   0.0800 
 35 H       -1.1440    -5.3070     1.0230 H     1 <1>   0.0800 
 36 H       -2.4370    -4.1410     0.9070 H     1 <1>   0.0800 
 37 H        4.3630     5.4470    -1.3960 H     1 <1>   0.0800 
 38 H        5.4760     4.1980    -1.9090 H     1 <1>   0.0800 
 39 H        3.9280     4.7280     1.3230 H     1 <1>   0.3700 
 40 H        6.6470     5.1360     2.5680 H     1 <1>   0.0800 
 41 H        5.3530     4.2130     3.3040 H     1 <1>   0.0800 
 42 H        5.1950     5.9500     3.1140 H     1 <1>   0.0800 
@<TRIPOS>BOND
  1   1   2  2   
  2   2   3  am  
  3   2   4  1   
  4   3   5  1   
  5   3  21  1   
  6   4   6  1   
  7   4   7  1   
  8   4  22  1   
  9   5   8  1   
 10   5   9  2   
 11   6  10  1   
 12   6  11  1   
 13   6  23  1   
 14   7  24  1   
 15   7  25  1   
 16   7  26  1   
 17   8  12  2   
 18   8  27  1   
 19   9  13  1   
 20   9  28  1   
 21  10  14  1   
 22  10  29  1   
 23  10  30  1   
 24  11  15  1   
 25  11  31  1   
 26  11  32  1   
 27  12  13  1   
 28  13  16  1   
 29  14  15  1   
 30  14  33  1   
 31  14  34  1   
 32  15  35  1   
 33  15  36  1   
 34  16  17  1   
 35  16  37  1   
 36  16  38  1   
 37  17  18  2   
 38  17  19  am  
 39  19  20  1   
 40  19  39  1   
 41  20  40  1   
 42  20  41  1   
 43  20  42  1   
@<TRIPOS>SUBSTRUCTURE
  1 ****   3 GROUP 4 **** **** 0

# MOE 2024.06 (io_trps.svl 2023.06)
