@<TRIPOS>MOLECULE
NONAME
55 57 1 0 0 
SMALL
USER_CHARGES


@<TRIPOS>ATOM
  1 O       -0.4500     1.8640     2.9190 O.2   1 <1>  -0.5700 
  2 C       -0.3620     2.9520     2.4090 C.2   1 <1>   0.5690 
  3 N       -1.4210     3.4960     1.7680 N.am  1 <1>  -0.7300 
  4 C        0.9650     3.7190     2.4570 C.3   1 <1>   0.1810 
  5 C       -1.4030     4.8610     1.1900 C.3   1 <1>   0.3640 
  6 O        0.8250     5.0930     2.1600 O.3   1 <1>  -0.5600 
  7 C       -2.1300     4.8570    -0.1480 C.ar  1 <1>  -0.1440 
  8 C        0.0460     5.3740     1.0100 C.3   1 <1>   0.2610 
  9 C       -1.9270     3.8450    -1.0770 C.ar  1 <1>   0.1600 
 10 C       -2.9930     5.8860    -0.4700 C.ar  1 <1>  -0.1500 
 11 C        0.0420     6.8790     0.6840 C.2   1 <1>   0.5690 
 12 N       -2.4940     3.7850    -2.2710 N.ar  1 <1>  -0.6200 
 13 C       -3.6000     5.8340    -1.7070 C.ar  1 <1>  -0.1500 
 14 O       -0.7190     7.5840     1.3110 O.2   1 <1>  -0.5700 
 15 N        0.8450     7.4110    -0.3000 N.am  1 <1>  -0.6600 
 16 C       -3.3200     4.7780    -2.5560 C.ar  1 <1>   0.1600 
 17 C        0.8720     8.8870    -0.5340 C.3   1 <1>   0.2840 
 18 C        1.7220     6.6190    -1.2100 C.3   1 <1>   0.1400 
 19 C        2.2320     9.4560    -0.1650 C.ar  1 <1>  -0.1430 
 20 C        3.0180     6.2040    -0.5040 C.3   1 <1>  -0.1600 
 21 C        2.6310     9.4780     1.1620 C.ar  1 <1>  -0.1500 
 22 C        3.0890     9.9480    -1.1380 C.ar  1 <1>  -0.1500 
 23 C        3.8710     5.3000    -1.4000 C.3   1 <1>  -0.2400 
 24 C        3.8700     9.9830     1.5130 C.ar  1 <1>  -0.1500 
 25 C        4.3290    10.4520    -0.7860 C.ar  1 <1>  -0.1500 
 26 C        4.7280    10.4710     0.5410 C.ar  1 <1>  -0.1430 
 27 C        6.0910    11.0230     0.9260 C.3   1 <1>  -0.0170 
 28 C        6.0050    12.5270     1.1960 C.3   1 <1>  -0.2400 
 29 H       -2.3160     3.0030     1.7950 H     1 <1>   0.3700 
 30 H        1.6510     3.2890     1.7510 H     1 <1>   0.0800 
 31 H        1.3870     3.6390     3.4420 H     1 <1>   0.0800 
 32 H       -1.9220     5.5130     1.8730 H     1 <1>   0.0800 
 33 H        0.4860     4.8360     0.1950 H     1 <1>   0.0800 
 34 H       -1.2590     3.0360    -0.8320 H     1 <1>   0.1500 
 35 H       -3.1850     6.7030     0.2080 H     1 <1>   0.1500 
 36 H       -4.2840     6.6060    -2.0120 H     1 <1>   0.1500 
 37 H       -3.8000     4.7490    -3.5200 H     1 <1>   0.1500 
 38 H        0.6540     9.0850    -1.5690 H     1 <1>   0.0800 
 39 H        0.1200     9.3850     0.0520 H     1 <1>   0.0800 
 40 H        1.1910     5.7510    -1.5600 H     1 <1>   0.0800 
 41 H        1.9670     7.2090    -2.0770 H     1 <1>   0.0800 
 42 H        3.5880     7.0810    -0.2540 H     1 <1>   0.0800 
 43 H        2.7970     5.6820     0.4090 H     1 <1>   0.0800 
 44 H        1.9730     9.0960     1.9250 H     1 <1>   0.1500 
 45 H        2.7980     9.9410    -2.1730 H     1 <1>   0.1500 
 46 H        4.1360     5.8140    -2.3080 H     1 <1>   0.0800 
 47 H        3.3380     4.4000    -1.6520 H     1 <1>   0.0800 
 48 H        4.7770     5.0290    -0.8880 H     1 <1>   0.0800 
 49 H        4.1630     9.9930     2.5480 H     1 <1>   0.1500 
 50 H        4.9840    10.8320    -1.5500 H     1 <1>   0.1500 
 51 H        6.4510    10.5180     1.8060 H     1 <1>   0.0800 
 52 H        6.7940    10.8370     0.1330 H     1 <1>   0.0800 
 53 H        5.3140    12.7190     1.9980 H     1 <1>   0.0800 
 54 H        5.6620    13.0420     0.3160 H     1 <1>   0.0800 
 55 H        6.9710    12.9110     1.4700 H     1 <1>   0.0800 
@<TRIPOS>BOND
  1   1   2  2   
  2   2   3  am  
  3   2   4  1   
  4   3   5  1   
  5   3  29  1   
  6   4   6  1   
  7   4  30  1   
  8   4  31  1   
  9   5   7  1   
 10   5   8  1   
 11   5  32  1   
 12   6   8  1   
 13   7   9  ar  
 14   7  10  ar  
 15   8  11  1   
 16   8  33  1   
 17   9  12  ar  
 18   9  34  1   
 19  10  13  ar  
 20  10  35  1   
 21  11  14  2   
 22  11  15  am  
 23  12  16  ar  
 24  13  16  ar  
 25  13  36  1   
 26  15  17  1   
 27  15  18  1   
 28  16  37  1   
 29  17  19  1   
 30  17  38  1   
 31  17  39  1   
 32  18  20  1   
 33  18  40  1   
 34  18  41  1   
 35  19  21  ar  
 36  19  22  ar  
 37  20  23  1   
 38  20  42  1   
 39  20  43  1   
 40  21  24  ar  
 41  21  44  1   
 42  22  25  ar  
 43  22  45  1   
 44  23  46  1   
 45  23  47  1   
 46  23  48  1   
 47  24  26  ar  
 48  24  49  1   
 49  25  26  ar  
 50  25  50  1   
 51  26  27  1   
 52  27  28  1   
 53  27  51  1   
 54  27  52  1   
 55  28  53  1   
 56  28  54  1   
 57  28  55  1   
@<TRIPOS>SUBSTRUCTURE
  1 ****  15 GROUP 4 **** **** 0

# MOE 2024.06 (io_trps.svl 2023.06)
