@<TRIPOS>MOLECULE
NONAME
45 47 1 0 0 
SMALL
USER_CHARGES


@<TRIPOS>ATOM
  1 CL      -0.5070     1.5770     1.8130 Cl    1 <1>  -0.1230 
  2 C       -0.7700     2.2790     0.2240 C.2   1 <1>   0.1230 
  3 C       -1.9270     2.1560    -0.5530 C.2   1 <1>   0.2030 
  4 C        0.1020     3.0470    -0.4530 C.2   1 <1>  -0.3320 
  5 N       -1.7610     2.8450    -1.6770 N.2   1 <1>  -0.7070 
  6 C       -3.0880     1.3760    -0.1380 C.2   1 <1>   0.7160 
  7 N       -0.5260     3.3710    -1.6010 N.pl3 1 <1>   0.3000 
  8 C        1.5040     3.5050    -0.0840 C.3   1 <1>  -0.0600 
  9 O       -2.9190     0.2590     0.3260 O.2   1 <1>  -0.5700 
 10 N       -4.3890     1.8530    -0.2300 N.am  1 <1>  -0.6600 
 11 C       -5.5280     1.1340     0.4160 C.3   1 <1>   0.1400 
 12 C       -4.7070     3.1730    -0.8510 C.3   1 <1>   0.1400 
 13 C       -6.3870     2.1310     1.1960 C.3   1 <1>  -0.1600 
 14 C       -6.2140     3.3580    -1.0350 C.3   1 <1>  -0.1600 
 15 C       -6.9810     3.2470     0.3010 C.3   1 <1>   0.2800 
 16 O       -6.7180     4.4610     0.9750 O.3   1 <1>  -0.5600 
 17 C       -8.5140     3.0270     0.0970 C.3   1 <1>   0.2000 
 18 C       -7.7760     5.3110     1.3170 C.3   1 <1>   0.1200 
 19 O       -8.7930     1.8820    -0.6590 O.3   1 <1>  -0.6800 
 20 C       -9.2630     4.2790    -0.4530 C.3   1 <1>   0.2800 
 21 C       -8.6290     5.5770     0.0750 C.3   1 <1>  -0.1600 
 22 O      -10.5530     4.2170     0.0440 O.3   1 <1>  -0.6800 
 23 C       -9.4290     4.3380    -1.9790 C.3   1 <1>  -0.2400 
 24 H       -0.1330     3.9520    -2.3530 H     1 <1>   0.2700 
 25 H        1.7810     3.1160     0.8800 H     1 <1>   0.0800 
 26 H        1.5470     4.5790    -0.0430 H     1 <1>   0.0800 
 27 H        2.2150     3.1510    -0.8100 H     1 <1>   0.0800 
 28 H       -6.1190     0.6490    -0.3430 H     1 <1>   0.0800 
 29 H       -5.1660     0.3760     1.0910 H     1 <1>   0.0800 
 30 H       -4.3190     3.9590    -0.2240 H     1 <1>   0.0800 
 31 H       -4.2360     3.2400    -1.8160 H     1 <1>   0.0800 
 32 H       -5.7710     2.5620     1.9650 H     1 <1>   0.0800 
 33 H       -7.1710     1.5840     1.6840 H     1 <1>   0.0800 
 34 H       -6.5570     2.6100    -1.7270 H     1 <1>   0.0800 
 35 H       -6.3930     4.3160    -1.4830 H     1 <1>   0.0800 
 36 H       -8.9180     2.8290     1.0740 H     1 <1>   0.0800 
 37 H       -8.3510     4.8530     2.1050 H     1 <1>   0.0800 
 38 H       -7.3480     6.2270     1.6870 H     1 <1>   0.0800 
 39 H       -9.7640     1.7950    -0.7320 H     1 <1>   0.4000 
 40 H       -7.9800     6.0030    -0.6690 H     1 <1>   0.0800 
 41 H       -9.3820     6.3110     0.2980 H     1 <1>   0.0800 
 42 H      -11.0860     4.9400    -0.3370 H     1 <1>   0.4000 
 43 H       -8.4710     4.3190    -2.4620 H     1 <1>   0.0800 
 44 H       -9.9290     5.2420    -2.2730 H     1 <1>   0.0800 
 45 H       -9.9920     3.4950    -2.3370 H     1 <1>   0.0800 
@<TRIPOS>BOND
  1   1   2  1   
  2   2   3  1   
  3   2   4  2   
  4   3   5  2   
  5   3   6  1   
  6   4   7  1   
  7   4   8  1   
  8   5   7  1   
  9   6   9  2   
 10   6  10  am  
 11   7  24  1   
 12   8  25  1   
 13   8  26  1   
 14   8  27  1   
 15  10  11  1   
 16  10  12  1   
 17  11  13  1   
 18  11  28  1   
 19  11  29  1   
 20  12  14  1   
 21  12  30  1   
 22  12  31  1   
 23  13  15  1   
 24  13  32  1   
 25  13  33  1   
 26  14  15  1   
 27  14  34  1   
 28  14  35  1   
 29  15  16  1   
 30  15  17  1   
 31  16  18  1   
 32  17  19  1   
 33  17  20  1   
 34  17  36  1   
 35  18  21  1   
 36  18  37  1   
 37  18  38  1   
 38  19  39  1   
 39  20  21  1   
 40  20  22  1   
 41  20  23  1   
 42  21  40  1   
 43  21  41  1   
 44  22  42  1   
 45  23  43  1   
 46  23  44  1   
 47  23  45  1   
@<TRIPOS>SUBSTRUCTURE
  1 ****  12 GROUP 4 **** **** 0

# MOE 2024.06 (io_trps.svl 2023.06)
