@<TRIPOS>MOLECULE
NONAME
28 28 1 0 0 
SMALL
USER_CHARGES


@<TRIPOS>ATOM
  1 O        0.3360     0.1970     0.7380 O.3   1 <1>  -0.3630 
  2 C        1.4570     0.8940     0.4020 C.ar  1 <1>   0.0830 
  3 C       -0.6260     0.0950    -0.2840 C.3   1 <1>   0.0400 
  4 C        2.4950     0.2690    -0.2760 C.ar  1 <1>   0.0830 
  5 C        1.5760     2.2380     0.7520 C.ar  1 <1>   0.0820 
  6 O        2.3830    -1.0360    -0.6500 O.3   1 <1>  -0.3630 
  7 C        3.6460     0.9900    -0.5870 C.ar  1 <1>   0.0830 
  8 O        0.5630     2.8310     1.4260 O.3   1 <1>  -0.5320 
  9 C        2.7190     2.9710     0.4280 C.ar  1 <1>  -0.1430 
 10 C        2.7080    -1.9690     0.3520 C.3   1 <1>   0.0400 
 11 O        4.6440     0.3720    -1.2610 O.3   1 <1>  -0.5320 
 12 C        3.7790     2.3320    -0.2230 C.ar  1 <1>  -0.1430 
 13 C        2.7990     4.4600     0.7820 C.3   1 <1>  -0.0970 
 14 C        5.0780     3.0830    -0.5340 C.3   1 <1>  -0.0970 
 15 H       -1.4620    -0.4620     0.0950 H     1 <1>   0.0800 
 16 H       -0.1890    -0.4160    -1.1240 H     1 <1>   0.0800 
 17 H       -0.9360     1.0860    -0.5650 H     1 <1>   0.0800 
 18 H        0.8060     3.7170     1.7380 H     1 <1>   0.4500 
 19 H        2.5950    -2.9560    -0.0570 H     1 <1>   0.0800 
 20 H        2.0410    -1.8330     1.1850 H     1 <1>   0.0800 
 21 H        3.7280    -1.8070     0.6550 H     1 <1>   0.0800 
 22 H        5.3300     0.9970    -1.5430 H     1 <1>   0.4500 
 23 H        1.8270     4.9160     0.8180 H     1 <1>   0.0800 
 24 H        3.3530     5.0040     0.0400 H     1 <1>   0.0800 
 25 H        3.2790     4.5840     1.7360 H     1 <1>   0.0800 
 26 H        5.9240     2.4220    -0.5740 H     1 <1>   0.0800 
 27 H        5.3010     3.8020     0.2330 H     1 <1>   0.0800 
 28 H        4.9880     3.5940    -1.4760 H     1 <1>   0.0800 
@<TRIPOS>BOND
  1   1   2  1   
  2   1   3  1   
  3   2   4  ar  
  4   2   5  ar  
  5   3  15  1   
  6   3  16  1   
  7   3  17  1   
  8   4   6  1   
  9   4   7  ar  
 10   5   8  1   
 11   5   9  ar  
 12   6  10  1   
 13   7  11  1   
 14   7  12  ar  
 15   8  18  1   
 16   9  12  ar  
 17   9  13  1   
 18  10  19  1   
 19  10  20  1   
 20  10  21  1   
 21  11  22  1   
 22  12  14  1   
 23  13  23  1   
 24  13  24  1   
 25  13  25  1   
 26  14  26  1   
 27  14  27  1   
 28  14  28  1   
@<TRIPOS>SUBSTRUCTURE
  1 ****   4 GROUP 4 **** **** 0

# MOE 2024.06 (io_trps.svl 2023.06)
