@<TRIPOS>MOLECULE
NONAME
43 45 1 0 0 
SMALL
USER_CHARGES


@<TRIPOS>ATOM
  1 F       -0.0140    -0.4980    -0.3560 F     1 <1>  -0.1900 
  2 C       -0.6390    -1.6140    -0.0780 C.ar  1 <1>   0.1900 
  3 C        0.0400    -2.7580     0.3570 C.ar  1 <1>   0.0830 
  4 C       -2.0110    -1.6040    -0.2340 C.ar  1 <1>  -0.1500 
  5 O        1.3850    -2.8910     0.5480 O.3   1 <1>  -0.3630 
  6 C       -0.7140    -3.8880     0.6280 C.ar  1 <1>  -0.1500 
  7 C       -2.7330    -2.7500     0.0470 C.ar  1 <1>  -0.1500 
  8 C        2.3070    -1.8630     0.2620 C.3   1 <1>   0.0400 
  9 C       -2.1040    -3.9190     0.4810 C.ar  1 <1>   0.0530 
 10 C       -2.8500    -5.1210     0.7760 C.2   1 <1>   0.0870 
 11 O       -2.3520    -6.0300     1.5820 O.3   1 <1>  -0.0190 
 12 C       -4.0630    -5.5800     0.3780 C.2   1 <1>  -0.2330 
 13 N       -3.1500    -7.0520     1.7510 N.2   1 <1>  -0.4100 
 14 C       -4.1910    -6.8020     1.0370 C.2   1 <1>   0.3720 
 15 C       -5.0220    -5.0070    -0.5050 C.2   1 <1>   1.0330 
 16 N       -5.2760    -7.6800     0.9710 N.pl3 1 <1>  -0.8210 
 17 O       -5.8590    -4.1930    -0.0780 O.co2 1 <1>  -0.9000 
 18 O       -5.0360    -5.3050    -1.7110 O.co2 1 <1>  -0.9000 
 19 C       -5.4310    -8.3140    -0.3620 C.3   1 <1>   0.2090 
 20 C       -6.5500    -7.0860     1.4500 C.3   1 <1>   0.2090 
 21 C       -6.4540    -9.4480    -0.2650 C.3   1 <1>  -0.1600 
 22 C       -7.5930    -8.1960     1.5990 C.3   1 <1>  -0.1600 
 23 C       -7.8090    -8.9370     0.2670 C.3   1 <1>  -0.0800 
 24 C       -8.8280   -10.0710     0.4500 C.3   1 <1>   0.1200 
 25 O       -9.0810   -10.6770    -0.7700 O.3   1 <1>  -0.6800 
 26 H       -2.5120    -0.7150    -0.5700 H     1 <1>   0.1500 
 27 H       -0.2040    -4.7740     0.9590 H     1 <1>   0.1500 
 28 H       -3.8030    -2.7310    -0.0700 H     1 <1>   0.1500 
 29 H        3.2950    -2.2330     0.4670 H     1 <1>   0.0800 
 30 H        2.0970    -1.0180     0.8930 H     1 <1>   0.0800 
 31 H        2.2250    -1.5990    -0.7780 H     1 <1>   0.0800 
 32 H       -4.4800    -8.6990    -0.6870 H     1 <1>   0.0800 
 33 H       -5.7650    -7.5850    -1.0810 H     1 <1>   0.0800 
 34 H       -6.9050    -6.3510     0.7470 H     1 <1>   0.0800 
 35 H       -6.3840    -6.5990     2.3960 H     1 <1>   0.0800 
 36 H       -6.0630   -10.2070     0.3890 H     1 <1>   0.0800 
 37 H       -6.5790    -9.8830    -1.2400 H     1 <1>   0.0800 
 38 H       -8.5170    -7.7590     1.9310 H     1 <1>   0.0800 
 39 H       -7.2530    -8.8810     2.3560 H     1 <1>   0.0800 
 40 H       -8.2090    -8.2270    -0.4370 H     1 <1>   0.0800 
 41 H       -9.7590    -9.6890     0.8310 H     1 <1>   0.0800 
 42 H       -8.4510   -10.8230     1.1230 H     1 <1>   0.0800 
 43 H       -9.2860   -10.0010    -1.4430 H     1 <1>   0.4000 
@<TRIPOS>BOND
  1   1   2  1   
  2   2   3  ar  
  3   2   4  ar  
  4   3   5  1   
  5   3   6  ar  
  6   4   7  ar  
  7   4  26  1   
  8   5   8  1   
  9   6   9  ar  
 10   6  27  1   
 11   7   9  ar  
 12   7  28  1   
 13   8  29  1   
 14   8  30  1   
 15   8  31  1   
 16   9  10  1   
 17  10  11  1   
 18  10  12  2   
 19  11  13  1   
 20  12  14  1   
 21  12  15  1   
 22  13  14  2   
 23  14  16  1   
 24  15  17  ar  
 25  15  18  ar  
 26  16  19  1   
 27  16  20  1   
 28  19  21  1   
 29  19  32  1   
 30  19  33  1   
 31  20  22  1   
 32  20  34  1   
 33  20  35  1   
 34  21  23  1   
 35  21  36  1   
 36  21  37  1   
 37  22  23  1   
 38  22  38  1   
 39  22  39  1   
 40  23  24  1   
 41  23  40  1   
 42  24  25  1   
 43  24  41  1   
 44  24  42  1   
 45  25  43  1   
@<TRIPOS>SUBSTRUCTURE
  1 ****  12 GROUP 4 **** **** 0

# MOE 2024.06 (io_trps.svl 2023.06)
