@<TRIPOS>MOLECULE
NONAME
41 42 1 0 0 
SMALL
USER_CHARGES


@<TRIPOS>ATOM
  1 F        1.3810    -1.2690     1.6240 F     1 <1>  -0.1900 
  2 C        0.8760    -2.2740     0.9650 C.ar  1 <1>   0.1900 
  3 C       -0.4090    -2.1700     0.4680 C.ar  1 <1>  -0.1500 
  4 C        1.6430    -3.4080     0.7830 C.ar  1 <1>  -0.1500 
  5 C       -0.9380    -3.2420    -0.2290 C.ar  1 <1>  -0.1500 
  6 C        1.0980    -4.4710     0.0830 C.ar  1 <1>  -0.1500 
  7 C       -0.2000    -4.4130    -0.4300 C.ar  1 <1>   0.0860 
  8 C       -0.7560    -5.5330    -1.1620 C.2   1 <1>   0.5440 
  9 O       -0.2560    -5.8410    -2.2270 O.2   1 <1>  -0.5700 
 10 N       -1.8300    -6.2550    -0.6890 N.am  1 <1>  -0.6600 
 11 C       -2.4710    -7.3150    -1.5470 C.3   1 <1>   0.1400 
 12 C       -2.4020    -6.0960     0.6890 C.3   1 <1>   0.1400 
 13 C       -3.3290    -8.2730    -0.7080 C.3   1 <1>   0.2000 
 14 C       -3.9270    -6.1690     0.6050 C.3   1 <1>  -0.1600 
 15 O       -3.8860    -9.2710    -1.4900 O.3   1 <1>  -0.6800 
 16 C       -4.4270    -7.5760     0.1400 C.3   1 <1>  -0.1060 
 17 C       -4.5970    -8.5420     1.3270 C.2   1 <1>   0.9060 
 18 C       -5.8150    -7.4010    -0.5620 C.3   1 <1>  -0.1600 
 19 O       -4.2660    -8.1980     2.4680 O.co2 1 <1>  -0.9000 
 20 O       -5.0070    -9.6880     1.0880 O.co2 1 <1>  -0.9000 
 21 C       -5.8240    -6.7060    -1.9380 C.3   1 <1>  -0.1600 
 22 C       -7.2570    -6.5280    -2.4470 C.3   1 <1>  -0.2400 
 23 H       -0.9760    -1.2690     0.6250 H     1 <1>   0.1500 
 24 H        2.6420    -3.4530     1.1800 H     1 <1>   0.1500 
 25 H       -1.9350    -3.1850    -0.6300 H     1 <1>   0.1500 
 26 H        1.6760    -5.3650    -0.0790 H     1 <1>   0.1500 
 27 H       -3.0780    -6.8340    -2.2910 H     1 <1>   0.0800 
 28 H       -1.7040    -7.8820    -2.0440 H     1 <1>   0.0800 
 29 H       -2.0370    -6.8850     1.3280 H     1 <1>   0.0800 
 30 H       -2.1140    -5.1580     1.1260 H     1 <1>   0.0800 
 31 H       -2.6460    -8.7770    -0.0420 H     1 <1>   0.0800 
 32 H       -4.3490    -5.9280     1.5640 H     1 <1>   0.0800 
 33 H       -4.2450    -5.3960    -0.0660 H     1 <1>   0.0800 
 34 H       -4.4430    -9.8040    -0.8650 H     1 <1>   0.4000 
 35 H       -6.2620    -8.3730    -0.6880 H     1 <1>   0.0800 
 36 H       -6.4580    -6.8610     0.1110 H     1 <1>   0.0800 
 37 H       -5.3520    -5.7430    -1.8900 H     1 <1>   0.0800 
 38 H       -5.2830    -7.3090    -2.6460 H     1 <1>   0.0800 
 39 H       -7.8220    -5.9120    -1.7690 H     1 <1>   0.0800 
 40 H       -7.7420    -7.4850    -2.5330 H     1 <1>   0.0800 
 41 H       -7.2480    -6.0590    -3.4140 H     1 <1>   0.0800 
@<TRIPOS>BOND
  1   1   2  1   
  2   2   3  ar  
  3   2   4  ar  
  4   3   5  ar  
  5   3  23  1   
  6   4   6  ar  
  7   4  24  1   
  8   5   7  ar  
  9   5  25  1   
 10   6   7  ar  
 11   6  26  1   
 12   7   8  1   
 13   8   9  2   
 14   8  10  am  
 15  10  11  1   
 16  10  12  1   
 17  11  13  1   
 18  11  27  1   
 19  11  28  1   
 20  12  14  1   
 21  12  29  1   
 22  12  30  1   
 23  13  15  1   
 24  13  16  1   
 25  13  31  1   
 26  14  16  1   
 27  14  32  1   
 28  14  33  1   
 29  15  34  1   
 30  16  17  1   
 31  16  18  1   
 32  17  19  ar  
 33  17  20  ar  
 34  18  21  1   
 35  18  35  1   
 36  18  36  1   
 37  21  22  1   
 38  21  37  1   
 39  21  38  1   
 40  22  39  1   
 41  22  40  1   
 42  22  41  1   
@<TRIPOS>SUBSTRUCTURE
  1 ****  10 GROUP 4 **** **** 0

# MOE 2024.06 (io_trps.svl 2023.06)
