@<TRIPOS>MOLECULE
NONAME
50 52 1 0 0 
SMALL
USER_CHARGES


@<TRIPOS>ATOM
  1 S        0.2700    -0.5200    -0.6560 S.3   1 <1>  -0.0800 
  2 C       -1.2460    -1.4090    -0.8550 C.2   1 <1>  -0.0450 
  3 C       -0.4650     0.9930    -1.1380 C.2   1 <1>  -0.1100 
  4 C       -1.2720    -2.8240    -0.5800 C.2   1 <1>   0.7150 
  5 C       -2.2050    -0.5360    -1.2640 C.2   1 <1>  -0.1500 
  6 C       -1.7670     0.8110    -1.4230 C.2   1 <1>  -0.1500 
  7 O       -0.2800    -3.4230    -0.2110 O.2   1 <1>  -0.5700 
  8 N       -2.4470    -3.4980    -0.7420 N.am  1 <1>  -0.7300 
  9 C       -2.8390    -4.9070    -0.4680 C.3   1 <1>   0.3610 
 10 C       -4.3800    -5.0410    -0.7480 C.2   1 <1>   0.5690 
 11 C       -2.5360    -5.1920     1.0120 C.3   1 <1>  -0.2400 
 12 C       -1.9940    -5.8000    -1.3940 C.3   1 <1>  -0.2400 
 13 O       -4.9930    -4.0080    -0.9450 O.2   1 <1>  -0.5700 
 14 N       -5.0710    -6.2340    -0.7820 N.am  1 <1>  -0.6600 
 15 C       -6.5450    -6.2560    -0.9870 C.3   1 <1>   0.1400 
 16 C       -4.5690    -7.6210    -0.6030 C.3   1 <1>   0.1400 
 17 C       -6.9380    -7.7320    -0.9940 C.3   1 <1>   0.2000 
 18 C       -5.8050    -8.4550    -0.2730 C.3   1 <1>  -0.0800 
 19 O       -8.1370    -7.9490    -0.3350 O.3   1 <1>  -0.6800 
 20 C       -5.6820    -9.9350    -0.6710 C.3   1 <1>   0.0210 
 21 C       -4.4520   -10.6040    -0.0800 C.2   1 <1>   0.1080 
 22 N       -3.9430   -10.2940     1.0740 N.2   1 <1>  -0.7070 
 23 C       -3.7430   -11.6230    -0.7060 C.2   1 <1>  -0.1500 
 24 N       -2.8900   -11.1220     1.2170 N.pl3 1 <1>   0.3000 
 25 C       -2.7470   -11.9350     0.1500 C.2   1 <1>  -0.3320 
 26 C       -1.6530   -12.9790     0.0140 C.3   1 <1>  -0.0600 
 27 H        0.1610     1.8670    -1.1560 H     1 <1>   0.1500 
 28 H       -3.2290    -0.7980    -1.4650 H     1 <1>   0.1500 
 29 H       -2.4470     1.5820    -1.7430 H     1 <1>   0.1500 
 30 H       -3.2780    -2.9550    -0.9950 H     1 <1>   0.3700 
 31 H       -2.8600    -6.1740     1.2910 H     1 <1>   0.0800 
 32 H       -3.0520    -4.4830     1.6340 H     1 <1>   0.0800 
 33 H       -1.4820    -5.1300     1.2090 H     1 <1>   0.0800 
 34 H       -2.1280    -6.8370    -1.1630 H     1 <1>   0.0800 
 35 H       -0.9470    -5.5900    -1.2810 H     1 <1>   0.0800 
 36 H       -2.2740    -5.6350    -2.4180 H     1 <1>   0.0800 
 37 H       -7.0210    -5.7310    -0.1770 H     1 <1>   0.0800 
 38 H       -6.7970    -5.7870    -1.9230 H     1 <1>   0.0800 
 39 H       -4.1300    -7.9590    -1.5250 H     1 <1>   0.0800 
 40 H       -3.8470    -7.6950     0.1890 H     1 <1>   0.0800 
 41 H       -7.0430    -8.0740    -2.0100 H     1 <1>   0.0800 
 42 H       -5.9530    -8.3890     0.7910 H     1 <1>   0.0800 
 43 H       -8.0520    -7.7150     0.6100 H     1 <1>   0.4000 
 44 H       -5.6400   -10.0210    -1.7420 H     1 <1>   0.0800 
 45 H       -6.5540   -10.4650    -0.3310 H     1 <1>   0.0800 
 46 H       -3.9650   -12.0550    -1.6660 H     1 <1>   0.1500 
 47 H       -2.2940   -11.1110     2.0530 H     1 <1>   0.2700 
 48 H       -1.7550   -13.5010    -0.9210 H     1 <1>   0.0800 
 49 H       -1.7210   -13.6940     0.8140 H     1 <1>   0.0800 
 50 H       -0.6850   -12.5110     0.0410 H     1 <1>   0.0800 
@<TRIPOS>BOND
  1   1   2  1   
  2   1   3  1   
  3   2   4  1   
  4   2   5  2   
  5   3   6  2   
  6   3  27  1   
  7   4   7  2   
  8   4   8  am  
  9   5   6  1   
 10   5  28  1   
 11   6  29  1   
 12   8   9  1   
 13   8  30  1   
 14   9  10  1   
 15   9  11  1   
 16   9  12  1   
 17  10  13  2   
 18  10  14  am  
 19  11  31  1   
 20  11  32  1   
 21  11  33  1   
 22  12  34  1   
 23  12  35  1   
 24  12  36  1   
 25  14  15  1   
 26  14  16  1   
 27  15  17  1   
 28  15  37  1   
 29  15  38  1   
 30  16  18  1   
 31  16  39  1   
 32  16  40  1   
 33  17  18  1   
 34  17  19  1   
 35  17  41  1   
 36  18  20  1   
 37  18  42  1   
 38  19  43  1   
 39  20  21  1   
 40  20  44  1   
 41  20  45  1   
 42  21  22  2   
 43  21  23  1   
 44  22  24  1   
 45  23  25  2   
 46  23  46  1   
 47  24  25  1   
 48  24  47  1   
 49  25  26  1   
 50  26  48  1   
 51  26  49  1   
 52  26  50  1   
@<TRIPOS>SUBSTRUCTURE
  1 ****   9 GROUP 4 **** **** 0

# MOE 2024.06 (io_trps.svl 2023.06)
