@<TRIPOS>MOLECULE
NONAME
56 58 1 0 0 
SMALL
USER_CHARGES


@<TRIPOS>ATOM
  1 F       -1.5180    -2.4560    -3.0640 F     1 <1>  -0.1900 
  2 C       -1.6500    -2.6180    -1.7770 C.ar  1 <1>   0.1900 
  3 C       -1.2680    -3.8240    -1.2220 C.ar  1 <1>  -0.1500 
  4 C       -2.1710    -1.5870    -1.0210 C.ar  1 <1>  -0.1500 
  5 C       -1.4240    -4.0130     0.1450 C.ar  1 <1>  -0.1440 
  6 C       -2.3090    -1.7740     0.3430 C.ar  1 <1>  -0.1500 
  7 C       -1.9360    -2.9780     0.9220 C.ar  1 <1>  -0.1500 
  8 C       -1.0460    -5.3360     0.7830 C.3   1 <1>   0.4870 
  9 N       -2.0440    -6.3670     0.3440 N.4   1 <1>  -0.9590 
 10 C       -3.4190    -6.0160     0.8750 C.3   1 <1>   0.3430 
 11 C       -1.5890    -7.7190     0.7730 C.3   1 <1>   0.3430 
 12 C       -4.6200    -6.8070     0.2760 C.3   1 <1>   0.3430 
 13 C       -2.0380    -8.8140    -0.1990 C.3   1 <1>  -0.1600 
 14 N       -4.4660    -8.3110     0.1920 N.4   1 <1>  -0.9590 
 15 C       -3.4350    -8.7070    -0.8140 C.3   1 <1>   0.3430 
 16 C       -5.7920    -8.9200    -0.1600 C.3   1 <1>   0.3430 
 17 C       -5.8030   -10.4020     0.2130 C.3   1 <1>  -0.1600 
 18 C       -7.1610   -11.0390    -0.0880 C.3   1 <1>   0.1200 
 19 O       -7.0650   -12.3900     0.2760 O.3   1 <1>  -0.3630 
 20 C       -8.1110   -13.2400     0.1240 C.ar  1 <1>   0.0830 
 21 C       -7.9170   -14.5560     0.5090 C.ar  1 <1>  -0.1500 
 22 C       -9.3490   -12.8650    -0.3910 C.ar  1 <1>  -0.1500 
 23 C       -8.9360   -15.4820     0.3840 C.ar  1 <1>  -0.1500 
 24 C      -10.3610   -13.8000    -0.5120 C.ar  1 <1>  -0.1500 
 25 C      -10.1860   -15.1320    -0.1300 C.ar  1 <1>  -0.1790 
 26 C      -11.2600   -16.1110    -0.2620 C.2   1 <1>   0.9790 
 27 O      -12.3680   -15.7790    -0.7220 O.co2 1 <1>  -0.9000 
 28 O      -11.0890   -17.2950     0.0830 O.co2 1 <1>  -0.9000 
 29 H       -0.8520    -4.5750    -1.8700 H     1 <1>   0.1500 
 30 H       -2.4540    -0.6600    -1.4910 H     1 <1>   0.1500 
 31 H       -2.7020    -0.9760     0.9520 H     1 <1>   0.1500 
 32 H       -2.0470    -3.0860     1.9890 H     1 <1>   0.1500 
 33 H       -1.0420    -5.2420     1.8580 H     1 <1>   0.0800 
 34 H       -0.0540    -5.6110     0.4610 H     1 <1>   0.0800 
 35 H       -2.0340    -6.2950    -0.6830 H     1 <1>   0.4500 
 36 H       -3.6120    -4.9700     0.6950 H     1 <1>   0.0800 
 37 H       -3.4260    -6.1480     1.9450 H     1 <1>   0.0800 
 38 H       -1.9680    -7.9290     1.7600 H     1 <1>   0.0800 
 39 H       -0.5110    -7.7450     0.8320 H     1 <1>   0.0800 
 40 H       -4.8180    -6.4200    -0.7110 H     1 <1>   0.0800 
 41 H       -5.4880    -6.5770     0.8740 H     1 <1>   0.0800 
 42 H       -1.9610    -9.7600     0.3080 H     1 <1>   0.0800 
 43 H       -1.3280    -8.8600    -1.0060 H     1 <1>   0.0800 
 44 H       -4.2220    -8.7070     1.1120 H     1 <1>   0.4500 
 45 H       -3.6850    -9.6640    -1.2450 H     1 <1>   0.0800 
 46 H       -3.4270    -7.9910    -1.6210 H     1 <1>   0.0800 
 47 H       -5.9930    -8.8020    -1.2140 H     1 <1>   0.0800 
 48 H       -6.5790    -8.4260     0.3880 H     1 <1>   0.0800 
 49 H       -5.6100   -10.5150     1.2650 H     1 <1>   0.0800 
 50 H       -5.0590   -10.9410    -0.3460 H     1 <1>   0.0800 
 51 H       -7.3970   -10.9930    -1.1380 H     1 <1>   0.0800 
 52 H       -7.9480   -10.5910     0.4950 H     1 <1>   0.0800 
 53 H       -6.9670   -14.8570     0.9080 H     1 <1>   0.1500 
 54 H       -9.5530   -11.8610    -0.7040 H     1 <1>   0.1500 
 55 H       -8.7770   -16.5050     0.6850 H     1 <1>   0.1500 
 56 H      -11.3190   -13.5100    -0.9110 H     1 <1>   0.1500 
@<TRIPOS>BOND
  1   1   2  1   
  2   2   3  ar  
  3   2   4  ar  
  4   3   5  ar  
  5   3  29  1   
  6   4   6  ar  
  7   4  30  1   
  8   5   7  ar  
  9   5   8  1   
 10   6   7  ar  
 11   6  31  1   
 12   7  32  1   
 13   8   9  1   
 14   8  33  1   
 15   8  34  1   
 16   9  10  1   
 17   9  11  1   
 18   9  35  1   
 19  10  12  1   
 20  10  36  1   
 21  10  37  1   
 22  11  13  1   
 23  11  38  1   
 24  11  39  1   
 25  12  14  1   
 26  12  40  1   
 27  12  41  1   
 28  13  15  1   
 29  13  42  1   
 30  13  43  1   
 31  14  15  1   
 32  14  16  1   
 33  14  44  1   
 34  15  45  1   
 35  15  46  1   
 36  16  17  1   
 37  16  47  1   
 38  16  48  1   
 39  17  18  1   
 40  17  49  1   
 41  17  50  1   
 42  18  19  1   
 43  18  51  1   
 44  18  52  1   
 45  19  20  1   
 46  20  21  ar  
 47  20  22  ar  
 48  21  23  ar  
 49  21  53  1   
 50  22  24  ar  
 51  22  54  1   
 52  23  25  ar  
 53  23  55  1   
 54  24  25  ar  
 55  24  56  1   
 56  25  26  1   
 57  26  27  ar  
 58  26  28  ar  
@<TRIPOS>SUBSTRUCTURE
  1 ****  16 GROUP 4 **** **** 0

# MOE 2024.06 (io_trps.svl 2023.06)
