@<TRIPOS>MOLECULE
NONAME
47 50 1 0 0 
SMALL
USER_CHARGES


@<TRIPOS>ATOM
  1 O        0.2520    -0.2620     1.2190 O.3   1 <1>  -0.5600 
  2 C        0.1710    -1.5940     0.7810 C.3   1 <1>   0.1200 
  3 C        1.1820     0.5010     0.5130 C.3   1 <1>   0.1200 
  4 C        1.5400    -2.3000     0.8910 C.3   1 <1>   0.3340 
  5 C        2.5880    -0.1070     0.6790 C.3   1 <1>   0.1900 
  6 N        2.6030    -1.5130     0.2090 N.3   1 <1>  -0.8100 
  7 C        1.4550    -3.7020     0.2930 C.ar  1 <1>  -0.1440 
  8 C        3.6310     0.7250    -0.0970 C.3   1 <1>   0.3430 
  9 C        3.9400    -2.1220     0.3660 C.3   1 <1>   0.1100 
 10 C        1.3240    -3.8840    -1.0770 C.ar  1 <1>  -0.1500 
 11 C        1.5140    -4.8160     1.1190 C.ar  1 <1>  -0.1500 
 12 N        5.0180     0.1290    -0.0140 N.4   1 <1>  -0.9590 
 13 C        5.0050    -1.3230    -0.4100 C.3   1 <1>   0.3430 
 14 C        1.2570    -5.1580    -1.6140 C.ar  1 <1>  -0.1500 
 15 C        1.4490    -6.0900     0.5830 C.ar  1 <1>  -0.1500 
 16 C        6.0070     0.9020    -0.8170 C.3   1 <1>   0.4860 
 17 C        1.3210    -6.2620    -0.7830 C.ar  1 <1>  -0.1500 
 18 C        6.0400     2.3330    -0.3230 C.ar  1 <1>  -0.1440 
 19 C        6.6810     2.6430     0.8680 C.ar  1 <1>   0.1600 
 20 C        5.4320     3.3480    -1.0370 C.ar  1 <1>  -0.1500 
 21 N        6.7330     3.8480     1.4010 N.ar  1 <1>  -0.6200 
 22 C        5.4930     4.6150    -0.4970 C.ar  1 <1>  -0.1500 
 23 C        6.1440     4.8090     0.7090 C.ar  1 <1>   0.1600 
 24 H       -0.5530    -2.1000     1.3930 H     1 <1>   0.0800 
 25 H       -0.1780    -1.6010    -0.2360 H     1 <1>   0.0800 
 26 H        0.8880     0.5290    -0.5220 H     1 <1>   0.0800 
 27 H        1.1480     1.4990     0.9140 H     1 <1>   0.0800 
 28 H        1.7790    -2.3820     1.9380 H     1 <1>   0.0800 
 29 H        2.8340    -0.0720     1.7270 H     1 <1>   0.0800 
 30 H        3.6390     1.7280     0.2970 H     1 <1>   0.0800 
 31 H        3.3200     0.7760    -1.1270 H     1 <1>   0.0800 
 32 H        4.2050    -2.1750     1.4090 H     1 <1>   0.0800 
 33 H        3.9290    -3.1280    -0.0210 H     1 <1>   0.0800 
 34 H        1.2760    -3.0310    -1.7310 H     1 <1>   0.1500 
 35 H        1.6110    -4.7020     2.1850 H     1 <1>   0.1500 
 36 H        5.3000     0.1830     0.9720 H     1 <1>   0.4500 
 37 H        4.7840    -1.4110    -1.4620 H     1 <1>   0.0800 
 38 H        5.9720    -1.7640    -0.2360 H     1 <1>   0.0800 
 39 H        1.1530    -5.2910    -2.6770 H     1 <1>   0.1500 
 40 H        1.4950    -6.9500     1.2300 H     1 <1>   0.1500 
 41 H        6.9880     0.4660    -0.7190 H     1 <1>   0.0800 
 42 H        5.7310     0.8850    -1.8590 H     1 <1>   0.0800 
 43 H        1.2680    -7.2530    -1.1990 H     1 <1>   0.1500 
 44 H        7.1780     1.8660     1.4240 H     1 <1>   0.1500 
 45 H        4.9320     3.1810    -1.9770 H     1 <1>   0.1500 
 46 H        5.0430     5.4530    -1.0020 H     1 <1>   0.1500 
 47 H        6.1830     5.8030     1.1240 H     1 <1>   0.1500 
@<TRIPOS>BOND
  1   1   2  1   
  2   1   3  1   
  3   2   4  1   
  4   2  24  1   
  5   2  25  1   
  6   3   5  1   
  7   3  26  1   
  8   3  27  1   
  9   4   6  1   
 10   4   7  1   
 11   4  28  1   
 12   5   6  1   
 13   5   8  1   
 14   5  29  1   
 15   6   9  1   
 16   7  10  ar  
 17   7  11  ar  
 18   8  12  1   
 19   8  30  1   
 20   8  31  1   
 21   9  13  1   
 22   9  32  1   
 23   9  33  1   
 24  10  14  ar  
 25  10  34  1   
 26  11  15  ar  
 27  11  35  1   
 28  12  13  1   
 29  12  16  1   
 30  12  36  1   
 31  13  37  1   
 32  13  38  1   
 33  14  17  ar  
 34  14  39  1   
 35  15  17  ar  
 36  15  40  1   
 37  16  18  1   
 38  16  41  1   
 39  16  42  1   
 40  17  43  1   
 41  18  19  ar  
 42  18  20  ar  
 43  19  21  ar  
 44  19  44  1   
 45  20  22  ar  
 46  20  45  1   
 47  21  23  ar  
 48  22  23  ar  
 49  22  46  1   
 50  23  47  1   
@<TRIPOS>SUBSTRUCTURE
  1 ****   5 GROUP 4 **** **** 0

# MOE 2024.06 (io_trps.svl 2023.06)
