@<TRIPOS>MOLECULE
NONAME
55 59 1 0 0 
SMALL
USER_CHARGES


@<TRIPOS>ATOM
  1 O       -0.3080     3.0070     2.0560 O.2   1 <1>  -0.5700 
  2 C       -0.1240     3.0660     0.8530 C.2   1 <1>   0.5440 
  3 N       -1.1920     2.9200    -0.0020 N.am  1 <1>  -0.6600 
  4 C        1.2300     3.2530     0.3810 C.ar  1 <1>   0.0860 
  5 C       -2.6030     2.8360     0.4990 C.3   1 <1>   0.1400 
  6 C       -1.1130     2.9920    -1.4880 C.3   1 <1>   0.1400 
  7 C        2.2120     2.2530     0.5250 C.ar  1 <1>   0.0170 
  8 C        1.5780     4.4690    -0.2060 C.ar  1 <1>  -0.1500 
  9 C       -3.3950     4.0890     0.0840 C.3   1 <1>   0.1440 
 10 C       -1.8680     4.2340    -1.9800 C.3   1 <1>  -0.1600 
 11 C        1.9140     0.9570     1.1050 C.cat 1 <1>   0.7830 
 12 C        3.5130     2.5450     0.1020 C.ar  1 <1>  -0.1500 
 13 C        2.8630     4.7200    -0.6400 C.ar  1 <1>  -0.1500 
 14 C       -4.8440     3.9680     0.5150 C.ar  1 <1>   0.1660 
 15 C       -3.3150     4.2800    -1.4490 C.3   1 <1>  -0.1600 
 16 C       -2.9220     5.3550     0.8520 C.3   1 <1>  -0.1600 
 17 N        1.1930     0.7510     2.2040 N.pl3 1 <1>  -0.7000 
 18 N        2.3150    -0.2470     0.6510 N.pl3 1 <1>  -0.7640 
 19 C        3.8360     3.7540    -0.4800 C.ar  1 <1>  -0.1500 
 20 N       -5.6180     2.9270     0.2970 N.ar  1 <1>  -0.6200 
 21 C       -5.2710     5.0840     1.1700 C.ar  1 <1>  -0.1440 
 22 C       -4.1850     6.1240     1.2760 C.3   1 <1>  -0.0170 
 23 C        1.1330    -0.5830     2.4760 C.2   1 <1>   0.2000 
 24 C        1.8350    -1.2070     1.5110 C.2   1 <1>   0.2000 
 25 C        3.0780    -0.5660    -0.5880 C.3   1 <1>   0.2740 
 26 C       -6.8500     3.0540     0.7700 C.ar  1 <1>   0.4770 
 27 C       -6.5680     5.1070     1.6180 C.ar  1 <1>   0.1600 
 28 N       -7.3740     4.0840     1.4200 N.ar  1 <1>  -0.6200 
 29 C       -7.7770     1.8850     0.5440 C.3   1 <1>  -0.0970 
 30 H       -2.6330     2.7280     1.5690 H     1 <1>   0.0800 
 31 H       -3.0710     1.9640     0.0750 H     1 <1>   0.0800 
 32 H       -1.5690     2.1090    -1.9030 H     1 <1>   0.0800 
 33 H       -0.0930     3.0270    -1.8260 H     1 <1>   0.0800 
 34 H        0.8260     5.2330    -0.3130 H     1 <1>   0.1500 
 35 H       -1.8870     4.2310    -3.0560 H     1 <1>   0.0800 
 36 H       -1.3330     5.1140    -1.6730 H     1 <1>   0.0800 
 37 H        4.2980     1.8200     0.2360 H     1 <1>   0.1500 
 38 H        3.1110     5.6680    -1.0910 H     1 <1>   0.1500 
 39 H       -3.7810     5.2090    -1.7280 H     1 <1>   0.0800 
 40 H       -3.8760     3.4890    -1.9180 H     1 <1>   0.0800 
 41 H       -2.2630     5.9740     0.2720 H     1 <1>   0.0800 
 42 H       -2.3990     5.0550     1.7440 H     1 <1>   0.0800 
 43 H        0.6850     1.5190     2.6810 H     1 <1>   0.4500 
 44 H        4.8450     3.9540    -0.8040 H     1 <1>   0.1500 
 45 H       -4.3890     6.9300     0.5910 H     1 <1>   0.0800 
 46 H       -4.0970     6.5080     2.2780 H     1 <1>   0.0800 
 47 H        0.6000    -0.9970     3.3180 H     1 <1>   0.1500 
 48 H        2.0110    -2.2650     1.3860 H     1 <1>   0.1500 
 49 H        2.9750     0.2230    -1.3120 H     1 <1>   0.0800 
 50 H        2.7050    -1.4770    -1.0250 H     1 <1>   0.0800 
 51 H        4.1210    -0.6960    -0.3530 H     1 <1>   0.0800 
 52 H       -6.9510     5.9660     2.1410 H     1 <1>   0.1500 
 53 H       -7.2710     1.0950     0.0190 H     1 <1>   0.0800 
 54 H       -8.6210     2.2070    -0.0350 H     1 <1>   0.0800 
 55 H       -8.1200     1.5130     1.4910 H     1 <1>   0.0800 
@<TRIPOS>BOND
  1   1   2  2   
  2   2   3  am  
  3   2   4  1   
  4   3   5  1   
  5   3   6  1   
  6   4   7  ar  
  7   4   8  ar  
  8   5   9  1   
  9   5  30  1   
 10   5  31  1   
 11   6  10  1   
 12   6  32  1   
 13   6  33  1   
 14   7  11  1   
 15   7  12  ar  
 16   8  13  ar  
 17   8  34  1   
 18   9  14  1   
 19   9  15  1   
 20   9  16  1   
 21  10  15  1   
 22  10  35  1   
 23  10  36  1   
 24  11  17  ar  
 25  11  18  ar  
 26  12  19  ar  
 27  12  37  1   
 28  13  19  ar  
 29  13  38  1   
 30  14  20  ar  
 31  14  21  ar  
 32  15  39  1   
 33  15  40  1   
 34  16  22  1   
 35  16  41  1   
 36  16  42  1   
 37  17  23  1   
 38  17  43  1   
 39  18  24  1   
 40  18  25  1   
 41  19  44  1   
 42  20  26  ar  
 43  21  22  1   
 44  21  27  ar  
 45  22  45  1   
 46  22  46  1   
 47  23  24  2   
 48  23  47  1   
 49  24  48  1   
 50  25  49  1   
 51  25  50  1   
 52  25  51  1   
 53  26  28  ar  
 54  26  29  1   
 55  27  28  ar  
 56  27  52  1   
 57  29  53  1   
 58  29  54  1   
 59  29  55  1   
@<TRIPOS>SUBSTRUCTURE
  1 ****   3 GROUP 4 **** **** 0

# MOE 2024.06 (io_trps.svl 2023.06)
