@<TRIPOS>MOLECULE
NONAME
49 52 1 0 0 
SMALL
USER_CHARGES


@<TRIPOS>ATOM
  1 O        1.1140     0.3310    -1.7270 O.2   1 <1>  -0.5700 
  2 C        2.0260     0.0780    -0.9440 C.2   1 <1>   0.6900 
  3 N        2.8440     0.9810    -0.3750 N.am  1 <1>  -0.4200 
  4 N        2.4030    -1.1410    -0.4750 N.am  1 <1>  -0.2980 
  5 C        3.6770     0.2500     0.4410 C.2   1 <1>   0.4490 
  6 C        2.7110     2.4490    -0.3910 C.3   1 <1>   0.1400 
  7 N        3.4520    -1.0060     0.4060 N.2   1 <1>  -0.5120 
  8 C        1.8080    -2.4510    -0.7960 C.3   1 <1>   0.0600 
  9 C        4.7510     0.9470     1.2570 C.3   1 <1>  -0.0990 
 10 C        4.0010     3.1060     0.1310 C.3   1 <1>  -0.0190 
 11 C        4.4570     2.4480     1.4530 C.3   1 <1>  -0.1600 
 12 C        3.7870     4.6040     0.3020 C.2   1 <1>   0.5690 
 13 O        2.8100     4.9810     0.9010 O.2   1 <1>  -0.5700 
 14 N        4.7250     5.4510    -0.2230 N.am  1 <1>  -0.4940 
 15 C        4.8230     6.8640    -0.1970 C.2   1 <1>  -0.0880 
 16 N        3.8110     7.7780    -0.2300 N.pl3 1 <1>   0.3140 
 17 C        5.9700     7.5790    -0.1560 C.2   1 <1>  -0.1810 
 18 N        4.2830     9.0370    -0.2150 N.2   1 <1>  -0.7070 
 19 C        2.3650     7.5540    -0.3650 C.3   1 <1>   0.0160 
 20 C        5.5840     8.9260    -0.1730 C.2   1 <1>   0.2350 
 21 C        7.3980     7.0640    -0.0740 C.3   1 <1>  -0.0590 
 22 C        6.4760    10.0650    -0.1370 C.ar  1 <1>   0.0540 
 23 C        6.3150    11.0590     0.8250 C.ar  1 <1>  -0.1500 
 24 C        7.5160    10.2130    -1.0530 C.ar  1 <1>  -0.1500 
 25 C        7.1680    12.1460     0.8880 C.ar  1 <1>  -0.1500 
 26 C        8.3740    11.2980    -0.9970 C.ar  1 <1>  -0.1500 
 27 C        8.2020    12.2660    -0.0240 C.ar  1 <1>  -0.1500 
 28 H        1.8770     2.7160     0.2370 H     1 <1>   0.0800 
 29 H        2.4970     2.7780    -1.3940 H     1 <1>   0.0800 
 30 H        1.0050    -2.3250    -1.5000 H     1 <1>   0.0800 
 31 H        1.4290    -2.8980     0.1050 H     1 <1>   0.0800 
 32 H        2.5620    -3.0890    -1.2210 H     1 <1>   0.0800 
 33 H        5.6840     0.8290     0.7370 H     1 <1>   0.0800 
 34 H        4.8410     0.4600     2.2110 H     1 <1>   0.0800 
 35 H        4.7650     2.9570    -0.6100 H     1 <1>   0.0800 
 36 H        5.3360     2.9400     1.8320 H     1 <1>   0.0800 
 37 H        3.6770     2.5620     2.1880 H     1 <1>   0.0800 
 38 H        5.5490     4.9980    -0.6140 H     1 <1>   0.3700 
 39 H        2.1910     6.7120    -1.0070 H     1 <1>   0.0800 
 40 H        1.9110     8.4310    -0.7880 H     1 <1>   0.0800 
 41 H        1.9490     7.3680     0.6070 H     1 <1>   0.0800 
 42 H        7.4160     6.0410     0.2520 H     1 <1>   0.0800 
 43 H        7.9580     7.6530     0.6320 H     1 <1>   0.0800 
 44 H        7.8710     7.1340    -1.0370 H     1 <1>   0.0800 
 45 H        5.5050    10.9660     1.5270 H     1 <1>   0.1500 
 46 H        7.6450     9.4720    -1.8200 H     1 <1>   0.1500 
 47 H        7.0240    12.8990     1.6430 H     1 <1>   0.1500 
 48 H        9.1720    11.3920    -1.7130 H     1 <1>   0.1500 
 49 H        8.8670    13.1100     0.0220 H     1 <1>   0.1500 
@<TRIPOS>BOND
  1   1   2  2   
  2   2   3  am  
  3   2   4  am  
  4   3   5  1   
  5   3   6  1   
  6   4   7  1   
  7   4   8  1   
  8   5   7  2   
  9   5   9  1   
 10   6  10  1   
 11   6  28  1   
 12   6  29  1   
 13   8  30  1   
 14   8  31  1   
 15   8  32  1   
 16   9  11  1   
 17   9  33  1   
 18   9  34  1   
 19  10  11  1   
 20  10  12  1   
 21  10  35  1   
 22  11  36  1   
 23  11  37  1   
 24  12  13  2   
 25  12  14  am  
 26  14  15  1   
 27  14  38  1   
 28  15  16  1   
 29  15  17  2   
 30  16  18  1   
 31  16  19  1   
 32  17  20  1   
 33  17  21  1   
 34  18  20  2   
 35  19  39  1   
 36  19  40  1   
 37  19  41  1   
 38  20  22  1   
 39  21  42  1   
 40  21  43  1   
 41  21  44  1   
 42  22  23  ar  
 43  22  24  ar  
 44  23  25  ar  
 45  23  45  1   
 46  24  26  ar  
 47  24  46  1   
 48  25  27  ar  
 49  25  47  1   
 50  26  27  ar  
 51  26  48  1   
 52  27  49  1   
@<TRIPOS>SUBSTRUCTURE
  1 ****  14 GROUP 4 **** **** 0

# MOE 2024.06 (io_trps.svl 2023.06)
