@<TRIPOS>MOLECULE
Untitled Document
42 44 1 0 0 
SMALL
USER_CHARGES


@<TRIPOS>ATOM
  1 S       -0.4040     0.2060    -1.2520 S.o   1 <1>   0.2960 
  2 O        0.1880    -1.0680    -0.5010 O.2   1 <1>  -0.5000 
  3 C       -2.1900     0.1550    -0.8180 C.2   1 <1>   0.1970 
  4 C        0.0690     1.7590    -0.3120 C.3   1 <1>   0.1770 
  5 N       -2.7130    -1.0120    -0.3810 N.pl3 1 <1>   0.0330 
  6 N       -2.9980     1.1560    -0.8900 N.2   1 <1>  -0.5650 
  7 C        1.5070     2.1680    -0.5910 C.ar  1 <1>   0.1660 
  8 C       -4.0110    -0.7330    -0.1430 C.ar  1 <1>   0.1050 
  9 C       -4.1740     0.6070    -0.4640 C.ar  1 <1>   0.2270 
 10 N        1.6540     2.8810    -1.6990 N.ar  1 <1>  -0.6200 
 11 C        2.5530     1.8120     0.2580 C.ar  1 <1>  -0.1440 
 12 N       -4.9540    -1.5680     0.3110 N.ar  1 <1>  -0.5670 
 13 C       -5.4330     1.1710    -0.3140 C.ar  1 <1>  -0.1500 
 14 C        2.8870     3.2580    -1.9900 C.ar  1 <1>   0.1600 
 15 C        3.8300     2.2560    -0.0600 C.ar  1 <1>   0.0830 
 16 C        2.3280     0.9500     1.5030 C.3   1 <1>  -0.0970 
 17 C       -6.1410    -1.0150     0.4470 C.ar  1 <1>   0.3930 
 18 C       -6.4240     0.3380     0.1480 C.ar  1 <1>  -0.1500 
 19 C        4.0040     2.9810    -1.2250 C.ar  1 <1>  -0.1440 
 20 O        4.8900     1.9850     0.7280 O.3   1 <1>  -0.3630 
 21 O       -7.0960    -1.8550     0.9040 O.3   1 <1>  -0.3630 
 22 C        5.3820     3.4610    -1.6630 C.3   1 <1>  -0.0970 
 23 C        5.1300     2.8790     1.7900 C.3   1 <1>   0.0400 
 24 C       -8.4360    -1.4640     1.1070 C.3   1 <1>   0.0400 
 25 H       -0.0820     1.6230     0.7400 H     1 <1>   0.0800 
 26 H       -0.5660     2.5720    -0.6120 H     1 <1>   0.0800 
 27 H       -2.2210    -1.8950    -0.2330 H     1 <1>   0.2700 
 28 H       -5.5910     2.2060    -0.5570 H     1 <1>   0.1500 
 29 H        3.0100     3.8250    -2.8970 H     1 <1>   0.1500 
 30 H        1.6400     0.1510     1.2970 H     1 <1>   0.0800 
 31 H        1.9400     1.5530     2.3040 H     1 <1>   0.0800 
 32 H        3.2440     0.4930     1.8310 H     1 <1>   0.0800 
 33 H       -7.4120     0.7300     0.2800 H     1 <1>   0.1500 
 34 H        5.3660     3.7970    -2.6840 H     1 <1>   0.0800 
 35 H        6.0910     2.6560    -1.5830 H     1 <1>   0.0800 
 36 H        5.7040     4.2710    -1.0370 H     1 <1>   0.0800 
 37 H        6.0050     2.5460     2.3180 H     1 <1>   0.0800 
 38 H        4.2790     2.8800     2.4470 H     1 <1>   0.0800 
 39 H        5.2920     3.8630     1.3880 H     1 <1>   0.0800 
 40 H       -8.9800    -2.3190     1.4660 H     1 <1>   0.0800 
 41 H       -8.8510    -1.1360     0.1700 H     1 <1>   0.0800 
 42 H       -8.4650    -0.6790     1.8420 H     1 <1>   0.0800 
@<TRIPOS>BOND
  1   1   2  2   
  2   1   3  1   
  3   1   4  1   
  4   3   5  1   
  5   3   6  2   
  6   4   7  1   
  7   4  25  1   
  8   4  26  1   
  9   5   8  1   
 10   5  27  1   
 11   6   9  1   
 12   7  10  ar  
 13   7  11  ar  
 14   8   9  ar  
 15   8  12  ar  
 16   9  13  ar  
 17  10  14  ar  
 18  11  15  ar  
 19  11  16  1   
 20  12  17  ar  
 21  13  18  ar  
 22  13  28  1   
 23  14  19  ar  
 24  14  29  1   
 25  15  19  ar  
 26  15  20  1   
 27  16  30  1   
 28  16  31  1   
 29  16  32  1   
 30  17  18  ar  
 31  17  21  1   
 32  18  33  1   
 33  19  22  1   
 34  20  23  1   
 35  21  24  1   
 36  22  34  1   
 37  22  35  1   
 38  22  36  1   
 39  23  37  1   
 40  23  38  1   
 41  23  39  1   
 42  24  40  1   
 43  24  41  1   
 44  24  42  1   
@<TRIPOS>SUBSTRUCTURE
  1 ****   4 GROUP 4 **** **** 0

# MOE 2024.06 (io_trps.svl 2023.06)
