@<TRIPOS>MOLECULE
NONAME
47 50 1 0 0 
SMALL
USER_CHARGES


@<TRIPOS>ATOM
  1 O       -0.3760     0.1470    -1.4550 O.2   1 <1>  -0.5700 
  2 C       -0.2630     1.2880    -1.0570 C.2   1 <1>   0.5440 
  3 N       -1.3120     1.8820    -0.3860 N.am  1 <1>  -0.6600 
  4 C        0.9930     1.9750    -1.2580 C.ar  1 <1>   0.0860 
  5 C       -2.6270     1.2000    -0.2150 C.3   1 <1>   0.1400 
  6 C       -1.2530     3.2240     0.2580 C.3   1 <1>   0.1400 
  7 C        2.1620     1.6100    -0.5720 C.ar  1 <1>  -0.0230 
  8 C        1.0500     3.0340    -2.1630 C.ar  1 <1>  -0.1500 
  9 C       -3.7320     2.0780    -0.8070 C.3   1 <1>  -0.1600 
 10 C       -2.3350     4.1170    -0.3520 C.3   1 <1>  -0.1600 
 11 N        2.1820     0.5350     0.3660 N.pl3 1 <1>   0.5930 
 12 C        3.3370     2.3210    -0.8150 C.ar  1 <1>  -0.1500 
 13 C        2.2200     3.7310    -2.3880 C.ar  1 <1>  -0.1500 
 14 C       -3.7270     3.4870    -0.2060 C.3   1 <1>   0.4180 
 15 N        3.2420    -0.2670     0.5360 N.2   1 <1>  -0.7070 
 16 C        1.2900     0.2000     1.3210 C.2   1 <1>   0.0360 
 17 C        3.3690     3.3730    -1.7100 C.ar  1 <1>  -0.1500 
 18 O       -4.0250     3.3320     1.1600 O.3   1 <1>  -0.5600 
 19 C       -4.7890     4.3410    -0.8920 C.2   1 <1>  -0.2880 
 20 C        2.9010    -1.0070     1.5340 C.2   1 <1>   0.3660 
 21 N        1.7010    -0.7580     2.0700 N.2   1 <1>  -0.5650 
 22 C       -4.5060     4.4520     1.8490 C.3   1 <1>   0.1200 
 23 C       -5.7670     4.9820    -0.2460 C.2   1 <1>  -0.2760 
 24 C       -5.8500     4.9100     1.2670 C.3   1 <1>  -0.0220 
 25 C       -6.8520     5.8020    -0.9210 C.3   1 <1>  -0.1020 
 26 H       -2.8090     1.0410     0.8350 H     1 <1>   0.0800 
 27 H       -2.6320     0.2400    -0.7020 H     1 <1>   0.0800 
 28 H       -0.2880     3.6820     0.1280 H     1 <1>   0.0800 
 29 H       -1.4280     3.1130     1.3150 H     1 <1>   0.0800 
 30 H        0.1570     3.3080    -2.6990 H     1 <1>   0.1500 
 31 H       -4.6910     1.6240    -0.6320 H     1 <1>   0.0800 
 32 H       -3.5890     2.1360    -1.8700 H     1 <1>   0.0800 
 33 H       -2.1190     4.2580    -1.3950 H     1 <1>   0.0800 
 34 H       -2.3180     5.0860     0.1080 H     1 <1>   0.0800 
 35 H        4.2420     2.0450    -0.2990 H     1 <1>   0.1500 
 36 H        2.2420     4.5470    -3.0920 H     1 <1>   0.1500 
 37 H        0.3460     0.6990     1.4300 H     1 <1>   0.1500 
 38 H        4.2880     3.9080    -1.8830 H     1 <1>   0.1500 
 39 H       -4.6770     4.3680    -1.9600 H     1 <1>   0.1500 
 40 H        3.5290    -1.7860     1.9380 H     1 <1>   0.1500 
 41 H       -3.7780     5.2400     1.7790 H     1 <1>   0.0800 
 42 H       -4.6220     4.1780     2.8830 H     1 <1>   0.0800 
 43 H       -6.0880     5.8760     1.6750 H     1 <1>   0.0800 
 44 H       -6.6250     4.2230     1.5570 H     1 <1>   0.0800 
 45 H       -7.8200     5.3980    -0.6860 H     1 <1>   0.0800 
 46 H       -6.7260     5.7850    -1.9890 H     1 <1>   0.0800 
 47 H       -6.8090     6.8230    -0.5880 H     1 <1>   0.0800 
@<TRIPOS>BOND
  1   1   2  2   
  2   2   3  am  
  3   2   4  1   
  4   3   5  1   
  5   3   6  1   
  6   4   7  ar  
  7   4   8  ar  
  8   5   9  1   
  9   5  26  1   
 10   5  27  1   
 11   6  10  1   
 12   6  28  1   
 13   6  29  1   
 14   7  11  1   
 15   7  12  ar  
 16   8  13  ar  
 17   8  30  1   
 18   9  14  1   
 19   9  31  1   
 20   9  32  1   
 21  10  14  1   
 22  10  33  1   
 23  10  34  1   
 24  11  15  1   
 25  11  16  1   
 26  12  17  ar  
 27  12  35  1   
 28  13  17  ar  
 29  13  36  1   
 30  14  18  1   
 31  14  19  1   
 32  15  20  2   
 33  16  21  2   
 34  16  37  1   
 35  17  38  1   
 36  18  22  1   
 37  19  23  2   
 38  19  39  1   
 39  20  21  1   
 40  20  40  1   
 41  22  24  1   
 42  22  41  1   
 43  22  42  1   
 44  23  24  1   
 45  23  25  1   
 46  24  43  1   
 47  24  44  1   
 48  25  45  1   
 49  25  46  1   
 50  25  47  1   
@<TRIPOS>SUBSTRUCTURE
  1 ****   3 GROUP 4 **** **** 0

# MOE 2024.06 (io_trps.svl 2023.06)
