@<TRIPOS>MOLECULE
NONAME
51 55 1 0 0 
SMALL
USER_CHARGES


@<TRIPOS>ATOM
  1 O        0.3400     0.5630     0.2560 O.2   1 <1>  -0.5700 
  2 C       -0.1780     1.6190     0.5700 C.2   1 <1>   0.5440 
  3 N       -1.5530     1.6800     0.6860 N.am  1 <1>  -0.6600 
  4 C        0.6620     2.7790     0.7840 C.ar  1 <1>   0.0860 
  5 C       -2.3220     2.9550     0.8370 C.3   1 <1>   0.1400 
  6 C       -2.3920     0.4560     0.4880 C.3   1 <1>   0.1400 
  7 C        1.4690     3.2700    -0.2430 C.ar  1 <1>  -0.1500 
  8 C        0.6940     3.4460     2.0100 C.ar  1 <1>  -0.1500 
  9 C       -3.1820     3.2330    -0.4160 C.3   1 <1>   0.1440 
 10 C       -3.8300     0.7990     0.0590 C.3   1 <1>  -0.1600 
 11 C        2.2570     4.3950    -0.0750 C.ar  1 <1>  -0.1430 
 12 C        1.4750     4.5720     2.1910 C.ar  1 <1>  -0.1500 
 13 C       -4.1950     4.3010    -0.0360 C.ar  1 <1>   0.1660 
 14 C       -3.8420     1.9410    -0.9710 C.3   1 <1>  -0.1600 
 15 C       -2.3520     3.9550    -1.5110 C.3   1 <1>  -0.1600 
 16 C        2.2510     5.0550     1.1510 C.ar  1 <1>   0.0830 
 17 C        3.1280     4.8960    -1.2150 C.3   1 <1>  -0.0170 
 18 N       -5.2760     4.1090     0.6830 N.ar  1 <1>  -0.6200 
 19 C       -3.8350     5.5250    -0.5200 C.ar  1 <1>  -0.1430 
 20 C       -2.5420     5.4650    -1.2930 C.3   1 <1>  -0.0170 
 21 O        2.9960     6.1600     1.3750 O.3   1 <1>  -0.3630 
 22 C        4.2270     5.8140    -0.6760 C.3   1 <1>  -0.1600 
 23 C       -5.9870     5.2060     0.8920 C.ar  1 <1>   0.7200 
 24 C       -4.6580     6.5910    -0.2450 C.ar  1 <1>   0.1600 
 25 C        3.6270     6.8280     0.3000 C.3   1 <1>   0.1200 
 26 N       -5.7530     6.4400     0.4650 N.ar  1 <1>  -0.6200 
 27 N       -7.1000     5.0460     1.6090 N.pl3 1 <1>  -0.9000 
 28 H       -1.6760     3.7930     1.0190 H     1 <1>   0.0800 
 29 H       -2.9660     2.8580     1.6950 H     1 <1>   0.0800 
 30 H       -2.4060    -0.1160     1.4000 H     1 <1>   0.0800 
 31 H       -1.9410    -0.1540    -0.2770 H     1 <1>   0.0800 
 32 H        1.4690     2.7460    -1.1820 H     1 <1>   0.1500 
 33 H        0.0980     3.0710     2.8230 H     1 <1>   0.1500 
 34 H       -4.4060     1.0840     0.9230 H     1 <1>   0.0800 
 35 H       -4.2920    -0.0770    -0.3590 H     1 <1>   0.0800 
 36 H        1.4910     5.0830     3.1370 H     1 <1>   0.1500 
 37 H       -3.2970     1.5980    -1.8330 H     1 <1>   0.0800 
 38 H       -4.8510     2.1450    -1.2840 H     1 <1>   0.0800 
 39 H       -2.7520     3.7130    -2.4800 H     1 <1>   0.0800 
 40 H       -1.3150     3.6700    -1.4930 H     1 <1>   0.0800 
 41 H        2.5100     5.4400    -1.9070 H     1 <1>   0.0800 
 42 H        3.5720     4.0660    -1.7360 H     1 <1>   0.0800 
 43 H       -2.6070     5.9960    -2.2270 H     1 <1>   0.0800 
 44 H       -1.7410     5.8680    -0.6960 H     1 <1>   0.0800 
 45 H        4.7080     6.3270    -1.4900 H     1 <1>   0.0800 
 46 H        4.9710     5.2320    -0.1600 H     1 <1>   0.0800 
 47 H       -4.4150     7.5750    -0.6080 H     1 <1>   0.1500 
 48 H        4.3910     7.4630     0.7140 H     1 <1>   0.0800 
 49 H        2.8860     7.4370    -0.1870 H     1 <1>   0.0800 
 50 H       -7.7870     5.7870     1.5070 H     1 <1>   0.4000 
 51 H       -7.4510     4.0940     1.6510 H     1 <1>   0.4000 
@<TRIPOS>BOND
  1   1   2  2   
  2   2   3  am  
  3   2   4  1   
  4   3   5  1   
  5   3   6  1   
  6   4   7  ar  
  7   4   8  ar  
  8   5   9  1   
  9   5  28  1   
 10   5  29  1   
 11   6  10  1   
 12   6  30  1   
 13   6  31  1   
 14   7  11  ar  
 15   7  32  1   
 16   8  12  ar  
 17   8  33  1   
 18   9  13  1   
 19   9  14  1   
 20   9  15  1   
 21  10  14  1   
 22  10  34  1   
 23  10  35  1   
 24  11  16  ar  
 25  11  17  1   
 26  12  16  ar  
 27  12  36  1   
 28  13  18  ar  
 29  13  19  ar  
 30  14  37  1   
 31  14  38  1   
 32  15  20  1   
 33  15  39  1   
 34  15  40  1   
 35  16  21  1   
 36  17  22  1   
 37  17  41  1   
 38  17  42  1   
 39  18  23  ar  
 40  19  20  1   
 41  19  24  ar  
 42  20  43  1   
 43  20  44  1   
 44  21  25  1   
 45  22  25  1   
 46  22  45  1   
 47  22  46  1   
 48  23  26  ar  
 49  23  27  1   
 50  24  26  ar  
 51  24  47  1   
 52  25  48  1   
 53  25  49  1   
 54  27  50  1   
 55  27  51  1   
@<TRIPOS>SUBSTRUCTURE
  1 ****   5 GROUP 4 **** **** 0

# MOE 2024.06 (io_trps.svl 2023.06)
