@<TRIPOS>MOLECULE
NONAME
59 63 1 0 0 
SMALL
USER_CHARGES


@<TRIPOS>ATOM
  1 O        0.3090     0.6720    -1.1140 O.2   1 <1>  -0.5700 
  2 C        0.4050    -0.5180    -0.9150 C.2   1 <1>   0.9370 
  3 N        1.6250    -1.0360    -0.4460 N.pl3 1 <1>  -0.5760 
  4 C       -0.6810    -1.3970    -1.1470 C.2   1 <1>  -0.1360 
  5 C        1.7420    -2.3700    -0.2220 C.cat 1 <1>   0.7390 
  6 C        2.7020    -0.2160    -0.2020 C.2   1 <1>   0.1910 
  7 C       -0.5310    -2.7150    -0.9260 C.2   1 <1>   0.2030 
  8 N        0.6800    -3.1640    -0.4650 N.pl3 1 <1>  -0.6450 
  9 C        2.9490    -2.8940     0.2610 C.2   1 <1>  -0.1800 
 10 C        3.8850    -0.7150     0.2670 C.2   1 <1>  -0.1500 
 11 C       -1.6030    -3.7800    -1.1310 C.3   1 <1>   0.2480 
 12 C        4.0270    -2.0860     0.5100 C.2   1 <1>  -0.1380 
 13 N       -1.4760    -4.8620    -0.1100 N.3   1 <1>  -0.8100 
 14 C        5.3480    -2.6250     1.0320 C.3   1 <1>  -0.1020 
 15 C       -2.3900    -5.9810    -0.4520 C.3   1 <1>   0.1100 
 16 C       -1.9270    -4.4290     1.2360 C.3   1 <1>   0.1100 
 17 C       -3.7420    -5.6110     0.1530 C.3   1 <1>   0.2800 
 18 C       -3.4130    -4.8240     1.4170 C.3   1 <1>  -0.0800 
 19 O       -4.3960    -4.6700    -0.6190 O.3   1 <1>  -0.5600 
 20 C       -4.8680    -6.6110     0.3930 C.3   1 <1>  -0.1600 
 21 C       -4.5590    -3.7810     1.4300 C.3   1 <1>  -0.0800 
 22 C       -5.3930    -4.2830     0.2360 C.3   1 <1>   0.2000 
 23 C       -6.0540    -5.6430     0.5280 C.3   1 <1>  -0.1600 
 24 C       -4.0710    -2.3280     1.2950 C.3   1 <1>   0.1400 
 25 N       -5.1340    -1.4080     0.8480 N.am  1 <1>  -0.7300 
 26 C       -5.0590    -0.6080    -0.2490 C.2   1 <1>   0.5690 
 27 O       -4.0580    -0.5540    -0.9300 O.2   1 <1>  -0.5700 
 28 C       -6.2740     0.2410    -0.6260 C.3   1 <1>   0.1810 
 29 O       -7.3690     0.0000     0.2300 O.3   1 <1>  -0.5600 
 30 C       -8.4980     0.7510    -0.0790 C.3   1 <1>   0.0400 
 31 H       -1.5950    -0.9570    -1.4990 H     1 <1>   0.1500 
 32 H        2.6000     0.8440    -0.3870 H     1 <1>   0.1500 
 33 H        0.6990    -4.1690    -0.2350 H     1 <1>   0.4500 
 34 H        3.0120    -3.9530     0.4330 H     1 <1>   0.1500 
 35 H        4.7180    -0.0580     0.4530 H     1 <1>   0.1500 
 36 H       -1.4610    -4.2100    -2.1080 H     1 <1>   0.0800 
 37 H       -2.5720    -3.3190    -1.1190 H     1 <1>   0.0800 
 38 H        5.5850    -2.1710     1.9780 H     1 <1>   0.0800 
 39 H        6.1380    -2.4040     0.3360 H     1 <1>   0.0800 
 40 H        5.3060    -3.6910     1.1690 H     1 <1>   0.0800 
 41 H       -2.4640    -6.1520    -1.5120 H     1 <1>   0.0800 
 42 H       -2.0310    -6.8790     0.0200 H     1 <1>   0.0800 
 43 H       -1.3540    -4.9830     1.9610 H     1 <1>   0.0800 
 44 H       -1.7280    -3.3890     1.4150 H     1 <1>   0.0800 
 45 H       -3.4860    -5.4580     2.2840 H     1 <1>   0.0800 
 46 H       -4.9850    -7.2500    -0.4650 H     1 <1>   0.0800 
 47 H       -4.7090    -7.2080     1.2730 H     1 <1>   0.0800 
 48 H       -5.1370    -3.8620     2.3340 H     1 <1>   0.0800 
 49 H       -6.0450    -3.5600    -0.2240 H     1 <1>   0.0800 
 50 H       -6.5030    -5.6670     1.5050 H     1 <1>   0.0800 
 51 H       -6.8060    -5.8530    -0.2130 H     1 <1>   0.0800 
 52 H       -3.2790    -2.2780     0.5760 H     1 <1>   0.0800 
 53 H       -3.6830    -1.9860     2.2390 H     1 <1>   0.0800 
 54 H       -6.0140    -1.3790     1.3750 H     1 <1>   0.3700 
 55 H       -6.5660     0.0050    -1.6330 H     1 <1>   0.0800 
 56 H       -6.0080     1.2800    -0.5610 H     1 <1>   0.0800 
 57 H       -9.2730     0.4990     0.6240 H     1 <1>   0.0800 
 58 H       -8.8240     0.5120    -1.0770 H     1 <1>   0.0800 
 59 H       -8.2640     1.7990     0.0030 H     1 <1>   0.0800 
@<TRIPOS>BOND
  1   1   2  2   
  2   2   3  1   
  3   2   4  1   
  4   3   5  ar  
  5   3   6  1   
  6   4   7  2   
  7   4  31  1   
  8   5   8  ar  
  9   5   9  1   
 10   6  10  2   
 11   6  32  1   
 12   7   8  1   
 13   7  11  1   
 14   8  33  1   
 15   9  12  2   
 16   9  34  1   
 17  10  12  1   
 18  10  35  1   
 19  11  13  1   
 20  11  36  1   
 21  11  37  1   
 22  12  14  1   
 23  13  15  1   
 24  13  16  1   
 25  14  38  1   
 26  14  39  1   
 27  14  40  1   
 28  15  17  1   
 29  15  41  1   
 30  15  42  1   
 31  16  18  1   
 32  16  43  1   
 33  16  44  1   
 34  17  18  1   
 35  17  19  1   
 36  17  20  1   
 37  18  21  1   
 38  18  45  1   
 39  19  22  1   
 40  20  23  1   
 41  20  46  1   
 42  20  47  1   
 43  21  22  1   
 44  21  24  1   
 45  21  48  1   
 46  22  23  1   
 47  22  49  1   
 48  23  50  1   
 49  23  51  1   
 50  24  25  1   
 51  24  52  1   
 52  24  53  1   
 53  25  26  am  
 54  25  54  1   
 55  26  27  2   
 56  26  28  1   
 57  28  29  1   
 58  28  55  1   
 59  28  56  1   
 60  29  30  1   
 61  30  57  1   
 62  30  58  1   
 63  30  59  1   
@<TRIPOS>SUBSTRUCTURE
  1 ****  11 GROUP 4 **** **** 0

# MOE 2024.06 (io_trps.svl 2023.06)
