@<TRIPOS>MOLECULE
NONAME
42 44 1 0 0 
SMALL
USER_CHARGES


@<TRIPOS>ATOM
  1 O       -0.0720    -0.0100     0.4580 O.2   1 <1>  -0.5700 
  2 C        0.7800    -0.7340    -0.0200 C.2   1 <1>   0.5440 
  3 N        2.0390    -0.2240    -0.2670 N.am  1 <1>  -0.6600 
  4 C        0.4360    -2.1120    -0.3060 C.ar  1 <1>   0.0860 
  5 C        2.3160     1.2390    -0.1890 C.3   1 <1>   0.1400 
  6 C        3.2580    -1.0660    -0.4330 C.3   1 <1>   0.1400 
  7 C       -0.1580    -2.9280     0.6370 C.ar  1 <1>  -0.1500 
  8 C        0.6600    -2.7080    -1.5400 C.ar  1 <1>  -0.1500 
  9 C        3.2790     1.5230     0.9680 C.3   1 <1>  -0.1600 
 10 C        4.2340    -0.7970     0.7180 C.3   1 <1>  -0.1600 
 11 C       -0.4730    -4.2470     0.3450 C.ar  1 <1>   0.4100 
 12 C        0.3110    -4.0270    -1.7450 C.ar  1 <1>   0.1600 
 13 C        4.5670     0.6960     0.8460 C.3   1 <1>  -0.1600 
 14 N       -0.2410    -4.8090    -0.8340 N.ar  1 <1>  -0.6200 
 15 N       -1.0620    -5.0270     1.3140 N.pl3 1 <1>  -0.8690 
 16 C       -1.1040    -6.5110     1.2280 C.3   1 <1>   0.2090 
 17 C       -2.3100    -6.9430     0.3970 C.3   1 <1>   0.0960 
 18 N       -2.3030    -8.4040     0.2440 N.pl3 1 <1>   0.3140 
 19 N       -2.4620    -9.2370     1.2640 N.2   1 <1>  -0.7070 
 20 C       -2.1340    -9.1210    -0.8700 C.2   1 <1>   0.0360 
 21 C       -2.3820   -10.3930     0.6910 C.2   1 <1>   0.3660 
 22 N       -2.1780   -10.3820    -0.6320 N.2   1 <1>  -0.5650 
 23 H        1.4040     1.7930    -0.0450 H     1 <1>   0.0800 
 24 H        2.7550     1.5610    -1.1170 H     1 <1>   0.0800 
 25 H        3.7250    -0.8230    -1.3720 H     1 <1>   0.0800 
 26 H        3.0090    -2.1120    -0.4400 H     1 <1>   0.0800 
 27 H       -0.3850    -2.5300     1.6070 H     1 <1>   0.1500 
 28 H        1.1010    -2.1330    -2.3340 H     1 <1>   0.1500 
 29 H        2.7810     1.2910     1.8940 H     1 <1>   0.0800 
 30 H        3.5200     2.5710     0.9800 H     1 <1>   0.0800 
 31 H        5.1380    -1.3560     0.5560 H     1 <1>   0.0800 
 32 H        3.7920    -1.1480     1.6350 H     1 <1>   0.0800 
 33 H        0.4960    -4.4660    -2.7110 H     1 <1>   0.1500 
 34 H        5.1860     0.8580     1.7120 H     1 <1>   0.0800 
 35 H        5.1160     1.0160    -0.0220 H     1 <1>   0.0800 
 36 H       -1.0200    -4.6600     2.2680 H     1 <1>   0.4000 
 37 H       -1.1800    -6.9240     2.2200 H     1 <1>   0.0800 
 38 H       -0.1960    -6.8710     0.7730 H     1 <1>   0.0800 
 39 H       -2.2710    -6.4910    -0.5760 H     1 <1>   0.0800 
 40 H       -3.2180    -6.6550     0.8920 H     1 <1>   0.0800 
 41 H       -1.9810    -8.6770    -1.8370 H     1 <1>   0.1500 
 42 H       -2.4710   -11.3260     1.2260 H     1 <1>   0.1500 
@<TRIPOS>BOND
  1   1   2  2   
  2   2   3  am  
  3   2   4  1   
  4   3   5  1   
  5   3   6  1   
  6   4   7  ar  
  7   4   8  ar  
  8   5   9  1   
  9   5  23  1   
 10   5  24  1   
 11   6  10  1   
 12   6  25  1   
 13   6  26  1   
 14   7  11  ar  
 15   7  27  1   
 16   8  12  ar  
 17   8  28  1   
 18   9  13  1   
 19   9  29  1   
 20   9  30  1   
 21  10  13  1   
 22  10  31  1   
 23  10  32  1   
 24  11  14  ar  
 25  11  15  1   
 26  12  14  ar  
 27  12  33  1   
 28  13  34  1   
 29  13  35  1   
 30  15  16  1   
 31  15  36  1   
 32  16  17  1   
 33  16  37  1   
 34  16  38  1   
 35  17  18  1   
 36  17  39  1   
 37  17  40  1   
 38  18  19  1   
 39  18  20  1   
 40  19  21  2   
 41  20  22  2   
 42  20  41  1   
 43  21  22  1   
 44  21  42  1   
@<TRIPOS>SUBSTRUCTURE
  1 ****  11 GROUP 4 **** **** 0

# MOE 2024.06 (io_trps.svl 2023.06)
