@<TRIPOS>MOLECULE
NONAME
49 51 1 0 0 
SMALL
USER_CHARGES


@<TRIPOS>ATOM
  1 O        0.8940    -0.6900     0.9220 O.3   1 <1>  -0.5600 
  2 C        1.9020    -1.3250     0.1850 C.3   1 <1>   0.2000 
  3 C       -0.3080    -0.4580     0.2600 C.3   1 <1>   0.1200 
  4 C        1.9260    -2.8160     0.5770 C.3   1 <1>   0.3430 
  5 C        3.2450    -0.6400     0.5020 C.3   1 <1>   0.2090 
  6 C       -0.9930    -1.7760    -0.1230 C.3   1 <1>  -0.1600 
  7 N        0.6740    -3.5850     0.2400 N.4   1 <1>  -0.9590 
  8 N        3.1150     0.8280     0.3320 N.pl3 1 <1>  -0.8690 
  9 C       -0.5880    -2.9610     0.7540 C.3   1 <1>   0.3430 
 10 C        0.7910    -4.9930     0.7100 C.3   1 <1>   0.4860 
 11 C        3.9580     1.7540    -0.1210 C.ar  1 <1>   0.4100 
 12 C       -0.2990    -5.8110     0.0480 C.ar  1 <1>  -0.1440 
 13 N        3.4540     2.9860    -0.1470 N.ar  1 <1>  -0.6200 
 14 C        5.2690     1.5010    -0.5380 C.ar  1 <1>  -0.1500 
 15 C       -0.2110    -6.1370    -1.2990 C.ar  1 <1>  -0.1500 
 16 C       -1.3960    -6.2370     0.7830 C.ar  1 <1>  -0.1500 
 17 C        4.2120     3.9550    -0.5660 C.ar  1 <1>   0.5280 
 18 C        6.0340     2.5420    -0.9730 C.ar  1 <1>   0.2110 
 19 C       -1.2180    -6.8670    -1.9050 C.ar  1 <1>  -0.1500 
 20 C       -2.4010    -6.9670     0.1740 C.ar  1 <1>  -0.1500 
 21 N        5.4850     3.7760    -0.9800 N.ar  1 <1>  -0.1790 
 22 C        3.6360     5.3560    -0.5900 C.3   1 <1>  -0.0970 
 23 C       -2.3140    -7.2800    -1.1700 C.ar  1 <1>  -0.1500 
 24 H        1.7090    -1.2160    -0.8690 H     1 <1>   0.0800 
 25 H       -0.1260     0.1630    -0.6020 H     1 <1>   0.0800 
 26 H       -0.9350     0.0920     0.9440 H     1 <1>   0.0800 
 27 H        2.1030    -2.8710     1.6390 H     1 <1>   0.0800 
 28 H        2.7640    -3.2820     0.0840 H     1 <1>   0.0800 
 29 H        4.0130    -1.0230    -0.1470 H     1 <1>   0.0800 
 30 H        3.5230    -0.8470     1.5220 H     1 <1>   0.0800 
 31 H       -0.8230    -1.9970    -1.1620 H     1 <1>   0.0800 
 32 H       -2.0530    -1.6240    -0.0180 H     1 <1>   0.0800 
 33 H        0.5660    -3.6440    -0.7800 H     1 <1>   0.4500 
 34 H        2.2040     1.1720     0.6690 H     1 <1>   0.4000 
 35 H       -1.3870    -3.6850     0.7190 H     1 <1>   0.0800 
 36 H       -0.4680    -2.6430     1.7780 H     1 <1>   0.0800 
 37 H        0.6930    -5.0400     1.7830 H     1 <1>   0.0800 
 38 H        1.7500    -5.4010     0.4350 H     1 <1>   0.0800 
 39 H        5.6550     0.5010    -0.5060 H     1 <1>   0.1500 
 40 H        0.6350    -5.8380    -1.8940 H     1 <1>   0.1500 
 41 H       -1.4850    -6.0130     1.8330 H     1 <1>   0.1500 
 42 H        7.0530     2.4080    -1.3050 H     1 <1>   0.1500 
 43 H       -1.1520    -7.1210    -2.9500 H     1 <1>   0.1500 
 44 H       -3.2540    -7.2980     0.7450 H     1 <1>   0.1500 
 45 H        6.0190     4.5880    -1.2950 H     1 <1>   0.4570 
 46 H        2.6210     5.3430    -0.2300 H     1 <1>   0.0800 
 47 H        3.6310     5.7440    -1.5920 H     1 <1>   0.0800 
 48 H        4.2070     6.0080     0.0460 H     1 <1>   0.0800 
 49 H       -3.0970    -7.8490    -1.6430 H     1 <1>   0.1500 
@<TRIPOS>BOND
  1   1   2  1   
  2   1   3  1   
  3   2   4  1   
  4   2   5  1   
  5   2  24  1   
  6   3   6  1   
  7   3  25  1   
  8   3  26  1   
  9   4   7  1   
 10   4  27  1   
 11   4  28  1   
 12   5   8  1   
 13   5  29  1   
 14   5  30  1   
 15   6   9  1   
 16   6  31  1   
 17   6  32  1   
 18   7   9  1   
 19   7  10  1   
 20   7  33  1   
 21   8  11  1   
 22   8  34  1   
 23   9  35  1   
 24   9  36  1   
 25  10  12  1   
 26  10  37  1   
 27  10  38  1   
 28  11  13  ar  
 29  11  14  ar  
 30  12  15  ar  
 31  12  16  ar  
 32  13  17  ar  
 33  14  18  ar  
 34  14  39  1   
 35  15  19  ar  
 36  15  40  1   
 37  16  20  ar  
 38  16  41  1   
 39  17  21  ar  
 40  17  22  1   
 41  18  21  ar  
 42  18  42  1   
 43  19  23  ar  
 44  19  43  1   
 45  20  23  ar  
 46  20  44  1   
 47  21  45  1   
 48  22  46  1   
 49  22  47  1   
 50  22  48  1   
 51  23  49  1   
@<TRIPOS>SUBSTRUCTURE
  1 ****   2 GROUP 4 **** **** 0

# MOE 2024.06 (io_trps.svl 2023.06)
