@<TRIPOS>MOLECULE
NONAME
60 64 1 0 0 
SMALL
USER_CHARGES


@<TRIPOS>ATOM
  1 O       -1.6910     1.3790    -0.7940 O.3   1 <1>  -0.3630 
  2 C       -2.1700     0.5310     0.1530 C.ar  1 <1>   0.0830 
  3 C       -1.8890     2.7750    -0.7130 C.3   1 <1>   0.0400 
  4 C       -1.9180    -0.8250    -0.0210 C.ar  1 <1>  -0.1440 
  5 C       -2.8880     0.9650     1.2650 C.ar  1 <1>  -0.1500 
  6 C       -2.3580    -1.7210     0.9400 C.ar  1 <1>  -0.1500 
  7 C       -1.1840    -1.2950    -1.2840 C.3   1 <1>   0.2390 
  8 C       -3.3700     0.0530     2.1870 C.ar  1 <1>  -0.1500 
  9 C       -3.1190    -1.2990     2.0170 C.ar  1 <1>  -0.1430 
 10 N       -1.3630    -2.7400    -1.6040 N.pl3 1 <1>   0.3140 
 11 C       -3.7170    -2.3450     2.9330 C.3   1 <1>   0.4870 
 12 N       -2.5640    -3.3760    -1.6310 N.2   1 <1>  -0.7070 
 13 C       -0.3680    -3.5880    -1.9350 C.2   1 <1>  -0.3020 
 14 N       -4.6080    -3.1740     2.0780 N.4   1 <1>  -0.9590 
 15 C       -2.2890    -4.5920    -1.9970 C.2   1 <1>   0.1390 
 16 C       -0.9290    -4.7870    -2.1960 C.2   1 <1>  -0.1500 
 17 C       -5.8020    -2.3890     1.6120 C.3   1 <1>   0.3430 
 18 C       -5.0070    -4.4610     2.7050 C.3   1 <1>   0.3430 
 19 C       -6.5990    -3.1630     0.5520 C.3   1 <1>   0.1430 
 20 C       -5.7630    -5.3080     1.6750 C.3   1 <1>  -0.1600 
 21 C       -7.8420    -2.3750     0.2180 C.ar  1 <1>   0.1670 
 22 C       -6.9760    -4.5640     1.0830 C.3   1 <1>  -0.1600 
 23 C       -5.8630    -3.2280    -0.8130 C.3   1 <1>  -0.1600 
 24 N       -8.6620    -1.8650     1.1090 N.ar  1 <1>  -0.6200 
 25 C       -8.0120    -2.2390    -1.1250 C.ar  1 <1>  -0.1430 
 26 C       -6.9100    -2.9170    -1.9000 C.3   1 <1>  -0.0170 
 27 C       -9.6900    -1.2100     0.5820 C.ar  1 <1>   0.4770 
 28 C       -9.1080    -1.5360    -1.5590 C.ar  1 <1>   0.1600 
 29 N       -9.9600    -1.0140    -0.7010 N.ar  1 <1>  -0.6200 
 30 C      -10.6720    -0.6090     1.5590 C.3   1 <1>  -0.0970 
 31 H       -1.4210     3.2290    -1.5690 H     1 <1>   0.0800 
 32 H       -1.4320     3.1420     0.1890 H     1 <1>   0.0800 
 33 H       -2.9440     2.9810    -0.7240 H     1 <1>   0.0800 
 34 H       -3.0890     2.0080     1.4230 H     1 <1>   0.1500 
 35 H       -2.1270    -2.7670     0.8370 H     1 <1>   0.1500 
 36 H       -0.1350    -1.0940    -1.1750 H     1 <1>   0.0800 
 37 H       -1.5420    -0.7390    -2.1300 H     1 <1>   0.0800 
 38 H       -3.9450     0.4100     3.0250 H     1 <1>   0.1500 
 39 H       -4.2740    -1.8830     3.7320 H     1 <1>   0.0800 
 40 H       -2.9280    -2.9480     3.3530 H     1 <1>   0.0800 
 41 H        0.6670    -3.3000    -1.9760 H     1 <1>   0.1500 
 42 H       -4.0640    -3.3810     1.2270 H     1 <1>   0.4500 
 43 H       -3.0330    -5.3590    -2.1340 H     1 <1>   0.1500 
 44 H       -0.4550    -5.7050    -2.4980 H     1 <1>   0.1500 
 45 H       -5.4910    -1.4480     1.1890 H     1 <1>   0.0800 
 46 H       -6.4510    -2.1800     2.4470 H     1 <1>   0.0800 
 47 H       -5.6430    -4.2730     3.5550 H     1 <1>   0.0800 
 48 H       -4.1340    -4.9990     3.0410 H     1 <1>   0.0800 
 49 H       -6.1040    -6.2110     2.1510 H     1 <1>   0.0800 
 50 H       -5.0870    -5.6000     0.8910 H     1 <1>   0.0800 
 51 H       -7.4220    -5.1480     0.2960 H     1 <1>   0.0800 
 52 H       -7.7200    -4.4510     1.8540 H     1 <1>   0.0800 
 53 H       -5.3870    -4.1740    -0.9950 H     1 <1>   0.0800 
 54 H       -5.1090    -2.4600    -0.8570 H     1 <1>   0.0800 
 55 H       -7.2830    -3.8250    -2.3440 H     1 <1>   0.0800 
 56 H       -6.5060    -2.2770    -2.6660 H     1 <1>   0.0800 
 57 H       -9.2920    -1.3980    -2.6110 H     1 <1>   0.1500 
 58 H      -10.6190    -1.1150     2.5050 H     1 <1>   0.0800 
 59 H      -11.6700    -0.6980     1.1740 H     1 <1>   0.0800 
 60 H      -10.4410     0.4300     1.6990 H     1 <1>   0.0800 
@<TRIPOS>BOND
  1   1   2  1   
  2   1   3  1   
  3   2   4  ar  
  4   2   5  ar  
  5   3  31  1   
  6   3  32  1   
  7   3  33  1   
  8   4   6  ar  
  9   4   7  1   
 10   5   8  ar  
 11   5  34  1   
 12   6   9  ar  
 13   6  35  1   
 14   7  10  1   
 15   7  36  1   
 16   7  37  1   
 17   8   9  ar  
 18   8  38  1   
 19   9  11  1   
 20  10  12  1   
 21  10  13  1   
 22  11  14  1   
 23  11  39  1   
 24  11  40  1   
 25  12  15  2   
 26  13  16  2   
 27  13  41  1   
 28  14  17  1   
 29  14  18  1   
 30  14  42  1   
 31  15  16  1   
 32  15  43  1   
 33  16  44  1   
 34  17  19  1   
 35  17  45  1   
 36  17  46  1   
 37  18  20  1   
 38  18  47  1   
 39  18  48  1   
 40  19  21  1   
 41  19  22  1   
 42  19  23  1   
 43  20  22  1   
 44  20  49  1   
 45  20  50  1   
 46  21  24  ar  
 47  21  25  ar  
 48  22  51  1   
 49  22  52  1   
 50  23  26  1   
 51  23  53  1   
 52  23  54  1   
 53  24  27  ar  
 54  25  26  1   
 55  25  28  ar  
 56  26  55  1   
 57  26  56  1   
 58  27  29  ar  
 59  27  30  1   
 60  28  29  ar  
 61  28  57  1   
 62  30  58  1   
 63  30  59  1   
 64  30  60  1   
@<TRIPOS>SUBSTRUCTURE
  1 ****  17 GROUP 4 **** **** 0

# MOE 2024.06 (io_trps.svl 2023.06)
