@<TRIPOS>MOLECULE
NONAME
52 55 1 0 0 
SMALL
USER_CHARGES


@<TRIPOS>ATOM
  1 F        0.5620    -0.0900    -0.6790 F     1 <1>  -0.1900 
  2 C        1.5330    -0.9150    -0.9700 C.ar  1 <1>   0.1900 
  3 C        1.5400    -2.2030    -0.4270 C.ar  1 <1>   0.0530 
  4 C        2.5110    -0.4450    -1.8270 C.ar  1 <1>  -0.1500 
  5 C        0.5230    -2.7040     0.4760 C.2   1 <1>   0.0870 
  6 C        2.6110    -3.0150    -0.8090 C.ar  1 <1>  -0.1500 
  7 C        3.5560    -1.2790    -2.1780 C.ar  1 <1>  -0.1500 
  8 O        0.4190    -4.0120     0.6840 O.3   1 <1>  -0.2800 
  9 C       -0.4270    -2.0790     1.2240 C.2   1 <1>  -0.1500 
 10 C        3.6010    -2.5650    -1.6660 C.ar  1 <1>  -0.1500 
 11 C       -0.5680    -4.2390     1.5270 C.2   1 <1>  -0.0400 
 12 C       -1.1330    -3.0740     1.9030 C.2   1 <1>  -0.1500 
 13 C       -0.9010    -5.6680     1.9330 C.3   1 <1>   0.2900 
 14 N       -1.4770    -6.4450     0.8160 N.3   1 <1>  -0.8100 
 15 C       -1.5960    -7.8690     1.1840 C.3   1 <1>   0.1100 
 16 C       -2.7820    -5.8790     0.4150 C.3   1 <1>   0.1100 
 17 C       -2.1480    -8.6860    -0.0090 C.3   1 <1>   0.4230 
 18 C       -3.3960    -6.6790    -0.7430 C.3   1 <1>  -0.1600 
 19 N       -2.1900   -10.1730     0.2060 N.4   1 <1>  -0.9590 
 20 C       -3.5530    -8.1840    -0.3980 C.3   1 <1>  -0.1060 
 21 C       -2.6540   -10.9490    -0.9830 C.3   1 <1>   0.3430 
 22 C       -1.0050   -10.7780     0.8660 C.3   1 <1>   0.2630 
 23 C       -4.4910    -8.3910     0.8080 C.2   1 <1>   0.9060 
 24 C       -4.1090    -8.9550    -1.6310 C.3   1 <1>  -0.1600 
 25 C       -3.1520   -10.0510    -2.1250 C.3   1 <1>  -0.1600 
 26 O       -4.3670    -9.4300     1.4790 O.co2 1 <1>  -0.9000 
 27 O       -5.3400    -7.5460     1.0880 O.co2 1 <1>  -0.9000 
 28 H        2.4500     0.5570    -2.2120 H     1 <1>   0.1500 
 29 H        2.6690    -4.0180    -0.4250 H     1 <1>   0.1500 
 30 H        4.3280    -0.9330    -2.8440 H     1 <1>   0.1500 
 31 H       -0.6250    -1.0260     1.3040 H     1 <1>   0.1500 
 32 H        4.4120    -3.2200    -1.9370 H     1 <1>   0.1500 
 33 H       -1.9560    -2.9110     2.5760 H     1 <1>   0.1500 
 34 H       -1.5960    -5.6520     2.7560 H     1 <1>   0.0800 
 35 H        0.0070    -6.1370     2.2670 H     1 <1>   0.0800 
 36 H       -0.6160    -8.2280     1.4380 H     1 <1>   0.0800 
 37 H       -2.2400    -7.9730     2.0420 H     1 <1>   0.0800 
 38 H       -3.4580    -5.8750     1.2550 H     1 <1>   0.0800 
 39 H       -2.6520    -4.8600     0.0910 H     1 <1>   0.0800 
 40 H       -1.4870    -8.4910    -0.8360 H     1 <1>   0.0800 
 41 H       -4.3620    -6.2600    -0.9690 H     1 <1>   0.0800 
 42 H       -2.7740    -6.5530    -1.6120 H     1 <1>   0.0800 
 43 H       -3.0020   -10.2230     0.8800 H     1 <1>   0.4500 
 44 H       -1.8540   -11.5690    -1.3520 H     1 <1>   0.0800 
 45 H       -3.4600   -11.5950    -0.6740 H     1 <1>   0.0800 
 46 H       -0.1310   -10.6530     0.2480 H     1 <1>   0.0800 
 47 H       -1.1720   -11.8290     1.0310 H     1 <1>   0.0800 
 48 H       -0.8330   -10.3090     1.8200 H     1 <1>   0.0800 
 49 H       -5.0480    -9.4130    -1.3630 H     1 <1>   0.0800 
 50 H       -4.3210    -8.2790    -2.4410 H     1 <1>   0.0800 
 51 H       -2.3060    -9.6010    -2.6150 H     1 <1>   0.0800 
 52 H       -3.6530   -10.6600    -2.8570 H     1 <1>   0.0800 
@<TRIPOS>BOND
  1   1   2  1   
  2   2   3  ar  
  3   2   4  ar  
  4   3   5  1   
  5   3   6  ar  
  6   4   7  ar  
  7   4  28  1   
  8   5   8  1   
  9   5   9  2   
 10   6  10  ar  
 11   6  29  1   
 12   7  10  ar  
 13   7  30  1   
 14   8  11  1   
 15   9  12  1   
 16   9  31  1   
 17  10  32  1   
 18  11  12  2   
 19  11  13  1   
 20  12  33  1   
 21  13  14  1   
 22  13  34  1   
 23  13  35  1   
 24  14  15  1   
 25  14  16  1   
 26  15  17  1   
 27  15  36  1   
 28  15  37  1   
 29  16  18  1   
 30  16  38  1   
 31  16  39  1   
 32  17  19  1   
 33  17  20  1   
 34  17  40  1   
 35  18  20  1   
 36  18  41  1   
 37  18  42  1   
 38  19  21  1   
 39  19  22  1   
 40  19  43  1   
 41  20  23  1   
 42  20  24  1   
 43  21  25  1   
 44  21  44  1   
 45  21  45  1   
 46  22  46  1   
 47  22  47  1   
 48  22  48  1   
 49  23  26  ar  
 50  23  27  ar  
 51  24  25  1   
 52  24  49  1   
 53  24  50  1   
 54  25  51  1   
 55  25  52  1   
@<TRIPOS>SUBSTRUCTURE
  1 ****  14 GROUP 4 **** **** 0

# MOE 2024.06 (io_trps.svl 2023.06)
