@<TRIPOS>MOLECULE
NONAME
50 54 1 0 0 
SMALL
USER_CHARGES


@<TRIPOS>ATOM
  1 S       -1.8620    -0.4030    -0.9790 S.3   1 <1>  -0.2820 
  2 C       -2.2760    -1.3710     0.4070 C.2   1 <1>   0.6510 
  3 C       -1.5920     0.9870     0.0770 C.2   1 <1>   0.5910 
  4 N       -2.6220    -2.6170     0.3220 N.2   1 <1>  -0.6210 
  5 N       -2.1840    -0.5880     1.5240 N.am  1 <1>  -0.0580 
  6 N       -1.7960     0.7430     1.3050 N.2   1 <1>  -0.5120 
  7 C       -1.1600     2.3050    -0.5570 C.3   1 <1>  -0.1000 
  8 C       -2.9250    -3.2280     1.5120 C.2   1 <1>   0.0330 
  9 C       -2.4980    -1.1860     2.7360 C.2   1 <1>   0.6160 
 10 C       -1.6660     2.7660    -1.8920 C.3   1 <1>  -0.2000 
 11 C       -0.2270     2.3710    -1.7310 C.3   1 <1>  -0.2000 
 12 C       -2.8740    -2.5530     2.6910 C.2   1 <1>  -0.1360 
 13 C       -3.3350    -4.7010     1.4290 C.3   1 <1>   0.4810 
 14 O       -2.4660    -0.5790     3.7950 O.2   1 <1>  -0.5700 
 15 N       -4.1300    -4.8970     0.1800 N.4   1 <1>  -0.9590 
 16 C       -5.6140    -4.9640     0.3570 C.3   1 <1>   0.4230 
 17 C       -3.5760    -6.0500    -0.5960 C.3   1 <1>   0.2630 
 18 C       -6.3000    -4.7460    -0.9930 C.3   1 <1>  -0.1600 
 19 C       -6.1650    -3.7840     1.1650 C.3   1 <1>  -0.1600 
 20 C       -6.3010    -3.2240    -1.2140 C.3   1 <1>  -0.0800 
 21 C       -6.2260    -2.6000     0.1870 C.3   1 <1>  -0.0800 
 22 C       -7.5800    -2.6820    -1.8690 C.3   1 <1>  -0.1600 
 23 C       -7.4700    -1.7130     0.3440 C.3   1 <1>  -0.1600 
 24 C       -8.4530    -2.1510    -0.7370 C.3   1 <1>   0.2000 
 25 O       -9.2070    -3.1920    -0.2430 O.3   1 <1>  -0.6800 
 26 H       -1.0360     3.0630     0.1970 H     1 <1>   0.1000 
 27 H       -2.3070     2.1270    -2.4750 H     1 <1>   0.1000 
 28 H       -1.9030     3.8080    -2.0220 H     1 <1>   0.1000 
 29 H        0.5250     3.1410    -1.7490 H     1 <1>   0.1000 
 30 H        0.1080     1.4620    -2.2010 H     1 <1>   0.1000 
 31 H       -3.1070    -3.0010     3.6400 H     1 <1>   0.1500 
 32 H       -3.9010    -4.9930     2.2980 H     1 <1>   0.0800 
 33 H       -2.4390    -5.2970     1.3880 H     1 <1>   0.0800 
 34 H       -3.9280    -4.0280    -0.3470 H     1 <1>   0.4500 
 35 H       -5.8980    -5.9060     0.7980 H     1 <1>   0.0800 
 36 H       -3.7650    -6.9770    -0.0800 H     1 <1>   0.0800 
 37 H       -2.5120    -5.9340    -0.7250 H     1 <1>   0.0800 
 38 H       -4.0250    -6.1030    -1.5740 H     1 <1>   0.0800 
 39 H       -5.8480    -5.2700    -1.8140 H     1 <1>   0.0800 
 40 H       -7.3130    -5.0990    -0.9110 H     1 <1>   0.0800 
 41 H       -7.1650    -4.0410     1.4690 H     1 <1>   0.0800 
 42 H       -5.6220    -3.5520     2.0600 H     1 <1>   0.0800 
 43 H       -5.4390    -2.9370    -1.7940 H     1 <1>   0.0800 
 44 H       -5.3380    -1.9980     0.2780 H     1 <1>   0.0800 
 45 H       -8.0950    -3.4030    -2.4820 H     1 <1>   0.0800 
 46 H       -7.3130    -1.8480    -2.4940 H     1 <1>   0.0800 
 47 H       -7.1890    -0.6950     0.1360 H     1 <1>   0.0800 
 48 H       -7.9040    -1.7410     1.3290 H     1 <1>   0.0800 
 49 H       -9.1230    -1.3650    -1.0460 H     1 <1>   0.0800 
 50 H       -8.6260    -3.9270     0.0080 H     1 <1>   0.4000 
@<TRIPOS>BOND
  1   1   2  1   
  2   1   3  1   
  3   2   4  2   
  4   2   5  1   
  5   3   6  2   
  6   3   7  1   
  7   4   8  1   
  8   5   6  1   
  9   5   9  am  
 10   7  10  1   
 11   7  11  1   
 12   7  26  1   
 13   8  12  2   
 14   8  13  1   
 15   9  12  1   
 16   9  14  2   
 17  10  11  1   
 18  10  27  1   
 19  10  28  1   
 20  11  29  1   
 21  11  30  1   
 22  12  31  1   
 23  13  15  1   
 24  13  32  1   
 25  13  33  1   
 26  15  16  1   
 27  15  17  1   
 28  15  34  1   
 29  16  18  1   
 30  16  19  1   
 31  16  35  1   
 32  17  36  1   
 33  17  37  1   
 34  17  38  1   
 35  18  20  1   
 36  18  39  1   
 37  18  40  1   
 38  19  21  1   
 39  19  41  1   
 40  19  42  1   
 41  20  21  1   
 42  20  22  1   
 43  20  43  1   
 44  21  23  1   
 45  21  44  1   
 46  22  24  1   
 47  22  45  1   
 48  22  46  1   
 49  23  24  1   
 50  23  47  1   
 51  23  48  1   
 52  24  25  1   
 53  24  49  1   
 54  25  50  1   
@<TRIPOS>SUBSTRUCTURE
  1 ****   4 GROUP 4 **** **** 0

# MOE 2024.06 (io_trps.svl 2023.06)
