@<TRIPOS>MOLECULE
NONAME
54 58 1 0 0 
SMALL
USER_CHARGES


@<TRIPOS>ATOM
  1 O       -0.5530    -0.8680    -0.7350 O.2   1 <1>  -0.5700 
  2 C        0.3660    -1.6510    -0.8590 C.2   1 <1>   0.6900 
  3 N        0.4510    -2.8970    -0.2980 N.am  1 <1>  -0.4770 
  4 N        1.4650    -1.3580    -1.5700 N.am  1 <1>  -0.7300 
  5 C       -0.4310    -3.5170     0.6010 C.ar  1 <1>   0.1170 
  6 C        1.7650    -3.4970    -0.6490 C.3   1 <1>   0.1400 
  7 C        2.4860    -2.4090    -1.4630 C.3   1 <1>   0.1400 
  8 C       -0.6610    -4.8850     0.5360 C.ar  1 <1>  -0.1500 
  9 C       -1.0920    -2.7850     1.5820 C.ar  1 <1>  -0.1500 
 10 C       -1.5260    -5.5350     1.4110 C.ar  1 <1>   0.0860 
 11 C       -1.9460    -3.4050     2.4740 C.ar  1 <1>  -0.1500 
 12 C       -1.7620    -6.9620     1.2920 C.2   1 <1>   0.5440 
 13 C       -2.1560    -4.7690     2.3910 C.ar  1 <1>  -0.1500 
 14 O       -0.8190    -7.7160     1.1440 O.2   1 <1>  -0.5700 
 15 N       -3.0350    -7.4870     1.3100 N.am  1 <1>  -0.6600 
 16 C       -3.2840    -8.9610     1.4080 C.3   1 <1>   0.1400 
 17 C       -4.2330    -6.7360     0.8210 C.3   1 <1>   0.1400 
 18 C       -3.9080    -9.5020     0.1090 C.3   1 <1>   0.3430 
 19 C       -4.8120    -7.3920    -0.4500 C.3   1 <1>   0.2950 
 20 O       -5.0490    -8.7540    -0.2250 O.3   1 <1>  -0.5600 
 21 C       -4.2860   -10.9720     0.2650 C.ar  1 <1>  -0.1430 
 22 C       -6.1240    -6.7060    -0.8700 C.3   1 <1>  -0.1950 
 23 C       -3.3510   -11.9530    -0.0350 C.ar  1 <1>  -0.1500 
 24 C       -5.5420   -11.3560     0.7160 C.ar  1 <1>  -0.1500 
 25 C       -7.4450    -7.0580    -0.2580 C.3   1 <1>  -0.2000 
 26 C       -7.1650    -7.3990    -1.6950 C.3   1 <1>  -0.2000 
 27 C       -3.6650   -13.2930     0.1120 C.ar  1 <1>  -0.1500 
 28 C       -5.8580   -12.6950     0.8630 C.ar  1 <1>  -0.1500 
 29 C       -4.9190   -13.6650     0.5620 C.ar  1 <1>  -0.1500 
 30 H        1.6390    -0.4080    -1.9000 H     1 <1>   0.3700 
 31 H        2.3150    -3.7430     0.2420 H     1 <1>   0.0800 
 32 H        1.6230    -4.3800    -1.2460 H     1 <1>   0.0800 
 33 H        2.7670    -2.7700    -2.4370 H     1 <1>   0.0800 
 34 H        3.3510    -2.0430    -0.9370 H     1 <1>   0.0800 
 35 H       -0.1670    -5.4710    -0.2160 H     1 <1>   0.1500 
 36 H       -0.9340    -1.7220     1.6460 H     1 <1>   0.1500 
 37 H       -2.4430    -2.8230     3.2310 H     1 <1>   0.1500 
 38 H       -2.8160    -5.2520     3.0910 H     1 <1>   0.1500 
 39 H       -2.3700    -9.4910     1.6090 H     1 <1>   0.0800 
 40 H       -3.9570    -9.1540     2.2250 H     1 <1>   0.0800 
 41 H       -4.9870    -6.7310     1.5890 H     1 <1>   0.0800 
 42 H       -3.9800    -5.7160     0.5970 H     1 <1>   0.0800 
 43 H       -3.2010    -9.4030    -0.6970 H     1 <1>   0.0800 
 44 H       -4.1020    -7.3070    -1.2560 H     1 <1>   0.0800 
 45 H       -5.9620    -5.6670    -1.0980 H     1 <1>   0.1000 
 46 H       -2.3700   -11.6780    -0.3840 H     1 <1>   0.1500 
 47 H       -6.2820   -10.6090     0.9500 H     1 <1>   0.1500 
 48 H       -7.5000    -7.8670     0.4510 H     1 <1>   0.1000 
 49 H       -8.1480    -6.2710    -0.0420 H     1 <1>   0.1000 
 50 H       -7.6700    -6.8470    -2.4670 H     1 <1>   0.1000 
 51 H       -7.0270    -8.4360    -1.9530 H     1 <1>   0.1000 
 52 H       -2.9330   -14.0460    -0.1240 H     1 <1>   0.1500 
 53 H       -6.8350   -12.9810     1.2110 H     1 <1>   0.1500 
 54 H       -5.1640   -14.7070     0.6760 H     1 <1>   0.1500 
@<TRIPOS>BOND
  1   1   2  2   
  2   2   3  am  
  3   2   4  am  
  4   3   5  1   
  5   3   6  1   
  6   4   7  1   
  7   4  30  1   
  8   5   8  ar  
  9   5   9  ar  
 10   6   7  1   
 11   6  31  1   
 12   6  32  1   
 13   7  33  1   
 14   7  34  1   
 15   8  10  ar  
 16   8  35  1   
 17   9  11  ar  
 18   9  36  1   
 19  10  12  1   
 20  10  13  ar  
 21  11  13  ar  
 22  11  37  1   
 23  12  14  2   
 24  12  15  am  
 25  13  38  1   
 26  15  16  1   
 27  15  17  1   
 28  16  18  1   
 29  16  39  1   
 30  16  40  1   
 31  17  19  1   
 32  17  41  1   
 33  17  42  1   
 34  18  20  1   
 35  18  21  1   
 36  18  43  1   
 37  19  20  1   
 38  19  22  1   
 39  19  44  1   
 40  21  23  ar  
 41  21  24  ar  
 42  22  25  1   
 43  22  26  1   
 44  22  45  1   
 45  23  27  ar  
 46  23  46  1   
 47  24  28  ar  
 48  24  47  1   
 49  25  26  1   
 50  25  48  1   
 51  25  49  1   
 52  26  50  1   
 53  26  51  1   
 54  27  29  ar  
 55  27  52  1   
 56  28  29  ar  
 57  28  53  1   
 58  29  54  1   
@<TRIPOS>SUBSTRUCTURE
  1 ****  15 GROUP 4 **** **** 0

# MOE 2024.06 (io_trps.svl 2023.06)
