@<TRIPOS>MOLECULE
NONAME
60 62 1 0 0 
SMALL
USER_CHARGES


@<TRIPOS>ATOM
  1 O        3.2550    -0.4180     1.7120 O.2   1 <1>  -0.5700 
  2 C        2.5910    -0.8220     0.7730 C.2   1 <1>   0.5440 
  3 N        2.2770     0.1210    -0.1770 N.am  1 <1>  -0.6600 
  4 C        2.3370    -2.2420     0.5730 C.ar  1 <1>   0.0860 
  5 C        3.0340     0.1280    -1.4640 C.3   1 <1>   0.1400 
  6 C        1.5920     1.3960     0.1850 C.3   1 <1>   0.1400 
  7 C        1.1340    -2.7700     0.0690 C.ar  1 <1>  -0.1440 
  8 C        3.3670    -3.1360     0.8750 C.ar  1 <1>  -0.1500 
  9 C        4.5040     0.5510    -1.2300 C.3   1 <1>   0.3430 
 10 C        2.5560     2.4570     0.7450 C.3   1 <1>  -0.1600 
 11 C        1.0360    -4.1360    -0.1720 C.ar  1 <1>  -0.1500 
 12 C       -0.0660    -1.8540    -0.2080 C.3   1 <1>  -0.0160 
 13 C        3.2510    -4.4920     0.6460 C.ar  1 <1>  -0.1500 
 14 N        4.6400     1.3920     0.0130 N.4   1 <1>  -0.9590 
 15 C        3.8530     2.6560    -0.0430 C.3   1 <1>   0.3430 
 16 C        2.0830    -4.9920     0.1110 C.ar  1 <1>  -0.1500 
 17 C       -1.4400    -2.5350    -0.1580 C.3   1 <1>  -0.2400 
 18 C        6.0060     1.4820     0.6460 C.3   1 <1>   0.3430 
 19 C        7.1720     1.9940    -0.2590 C.3   1 <1>   0.4230 
 20 N        8.5030     2.0730     0.4190 N.4   1 <1>  -0.9590 
 21 C        6.9780     3.4130    -0.7850 C.3   1 <1>  -0.1600 
 22 C        9.3530     2.9470    -0.4420 C.3   1 <1>   0.3430 
 23 C        9.1470     0.7560     0.6940 C.3   1 <1>   0.3430 
 24 C        8.3850     3.9160    -1.1120 C.3   1 <1>  -0.1600 
 25 C       10.3200     0.9560     1.6460 C.3   1 <1>  -0.2400 
 26 H        2.5650     0.8050    -2.1570 H     1 <1>   0.0800 
 27 H        3.0060    -0.8540    -1.9080 H     1 <1>   0.0800 
 28 H        0.8360     1.1870     0.9260 H     1 <1>   0.0800 
 29 H        1.0860     1.7810    -0.6850 H     1 <1>   0.0800 
 30 H        4.2810    -2.7630     1.3010 H     1 <1>   0.1500 
 31 H        4.8740     1.0750    -2.0960 H     1 <1>   0.0800 
 32 H        5.0860    -0.3490    -1.1130 H     1 <1>   0.0800 
 33 H        2.7900     2.2170     1.7680 H     1 <1>   0.0800 
 34 H        2.0290     3.3940     0.7710 H     1 <1>   0.0800 
 35 H        0.1400    -4.5680    -0.5800 H     1 <1>   0.1500 
 36 H        0.0580    -1.3900    -1.1700 H     1 <1>   0.0800 
 37 H       -0.0850    -1.0760     0.5340 H     1 <1>   0.0800 
 38 H        4.0620    -5.1580     0.8850 H     1 <1>   0.1500 
 39 H        4.0710     0.8320     0.6970 H     1 <1>   0.4500 
 40 H        4.4090     3.4640     0.4030 H     1 <1>   0.0800 
 41 H        3.6270     2.9190    -1.0640 H     1 <1>   0.0800 
 42 H        1.9840    -6.0470    -0.0790 H     1 <1>   0.1500 
 43 H       -1.5680    -3.2050    -0.9880 H     1 <1>   0.0800 
 44 H       -2.2170    -1.7920    -0.2090 H     1 <1>   0.0800 
 45 H       -1.5540    -3.0810     0.7620 H     1 <1>   0.0800 
 46 H        6.2690     0.4980     0.9960 H     1 <1>   0.0800 
 47 H        5.9360     2.1210     1.5110 H     1 <1>   0.0800 
 48 H        7.2690     1.3300    -1.1020 H     1 <1>   0.0800 
 49 H        8.4010     2.5730     1.3140 H     1 <1>   0.4500 
 50 H        6.5460     4.0380    -0.0220 H     1 <1>   0.0800 
 51 H        6.3410     3.4320    -1.6520 H     1 <1>   0.0800 
 52 H        9.8500     2.3570    -1.1960 H     1 <1>   0.0800 
 53 H       10.0960     3.4710     0.1400 H     1 <1>   0.0800 
 54 H        9.4920     0.3060    -0.2240 H     1 <1>   0.0800 
 55 H        8.4400     0.0850     1.1560 H     1 <1>   0.0800 
 56 H        8.5370     4.9180    -0.7440 H     1 <1>   0.0800 
 57 H        8.5630     3.9210    -2.1740 H     1 <1>   0.0800 
 58 H       11.0940     1.5540     1.2000 H     1 <1>   0.0800 
 59 H       10.7480    -0.0030     1.8820 H     1 <1>   0.0800 
 60 H        9.9980     1.4070     2.5680 H     1 <1>   0.0800 
@<TRIPOS>BOND
  1   1   2  2   
  2   2   3  am  
  3   2   4  1   
  4   3   5  1   
  5   3   6  1   
  6   4   7  ar  
  7   4   8  ar  
  8   5   9  1   
  9   5  26  1   
 10   5  27  1   
 11   6  10  1   
 12   6  28  1   
 13   6  29  1   
 14   7  11  ar  
 15   7  12  1   
 16   8  13  ar  
 17   8  30  1   
 18   9  14  1   
 19   9  31  1   
 20   9  32  1   
 21  10  15  1   
 22  10  33  1   
 23  10  34  1   
 24  11  16  ar  
 25  11  35  1   
 26  12  17  1   
 27  12  36  1   
 28  12  37  1   
 29  13  16  ar  
 30  13  38  1   
 31  14  15  1   
 32  14  18  1   
 33  14  39  1   
 34  15  40  1   
 35  15  41  1   
 36  16  42  1   
 37  17  43  1   
 38  17  44  1   
 39  17  45  1   
 40  18  19  1   
 41  18  46  1   
 42  18  47  1   
 43  19  20  1   
 44  19  21  1   
 45  19  48  1   
 46  20  22  1   
 47  20  23  1   
 48  20  49  1   
 49  21  24  1   
 50  21  50  1   
 51  21  51  1   
 52  22  24  1   
 53  22  52  1   
 54  22  53  1   
 55  23  25  1   
 56  23  54  1   
 57  23  55  1   
 58  24  56  1   
 59  24  57  1   
 60  25  58  1   
 61  25  59  1   
 62  25  60  1   
@<TRIPOS>SUBSTRUCTURE
  1 ****  14 GROUP 4 **** **** 0

# MOE 2024.06 (io_trps.svl 2023.06)
