@<TRIPOS>MOLECULE
NONAME
54 56 1 0 0 
SMALL
USER_CHARGES


@<TRIPOS>ATOM
  1 O       -1.2110     1.6230     2.0300 O.2   1 <1>  -0.5700 
  2 C       -0.8800     2.0020     0.9250 C.2   1 <1>   0.6900 
  3 N       -1.7520     2.1860    -0.1070 N.am  1 <1>  -0.4200 
  4 N        0.3950     2.3050     0.5520 N.am  1 <1>  -0.6600 
  5 C       -1.0790     2.5760    -1.2200 C.2   1 <1>   0.5690 
  6 C       -3.1310     1.6450    -0.1100 C.3   1 <1>   0.2010 
  7 C        0.4020     2.6700    -0.8900 C.3   1 <1>   0.2010 
  8 C        1.6340     2.0810     1.3330 C.3   1 <1>   0.0600 
  9 O       -1.5660     2.8250    -2.2960 O.2   1 <1>  -0.5700 
 10 C       -3.1810     0.1300    -0.3450 C.2   1 <1>   0.5690 
 11 O       -2.2500    -0.4010    -0.9070 O.2   1 <1>  -0.5700 
 12 N       -4.2710    -0.6040     0.0580 N.am  1 <1>  -0.6600 
 13 C       -4.2890    -2.0990    -0.0530 C.3   1 <1>   0.1400 
 14 C       -5.5550    -0.0550     0.5950 C.3   1 <1>   0.1400 
 15 C       -5.5620    -2.5900    -0.7640 C.3   1 <1>   0.3440 
 16 C       -6.7700    -0.6460    -0.1610 C.3   1 <1>   0.2000 
 17 O       -6.6970    -2.0480    -0.1420 O.3   1 <1>  -0.5600 
 18 C       -5.6400    -4.1140    -0.7380 C.ar  1 <1>  -0.1440 
 19 C       -8.1590    -0.1990     0.3880 C.3   1 <1>   0.0000 
 20 C       -5.0680    -4.8450    -1.7690 C.ar  1 <1>  -0.1500 
 21 C       -6.2600    -4.7910     0.3040 C.ar  1 <1>  -0.1500 
 22 C       -9.2740    -0.7960    -0.4920 C.3   1 <1>  -0.2400 
 23 C       -8.3040     1.3330     0.3430 C.3   1 <1>  -0.2400 
 24 C       -8.3890    -0.6680     1.8380 C.3   1 <1>  -0.2400 
 25 C       -5.1140    -6.2290    -1.7600 C.ar  1 <1>  -0.1500 
 26 C       -6.3070    -6.1740     0.3150 C.ar  1 <1>  -0.1500 
 27 C       -5.7330    -6.8950    -0.7170 C.ar  1 <1>  -0.1500 
 28 H       -3.5780     1.8700     0.8390 H     1 <1>   0.0800 
 29 H       -3.6960     2.1310    -0.8840 H     1 <1>   0.0800 
 30 H        0.7660     3.6710    -1.0350 H     1 <1>   0.0800 
 31 H        0.9650     1.9590    -1.4670 H     1 <1>   0.0800 
 32 H        2.1980     2.9950     1.3930 H     1 <1>   0.0800 
 33 H        2.2310     1.3200     0.8620 H     1 <1>   0.0800 
 34 H        1.3840     1.7600     2.3310 H     1 <1>   0.0800 
 35 H       -3.4300    -2.4540    -0.5940 H     1 <1>   0.0800 
 36 H       -4.2530    -2.5270     0.9330 H     1 <1>   0.0800 
 37 H       -5.6240    -0.3030     1.6400 H     1 <1>   0.0800 
 38 H       -5.5740     1.0140     0.5040 H     1 <1>   0.0800 
 39 H       -5.5540    -2.2550    -1.7870 H     1 <1>   0.0800 
 40 H       -6.7080    -0.3360    -1.1910 H     1 <1>   0.0800 
 41 H       -4.5810    -4.3420    -2.5860 H     1 <1>   0.1500 
 42 H       -6.7120    -4.2400     1.1110 H     1 <1>   0.1500 
 43 H      -10.2440    -0.4780    -0.1510 H     1 <1>   0.0800 
 44 H       -9.2470    -1.8710    -0.4590 H     1 <1>   0.0800 
 45 H       -9.1560    -0.4890    -1.5150 H     1 <1>   0.0800 
 46 H       -9.3010     1.6230     0.6250 H     1 <1>   0.0800 
 47 H       -8.1160     1.7020    -0.6500 H     1 <1>   0.0800 
 48 H       -7.6230     1.8110     1.0240 H     1 <1>   0.0800 
 49 H       -9.3770    -0.4010     2.1670 H     1 <1>   0.0800 
 50 H       -7.6830    -0.2190     2.5120 H     1 <1>   0.0800 
 51 H       -8.2930    -1.7370     1.9060 H     1 <1>   0.0800 
 52 H       -4.6680    -6.7880    -2.5640 H     1 <1>   0.1500 
 53 H       -6.7920    -6.6880     1.1270 H     1 <1>   0.1500 
 54 H       -5.7700    -7.9700    -0.7090 H     1 <1>   0.1500 
@<TRIPOS>BOND
  1   1   2  2   
  2   2   3  am  
  3   2   4  am  
  4   3   5  am  
  5   3   6  1   
  6   4   7  1   
  7   4   8  1   
  8   5   7  1   
  9   5   9  2   
 10   6  10  1   
 11   6  28  1   
 12   6  29  1   
 13   7  30  1   
 14   7  31  1   
 15   8  32  1   
 16   8  33  1   
 17   8  34  1   
 18  10  11  2   
 19  10  12  am  
 20  12  13  1   
 21  12  14  1   
 22  13  15  1   
 23  13  35  1   
 24  13  36  1   
 25  14  16  1   
 26  14  37  1   
 27  14  38  1   
 28  15  17  1   
 29  15  18  1   
 30  15  39  1   
 31  16  17  1   
 32  16  19  1   
 33  16  40  1   
 34  18  20  ar  
 35  18  21  ar  
 36  19  22  1   
 37  19  23  1   
 38  19  24  1   
 39  20  25  ar  
 40  20  41  1   
 41  21  26  ar  
 42  21  42  1   
 43  22  43  1   
 44  22  44  1   
 45  22  45  1   
 46  23  46  1   
 47  23  47  1   
 48  23  48  1   
 49  24  49  1   
 50  24  50  1   
 51  24  51  1   
 52  25  27  ar  
 53  25  52  1   
 54  26  27  ar  
 55  26  53  1   
 56  27  54  1   
@<TRIPOS>SUBSTRUCTURE
  1 ****  12 GROUP 4 **** **** 0

# MOE 2024.06 (io_trps.svl 2023.06)
