@<TRIPOS>MOLECULE
NONAME
52 54 1 0 0 
SMALL
USER_CHARGES


@<TRIPOS>ATOM
  1 O       -0.0180     0.9390     0.6890 O.3   1 <1>  -0.3630 
  2 C        1.2270     1.2370     0.2290 C.ar  1 <1>   0.0830 
  3 C       -1.1740     1.4040     0.0420 C.3   1 <1>   0.1200 
  4 C        2.3140     0.7790     0.9670 C.ar  1 <1>  -0.1440 
  5 C        1.4470     1.9720    -0.9340 C.ar  1 <1>  -0.1500 
  6 C       -2.3750     0.9040     0.8480 C.3   1 <1>   0.3430 
  7 C        3.6010     1.0610     0.5380 C.ar  1 <1>  -0.1500 
  8 C        2.1100    -0.0300     2.2410 C.3   1 <1>  -0.0960 
  9 C        2.7380     2.2470    -1.3500 C.ar  1 <1>  -0.1500 
 10 N       -3.6890     1.2920     0.2410 N.4   1 <1>  -0.9590 
 11 C        3.8200     1.7950    -0.6160 C.ar  1 <1>  -0.1430 
 12 C       -4.8030     0.5550     0.9200 C.3   1 <1>   0.3430 
 13 C       -3.9280     2.7660     0.3010 C.3   1 <1>   0.3430 
 14 C        5.2370     2.0930    -1.0720 C.3   1 <1>  -0.0970 
 15 C       -6.1470     0.7990     0.2160 C.3   1 <1>   0.0000 
 16 C       -5.2280     3.1090    -0.4280 C.3   1 <1>  -0.1600 
 17 C       -7.2480     0.0190     0.9500 C.3   1 <1>   0.2000 
 18 C       -6.4230     2.3280     0.1420 C.3   1 <1>  -0.1600 
 19 C       -6.2340     0.1700    -1.1870 C.3   1 <1>  -0.1600 
 20 O       -7.6310     0.6460     2.1180 O.3   1 <1>  -0.6800 
 21 C       -8.4010    -0.0870    -0.0400 C.3   1 <1>  -0.1600 
 22 C       -7.7290    -0.1030    -1.4220 C.3   1 <1>  -0.1600 
 23 H       -1.1320     2.4790     0.0250 H     1 <1>   0.0800 
 24 H       -1.1830     0.9990    -0.9550 H     1 <1>   0.0800 
 25 H        0.6400     2.3410    -1.5350 H     1 <1>   0.1500 
 26 H       -2.3100     1.2960     1.8500 H     1 <1>   0.0800 
 27 H       -2.3120    -0.1710     0.9020 H     1 <1>   0.0800 
 28 H        4.4440     0.7080     1.1050 H     1 <1>   0.1500 
 29 H        3.0510    -0.3050     2.6810 H     1 <1>   0.0800 
 30 H        1.5620    -0.9280     2.0190 H     1 <1>   0.0800 
 31 H        1.5560     0.5500     2.9560 H     1 <1>   0.0800 
 32 H        2.8990     2.8140    -2.2500 H     1 <1>   0.1500 
 33 H       -3.7050     1.0090    -0.7480 H     1 <1>   0.4500 
 34 H       -4.5960    -0.5030     0.9240 H     1 <1>   0.0800 
 35 H       -4.8870     0.8830     1.9440 H     1 <1>   0.0800 
 36 H       -4.0030     3.0810     1.3300 H     1 <1>   0.0800 
 37 H       -3.1120     3.2990    -0.1590 H     1 <1>   0.0800 
 38 H        5.2630     2.9880    -1.6670 H     1 <1>   0.0800 
 39 H        5.6100     1.2740    -1.6600 H     1 <1>   0.0800 
 40 H        5.8820     2.2330    -0.2230 H     1 <1>   0.0800 
 41 H       -5.4180     4.1630    -0.3220 H     1 <1>   0.0800 
 42 H       -5.1140     2.9150    -1.4800 H     1 <1>   0.0800 
 43 H       -6.9060    -0.9730     1.2000 H     1 <1>   0.0800 
 44 H       -7.3010     2.5310    -0.4470 H     1 <1>   0.0800 
 45 H       -6.6180     2.7070     1.1310 H     1 <1>   0.0800 
 46 H       -5.8270     0.7890    -1.9660 H     1 <1>   0.0800 
 47 H       -5.7140    -0.7740    -1.1960 H     1 <1>   0.0800 
 48 H       -8.4530     0.2430     2.4660 H     1 <1>   0.4000 
 49 H       -8.9750    -0.9820     0.1230 H     1 <1>   0.0800 
 50 H       -9.0430     0.7740     0.0360 H     1 <1>   0.0800 
 51 H       -7.8700    -1.0520    -1.9120 H     1 <1>   0.0800 
 52 H       -8.1580     0.6670    -2.0410 H     1 <1>   0.0800 
@<TRIPOS>BOND
  1   1   2  1   
  2   1   3  1   
  3   2   4  ar  
  4   2   5  ar  
  5   3   6  1   
  6   3  23  1   
  7   3  24  1   
  8   4   7  ar  
  9   4   8  1   
 10   5   9  ar  
 11   5  25  1   
 12   6  10  1   
 13   6  26  1   
 14   6  27  1   
 15   7  11  ar  
 16   7  28  1   
 17   8  29  1   
 18   8  30  1   
 19   8  31  1   
 20   9  11  ar  
 21   9  32  1   
 22  10  12  1   
 23  10  13  1   
 24  10  33  1   
 25  11  14  1   
 26  12  15  1   
 27  12  34  1   
 28  12  35  1   
 29  13  16  1   
 30  13  36  1   
 31  13  37  1   
 32  14  38  1   
 33  14  39  1   
 34  14  40  1   
 35  15  17  1   
 36  15  18  1   
 37  15  19  1   
 38  16  18  1   
 39  16  41  1   
 40  16  42  1   
 41  17  20  1   
 42  17  21  1   
 43  17  43  1   
 44  18  44  1   
 45  18  45  1   
 46  19  22  1   
 47  19  46  1   
 48  19  47  1   
 49  20  48  1   
 50  21  22  1   
 51  21  49  1   
 52  21  50  1   
 53  22  51  1   
 54  22  52  1   
@<TRIPOS>SUBSTRUCTURE
  1 ****   6 GROUP 4 **** **** 0

# MOE 2024.06 (io_trps.svl 2023.06)
