@<TRIPOS>MOLECULE
NONAME
57 59 1 0 0 
SMALL
USER_CHARGES


@<TRIPOS>ATOM
  1 F       -2.1310    -1.3710    -3.5110 F     1 <1>  -0.1900 
  2 C       -2.7650    -1.5440    -2.3820 C.ar  1 <1>   0.1900 
  3 C       -2.6240    -2.7510    -1.7230 C.ar  1 <1>  -0.1500 
  4 C       -3.5510    -0.5180    -1.8960 C.ar  1 <1>  -0.1500 
  5 C       -3.2980    -2.9560    -0.5250 C.ar  1 <1>  -0.1440 
  6 C       -4.2210    -0.7160    -0.7020 C.ar  1 <1>  -0.1500 
  7 C       -4.0940    -1.9230    -0.0230 C.ar  1 <1>   0.0830 
  8 C       -3.1170    -4.3010     0.1870 C.3   1 <1>   0.4600 
  9 O       -4.7820    -2.0930     1.1220 O.3   1 <1>  -0.3630 
 10 N       -4.2150    -5.2530    -0.2910 N.4   1 <1>  -0.9590 
 11 C       -2.8340    -4.2170     1.7220 C.2   1 <1>   0.9060 
 12 C       -4.3070    -1.3940     2.2550 C.3   1 <1>   0.0400 
 13 C       -5.5320    -4.8400     0.2740 C.3   1 <1>   0.3430 
 14 C       -3.8870    -6.6330     0.1560 C.3   1 <1>   0.3430 
 15 O       -3.5780    -4.8240     2.5120 O.co2 1 <1>  -0.9000 
 16 O       -1.8240    -3.6240     2.1140 O.co2 1 <1>  -0.9000 
 17 C       -6.6300    -5.7660    -0.2520 C.3   1 <1>  -0.1600 
 18 C       -4.9310    -7.6150    -0.3780 C.3   1 <1>  -0.1600 
 19 C       -6.3520    -7.2410     0.0830 C.3   1 <1>  -0.0800 
 20 C       -7.4330    -8.1330    -0.5580 C.3   1 <1>  -0.1600 
 21 C       -7.3460    -9.6150    -0.1460 C.3   1 <1>  -0.0990 
 22 C       -8.4330   -10.4400    -0.8100 C.2   1 <1>   0.5690 
 23 O       -8.2190   -10.8610    -1.9190 O.2   1 <1>  -0.5700 
 24 N       -9.5890   -10.6550    -0.1120 N.am  1 <1>  -0.5470 
 25 C      -10.7660   -11.3430    -0.4510 C.ar  1 <1>   0.1170 
 26 C      -11.1160   -11.6640    -1.7590 C.ar  1 <1>  -0.1500 
 27 C      -11.6360   -11.7100     0.5710 C.ar  1 <1>  -0.1500 
 28 C      -12.2940   -12.3330    -2.0370 C.ar  1 <1>  -0.1500 
 29 C      -12.8160   -12.3790     0.2980 C.ar  1 <1>  -0.1500 
 30 C      -13.1470   -12.6920    -1.0080 C.ar  1 <1>  -0.1500 
 31 H       -1.9870    -3.5050    -2.1490 H     1 <1>   0.1500 
 32 H       -3.6330     0.4060    -2.4380 H     1 <1>   0.1500 
 33 H       -4.8460     0.0580    -0.2950 H     1 <1>   0.1500 
 34 H       -2.1920    -4.6920    -0.1930 H     1 <1>   0.0800 
 35 H       -4.2610    -5.1990    -1.3090 H     1 <1>   0.4500 
 36 H       -4.7570    -1.8280     3.1300 H     1 <1>   0.0800 
 37 H       -4.5770    -0.3580     2.1690 H     1 <1>   0.0800 
 38 H       -3.2370    -1.4990     2.3160 H     1 <1>   0.0800 
 39 H       -5.7570    -3.8270    -0.0130 H     1 <1>   0.0800 
 40 H       -5.5000    -4.8840     1.3520 H     1 <1>   0.0800 
 41 H       -3.8800    -6.6720     1.2350 H     1 <1>   0.0800 
 42 H       -2.9080    -6.9140    -0.1960 H     1 <1>   0.0800 
 43 H       -6.7190    -5.6320    -1.3160 H     1 <1>   0.0800 
 44 H       -7.5630    -5.4670     0.1910 H     1 <1>   0.0800 
 45 H       -4.6760    -8.5940    -0.0150 H     1 <1>   0.0800 
 46 H       -4.8790    -7.6400    -1.4520 H     1 <1>   0.0800 
 47 H       -6.4030    -7.3520     1.1550 H     1 <1>   0.0800 
 48 H       -7.3650    -8.0680    -1.6320 H     1 <1>   0.0800 
 49 H       -8.4050    -7.7630    -0.2780 H     1 <1>   0.0800 
 50 H       -7.4210    -9.7090     0.9220 H     1 <1>   0.0800 
 51 H       -6.4020   -10.0290    -0.4480 H     1 <1>   0.0800 
 52 H       -9.5930   -10.2750     0.8310 H     1 <1>   0.3700 
 53 H      -10.4720   -11.3910    -2.5740 H     1 <1>   0.1500 
 54 H      -11.3920   -11.4760     1.5900 H     1 <1>   0.1500 
 55 H      -12.5460   -12.5750    -3.0550 H     1 <1>   0.1500 
 56 H      -13.4780   -12.6570     1.1000 H     1 <1>   0.1500 
 57 H      -14.0640   -13.2140    -1.2250 H     1 <1>   0.1500 
@<TRIPOS>BOND
  1   1   2  1   
  2   2   3  ar  
  3   2   4  ar  
  4   3   5  ar  
  5   3  31  1   
  6   4   6  ar  
  7   4  32  1   
  8   5   7  ar  
  9   5   8  1   
 10   6   7  ar  
 11   6  33  1   
 12   7   9  1   
 13   8  10  1   
 14   8  11  1   
 15   8  34  1   
 16   9  12  1   
 17  10  13  1   
 18  10  14  1   
 19  10  35  1   
 20  11  15  ar  
 21  11  16  ar  
 22  12  36  1   
 23  12  37  1   
 24  12  38  1   
 25  13  17  1   
 26  13  39  1   
 27  13  40  1   
 28  14  18  1   
 29  14  41  1   
 30  14  42  1   
 31  17  19  1   
 32  17  43  1   
 33  17  44  1   
 34  18  19  1   
 35  18  45  1   
 36  18  46  1   
 37  19  20  1   
 38  19  47  1   
 39  20  21  1   
 40  20  48  1   
 41  20  49  1   
 42  21  22  1   
 43  21  50  1   
 44  21  51  1   
 45  22  23  2   
 46  22  24  am  
 47  24  25  1   
 48  24  52  1   
 49  25  26  ar  
 50  25  27  ar  
 51  26  28  ar  
 52  26  53  1   
 53  27  29  ar  
 54  27  54  1   
 55  28  30  ar  
 56  28  55  1   
 57  29  30  ar  
 58  29  56  1   
 59  30  57  1   
@<TRIPOS>SUBSTRUCTURE
  1 ****  17 GROUP 4 **** **** 0

# MOE 2024.06 (io_trps.svl 2023.06)
