@<TRIPOS>MOLECULE
NONAME
48 50 1 0 0 
SMALL
USER_CHARGES


@<TRIPOS>ATOM
  1 O       -0.2380    -0.4550     0.3670 O.3   1 <1>  -0.3630 
  2 C       -0.2630    -1.7900     0.1020 C.ar  1 <1>   0.0820 
  3 C       -1.3630     0.2210     0.8850 C.3   1 <1>   0.0400 
  4 C        0.9430    -2.4370    -0.2590 C.ar  1 <1>   0.0820 
  5 C       -1.4140    -2.5400     0.1890 C.ar  1 <1>  -0.1500 
  6 O        2.1290    -1.7870    -0.3860 O.3   1 <1>  -0.3630 
  7 C        0.9530    -3.7880    -0.4850 C.ar  1 <1>  -0.1500 
  8 C       -1.4280    -3.9210    -0.0530 C.ar  1 <1>   0.3100 
  9 C        2.1900    -0.6460    -1.2140 C.3   1 <1>   0.0400 
 10 C       -0.2170    -4.5680    -0.3930 C.ar  1 <1>   0.0000 
 11 N       -2.6140    -4.5640     0.0600 N.ar  1 <1>  -0.6200 
 12 C       -0.2600    -5.9600    -0.6240 C.ar  1 <1>  -0.1430 
 13 C       -2.6210    -5.8490    -0.1560 C.ar  1 <1>   0.4100 
 14 C       -1.4670    -6.5750    -0.5020 C.ar  1 <1>  -0.1500 
 15 C        0.9860    -6.7490    -0.9990 C.3   1 <1>  -0.0970 
 16 N       -3.8180    -6.5240    -0.0280 N.pl3 1 <1>  -0.8380 
 17 C       -3.9310    -7.5440     1.0570 C.3   1 <1>   0.2090 
 18 C       -5.0930    -5.7980    -0.2800 C.3   1 <1>   0.2090 
 19 C       -4.9560    -8.6110     0.6460 C.3   1 <1>   0.2000 
 20 C       -6.1960    -6.7980    -0.6510 C.3   1 <1>  -0.1600 
 21 O       -4.4920    -9.1940    -0.5200 O.3   1 <1>  -0.6800 
 22 C       -6.3270    -7.9580     0.3680 C.3   1 <1>  -0.0800 
 23 C       -7.3470    -9.0110    -0.0970 C.3   1 <1>   0.1200 
 24 O       -8.6070    -8.4380    -0.1820 O.3   1 <1>  -0.6800 
 25 H       -1.0830     1.2420     1.0690 H     1 <1>   0.0800 
 26 H       -1.6600    -0.2480     1.8060 H     1 <1>   0.0800 
 27 H       -2.1570     0.1860     0.1600 H     1 <1>   0.0800 
 28 H       -2.3570    -2.1040     0.4500 H     1 <1>   0.1500 
 29 H        1.8830    -4.2550    -0.7420 H     1 <1>   0.1500 
 30 H        3.2060    -0.5270    -1.5450 H     1 <1>   0.0800 
 31 H        1.8920     0.2150    -0.6450 H     1 <1>   0.0800 
 32 H        1.5390    -0.7860    -2.0600 H     1 <1>   0.0800 
 33 H       -1.5810    -7.6290    -0.6710 H     1 <1>   0.1500 
 34 H        0.7550    -7.7900    -1.1340 H     1 <1>   0.0800 
 35 H        1.7240    -6.6630    -0.2220 H     1 <1>   0.0800 
 36 H        1.3980    -6.3720    -1.9190 H     1 <1>   0.0800 
 37 H       -2.9790    -8.0090     1.2450 H     1 <1>   0.0800 
 38 H       -4.2490    -7.0610     1.9650 H     1 <1>   0.0800 
 39 H       -5.3690    -5.2500     0.6060 H     1 <1>   0.0800 
 40 H       -4.9570    -5.0930    -1.0820 H     1 <1>   0.0800 
 41 H       -5.0360    -9.3780     1.3960 H     1 <1>   0.0800 
 42 H       -7.1290    -6.2700    -0.7240 H     1 <1>   0.0800 
 43 H       -5.9800    -7.1940    -1.6280 H     1 <1>   0.0800 
 44 H       -4.1820    -8.4490    -1.0840 H     1 <1>   0.4000 
 45 H       -6.6730    -7.5510     1.3010 H     1 <1>   0.0800 
 46 H       -7.3980    -9.8350     0.5930 H     1 <1>   0.0800 
 47 H       -7.0870    -9.3890    -1.0720 H     1 <1>   0.0800 
 48 H       -8.9200    -8.1550     0.6970 H     1 <1>   0.4000 
@<TRIPOS>BOND
  1   1   2  1   
  2   1   3  1   
  3   2   4  ar  
  4   2   5  ar  
  5   3  25  1   
  6   3  26  1   
  7   3  27  1   
  8   4   6  1   
  9   4   7  ar  
 10   5   8  ar  
 11   5  28  1   
 12   6   9  1   
 13   7  10  ar  
 14   7  29  1   
 15   8  10  ar  
 16   8  11  ar  
 17   9  30  1   
 18   9  31  1   
 19   9  32  1   
 20  10  12  ar  
 21  11  13  ar  
 22  12  14  ar  
 23  12  15  1   
 24  13  14  ar  
 25  13  16  1   
 26  14  33  1   
 27  15  34  1   
 28  15  35  1   
 29  15  36  1   
 30  16  17  1   
 31  16  18  1   
 32  17  19  1   
 33  17  37  1   
 34  17  38  1   
 35  18  20  1   
 36  18  39  1   
 37  18  40  1   
 38  19  21  1   
 39  19  22  1   
 40  19  41  1   
 41  20  22  1   
 42  20  42  1   
 43  20  43  1   
 44  21  44  1   
 45  22  23  1   
 46  22  45  1   
 47  23  24  1   
 48  23  46  1   
 49  23  47  1   
 50  24  48  1   
@<TRIPOS>SUBSTRUCTURE
  1 ****  11 GROUP 4 **** **** 0

# MOE 2024.06 (io_trps.svl 2023.06)
