@<TRIPOS>MOLECULE
NONAME
40 41 1 0 0 
SMALL
USER_CHARGES


@<TRIPOS>ATOM
  1 S        0.3280     0.0010     0.5180 S.o2  1 <1>   1.3330 
  2 O       -0.4510    -0.0160     1.7350 O.2   1 <1>  -0.6500 
  3 O        1.7710     0.0270     0.5910 O.2   1 <1>  -0.6500 
  4 N       -0.1170    -1.3450    -0.4180 N.am  1 <1>  -0.8490 
  5 C       -0.2350     1.3820    -0.4750 C.3   1 <1>  -0.0550 
  6 C       -0.3860    -2.5290     0.4030 C.3   1 <1>   0.1160 
  7 C        0.8570    -1.6750    -1.4640 C.3   1 <1>   0.1160 
  8 C       -0.0150     2.7460     0.2000 C.3   1 <1>  -0.0800 
  9 C       -0.5870     3.8960    -0.6250 C.3   1 <1>   0.2000 
 10 C        1.4550     3.1230     0.3980 C.3   1 <1>   0.2090 
 11 O       -1.9450     4.0260    -0.3730 O.3   1 <1>  -0.6800 
 12 C        0.2040     5.1350    -0.2070 C.3   1 <1>   0.2090 
 13 N        1.4800     4.6020     0.3280 N.pl3 1 <1>  -0.8380 
 14 C        2.6450     5.3310     0.3470 C.ar  1 <1>   0.7200 
 15 N        2.5370     6.6430     0.1450 N.ar  1 <1>  -0.6200 
 16 N        3.7710     4.6560     0.5650 N.ar  1 <1>  -0.6200 
 17 C        3.6510     7.3300     0.1710 C.ar  1 <1>   0.1670 
 18 C        4.8710     5.3670     0.5870 C.ar  1 <1>   0.1600 
 19 C        4.8660     6.7270     0.3920 C.ar  1 <1>  -0.1500 
 20 C        3.5420     8.8230    -0.0540 C.3   1 <1>  -0.0970 
 21 H        0.2660     1.3700    -1.4220 H     1 <1>   0.0800 
 22 H       -1.2850     1.2610    -0.6590 H     1 <1>   0.0800 
 23 H       -0.6800    -3.3560    -0.2190 H     1 <1>   0.0800 
 24 H       -1.1890    -2.3250     1.0920 H     1 <1>   0.0800 
 25 H        0.4920    -2.8010     0.9670 H     1 <1>   0.0800 
 26 H        0.4820    -2.4750    -2.0790 H     1 <1>   0.0800 
 27 H        1.7930    -1.9790    -1.0250 H     1 <1>   0.0800 
 28 H        1.0340    -0.8180    -2.0920 H     1 <1>   0.0800 
 29 H       -0.4740     2.7440     1.1740 H     1 <1>   0.0800 
 30 H       -0.4520     3.7260    -1.6800 H     1 <1>   0.0800 
 31 H        2.0710     2.7220    -0.3910 H     1 <1>   0.0800 
 32 H        1.8300     2.7800     1.3490 H     1 <1>   0.0800 
 33 H       -2.0980     4.1800     0.5800 H     1 <1>   0.4000 
 34 H       -0.3010     5.6790     0.5720 H     1 <1>   0.0800 
 35 H        0.3820     5.7780    -1.0520 H     1 <1>   0.0800 
 36 H        5.7990     4.8520     0.7640 H     1 <1>   0.1500 
 37 H        5.7800     7.2890     0.4140 H     1 <1>   0.1500 
 38 H        4.5070     9.2930    -0.0120 H     1 <1>   0.0800 
 39 H        2.9110     9.2530     0.7020 H     1 <1>   0.0800 
 40 H        3.1030     9.0090    -1.0170 H     1 <1>   0.0800 
@<TRIPOS>BOND
  1   1   2  2   
  2   1   3  2   
  3   1   4  am  
  4   1   5  1   
  5   4   6  1   
  6   4   7  1   
  7   5   8  1   
  8   5  21  1   
  9   5  22  1   
 10   6  23  1   
 11   6  24  1   
 12   6  25  1   
 13   7  26  1   
 14   7  27  1   
 15   7  28  1   
 16   8   9  1   
 17   8  10  1   
 18   8  29  1   
 19   9  11  1   
 20   9  12  1   
 21   9  30  1   
 22  10  13  1   
 23  10  31  1   
 24  10  32  1   
 25  11  33  1   
 26  12  13  1   
 27  12  34  1   
 28  12  35  1   
 29  13  14  1   
 30  14  15  ar  
 31  14  16  ar  
 32  15  17  ar  
 33  16  18  ar  
 34  17  19  ar  
 35  17  20  1   
 36  18  19  ar  
 37  18  36  1   
 38  19  37  1   
 39  20  38  1   
 40  20  39  1   
 41  20  40  1   
@<TRIPOS>SUBSTRUCTURE
  1 ****  10 GROUP 4 **** **** 0

# MOE 2024.06 (io_trps.svl 2023.06)
