@<TRIPOS>MOLECULE
NONAME
44 46 1 0 0 
SMALL
USER_CHARGES


@<TRIPOS>ATOM
  1 O        1.0140    -0.6390    -1.7690 O.2   1 <1>  -0.5700 
  2 C        1.5190    -0.8910    -0.6930 C.2   1 <1>   0.5440 
  3 N        2.1690     0.0740     0.0240 N.am  1 <1>  -0.4930 
  4 C        1.4180    -2.2250    -0.1530 C.ar  1 <1>   0.0860 
  5 C        2.2550     1.4640    -0.2350 C.2   1 <1>   0.0630 
  6 C        0.2030    -2.7330     0.3280 C.ar  1 <1>  -0.0230 
  7 C        2.5480    -3.0400    -0.0950 C.ar  1 <1>  -0.1500 
  8 C        1.2390     2.3630    -0.5710 C.2   1 <1>   0.1080 
  9 C        3.3750     2.2160    -0.1680 C.2   1 <1>  -0.3320 
 10 N       -0.9780    -1.9470     0.3120 N.pl3 1 <1>   0.3260 
 11 C        0.1520    -4.0220     0.8490 C.ar  1 <1>  -0.1500 
 12 C        2.4870    -4.3170     0.4270 C.ar  1 <1>  -0.1500 
 13 N        1.6830     3.5740    -0.7040 N.2   1 <1>  -0.7070 
 14 C       -0.2270     2.0300    -0.7520 C.3   1 <1>  -0.0590 
 15 N        3.0020     3.4890    -0.4620 N.pl3 1 <1>   0.3140 
 16 C        4.8020     1.7930     0.1510 C.3   1 <1>  -0.0600 
 17 C       -1.7100    -1.5410     1.3590 C.2   1 <1>   0.0360 
 18 C       -1.6860    -1.4540    -0.7140 C.2   1 <1>   0.0370 
 19 C        1.2850    -4.8100     0.9010 C.ar  1 <1>  -0.1500 
 20 C        3.8610     4.6890    -0.5350 C.3   1 <1>   0.0960 
 21 N       -2.7510    -0.8720     1.0060 N.2   1 <1>  -0.3380 
 22 N       -2.7370    -0.8160    -0.3270 N.2   1 <1>  -0.3380 
 23 C        3.9810     5.3650     0.8380 C.3   1 <1>  -0.1600 
 24 C        4.8790     6.6060     0.7750 C.3   1 <1>  -0.2400 
 25 H        2.6870    -0.2270     0.8460 H     1 <1>   0.3700 
 26 H        3.4850    -2.6670    -0.4730 H     1 <1>   0.1500 
 27 H       -0.7810    -4.4190     1.2170 H     1 <1>   0.1500 
 28 H        3.3710    -4.9330     0.4620 H     1 <1>   0.1500 
 29 H       -0.5340     1.2910    -0.0360 H     1 <1>   0.0800 
 30 H       -0.3910     1.6530    -1.7440 H     1 <1>   0.0800 
 31 H       -0.8230     2.9130    -0.6130 H     1 <1>   0.0800 
 32 H        4.8540     0.7350     0.3270 H     1 <1>   0.0800 
 33 H        5.1540     2.3030     1.0300 H     1 <1>   0.0800 
 34 H        5.4500     2.0280    -0.6740 H     1 <1>   0.0800 
 35 H       -1.4370    -1.7620     2.3730 H     1 <1>   0.1500 
 36 H       -1.3840    -1.5840    -1.7370 H     1 <1>   0.1500 
 37 H        1.2350    -5.8080     1.3050 H     1 <1>   0.1500 
 38 H        3.4190     5.3690    -1.2400 H     1 <1>   0.0800 
 39 H        4.8290     4.4010    -0.9010 H     1 <1>   0.0800 
 40 H        4.3890     4.6680     1.5500 H     1 <1>   0.0800 
 41 H        2.9990     5.6540     1.1720 H     1 <1>   0.0800 
 42 H        5.8730     6.3400     0.4590 H     1 <1>   0.0800 
 43 H        4.9410     7.0640     1.7460 H     1 <1>   0.0800 
 44 H        4.4760     7.3260     0.0850 H     1 <1>   0.0800 
@<TRIPOS>BOND
  1   1   2  2   
  2   2   3  am  
  3   2   4  1   
  4   3   5  1   
  5   3  25  1   
  6   4   6  ar  
  7   4   7  ar  
  8   5   8  1   
  9   5   9  2   
 10   6  10  1   
 11   6  11  ar  
 12   7  12  ar  
 13   7  26  1   
 14   8  13  2   
 15   8  14  1   
 16   9  15  1   
 17   9  16  1   
 18  10  17  1   
 19  10  18  1   
 20  11  19  ar  
 21  11  27  1   
 22  12  19  ar  
 23  12  28  1   
 24  13  15  1   
 25  14  29  1   
 26  14  30  1   
 27  14  31  1   
 28  15  20  1   
 29  16  32  1   
 30  16  33  1   
 31  16  34  1   
 32  17  21  2   
 33  17  35  1   
 34  18  22  2   
 35  18  36  1   
 36  19  37  1   
 37  20  23  1   
 38  20  38  1   
 39  20  39  1   
 40  21  22  1   
 41  23  24  1   
 42  23  40  1   
 43  23  41  1   
 44  24  42  1   
 45  24  43  1   
 46  24  44  1   
@<TRIPOS>SUBSTRUCTURE
  1 ****   3 GROUP 4 **** **** 0

# MOE 2024.06 (io_trps.svl 2023.06)
