@<TRIPOS>MOLECULE
NONAME
55 59 1 0 0 
SMALL
USER_CHARGES


@<TRIPOS>ATOM
  1 O        0.9640     0.1970     1.2470 O.3   1 <1>  -0.5600 
  2 C        0.7740    -1.1160     0.7950 C.3   1 <1>   0.1200 
  3 C        1.7470     0.9690     0.3920 C.3   1 <1>   0.1200 
  4 C        2.1230    -1.8480     0.6150 C.3   1 <1>   0.2850 
  5 C        3.1440     0.3340     0.2530 C.3   1 <1>   0.1900 
  6 N        3.0400    -1.0600    -0.2530 N.3   1 <1>  -0.8100 
  7 C        1.8630    -3.2320     0.0010 C.3   1 <1>  -0.1950 
  8 C        4.0230     1.1910    -0.6820 C.3   1 <1>   0.3430 
  9 C        4.3780    -1.6730    -0.3940 C.3   1 <1>   0.1100 
 10 C        1.2700    -4.3300     0.8300 C.3   1 <1>  -0.2000 
 11 C        2.6870    -4.4350     0.3500 C.3   1 <1>  -0.2000 
 12 N        5.3880     0.5840    -0.8910 N.4   1 <1>  -0.9590 
 13 C        5.2790    -0.8470    -1.3330 C.3   1 <1>   0.3430 
 14 C        6.2220     1.3970    -1.8150 C.3   1 <1>   0.4860 
 15 C        6.4810     2.7370    -1.1560 C.ar  1 <1>  -0.1440 
 16 C        7.3320     2.8230    -0.0270 C.ar  1 <1>   0.0000 
 17 C        5.8590     3.8520    -1.6540 C.ar  1 <1>  -0.1500 
 18 C        7.4650     4.0730     0.6260 C.ar  1 <1>   0.0000 
 19 C        8.0630     1.7220     0.4880 C.ar  1 <1>  -0.1500 
 20 C        6.0250     5.0920    -1.0370 C.ar  1 <1>  -0.1500 
 21 C        6.8060     5.2080     0.0880 C.ar  1 <1>   0.0820 
 22 C        8.2590     4.1410     1.7920 C.ar  1 <1>  -0.1500 
 23 C        8.8300     1.8290     1.6140 C.ar  1 <1>  -0.1500 
 24 O        6.9880     6.3890     0.7320 O.3   1 <1>  -0.3620 
 25 C        8.9220     3.0520     2.2800 C.ar  1 <1>  -0.1500 
 26 C        6.4830     7.6110     0.2390 C.3   1 <1>   0.0400 
 27 H        0.1710    -1.6280     1.5230 H     1 <1>   0.0800 
 28 H        0.2340    -1.0850    -0.1350 H     1 <1>   0.0800 
 29 H        1.2520     1.0360    -0.5620 H     1 <1>   0.0800 
 30 H        1.8170     1.9530     0.8210 H     1 <1>   0.0800 
 31 H        2.5640    -1.9730     1.5900 H     1 <1>   0.0800 
 32 H        3.5940     0.3300     1.2320 H     1 <1>   0.0800 
 33 H        1.4920    -3.1550    -1.0070 H     1 <1>   0.1000 
 34 H        4.1240     2.1780    -0.2600 H     1 <1>   0.0800 
 35 H        3.5180     1.2840    -1.6290 H     1 <1>   0.0800 
 36 H        4.8440    -1.7720     0.5720 H     1 <1>   0.0800 
 37 H        4.2820    -2.6570    -0.8180 H     1 <1>   0.0800 
 38 H        1.0990    -4.1740     1.8820 H     1 <1>   0.1000 
 39 H        0.5270    -4.9710     0.3860 H     1 <1>   0.1000 
 40 H        2.9120    -5.1540    -0.4190 H     1 <1>   0.1000 
 41 H        3.4710    -4.3580     1.0830 H     1 <1>   0.1000 
 42 H        5.8560     0.6120     0.0250 H     1 <1>   0.4500 
 43 H        4.8550    -0.8890    -2.3230 H     1 <1>   0.0800 
 44 H        6.2570    -1.2980    -1.3700 H     1 <1>   0.0800 
 45 H        7.1620     0.9060    -2.0080 H     1 <1>   0.0800 
 46 H        5.7110     1.5360    -2.7540 H     1 <1>   0.0800 
 47 H        5.2260     3.8090    -2.5250 H     1 <1>   0.1500 
 48 H        8.0410     0.7740    -0.0110 H     1 <1>   0.1500 
 49 H        5.5230     5.9390    -1.4670 H     1 <1>   0.1500 
 50 H        8.3430     5.0850     2.3030 H     1 <1>   0.1500 
 51 H        9.3790     0.9880     2.0020 H     1 <1>   0.1500 
 52 H        9.5250     3.1250     3.1700 H     1 <1>   0.1500 
 53 H        6.7980     8.3940     0.9050 H     1 <1>   0.0800 
 54 H        5.4090     7.5620     0.2170 H     1 <1>   0.0800 
 55 H        6.8840     7.7850    -0.7440 H     1 <1>   0.0800 
@<TRIPOS>BOND
  1   1   2  1   
  2   1   3  1   
  3   2   4  1   
  4   2  27  1   
  5   2  28  1   
  6   3   5  1   
  7   3  29  1   
  8   3  30  1   
  9   4   6  1   
 10   4   7  1   
 11   4  31  1   
 12   5   6  1   
 13   5   8  1   
 14   5  32  1   
 15   6   9  1   
 16   7  10  1   
 17   7  11  1   
 18   7  33  1   
 19   8  12  1   
 20   8  34  1   
 21   8  35  1   
 22   9  13  1   
 23   9  36  1   
 24   9  37  1   
 25  10  11  1   
 26  10  38  1   
 27  10  39  1   
 28  11  40  1   
 29  11  41  1   
 30  12  13  1   
 31  12  14  1   
 32  12  42  1   
 33  13  43  1   
 34  13  44  1   
 35  14  15  1   
 36  14  45  1   
 37  14  46  1   
 38  15  16  ar  
 39  15  17  ar  
 40  16  18  ar  
 41  16  19  ar  
 42  17  20  ar  
 43  17  47  1   
 44  18  21  ar  
 45  18  22  ar  
 46  19  23  ar  
 47  19  48  1   
 48  20  21  ar  
 49  20  49  1   
 50  21  24  1   
 51  22  25  ar  
 52  22  50  1   
 53  23  25  ar  
 54  23  51  1   
 55  24  26  1   
 56  25  52  1   
 57  26  53  1   
 58  26  54  1   
 59  26  55  1   
@<TRIPOS>SUBSTRUCTURE
  1 ****   8 GROUP 4 **** **** 0

# MOE 2024.06 (io_trps.svl 2023.06)
