@<TRIPOS>MOLECULE
NONAME
44 46 1 0 0 
SMALL
USER_CHARGES


@<TRIPOS>ATOM
  1 O       -3.3940     1.2080    -1.7330 O.2   1 <1>  -0.5700 
  2 C       -2.7010     1.1030    -0.7520 C.2   1 <1>   0.5690 
  3 N       -2.3350    -0.1060    -0.2620 N.am  1 <1>  -0.7300 
  4 C       -2.2320     2.3500    -0.0310 C.3   1 <1>  -0.0990 
  5 C       -2.7280    -1.3990    -0.8620 C.3   1 <1>   0.2200 
  6 C       -0.7440     2.6420    -0.2850 C.3   1 <1>  -0.1600 
  7 C       -3.9720    -1.9130    -0.1590 C.3   1 <1>  -0.0800 
  8 C       -1.7040    -2.4720    -0.5120 C.3   1 <1>   0.1200 
  9 C       -0.2900     3.9080     0.4490 C.3   1 <1>  -0.2400 
 10 C       -3.3830    -2.6280     1.0610 C.3   1 <1>   0.1200 
 11 C       -4.7780    -2.8640    -1.0660 C.3   1 <1>  -0.0170 
 12 O       -2.0600    -2.9580     0.7480 O.3   1 <1>  -0.5600 
 13 C       -6.0860    -3.2890    -0.4070 C.ar  1 <1>  -0.1440 
 14 C       -7.2040    -2.4250    -0.3180 C.ar  1 <1>   0.0000 
 15 C       -6.2130    -4.5400     0.1230 C.ar  1 <1>  -0.1500 
 16 C       -8.3630    -2.9150     0.3310 C.ar  1 <1>   0.3100 
 17 C       -7.2410    -1.1080    -0.8350 C.ar  1 <1>  -0.1500 
 18 C       -7.4080    -4.9280     0.7380 C.ar  1 <1>   0.1600 
 19 N       -8.4490    -4.1650     0.8520 N.ar  1 <1>  -0.6200 
 20 C       -9.4850    -2.0780     0.4440 C.ar  1 <1>  -0.1500 
 21 C       -8.3520    -0.3180    -0.7080 C.ar  1 <1>  -0.1500 
 22 C       -9.4890    -0.8060    -0.0610 C.ar  1 <1>  -0.1500 
 23 H       -1.7970    -0.1780     0.6040 H     1 <1>   0.3700 
 24 H       -2.8230     3.1810    -0.3710 H     1 <1>   0.0800 
 25 H       -2.4100     2.2290     1.0220 H     1 <1>   0.0800 
 26 H       -2.8560    -1.2880    -1.9260 H     1 <1>   0.0800 
 27 H       -0.1480     1.8080     0.0440 H     1 <1>   0.0800 
 28 H       -0.5840     2.7660    -1.3430 H     1 <1>   0.0800 
 29 H       -4.6040    -1.0990     0.1490 H     1 <1>   0.0800 
 30 H       -0.6970    -2.0930    -0.4840 H     1 <1>   0.0800 
 31 H       -1.7640    -3.2930    -1.2050 H     1 <1>   0.0800 
 32 H       -0.4230     3.7980     1.5110 H     1 <1>   0.0800 
 33 H       -0.8560     4.7600     0.1140 H     1 <1>   0.0800 
 34 H        0.7510     4.0930     0.2520 H     1 <1>   0.0800 
 35 H       -3.9160    -3.5240     1.3230 H     1 <1>   0.0800 
 36 H       -3.3590    -1.9670     1.9100 H     1 <1>   0.0800 
 37 H       -4.1880    -3.7350    -1.2930 H     1 <1>   0.0800 
 38 H       -4.9970    -2.3820    -2.0020 H     1 <1>   0.0800 
 39 H       -5.4080    -5.2520     0.0870 H     1 <1>   0.1500 
 40 H       -6.3810    -0.7090    -1.3410 H     1 <1>   0.1500 
 41 H       -7.4650    -5.9230     1.1440 H     1 <1>   0.1500 
 42 H      -10.3480    -2.4750     0.9440 H     1 <1>   0.1500 
 43 H       -8.3630     0.6830    -1.1050 H     1 <1>   0.1500 
 44 H      -10.3560    -0.1750     0.0330 H     1 <1>   0.1500 
@<TRIPOS>BOND
  1   1   2  2   
  2   2   3  am  
  3   2   4  1   
  4   3   5  1   
  5   3  23  1   
  6   4   6  1   
  7   4  24  1   
  8   4  25  1   
  9   5   7  1   
 10   5   8  1   
 11   5  26  1   
 12   6   9  1   
 13   6  27  1   
 14   6  28  1   
 15   7  10  1   
 16   7  11  1   
 17   7  29  1   
 18   8  12  1   
 19   8  30  1   
 20   8  31  1   
 21   9  32  1   
 22   9  33  1   
 23   9  34  1   
 24  10  12  1   
 25  10  35  1   
 26  10  36  1   
 27  11  13  1   
 28  11  37  1   
 29  11  38  1   
 30  13  14  ar  
 31  13  15  ar  
 32  14  16  ar  
 33  14  17  ar  
 34  15  18  ar  
 35  15  39  1   
 36  16  19  ar  
 37  16  20  ar  
 38  17  21  ar  
 39  17  40  1   
 40  18  19  ar  
 41  18  41  1   
 42  20  22  ar  
 43  20  42  1   
 44  21  22  ar  
 45  21  43  1   
 46  22  44  1   
@<TRIPOS>SUBSTRUCTURE
  1 ****   7 GROUP 4 **** **** 0

# MOE 2024.06 (io_trps.svl 2023.06)
