@<TRIPOS>MOLECULE
NONAME
41 42 1 0 0 
SMALL
USER_CHARGES


@<TRIPOS>ATOM
  1 O        0.3290     0.2120    -0.1500 O.3   1 <1>  -0.3630 
  2 C        0.1430    -1.1310    -0.1790 C.ar  1 <1>   0.0830 
  3 C        1.5980     0.7700     0.0690 C.3   1 <1>   0.1200 
  4 C       -1.1510    -1.5770    -0.4020 C.ar  1 <1>  -0.1500 
  5 C        1.1650    -2.0610     0.0010 C.ar  1 <1>  -0.1500 
  6 C        1.4310     2.2890     0.0360 C.3   1 <1>  -0.1600 
  7 C       -1.4300    -2.9310    -0.4470 C.ar  1 <1>  -0.1500 
  8 C        0.8830    -3.4160    -0.0440 C.ar  1 <1>  -0.1500 
  9 C        2.7680     2.9890     0.2650 C.3   1 <1>   0.3430 
 10 C       -0.4120    -3.8520    -0.2680 C.ar  1 <1>  -0.1500 
 11 N        2.6090     4.4620     0.1180 N.4   1 <1>  -0.9590 
 12 C        3.9180     5.1380    -0.0360 C.3   1 <1>   0.5230 
 13 C        1.8190     5.0810     1.2340 C.3   1 <1>   0.2630 
 14 C        3.6650     6.5350    -0.5520 C.2   1 <1>  -0.3320 
 15 N        4.4970     7.5710    -0.2920 N.pl3 1 <1>   0.3140 
 16 C        2.6640     7.0260    -1.3230 C.2   1 <1>  -0.1500 
 17 N        4.0490     8.6990    -0.8550 N.2   1 <1>  -0.7070 
 18 C        5.7500     7.5850     0.4820 C.3   1 <1>   0.0160 
 19 C        2.9600     8.3730    -1.4730 C.2   1 <1>   0.1390 
 20 H        2.2540     0.4300    -0.7150 H     1 <1>   0.0800 
 21 H        1.9510     0.4340     1.0290 H     1 <1>   0.0800 
 22 H       -1.9380    -0.8580    -0.5410 H     1 <1>   0.1500 
 23 H        2.1780    -1.7580     0.1760 H     1 <1>   0.1500 
 24 H        0.7300     2.5620     0.8040 H     1 <1>   0.0800 
 25 H        1.0370     2.5640    -0.9260 H     1 <1>   0.0800 
 26 H       -2.4370    -3.2680    -0.6210 H     1 <1>   0.1500 
 27 H        1.6720    -4.1350     0.0950 H     1 <1>   0.1500 
 28 H        3.4760     2.6280    -0.4640 H     1 <1>   0.0800 
 29 H        3.1440     2.7520     1.2480 H     1 <1>   0.0800 
 30 H       -0.6270    -4.9060    -0.3020 H     1 <1>   0.1500 
 31 H        2.1100     4.6480    -0.7630 H     1 <1>   0.4500 
 32 H        4.5380     4.6060    -0.7410 H     1 <1>   0.0800 
 33 H        4.4260     5.1750     0.9140 H     1 <1>   0.0800 
 34 H        2.3030     4.9060     2.1810 H     1 <1>   0.0800 
 35 H        0.8260     4.6640     1.2710 H     1 <1>   0.0800 
 36 H        1.7320     6.1470     1.0850 H     1 <1>   0.0800 
 37 H        1.8060     6.5480    -1.7610 H     1 <1>   0.1500 
 38 H        6.4470     6.8920     0.0510 H     1 <1>   0.0800 
 39 H        5.5450     7.3280     1.5040 H     1 <1>   0.0800 
 40 H        6.1700     8.5740     0.4460 H     1 <1>   0.0800 
 41 H        2.3660     9.0770    -2.0340 H     1 <1>   0.1500 
@<TRIPOS>BOND
  1   1   2  1   
  2   1   3  1   
  3   2   4  ar  
  4   2   5  ar  
  5   3   6  1   
  6   3  20  1   
  7   3  21  1   
  8   4   7  ar  
  9   4  22  1   
 10   5   8  ar  
 11   5  23  1   
 12   6   9  1   
 13   6  24  1   
 14   6  25  1   
 15   7  10  ar  
 16   7  26  1   
 17   8  10  ar  
 18   8  27  1   
 19   9  11  1   
 20   9  28  1   
 21   9  29  1   
 22  10  30  1   
 23  11  12  1   
 24  11  13  1   
 25  11  31  1   
 26  12  14  1   
 27  12  32  1   
 28  12  33  1   
 29  13  34  1   
 30  13  35  1   
 31  13  36  1   
 32  14  15  1   
 33  14  16  2   
 34  15  17  1   
 35  15  18  1   
 36  16  19  1   
 37  16  37  1   
 38  17  19  2   
 39  18  38  1   
 40  18  39  1   
 41  18  40  1   
 42  19  41  1   
@<TRIPOS>SUBSTRUCTURE
  1 ****   6 GROUP 4 **** **** 0

# MOE 2024.06 (io_trps.svl 2023.06)
