@<TRIPOS>MOLECULE
NONAME
59 61 1 0 0 
SMALL
USER_CHARGES


@<TRIPOS>ATOM
  1 S        0.4710    -0.9510     0.5570 S.o2  1 <1>   1.5010 
  2 O        1.3220    -2.1170     0.4730 O.2   1 <1>  -0.6500 
  3 O       -0.3780    -0.8410     1.7250 O.2   1 <1>  -0.6500 
  4 N       -0.5980    -1.1050    -0.7590 N.am  1 <1>  -0.8490 
  5 C        1.3920     0.5640     0.2050 C.2   1 <1>  -0.0630 
  6 C       -1.3330    -2.3750    -0.7500 C.3   1 <1>   0.1960 
  7 C       -1.4640     0.0510    -1.0460 C.3   1 <1>   0.1960 
  8 C        2.3450     0.6660    -0.8030 C.2   1 <1>   0.1080 
  9 C        1.3530     1.8160     0.7430 C.2   1 <1>  -0.3320 
 10 C       -2.5260    -2.3610     0.2450 C.3   1 <1>   0.4230 
 11 C       -2.6810     0.1220    -0.1090 C.3   1 <1>  -0.1600 
 12 N        2.8560     1.8490    -0.8910 N.2   1 <1>  -0.7070 
 13 C        2.7860    -0.4450    -1.7340 C.3   1 <1>  -0.0590 
 14 N        2.2570     2.5750     0.0670 N.pl3 1 <1>   0.3140 
 15 C        0.4830     2.3120     1.8930 C.3   1 <1>  -0.0600 
 16 N       -3.2050    -3.7140     0.4260 N.4   1 <1>  -0.9590 
 17 C       -3.5100    -1.1930    -0.0540 C.3   1 <1>   0.0000 
 18 C        2.6450     4.0150     0.2090 C.3   1 <1>   0.1760 
 19 C       -4.5750    -3.6330     1.0310 C.3   1 <1>   0.3430 
 20 C       -3.2300    -4.5990    -0.7840 C.3   1 <1>   0.2630 
 21 C       -4.5470    -1.0870     1.1030 C.3   1 <1>  -0.1600 
 22 C       -4.2320    -1.4320    -1.4130 C.3   1 <1>   0.1200 
 23 C        3.0430     4.3900     1.6440 C.3   1 <1>  -0.2400 
 24 C        1.5570     4.9480    -0.3400 C.3   1 <1>  -0.2400 
 25 C       -4.7140    -2.3900     1.9090 C.3   1 <1>  -0.1600 
 26 O       -4.9700    -0.3280    -1.8030 O.3   1 <1>  -0.6800 
 27 H       -1.6820    -2.5600    -1.7500 H     1 <1>   0.0800 
 28 H       -0.6590    -3.1730    -0.4920 H     1 <1>   0.0800 
 29 H       -0.8990     0.9660    -0.9790 H     1 <1>   0.0800 
 30 H       -1.8100    -0.0230    -2.0640 H     1 <1>   0.0800 
 31 H       -2.0990    -2.1240     1.2040 H     1 <1>   0.0800 
 32 H       -2.3350     0.3860     0.8730 H     1 <1>   0.0800 
 33 H       -3.3010     0.9430    -0.4250 H     1 <1>   0.0800 
 34 H        1.9340    -0.8960    -2.2080 H     1 <1>   0.0800 
 35 H        3.3250    -1.1920    -1.1820 H     1 <1>   0.0800 
 36 H        3.4320    -0.0470    -2.4960 H     1 <1>   0.0800 
 37 H       -0.2870     1.6060     2.1360 H     1 <1>   0.0800 
 38 H        0.0030     3.2390     1.6400 H     1 <1>   0.0800 
 39 H        1.0840     2.4570     2.7730 H     1 <1>   0.0800 
 40 H       -2.6220    -4.1920     1.1310 H     1 <1>   0.4500 
 41 H        3.5200     4.1470    -0.4050 H     1 <1>   0.0800 
 42 H       -5.3170    -3.5830     0.2510 H     1 <1>   0.0800 
 43 H       -4.7700    -4.5170     1.6180 H     1 <1>   0.0800 
 44 H       -3.7920    -4.1380    -1.5790 H     1 <1>   0.0800 
 45 H       -3.6900    -5.5450    -0.5440 H     1 <1>   0.0800 
 46 H       -2.2290    -4.7920    -1.1340 H     1 <1>   0.0800 
 47 H       -4.2610    -0.3170     1.8010 H     1 <1>   0.0800 
 48 H       -5.5070    -0.7920     0.7160 H     1 <1>   0.0800 
 49 H       -4.9080    -2.2660    -1.3610 H     1 <1>   0.0800 
 50 H       -3.5280    -1.6150    -2.2050 H     1 <1>   0.0800 
 51 H        2.1870     4.4470     2.2890 H     1 <1>   0.0800 
 52 H        3.5190     5.3550     1.6430 H     1 <1>   0.0800 
 53 H        3.7430     3.6710     2.0330 H     1 <1>   0.0800 
 54 H        0.6630     4.9000     0.2520 H     1 <1>   0.0800 
 55 H        1.3250     4.6770    -1.3550 H     1 <1>   0.0800 
 56 H        1.9120     5.9630    -0.3370 H     1 <1>   0.0800 
 57 H       -5.6830    -2.3920     2.3780 H     1 <1>   0.0800 
 58 H       -3.9830    -2.4330     2.6990 H     1 <1>   0.0800 
 59 H       -5.6940    -0.1240    -1.1780 H     1 <1>   0.4000 
@<TRIPOS>BOND
  1   1   2  2   
  2   1   3  2   
  3   1   4  am  
  4   1   5  1   
  5   4   6  1   
  6   4   7  1   
  7   5   8  1   
  8   5   9  2   
  9   6  10  1   
 10   6  27  1   
 11   6  28  1   
 12   7  11  1   
 13   7  29  1   
 14   7  30  1   
 15   8  12  2   
 16   8  13  1   
 17   9  14  1   
 18   9  15  1   
 19  10  16  1   
 20  10  17  1   
 21  10  31  1   
 22  11  17  1   
 23  11  32  1   
 24  11  33  1   
 25  12  14  1   
 26  13  34  1   
 27  13  35  1   
 28  13  36  1   
 29  14  18  1   
 30  15  37  1   
 31  15  38  1   
 32  15  39  1   
 33  16  19  1   
 34  16  20  1   
 35  16  40  1   
 36  17  21  1   
 37  17  22  1   
 38  18  23  1   
 39  18  24  1   
 40  18  41  1   
 41  19  25  1   
 42  19  42  1   
 43  19  43  1   
 44  20  44  1   
 45  20  45  1   
 46  20  46  1   
 47  21  25  1   
 48  21  47  1   
 49  21  48  1   
 50  22  26  1   
 51  22  49  1   
 52  22  50  1   
 53  23  51  1   
 54  23  52  1   
 55  23  53  1   
 56  24  54  1   
 57  24  55  1   
 58  24  56  1   
 59  25  57  1   
 60  25  58  1   
 61  26  59  1   
@<TRIPOS>SUBSTRUCTURE
  1 ****   4 GROUP 4 **** **** 0

# MOE 2024.06 (io_trps.svl 2023.06)
