@<TRIPOS>MOLECULE
NONAME
30 30 1 0 0 
SMALL
USER_CHARGES


@<TRIPOS>ATOM
  1 O       -0.1180     0.4670     0.8930 O.2   1 <1>  -0.5700 
  2 C       -1.1480     1.0680     0.7200 C.2   1 <1>   0.4240 
  3 C       -1.2660     2.4950     0.5580 C.ar  1 <1>   0.0860 
  4 C       -2.5100     3.0980     0.3610 C.ar  1 <1>  -0.1500 
  5 C       -0.1460     3.3280     0.5900 C.ar  1 <1>  -0.1500 
  6 C       -2.6340     4.4660     0.2040 C.ar  1 <1>  -0.1500 
  7 C       -0.2630     4.6950     0.4340 C.ar  1 <1>  -0.1500 
  8 C       -1.5040     5.2780     0.2400 C.ar  1 <1>   0.0830 
  9 O       -1.5350     6.6190     0.0950 O.3   1 <1>  -0.3630 
 10 C       -2.7420     7.3270    -0.1080 C.3   1 <1>   0.1200 
 11 C       -2.4690     8.8420    -0.2390 C.3   1 <1>   0.0000 
 12 C       -3.8030     9.5710    -0.4590 C.3   1 <1>  -0.2400 
 13 C       -1.5500     9.1230    -1.4380 C.3   1 <1>  -0.2400 
 14 C       -1.8150     9.3850     1.0410 C.3   1 <1>  -0.2400 
 15 H       -2.0590     0.4990     0.6830 H     1 <1>   0.0600 
 16 H       -3.3940     2.4850     0.3310 H     1 <1>   0.1500 
 17 H        0.8270     2.8890     0.7400 H     1 <1>   0.1500 
 18 H       -3.6120     4.8850     0.0560 H     1 <1>   0.1500 
 19 H        0.6090     5.3240     0.4610 H     1 <1>   0.1500 
 20 H       -3.3850     7.1370     0.7330 H     1 <1>   0.0800 
 21 H       -3.1990     6.9530    -1.0070 H     1 <1>   0.0800 
 22 H       -4.2830     9.2220    -1.3560 H     1 <1>   0.0800 
 23 H       -3.6420    10.6310    -0.5530 H     1 <1>   0.0800 
 24 H       -4.4670     9.4040     0.3710 H     1 <1>   0.0800 
 25 H       -1.9880     8.7490    -2.3470 H     1 <1>   0.0800 
 26 H       -0.5960     8.6450    -1.3030 H     1 <1>   0.0800 
 27 H       -1.3840    10.1800    -1.5490 H     1 <1>   0.0800 
 28 H       -2.4410     9.1970     1.8950 H     1 <1>   0.0800 
 29 H       -1.6530    10.4450     0.9640 H     1 <1>   0.0800 
 30 H       -0.8640     8.9110     1.2100 H     1 <1>   0.0800 
@<TRIPOS>BOND
  1   1   2  2   
  2   2   3  1   
  3   2  15  1   
  4   3   4  ar  
  5   3   5  ar  
  6   4   6  ar  
  7   4  16  1   
  8   5   7  ar  
  9   5  17  1   
 10   6   8  ar  
 11   6  18  1   
 12   7   8  ar  
 13   7  19  1   
 14   8   9  1   
 15   9  10  1   
 16  10  11  1   
 17  10  20  1   
 18  10  21  1   
 19  11  12  1   
 20  11  13  1   
 21  11  14  1   
 22  12  22  1   
 23  12  23  1   
 24  12  24  1   
 25  13  25  1   
 26  13  26  1   
 27  13  27  1   
 28  14  28  1   
 29  14  29  1   
 30  14  30  1   
@<TRIPOS>SUBSTRUCTURE
  1 ****   8 GROUP 4 **** **** 0

# MOE 2024.06 (io_trps.svl 2023.06)
