@<TRIPOS>MOLECULE
NONAME
50 52 1 0 0 
SMALL
USER_CHARGES


@<TRIPOS>ATOM
  1 S        1.0320    -0.9330     2.7940 S.o2  1 <1>   1.4470 
  2 O        0.6790     0.0030     3.8340 O.2   1 <1>  -0.6500 
  3 O        1.9560    -2.0110     3.0690 O.2   1 <1>  -0.6500 
  4 N       -0.4140    -1.6610     2.3650 N.am  1 <1>  -0.9140 
  5 C        1.4750    -0.0700     1.2640 C.ar  1 <1>  -0.0090 
  6 C       -0.2600    -2.8510     1.5390 C.3   1 <1>   0.2760 
  7 C        2.6960    -0.2890     0.6370 C.ar  1 <1>  -0.1500 
  8 C        0.5810     0.8090     0.6660 C.ar  1 <1>  -0.1500 
  9 C       -1.5210    -3.0780     0.7200 C.3   1 <1>  -0.0800 
 10 C       -0.2750    -4.1010     2.4160 C.3   1 <1>   0.1200 
 11 C        3.0210     0.3380    -0.5550 C.ar  1 <1>  -0.1430 
 12 C        0.8740     1.4460    -0.5270 C.ar  1 <1>  -0.1430 
 13 C       -2.4360    -3.8240     1.6990 C.3   1 <1>   0.1200 
 14 C       -2.1450    -1.8130     0.1000 C.3   1 <1>  -0.0170 
 15 O       -1.6190    -4.3010     2.7310 O.3   1 <1>  -0.5600 
 16 C        2.1070     1.2170    -1.1300 C.ar  1 <1>   0.0830 
 17 C        4.3630     0.0470    -1.2130 C.3   1 <1>  -0.0970 
 18 C       -0.1580     2.3740    -1.1520 C.3   1 <1>  -0.0970 
 19 C       -3.3120    -2.1690    -0.8050 C.ar  1 <1>  -0.1430 
 20 O        2.4130     1.8370    -2.2900 O.3   1 <1>  -0.3620 
 21 C       -4.6180    -2.1380    -0.3620 C.ar  1 <1>  -0.1500 
 22 C       -3.1200    -2.5420    -2.1200 C.ar  1 <1>  -0.1500 
 23 C        3.0460     3.0910    -2.1760 C.3   1 <1>   0.0400 
 24 C       -5.6420    -2.4770    -1.2300 C.ar  1 <1>   0.1600 
 25 C       -4.2150    -2.8610    -2.9050 C.ar  1 <1>   0.1600 
 26 N       -5.4700    -2.8400    -2.4900 N.ar  1 <1>  -0.6200 
 27 H       -0.8250    -1.9760     3.2450 H     1 <1>   0.4200 
 28 H        0.6160    -2.7910     0.9130 H     1 <1>   0.0800 
 29 H        3.3990    -0.9670     1.0910 H     1 <1>   0.1500 
 30 H       -0.3660     0.9850     1.1480 H     1 <1>   0.1500 
 31 H       -1.2800    -3.7600    -0.0770 H     1 <1>   0.0800 
 32 H        0.3000    -3.9970     3.3190 H     1 <1>   0.0800 
 33 H        0.0670    -4.9590     1.8640 H     1 <1>   0.0800 
 34 H       -2.9330    -4.6550     1.2290 H     1 <1>   0.0800 
 35 H       -3.1640    -3.1660     2.1410 H     1 <1>   0.0800 
 36 H       -1.3990    -1.2920    -0.4750 H     1 <1>   0.0800 
 37 H       -2.4840    -1.1420     0.8700 H     1 <1>   0.0800 
 38 H        4.7920    -0.8590    -0.8280 H     1 <1>   0.0800 
 39 H        5.0440     0.8570    -1.0280 H     1 <1>   0.0800 
 40 H        4.2380    -0.0650    -2.2760 H     1 <1>   0.0800 
 41 H       -1.1410     2.1670    -0.7700 H     1 <1>   0.0800 
 42 H       -0.1790     2.2430    -2.2190 H     1 <1>   0.0800 
 43 H        0.0890     3.3970    -0.9330 H     1 <1>   0.0800 
 44 H       -4.8520    -1.8520     0.6480 H     1 <1>   0.1500 
 45 H       -2.1330    -2.5850    -2.5410 H     1 <1>   0.1500 
 46 H        3.2290     3.4660    -3.1660 H     1 <1>   0.0800 
 47 H        3.9750     2.9670    -1.6490 H     1 <1>   0.0800 
 48 H        2.4000     3.7620    -1.6390 H     1 <1>   0.0800 
 49 H       -6.6570    -2.4490    -0.8690 H     1 <1>   0.1500 
 50 H       -4.0480    -3.1490    -3.9300 H     1 <1>   0.1500 
@<TRIPOS>BOND
  1   1   2  2   
  2   1   3  2   
  3   1   4  am  
  4   1   5  1   
  5   4   6  1   
  6   4  27  1   
  7   5   7  ar  
  8   5   8  ar  
  9   6   9  1   
 10   6  10  1   
 11   6  28  1   
 12   7  11  ar  
 13   7  29  1   
 14   8  12  ar  
 15   8  30  1   
 16   9  13  1   
 17   9  14  1   
 18   9  31  1   
 19  10  15  1   
 20  10  32  1   
 21  10  33  1   
 22  11  16  ar  
 23  11  17  1   
 24  12  16  ar  
 25  12  18  1   
 26  13  15  1   
 27  13  34  1   
 28  13  35  1   
 29  14  19  1   
 30  14  36  1   
 31  14  37  1   
 32  16  20  1   
 33  17  38  1   
 34  17  39  1   
 35  17  40  1   
 36  18  41  1   
 37  18  42  1   
 38  18  43  1   
 39  19  21  ar  
 40  19  22  ar  
 41  20  23  1   
 42  21  24  ar  
 43  21  44  1   
 44  22  25  ar  
 45  22  45  1   
 46  23  46  1   
 47  23  47  1   
 48  23  48  1   
 49  24  26  ar  
 50  24  49  1   
 51  25  26  ar  
 52  25  50  1   
@<TRIPOS>SUBSTRUCTURE
  1 ****  14 GROUP 4 **** **** 0

# MOE 2024.06 (io_trps.svl 2023.06)
