@<TRIPOS>MOLECULE
NONAME
53 54 1 0 0 
SMALL
USER_CHARGES


@<TRIPOS>ATOM
  1 S        1.4540     0.6940    -0.0830 S.o2  1 <1>   1.3330 
  2 O        2.7860     0.6650     0.4750 O.2   1 <1>  -0.6500 
  3 O        1.2760     0.7320    -1.5170 O.2   1 <1>  -0.6500 
  4 N        0.5940    -0.6430     0.5120 N.am  1 <1>  -0.8490 
  5 C        0.5830     2.0790     0.6480 C.3   1 <1>  -0.0550 
  6 C       -0.6010    -0.9670    -0.2740 C.3   1 <1>   0.1160 
  7 C        1.4410    -1.8330     0.6440 C.3   1 <1>   0.1160 
  8 C        1.2660     3.4300     0.3830 C.3   1 <1>  -0.0800 
  9 C        0.5380     4.5900     1.0550 C.3   1 <1>   0.2000 
 10 C        1.3220     3.8390    -1.0910 C.3   1 <1>   0.1400 
 11 O        0.8900     4.6590     2.3920 O.3   1 <1>  -0.6800 
 12 C        0.9750     5.8310     0.2810 C.3   1 <1>   0.1400 
 13 N        1.3340     5.3210    -1.0710 N.am  1 <1>  -0.6600 
 14 C        1.7780     6.0710    -2.1310 C.2   1 <1>   0.5690 
 15 O        2.1010     5.5460    -3.1710 O.2   1 <1>  -0.5700 
 16 C        1.8640     7.5810    -2.0640 C.3   1 <1>   0.1570 
 17 N        2.8120     8.0090    -1.0260 N.pl3 1 <1>   0.3140 
 18 N        2.3850     8.7360     0.0240 N.2   1 <1>  -0.7070 
 19 C        4.1400     7.7560    -0.9390 C.2   1 <1>  -0.3320 
 20 C        3.4370     8.9270     0.7510 C.2   1 <1>   0.1080 
 21 C        4.5730     8.3370     0.2020 C.2   1 <1>  -0.1810 
 22 C        4.9270     6.9520    -1.9660 C.3   1 <1>  -0.0600 
 23 C        3.3840     9.7130     2.0420 C.3   1 <1>  -0.0590 
 24 C        5.9750     8.3570     0.7860 C.3   1 <1>   0.0210 
 25 C        6.1890     7.1440     1.6920 C.3   1 <1>  -0.2400 
 26 H       -0.4220     2.1060     0.2760 H     1 <1>   0.0800 
 27 H        0.5350     1.9280     1.7090 H     1 <1>   0.0800 
 28 H       -1.1510    -1.7630     0.1990 H     1 <1>   0.0800 
 29 H       -0.3250    -1.2750    -1.2700 H     1 <1>   0.0800 
 30 H       -1.2440    -0.1070    -0.3460 H     1 <1>   0.0800 
 31 H        0.8700    -2.6560     1.0380 H     1 <1>   0.0800 
 32 H        2.2530    -1.6350     1.3230 H     1 <1>   0.0800 
 33 H        1.8500    -2.1100    -0.3140 H     1 <1>   0.0800 
 34 H        2.2820     3.3930     0.7420 H     1 <1>   0.0800 
 35 H       -0.5300     4.4750     0.9890 H     1 <1>   0.0800 
 36 H        0.4480     3.5030    -1.6230 H     1 <1>   0.0800 
 37 H        2.2030     3.4530    -1.5780 H     1 <1>   0.0800 
 38 H        1.8470     4.8370     2.4830 H     1 <1>   0.4000 
 39 H        1.8460     6.2630     0.7420 H     1 <1>   0.0800 
 40 H        0.1830     6.5560     0.2230 H     1 <1>   0.0800 
 41 H        0.8970     7.9850    -1.8410 H     1 <1>   0.0800 
 42 H        2.1950     7.9680    -3.0070 H     1 <1>   0.0800 
 43 H        5.9770     6.9660    -1.7410 H     1 <1>   0.0800 
 44 H        4.7860     7.3620    -2.9500 H     1 <1>   0.0800 
 45 H        4.6000     5.9270    -1.9670 H     1 <1>   0.0800 
 46 H        3.8920     9.1780     2.8210 H     1 <1>   0.0800 
 47 H        2.3610     9.8660     2.3330 H     1 <1>   0.0800 
 48 H        3.8520    10.6690     1.9000 H     1 <1>   0.0800 
 49 H        6.6970     8.3450    -0.0100 H     1 <1>   0.0800 
 50 H        6.1240     9.2640     1.3440 H     1 <1>   0.0800 
 51 H        6.0550     6.2370     1.1290 H     1 <1>   0.0800 
 52 H        5.4810     7.1540     2.5010 H     1 <1>   0.0800 
 53 H        7.1840     7.1560     2.1000 H     1 <1>   0.0800 
@<TRIPOS>BOND
  1   1   2  2   
  2   1   3  2   
  3   1   4  am  
  4   1   5  1   
  5   4   6  1   
  6   4   7  1   
  7   5   8  1   
  8   5  26  1   
  9   5  27  1   
 10   6  28  1   
 11   6  29  1   
 12   6  30  1   
 13   7  31  1   
 14   7  32  1   
 15   7  33  1   
 16   8   9  1   
 17   8  10  1   
 18   8  34  1   
 19   9  11  1   
 20   9  12  1   
 21   9  35  1   
 22  10  13  1   
 23  10  36  1   
 24  10  37  1   
 25  11  38  1   
 26  12  13  1   
 27  12  39  1   
 28  12  40  1   
 29  13  14  am  
 30  14  15  2   
 31  14  16  1   
 32  16  17  1   
 33  16  41  1   
 34  16  42  1   
 35  17  18  1   
 36  17  19  1   
 37  18  20  2   
 38  19  21  2   
 39  19  22  1   
 40  20  21  1   
 41  20  23  1   
 42  21  24  1   
 43  22  43  1   
 44  22  44  1   
 45  22  45  1   
 46  23  46  1   
 47  23  47  1   
 48  23  48  1   
 49  24  25  1   
 50  24  49  1   
 51  24  50  1   
 52  25  51  1   
 53  25  52  1   
 54  25  53  1   
@<TRIPOS>SUBSTRUCTURE
  1 ****  13 GROUP 4 **** **** 0

# MOE 2024.06 (io_trps.svl 2023.06)
