@<TRIPOS>MOLECULE
NONAME
49 52 1 0 0 
SMALL
USER_CHARGES


@<TRIPOS>ATOM
  1 S       -1.6910    -0.2190     2.3470 S.3   1 <1>  -0.3320 
  2 C       -2.6010    -0.9360     0.9660 C.ar  1 <1>   0.1020 
  3 C        0.0090     0.1540     1.7270 C.3   1 <1>  -0.0100 
  4 C       -3.9070    -1.3130     1.2080 C.ar  1 <1>  -0.1500 
  5 C       -2.0300    -1.1060    -0.2850 C.ar  1 <1>  -0.1500 
  6 C       -4.6800    -1.8710     0.1980 C.ar  1 <1>   0.1170 
  7 C       -2.7910    -1.6600    -1.2990 C.ar  1 <1>  -0.1500 
  8 N       -6.0060    -2.2210     0.4870 N.am  1 <1>  -0.5470 
  9 C       -4.1020    -2.0360    -1.0590 C.ar  1 <1>  -0.1500 
 10 C       -6.9120    -3.0120    -0.1600 C.2   1 <1>   0.6900 
 11 O       -6.5750    -3.7350    -1.0780 O.2   1 <1>  -0.5700 
 12 N       -8.2190    -2.9810     0.2570 N.am  1 <1>  -0.6600 
 13 C       -8.8490    -1.8090     0.9410 C.3   1 <1>   0.1400 
 14 C       -9.2160    -3.9620    -0.2560 C.3   1 <1>   0.1400 
 15 C       -9.7510    -1.0400    -0.0430 C.3   1 <1>   0.1430 
 16 C      -10.1620    -3.2700    -1.2450 C.3   1 <1>  -0.1600 
 17 C      -10.4430     0.1120     0.6620 C.ar  1 <1>   0.1670 
 18 C      -10.8000    -1.9980    -0.6520 C.3   1 <1>  -0.1600 
 19 C       -8.9300    -0.3090    -1.1400 C.3   1 <1>  -0.1600 
 20 N      -11.0670     0.0340     1.8140 N.ar  1 <1>  -0.6200 
 21 C      -10.3410     1.2710    -0.0500 C.ar  1 <1>  -0.1430 
 22 C       -9.5710     1.0770    -1.3320 C.3   1 <1>  -0.0170 
 23 C      -11.5810     1.1830     2.2260 C.ar  1 <1>   0.7200 
 24 C      -10.9250     2.3990     0.4740 C.ar  1 <1>   0.1600 
 25 N      -11.5590     2.3640     1.6250 N.ar  1 <1>  -0.6200 
 26 N      -12.2280     1.1420     3.3910 N.pl3 1 <1>  -0.9000 
 27 H        0.5660     0.5770     2.5430 H     1 <1>   0.0800 
 28 H       -0.0790     0.8590     0.9200 H     1 <1>   0.0800 
 29 H        0.4530    -0.7690     1.3990 H     1 <1>   0.0800 
 30 H       -4.3170    -1.1690     2.1900 H     1 <1>   0.1500 
 31 H       -1.0160    -0.8190    -0.4830 H     1 <1>   0.1500 
 32 H       -2.3660    -1.8010    -2.2780 H     1 <1>   0.1500 
 33 H       -6.3460    -1.9160     1.3920 H     1 <1>   0.3700 
 34 H       -4.6760    -2.4600    -1.8620 H     1 <1>   0.1500 
 35 H       -8.1100    -1.1400     1.3430 H     1 <1>   0.0800 
 36 H       -9.4440    -2.1680     1.7630 H     1 <1>   0.0800 
 37 H       -9.7770    -4.3530     0.5750 H     1 <1>   0.0800 
 38 H       -8.7210    -4.7890    -0.7380 H     1 <1>   0.0800 
 39 H      -10.9360    -3.9600    -1.5300 H     1 <1>   0.0800 
 40 H       -9.6060    -3.0320    -2.1350 H     1 <1>   0.0800 
 41 H      -11.3700    -1.4870    -1.4080 H     1 <1>   0.0800 
 42 H      -11.4860    -2.2910     0.1250 H     1 <1>   0.0800 
 43 H       -8.8840    -0.8550    -2.0650 H     1 <1>   0.0800 
 44 H       -7.9210    -0.1640    -0.7940 H     1 <1>   0.0800 
 45 H      -10.2520     1.0680    -2.1660 H     1 <1>   0.0800 
 46 H       -8.8260     1.8410    -1.4730 H     1 <1>   0.0800 
 47 H      -10.8720     3.3360    -0.0530 H     1 <1>   0.1500 
 48 H      -12.8610     1.9190     3.5570 H     1 <1>   0.4000 
 49 H      -12.5480     0.2220     3.6770 H     1 <1>   0.4000 
@<TRIPOS>BOND
  1   1   2  1   
  2   1   3  1   
  3   2   4  ar  
  4   2   5  ar  
  5   3  27  1   
  6   3  28  1   
  7   3  29  1   
  8   4   6  ar  
  9   4  30  1   
 10   5   7  ar  
 11   5  31  1   
 12   6   8  1   
 13   6   9  ar  
 14   7   9  ar  
 15   7  32  1   
 16   8  10  am  
 17   8  33  1   
 18   9  34  1   
 19  10  11  2   
 20  10  12  am  
 21  12  13  1   
 22  12  14  1   
 23  13  15  1   
 24  13  35  1   
 25  13  36  1   
 26  14  16  1   
 27  14  37  1   
 28  14  38  1   
 29  15  17  1   
 30  15  18  1   
 31  15  19  1   
 32  16  18  1   
 33  16  39  1   
 34  16  40  1   
 35  17  20  ar  
 36  17  21  ar  
 37  18  41  1   
 38  18  42  1   
 39  19  22  1   
 40  19  43  1   
 41  19  44  1   
 42  20  23  ar  
 43  21  22  1   
 44  21  24  ar  
 45  22  45  1   
 46  22  46  1   
 47  23  25  ar  
 48  23  26  1   
 49  24  25  ar  
 50  24  47  1   
 51  26  48  1   
 52  26  49  1   
@<TRIPOS>SUBSTRUCTURE
  1 ****  13 GROUP 4 **** **** 0

# MOE 2024.06 (io_trps.svl 2023.06)
