@<TRIPOS>MOLECULE
NONAME
52 54 1 0 0 
SMALL
USER_CHARGES


@<TRIPOS>ATOM
  1 O        0.5650    -0.6610     1.8060 O.2   1 <1>  -0.5700 
  2 C        0.1480    -0.1330     0.8040 C.2   1 <1>   0.5690 
  3 N       -0.4760    -0.8770    -0.1700 N.am  1 <1>  -0.6600 
  4 C        0.2150     1.3880     0.7210 C.3   1 <1>   0.0820 
  5 C       -0.8920    -0.3800    -1.5210 C.3   1 <1>   0.1400 
  6 C       -1.2590    -2.0760     0.2410 C.3   1 <1>   0.1400 
  7 C       -1.2000     1.9690     0.7550 C.2   1 <1>  -0.1810 
  8 C       -2.4320    -0.2110    -1.6330 C.3   1 <1>   0.4230 
  9 C       -2.7560    -1.7030     0.3760 C.3   1 <1>   0.3430 
 10 C       -1.8770     2.6870    -0.2330 C.2   1 <1>   0.1080 
 11 C       -2.0850     1.8820     1.7770 C.2   1 <1>  -0.3320 
 12 N       -3.1200    -0.3960    -0.3040 N.4   1 <1>  -0.9590 
 13 C       -3.0560    -1.1430    -2.6940 C.3   1 <1>   0.1200 
 14 N       -3.0980     2.9420     0.1110 N.2   1 <1>  -0.7070 
 15 C       -1.3410     3.1900    -1.5590 C.3   1 <1>  -0.0590 
 16 N       -3.2070     2.5110     1.3790 N.pl3 1 <1>   0.3000 
 17 C       -1.9350     1.2650     3.1610 C.3   1 <1>  -0.0600 
 18 C       -4.5840    -0.1460    -0.4790 C.3   1 <1>   0.4230 
 19 O       -4.4320    -0.9040    -2.7960 O.3   1 <1>  -0.5600 
 20 C       -5.1660    -1.0370    -1.6060 C.3   1 <1>   0.1200 
 21 C       -5.3200    -0.3240     0.8570 C.3   1 <1>  -0.1600 
 22 C       -6.7040     0.3430     0.8460 C.3   1 <1>  -0.1600 
 23 C       -7.3800     0.2220     2.2140 C.3   1 <1>  -0.2400 
 24 H        0.7620     1.7570     1.5700 H     1 <1>   0.0800 
 25 H        0.7550     1.6810    -0.1570 H     1 <1>   0.0800 
 26 H       -0.4150     0.5560    -1.7390 H     1 <1>   0.0800 
 27 H       -0.5450    -1.0750    -2.2660 H     1 <1>   0.0800 
 28 H       -1.1400    -2.8490    -0.4990 H     1 <1>   0.0800 
 29 H       -0.9000    -2.4740     1.1750 H     1 <1>   0.0800 
 30 H       -2.6170     0.7940    -1.9730 H     1 <1>   0.0800 
 31 H       -2.9920    -1.6310     1.4250 H     1 <1>   0.0800 
 32 H       -3.3460    -2.5080    -0.0300 H     1 <1>   0.0800 
 33 H       -2.7420     0.3740     0.2820 H     1 <1>   0.4500 
 34 H       -2.9010    -2.1800    -2.4540 H     1 <1>   0.0800 
 35 H       -2.6260    -0.9470    -3.6610 H     1 <1>   0.0800 
 36 H       -0.3190     2.9090    -1.7140 H     1 <1>   0.0800 
 37 H       -1.3980     4.2640    -1.5670 H     1 <1>   0.0800 
 38 H       -1.9430     2.8210    -2.3680 H     1 <1>   0.0800 
 39 H       -4.0470     2.6840     1.9490 H     1 <1>   0.2700 
 40 H       -0.9300     0.9190     3.3240 H     1 <1>   0.0800 
 41 H       -2.6050     0.4330     3.2820 H     1 <1>   0.0800 
 42 H       -2.1540     1.9990     3.9170 H     1 <1>   0.0800 
 43 H       -4.7100     0.8820    -0.7850 H     1 <1>   0.0800 
 44 H       -6.1780    -0.7450    -1.8240 H     1 <1>   0.0800 
 45 H       -5.1680    -2.0740    -1.3210 H     1 <1>   0.0800 
 46 H       -5.4410    -1.3700     1.0790 H     1 <1>   0.0800 
 47 H       -4.7420     0.1260     1.6430 H     1 <1>   0.0800 
 48 H       -6.6070     1.3880     0.5960 H     1 <1>   0.0800 
 49 H       -7.3390    -0.1160     0.1070 H     1 <1>   0.0800 
 50 H       -6.7930     0.7020     2.9770 H     1 <1>   0.0800 
 51 H       -7.5180    -0.8120     2.4810 H     1 <1>   0.0800 
 52 H       -8.3470     0.6930     2.1880 H     1 <1>   0.0800 
@<TRIPOS>BOND
  1   1   2  2   
  2   2   3  am  
  3   2   4  1   
  4   3   5  1   
  5   3   6  1   
  6   4   7  1   
  7   4  24  1   
  8   4  25  1   
  9   5   8  1   
 10   5  26  1   
 11   5  27  1   
 12   6   9  1   
 13   6  28  1   
 14   6  29  1   
 15   7  10  1   
 16   7  11  2   
 17   8  12  1   
 18   8  13  1   
 19   8  30  1   
 20   9  12  1   
 21   9  31  1   
 22   9  32  1   
 23  10  14  2   
 24  10  15  1   
 25  11  16  1   
 26  11  17  1   
 27  12  18  1   
 28  12  33  1   
 29  13  19  1   
 30  13  34  1   
 31  13  35  1   
 32  14  16  1   
 33  15  36  1   
 34  15  37  1   
 35  15  38  1   
 36  16  39  1   
 37  17  40  1   
 38  17  41  1   
 39  17  42  1   
 40  18  20  1   
 41  18  21  1   
 42  18  43  1   
 43  19  20  1   
 44  20  44  1   
 45  20  45  1   
 46  21  22  1   
 47  21  46  1   
 48  21  47  1   
 49  22  23  1   
 50  22  48  1   
 51  22  49  1   
 52  23  50  1   
 53  23  51  1   
 54  23  52  1   
@<TRIPOS>SUBSTRUCTURE
  1 ****  12 GROUP 4 **** **** 0

# MOE 2024.06 (io_trps.svl 2023.06)
