@<TRIPOS>MOLECULE
NONAME
53 56 1 0 0 
SMALL
USER_CHARGES


@<TRIPOS>ATOM
  1 O        0.4410    -0.5700    -2.0120 O.2   1 <1>  -0.5700 
  2 C        1.0570    -1.3550    -1.3310 C.2   1 <1>   0.5690 
  3 N        0.4770    -2.1190    -0.3540 N.am  1 <1>  -0.6600 
  4 C        2.5490    -1.5130    -1.5500 C.3   1 <1>  -0.0990 
  5 C        1.2960    -3.0770     0.4280 C.3   1 <1>   0.1400 
  6 C       -0.9660    -2.0240    -0.0100 C.3   1 <1>   0.0600 
  7 C        2.9390    -3.0030    -1.5850 C.3   1 <1>  -0.0800 
  8 C        2.2230    -3.8630    -0.5180 C.3   1 <1>  -0.0800 
  9 C        4.4400    -3.2460    -1.3880 C.3   1 <1>  -0.1600 
 10 C        3.3300    -4.6230     0.2260 C.3   1 <1>  -0.1600 
 11 C        4.5120    -4.6260    -0.7370 C.3   1 <1>   0.2200 
 12 N        5.7850    -4.9690    -0.0420 N.am  1 <1>  -0.6600 
 13 C        6.9400    -4.2350    -0.1970 C.2   1 <1>   0.5440 
 14 C        5.9250    -6.4250     0.2450 C.3   1 <1>   0.0600 
 15 O        7.8430    -4.7240    -0.8510 O.2   1 <1>  -0.5700 
 16 C        7.1160    -2.9290     0.4190 C.ar  1 <1>   0.0860 
 17 C        8.0120    -2.0040    -0.1130 C.ar  1 <1>  -0.1500 
 18 C        6.4100    -2.5520     1.5610 C.ar  1 <1>  -0.1500 
 19 C        8.2200    -0.7500     0.4490 C.ar  1 <1>   0.1170 
 20 C        6.5850    -1.3060     2.1330 C.ar  1 <1>  -0.1500 
 21 N        9.1640     0.1360    -0.1050 N.am  1 <1>  -0.4770 
 22 C        7.4830    -0.4130     1.5800 C.ar  1 <1>  -0.1500 
 23 C        9.1920     1.5070    -0.0770 C.2   1 <1>   0.6900 
 24 C       10.4480    -0.3550    -0.6740 C.3   1 <1>   0.1400 
 25 O        8.3240     2.2390     0.3530 O.2   1 <1>  -0.5700 
 26 N       10.3430     1.9860    -0.5730 N.am  1 <1>  -0.7300 
 27 C       11.2820     0.9130    -0.9180 C.3   1 <1>   0.1400 
 28 H        2.8320    -1.0350    -2.4700 H     1 <1>   0.0800 
 29 H        3.0480    -1.0090    -0.7440 H     1 <1>   0.0800 
 30 H        1.8780    -2.5210     1.1440 H     1 <1>   0.0800 
 31 H        0.6600    -3.7610     0.9640 H     1 <1>   0.0800 
 32 H       -1.0770    -1.7490     1.0250 H     1 <1>   0.0800 
 33 H       -1.4450    -2.9720    -0.1820 H     1 <1>   0.0800 
 34 H       -1.4510    -1.2790    -0.6170 H     1 <1>   0.0800 
 35 H        2.6570    -3.3930    -2.5500 H     1 <1>   0.0800 
 36 H        1.6140    -4.5840    -1.0370 H     1 <1>   0.0800 
 37 H        4.8230    -2.4960    -0.7230 H     1 <1>   0.0800 
 38 H        4.9760    -3.2150    -2.3200 H     1 <1>   0.0800 
 39 H        3.0180    -5.6200     0.4780 H     1 <1>   0.0800 
 40 H        3.6070    -4.0930     1.1200 H     1 <1>   0.0800 
 41 H        4.3290    -5.3610    -1.5050 H     1 <1>   0.0800 
 42 H        5.1600    -6.7430     0.9300 H     1 <1>   0.0800 
 43 H        6.8870    -6.6230     0.6880 H     1 <1>   0.0800 
 44 H        5.8480    -6.9870    -0.6690 H     1 <1>   0.0800 
 45 H        8.5560    -2.2840    -0.9960 H     1 <1>   0.1500 
 46 H        5.7190    -3.2460     2.0050 H     1 <1>   0.1500 
 47 H        6.0280    -1.0280     3.0110 H     1 <1>   0.1500 
 48 H        7.6160     0.5520     2.0360 H     1 <1>   0.1500 
 49 H       10.9380    -1.0140     0.0210 H     1 <1>   0.0800 
 50 H       10.2700    -0.8700    -1.6010 H     1 <1>   0.0800 
 51 H       10.5940     2.9690    -0.4630 H     1 <1>   0.3700 
 52 H       11.5880     0.9870    -1.9470 H     1 <1>   0.0800 
 53 H       12.1420     0.9400    -0.2710 H     1 <1>   0.0800 
@<TRIPOS>BOND
  1   1   2  2   
  2   2   3  am  
  3   2   4  1   
  4   3   5  1   
  5   3   6  1   
  6   4   7  1   
  7   4  28  1   
  8   4  29  1   
  9   5   8  1   
 10   5  30  1   
 11   5  31  1   
 12   6  32  1   
 13   6  33  1   
 14   6  34  1   
 15   7   8  1   
 16   7   9  1   
 17   7  35  1   
 18   8  10  1   
 19   8  36  1   
 20   9  11  1   
 21   9  37  1   
 22   9  38  1   
 23  10  11  1   
 24  10  39  1   
 25  10  40  1   
 26  11  12  1   
 27  11  41  1   
 28  12  13  am  
 29  12  14  1   
 30  13  15  2   
 31  13  16  1   
 32  14  42  1   
 33  14  43  1   
 34  14  44  1   
 35  16  17  ar  
 36  16  18  ar  
 37  17  19  ar  
 38  17  45  1   
 39  18  20  ar  
 40  18  46  1   
 41  19  21  1   
 42  19  22  ar  
 43  20  22  ar  
 44  20  47  1   
 45  21  23  am  
 46  21  24  1   
 47  22  48  1   
 48  23  25  2   
 49  23  26  am  
 50  24  27  1   
 51  24  49  1   
 52  24  50  1   
 53  26  27  1   
 54  26  51  1   
 55  27  52  1   
 56  27  53  1   
@<TRIPOS>SUBSTRUCTURE
  1 ****  16 GROUP 4 **** **** 0

# MOE 2024.06 (io_trps.svl 2023.06)
