@<TRIPOS>MOLECULE
NONAME
52 54 1 0 0 
SMALL
USER_CHARGES


@<TRIPOS>ATOM
  1 O       -0.9770    -0.5820    -1.3670 O.3   1 <1>  -0.5600 
  2 C       -1.8700    -1.1190    -0.4520 C.3   1 <1>   0.1200 
  3 C       -0.4560     0.6600    -1.0070 C.3   1 <1>   0.0400 
  4 C       -2.3130    -2.4800    -1.0040 C.3   1 <1>   0.3430 
  5 N       -3.2580    -3.2120    -0.0920 N.4   1 <1>  -0.9590 
  6 C       -3.4060    -4.6220    -0.5540 C.3   1 <1>   0.3430 
  7 C       -4.5810    -2.5290     0.0020 C.3   1 <1>   0.3430 
  8 C       -4.2820    -5.4050     0.4280 C.3   1 <1>  -0.1600 
  9 C       -5.4800    -3.2700     0.9960 C.3   1 <1>  -0.1600 
 10 C       -5.6660    -4.7560     0.6300 C.3   1 <1>  -0.0800 
 11 C       -6.5140    -5.4730     1.7060 C.3   1 <1>   0.2090 
 12 N       -6.7340    -6.9190     1.3570 N.pl3 1 <1>  -0.8380 
 13 C       -7.6490    -7.3970     0.4760 C.ar  1 <1>   0.4610 
 14 C       -5.9390    -7.8460     2.2360 C.3   1 <1>   0.1290 
 15 N       -8.8190    -6.7500     0.3920 N.ar  1 <1>  -0.1790 
 16 C       -7.4740    -8.5790    -0.3370 C.ar  1 <1>   0.0000 
 17 C       -9.9000    -7.2090    -0.3260 C.ar  1 <1>   0.2110 
 18 C       -8.5820    -9.0880    -1.0510 C.ar  1 <1>   0.0000 
 19 C       -6.2460    -9.2460    -0.5120 C.ar  1 <1>  -0.1500 
 20 C       -9.8020    -8.3610    -1.0250 C.ar  1 <1>  -0.1500 
 21 C       -8.4580   -10.2660    -1.7970 C.ar  1 <1>  -0.1500 
 22 C       -6.1370   -10.3910    -1.2620 C.ar  1 <1>  -0.1500 
 23 C       -7.2550   -10.9150    -1.8990 C.ar  1 <1>  -0.1500 
 24 H       -2.7010    -0.4430    -0.3590 H     1 <1>   0.0800 
 25 H       -1.3610    -1.2340     0.4900 H     1 <1>   0.0800 
 26 H        0.2180     0.9780    -1.7840 H     1 <1>   0.0800 
 27 H        0.0830     0.5690    -0.0800 H     1 <1>   0.0800 
 28 H       -1.2570     1.3730    -0.9140 H     1 <1>   0.0800 
 29 H       -1.4270    -3.0760    -1.1520 H     1 <1>   0.0800 
 30 H       -2.7770    -2.3290    -1.9650 H     1 <1>   0.0800 
 31 H       -2.8360    -3.2370     0.8460 H     1 <1>   0.4500 
 32 H       -2.4370    -5.0910    -0.6230 H     1 <1>   0.0800 
 33 H       -3.8580    -4.6390    -1.5330 H     1 <1>   0.0800 
 34 H       -5.0510    -2.5120    -0.9690 H     1 <1>   0.0800 
 35 H       -4.4520    -1.5090     0.3300 H     1 <1>   0.0800 
 36 H       -3.7670    -5.4890     1.3690 H     1 <1>   0.0800 
 37 H       -4.4050    -6.4000     0.0380 H     1 <1>   0.0800 
 38 H       -6.4390    -2.7800     1.0160 H     1 <1>   0.0800 
 39 H       -5.0550    -3.1790     1.9820 H     1 <1>   0.0800 
 40 H       -6.2030    -4.8030    -0.3030 H     1 <1>   0.0800 
 41 H       -7.4570    -4.9680     1.8150 H     1 <1>   0.0800 
 42 H       -6.0120    -5.4010     2.6580 H     1 <1>   0.0800 
 43 H       -6.0690    -7.5780     3.2720 H     1 <1>   0.0800 
 44 H       -4.8910    -7.7910     1.9960 H     1 <1>   0.0800 
 45 H       -6.2700    -8.8650     2.1240 H     1 <1>   0.0800 
 46 H       -8.9320    -5.9430     0.9980 H     1 <1>   0.4570 
 47 H      -10.8100    -6.6300    -0.2970 H     1 <1>   0.1500 
 48 H       -5.3540    -8.8580    -0.0590 H     1 <1>   0.1500 
 49 H      -10.6360    -8.7530    -1.5830 H     1 <1>   0.1500 
 50 H       -9.3180   -10.6650    -2.3070 H     1 <1>   0.1500 
 51 H       -5.1900   -10.8950    -1.3680 H     1 <1>   0.1500 
 52 H       -7.1630   -11.8200    -2.4760 H     1 <1>   0.1500 
@<TRIPOS>BOND
  1   1   2  1   
  2   1   3  1   
  3   2   4  1   
  4   2  24  1   
  5   2  25  1   
  6   3  26  1   
  7   3  27  1   
  8   3  28  1   
  9   4   5  1   
 10   4  29  1   
 11   4  30  1   
 12   5   6  1   
 13   5   7  1   
 14   5  31  1   
 15   6   8  1   
 16   6  32  1   
 17   6  33  1   
 18   7   9  1   
 19   7  34  1   
 20   7  35  1   
 21   8  10  1   
 22   8  36  1   
 23   8  37  1   
 24   9  10  1   
 25   9  38  1   
 26   9  39  1   
 27  10  11  1   
 28  10  40  1   
 29  11  12  1   
 30  11  41  1   
 31  11  42  1   
 32  12  13  1   
 33  12  14  1   
 34  13  15  ar  
 35  13  16  ar  
 36  14  43  1   
 37  14  44  1   
 38  14  45  1   
 39  15  17  ar  
 40  15  46  1   
 41  16  18  ar  
 42  16  19  ar  
 43  17  20  ar  
 44  17  47  1   
 45  18  20  ar  
 46  18  21  ar  
 47  19  22  ar  
 48  19  48  1   
 49  20  49  1   
 50  21  23  ar  
 51  21  50  1   
 52  22  23  ar  
 53  22  51  1   
 54  23  52  1   
@<TRIPOS>SUBSTRUCTURE
  1 ****  10 GROUP 4 **** **** 0

# MOE 2024.06 (io_trps.svl 2023.06)
