@<TRIPOS>MOLECULE
NONAME
49 52 1 0 0 
SMALL
USER_CHARGES


@<TRIPOS>ATOM
  1 S        2.3400     2.5010    -0.7650 S.3   1 <1>  -0.0800 
  2 C        0.5900     2.6550    -0.8010 C.2   1 <1>  -0.1400 
  3 C        2.2620     1.0420    -1.7440 C.2   1 <1>  -0.1100 
  4 C        0.0410     1.6670    -1.5190 C.2   1 <1>  -0.1810 
  5 C       -0.1550     3.7850    -0.0970 C.3   1 <1>   0.4600 
  6 C        0.9870     0.7380    -2.0560 C.2   1 <1>  -0.1500 
  7 C       -1.4600     1.6190    -1.6950 C.3   1 <1>   0.0210 
  8 O       -1.5450     3.5300    -0.1800 O.3   1 <1>  -0.5600 
  9 C        0.1870     3.8130     1.3980 C.3   1 <1>  -0.1600 
 10 C        0.1460     5.1410    -0.7480 C.3   1 <1>  -0.1600 
 11 C       -2.0490     3.0100    -1.3880 C.3   1 <1>   0.1200 
 12 C       -0.4880     4.9870     2.1100 C.3   1 <1>   0.1400 
 13 C       -0.5220     6.2950    -0.0010 C.3   1 <1>   0.1400 
 14 N       -0.0980     6.2490     1.4250 N.am  1 <1>  -0.6600 
 15 C        0.7190     7.1770     2.0310 C.2   1 <1>   0.5690 
 16 O        1.1000     7.0330     3.1710 O.2   1 <1>  -0.5700 
 17 C        1.2040     8.4390     1.3010 C.3   1 <1>   0.1810 
 18 O        1.9330     8.1940     0.1210 O.3   1 <1>  -0.5600 
 19 C        3.0720     7.3960     0.2810 C.3   1 <1>   0.1200 
 20 C        3.7910     7.1970    -1.0650 C.3   1 <1>   0.2000 
 21 O        2.9530     6.5940    -2.0080 O.3   1 <1>  -0.5600 
 22 C        5.0040     6.2810    -0.9640 C.3   1 <1>  -0.1600 
 23 C        3.6360     5.6840    -2.8130 C.3   1 <1>   0.1200 
 24 C        5.0900     5.7010    -2.3600 C.3   1 <1>  -0.1600 
 25 H        3.1920     0.5590    -1.9840 H     1 <1>   0.1500 
 26 H        0.6700    -0.1060    -2.6440 H     1 <1>   0.1500 
 27 H       -1.8810     0.8890    -1.0280 H     1 <1>   0.0800 
 28 H       -1.7060     1.3430    -2.7040 H     1 <1>   0.0800 
 29 H        1.2490     3.9090     1.5260 H     1 <1>   0.0800 
 30 H       -0.1150     2.8860     1.8490 H     1 <1>   0.0800 
 31 H       -0.1520     5.1410    -1.7790 H     1 <1>   0.0800 
 32 H        1.2050     5.3000    -0.7300 H     1 <1>   0.0800 
 33 H       -3.1190     2.9470    -1.2950 H     1 <1>   0.0800 
 34 H       -1.8140     3.6990    -2.1800 H     1 <1>   0.0800 
 35 H       -0.1910     5.0050     3.1450 H     1 <1>   0.0800 
 36 H       -1.5580     4.8780     2.0720 H     1 <1>   0.0800 
 37 H       -1.5930     6.1930    -0.0540 H     1 <1>   0.0800 
 38 H       -0.2550     7.2270    -0.4650 H     1 <1>   0.0800 
 39 H        1.8270     9.0150     1.9610 H     1 <1>   0.0800 
 40 H        0.3530     9.0360     1.0350 H     1 <1>   0.0800 
 41 H        2.7820     6.4370     0.6730 H     1 <1>   0.0800 
 42 H        3.7310     7.8800     0.9800 H     1 <1>   0.0800 
 43 H        4.0870     8.1510    -1.4660 H     1 <1>   0.0800 
 44 H        4.8140     5.4960    -0.2520 H     1 <1>   0.0800 
 45 H        5.8920     6.8160    -0.6800 H     1 <1>   0.0800 
 46 H        3.5270     5.9780    -3.8430 H     1 <1>   0.0800 
 47 H        3.1920     4.7160    -2.6580 H     1 <1>   0.0800 
 48 H        5.5280     4.7190    -2.3770 H     1 <1>   0.0800 
 49 H        5.6540     6.3530    -3.0050 H     1 <1>   0.0800 
@<TRIPOS>BOND
  1   1   2  1   
  2   1   3  1   
  3   2   4  2   
  4   2   5  1   
  5   3   6  2   
  6   3  25  1   
  7   4   6  1   
  8   4   7  1   
  9   5   8  1   
 10   5   9  1   
 11   5  10  1   
 12   6  26  1   
 13   7  11  1   
 14   7  27  1   
 15   7  28  1   
 16   8  11  1   
 17   9  12  1   
 18   9  29  1   
 19   9  30  1   
 20  10  13  1   
 21  10  31  1   
 22  10  32  1   
 23  11  33  1   
 24  11  34  1   
 25  12  14  1   
 26  12  35  1   
 27  12  36  1   
 28  13  14  1   
 29  13  37  1   
 30  13  38  1   
 31  14  15  am  
 32  15  16  2   
 33  15  17  1   
 34  17  18  1   
 35  17  39  1   
 36  17  40  1   
 37  18  19  1   
 38  19  20  1   
 39  19  41  1   
 40  19  42  1   
 41  20  21  1   
 42  20  22  1   
 43  20  43  1   
 44  21  23  1   
 45  22  24  1   
 46  22  44  1   
 47  22  45  1   
 48  23  24  1   
 49  23  46  1   
 50  23  47  1   
 51  24  48  1   
 52  24  49  1   
@<TRIPOS>SUBSTRUCTURE
  1 ****  10 GROUP 4 **** **** 0

# MOE 2024.06 (io_trps.svl 2023.06)
