@<TRIPOS>MOLECULE
NONAME
54 57 1 0 0 
SMALL
USER_CHARGES


@<TRIPOS>ATOM
  1 S       -2.6790     0.2420     1.9290 S.3   1 <1>  -0.0800 
  2 C       -2.8830    -1.1830     0.9270 C.2   1 <1>  -0.1100 
  3 C       -2.7700     1.2890     0.5250 C.2   1 <1>  -0.1100 
  4 C       -3.0110    -0.8470    -0.3720 C.2   1 <1>  -0.1810 
  5 C       -2.9430     0.5670    -0.5970 C.2   1 <1>  -0.1500 
  6 C       -3.2090    -1.8030    -1.5450 C.3   1 <1>   0.0820 
  7 C       -3.4440    -3.2570    -1.1440 C.2   1 <1>   0.5690 
  8 O       -2.5700    -4.0480    -1.4140 O.2   1 <1>  -0.5700 
  9 N       -4.6070    -3.6580    -0.5270 N.am  1 <1>  -0.6600 
 10 C       -5.7460    -2.7580    -0.1620 C.3   1 <1>   0.1400 
 11 C       -4.8260    -5.0770    -0.1290 C.3   1 <1>   0.1400 
 12 C       -7.0410    -3.2600    -0.8390 C.3   1 <1>   0.2200 
 13 C       -6.1050    -5.6010    -0.7920 C.3   1 <1>  -0.1600 
 14 N       -8.2800    -2.4140    -0.6640 N.am  1 <1>  -0.6600 
 15 C       -7.3570    -4.7380    -0.4840 C.3   1 <1>   0.0000 
 16 C       -8.5030    -1.5150     0.3610 C.2   1 <1>   0.5770 
 17 C       -9.3360    -2.8200    -1.6360 C.3   1 <1>   0.1400 
 18 C       -8.5220    -5.2170    -1.3930 C.3   1 <1>  -0.1600 
 19 C       -7.7380    -4.8430     1.0200 C.3   1 <1>   0.1200 
 20 O       -7.6910    -1.3310     1.2350 O.2   1 <1>  -0.5700 
 21 C       -9.8120    -0.7230     0.4360 C.3   1 <1>   0.0530 
 22 C       -9.7380    -4.2730    -1.3560 C.3   1 <1>  -0.1600 
 23 O       -8.0260    -6.1550     1.3760 O.3   1 <1>  -0.6800 
 24 C       -9.9890     0.2530     1.6370 C.3   1 <1>   0.0000 
 25 C      -11.0070    -1.5220     1.0250 C.3   1 <1>   0.0000 
 26 C      -11.4730    -0.1940     1.6760 C.3   1 <1>   0.0000 
 27 H       -2.8870    -2.1370     1.4250 H     1 <1>   0.1500 
 28 H       -2.6820     2.3480     0.6930 H     1 <1>   0.1500 
 29 H       -3.0260     0.9790    -1.5880 H     1 <1>   0.1500 
 30 H       -2.3340    -1.7610    -2.1670 H     1 <1>   0.0800 
 31 H       -4.0390    -1.4770    -2.1410 H     1 <1>   0.0800 
 32 H       -5.8420    -2.7710     0.9090 H     1 <1>   0.0800 
 33 H       -5.5610    -1.7450    -0.4660 H     1 <1>   0.0800 
 34 H       -3.9930    -5.6910    -0.4290 H     1 <1>   0.0800 
 35 H       -4.9050    -5.1390     0.9430 H     1 <1>   0.0800 
 36 H       -6.8140    -3.2350    -1.8910 H     1 <1>   0.0800 
 37 H       -5.9300    -5.6290    -1.8530 H     1 <1>   0.0800 
 38 H       -6.2670    -6.6160    -0.4750 H     1 <1>   0.0800 
 39 H      -10.2030    -2.1890    -1.5810 H     1 <1>   0.0800 
 40 H       -8.9440    -2.7380    -2.6360 H     1 <1>   0.0800 
 41 H       -8.1730    -5.2600    -2.4110 H     1 <1>   0.0800 
 42 H       -8.8260    -6.2140    -1.1270 H     1 <1>   0.0800 
 43 H       -8.6010    -4.2430     1.2490 H     1 <1>   0.0800 
 44 H       -6.9330    -4.5120     1.6510 H     1 <1>   0.0800 
 45 H      -10.0640    -0.2370    -0.4910 H     1 <1>   0.0000 
 46 H      -10.2240    -4.3260    -0.3980 H     1 <1>   0.0800 
 47 H      -10.4540    -4.5870    -2.0950 H     1 <1>   0.0800 
 48 H       -8.8160    -6.4680     0.8970 H     1 <1>   0.4000 
 49 H       -9.4620    -0.0380     2.5290 H     1 <1>   0.0000 
 50 H       -9.8560     1.2890     1.3790 H     1 <1>   0.0000 
 51 H      -11.6880    -1.9040     0.2860 H     1 <1>   0.0000 
 52 H      -10.7050    -2.2570     1.7530 H     1 <1>   0.0000 
 53 H      -12.1010     0.3900     1.0250 H     1 <1>   0.0000 
 54 H      -11.8680    -0.3110     2.6690 H     1 <1>   0.0000 
@<TRIPOS>BOND
  1   1   2  1   
  2   1   3  1   
  3   2   4  2   
  4   2  27  1   
  5   3   5  2   
  6   3  28  1   
  7   4   5  1   
  8   4   6  1   
  9   5  29  1   
 10   6   7  1   
 11   6  30  1   
 12   6  31  1   
 13   7   8  2   
 14   7   9  am  
 15   9  10  1   
 16   9  11  1   
 17  10  12  1   
 18  10  32  1   
 19  10  33  1   
 20  11  13  1   
 21  11  34  1   
 22  11  35  1   
 23  12  14  1   
 24  12  15  1   
 25  12  36  1   
 26  13  15  1   
 27  13  37  1   
 28  13  38  1   
 29  14  16  am  
 30  14  17  1   
 31  15  18  1   
 32  15  19  1   
 33  16  20  2   
 34  16  21  1   
 35  17  22  1   
 36  17  39  1   
 37  17  40  1   
 38  18  22  1   
 39  18  41  1   
 40  18  42  1   
 41  19  23  1   
 42  19  43  1   
 43  19  44  1   
 44  21  24  1   
 45  21  25  1   
 46  21  45  1   
 47  22  46  1   
 48  22  47  1   
 49  23  48  1   
 50  24  26  1   
 51  24  49  1   
 52  24  50  1   
 53  25  26  1   
 54  25  51  1   
 55  25  52  1   
 56  26  53  1   
 57  26  54  1   
@<TRIPOS>SUBSTRUCTURE
  1 ****  10 GROUP 4 **** **** 0

# MOE 2024.06 (io_trps.svl 2023.06)
