@<TRIPOS>MOLECULE
NONAME
59 62 1 0 0 
SMALL
USER_CHARGES


@<TRIPOS>ATOM
  1 O        0.0580    -2.4240    -1.6940 O.2   1 <1>  -0.5700 
  2 C        0.9830    -2.9980    -1.1850 C.2   1 <1>   0.5690 
  3 N        0.8590    -4.2510    -0.6990 N.am  1 <1>  -0.7300 
  4 C        2.3360    -2.3320    -1.0570 C.3   1 <1>  -0.0990 
  5 C        1.9660    -4.9870    -0.0580 C.3   1 <1>   0.1400 
  6 C        3.4650    -3.3200    -1.4160 C.3   1 <1>  -0.0800 
  7 C        3.2690    -4.7500    -0.8510 C.3   1 <1>  -0.0800 
  8 C        4.8500    -2.8550    -0.9450 C.3   1 <1>  -0.1600 
  9 C        4.5380    -5.0600    -0.0420 C.3   1 <1>  -0.1600 
 10 C        5.5990    -4.1490    -0.6550 C.3   1 <1>   0.4230 
 11 N        6.8300    -3.9920     0.1740 N.4   1 <1>  -0.9590 
 12 C        6.6920    -3.3880     1.5320 C.3   1 <1>   0.4860 
 13 C        7.6080    -5.2640     0.2430 C.3   1 <1>   0.2630 
 14 C        6.8650    -1.8790     1.4600 C.ar  1 <1>  -0.1440 
 15 C        7.9640    -1.2960     0.8290 C.ar  1 <1>   0.0820 
 16 C        5.9130    -1.0670     2.0600 C.ar  1 <1>  -0.1500 
 17 O        8.8810    -2.1210     0.2580 O.3   1 <1>  -0.3620 
 18 C        8.0880     0.0910     0.8000 C.ar  1 <1>  -0.1500 
 19 C        6.0420     0.3100     2.0260 C.ar  1 <1>  -0.1500 
 20 C       10.1320    -1.6440    -0.1910 C.3   1 <1>   0.1200 
 21 C        7.1280     0.8870     1.3960 C.ar  1 <1>  -0.1500 
 22 C       10.9330    -2.8540    -0.6660 C.3   1 <1>  -0.1600 
 23 C       12.3190    -2.4540    -1.1870 C.3   1 <1>   0.0960 
 24 N       13.0250    -3.6580    -1.6600 N.pl3 1 <1>   0.0480 
 25 C       12.9920    -4.2040    -2.8970 C.2   1 <1>   0.0360 
 26 C       13.7840    -4.4990    -0.9360 C.2   1 <1>  -0.3020 
 27 N       13.6580    -5.3070    -3.0020 N.2   1 <1>  -0.5650 
 28 C       14.1620    -5.4940    -1.7680 C.2   1 <1>   0.0770 
 29 H       -0.0660    -4.6860    -0.7520 H     1 <1>   0.3700 
 30 H        2.3730    -1.4730    -1.7030 H     1 <1>   0.0800 
 31 H        2.4310    -1.9930    -0.0420 H     1 <1>   0.0800 
 32 H        2.0650    -4.6300     0.9530 H     1 <1>   0.0800 
 33 H        1.7340    -6.0380    -0.0280 H     1 <1>   0.0800 
 34 H        3.4820    -3.4050    -2.4910 H     1 <1>   0.0800 
 35 H        3.2450    -5.4220    -1.6940 H     1 <1>   0.0800 
 36 H        4.7310    -2.2720    -0.0530 H     1 <1>   0.0800 
 37 H        5.3430    -2.2650    -1.6980 H     1 <1>   0.0800 
 38 H        4.8010    -6.0990    -0.1260 H     1 <1>   0.0800 
 39 H        4.3720    -4.8070     0.9890 H     1 <1>   0.0800 
 40 H        5.8780    -4.5730    -1.6080 H     1 <1>   0.0800 
 41 H        7.4320    -3.2990    -0.3050 H     1 <1>   0.4500 
 42 H        5.7360    -3.6330     1.9620 H     1 <1>   0.0800 
 43 H        7.4600    -3.7750     2.1810 H     1 <1>   0.0800 
 44 H        7.0590    -6.0120     0.7920 H     1 <1>   0.0800 
 45 H        8.5530    -5.0960     0.7360 H     1 <1>   0.0800 
 46 H        7.8040    -5.6370    -0.7490 H     1 <1>   0.0800 
 47 H        5.0600    -1.4900     2.5640 H     1 <1>   0.1500 
 48 H        8.9170     0.5770     0.3210 H     1 <1>   0.1500 
 49 H        5.2990     0.9360     2.4920 H     1 <1>   0.1500 
 50 H        9.9660    -0.9510    -0.9990 H     1 <1>   0.0800 
 51 H       10.6250    -1.1500     0.6300 H     1 <1>   0.0800 
 52 H        7.2250     1.9600     1.3730 H     1 <1>   0.1500 
 53 H       11.0560    -3.5370     0.1560 H     1 <1>   0.0800 
 54 H       10.3920    -3.3420    -1.4580 H     1 <1>   0.0800 
 55 H       12.9010    -1.9960    -0.4070 H     1 <1>   0.0800 
 56 H       12.2320    -1.7610    -2.0060 H     1 <1>   0.0800 
 57 H       12.4520    -3.7510    -3.7090 H     1 <1>   0.1500 
 58 H       14.0120    -4.3540     0.1040 H     1 <1>   0.1500 
 59 H       14.7790    -6.3480    -1.5420 H     1 <1>   0.1500 
@<TRIPOS>BOND
  1   1   2  2   
  2   2   3  am  
  3   2   4  1   
  4   3   5  1   
  5   3  29  1   
  6   4   6  1   
  7   4  30  1   
  8   4  31  1   
  9   5   7  1   
 10   5  32  1   
 11   5  33  1   
 12   6   7  1   
 13   6   8  1   
 14   6  34  1   
 15   7   9  1   
 16   7  35  1   
 17   8  10  1   
 18   8  36  1   
 19   8  37  1   
 20   9  10  1   
 21   9  38  1   
 22   9  39  1   
 23  10  11  1   
 24  10  40  1   
 25  11  12  1   
 26  11  13  1   
 27  11  41  1   
 28  12  14  1   
 29  12  42  1   
 30  12  43  1   
 31  13  44  1   
 32  13  45  1   
 33  13  46  1   
 34  14  15  ar  
 35  14  16  ar  
 36  15  17  1   
 37  15  18  ar  
 38  16  19  ar  
 39  16  47  1   
 40  17  20  1   
 41  18  21  ar  
 42  18  48  1   
 43  19  21  ar  
 44  19  49  1   
 45  20  22  1   
 46  20  50  1   
 47  20  51  1   
 48  21  52  1   
 49  22  23  1   
 50  22  53  1   
 51  22  54  1   
 52  23  24  1   
 53  23  55  1   
 54  23  56  1   
 55  24  25  1   
 56  24  26  1   
 57  25  27  2   
 58  25  57  1   
 59  26  28  2   
 60  26  58  1   
 61  27  28  1   
 62  28  59  1   
@<TRIPOS>SUBSTRUCTURE
  1 ****  11 GROUP 4 **** **** 0

# MOE 2024.06 (io_trps.svl 2023.06)
