@<TRIPOS>MOLECULE
NONAME
53 55 1 0 0 
SMALL
USER_CHARGES


@<TRIPOS>ATOM
  1 O       -2.0360    -0.7030     1.5320 O.3   1 <1>  -0.5600 
  2 C       -2.4700    -1.3710     0.3970 C.3   1 <1>   0.1200 
  3 C       -1.3320     0.4730     1.2780 C.3   1 <1>   0.0400 
  4 C       -3.1960    -2.6360     0.8710 C.3   1 <1>   0.3430 
  5 N       -3.6880    -3.4900    -0.2590 N.4   1 <1>  -0.9590 
  6 C       -4.7820    -2.8230    -1.0310 C.3   1 <1>   0.3430 
  7 C       -4.1270    -4.8140     0.2720 C.3   1 <1>   0.3430 
  8 C       -5.2040    -3.7040    -2.2080 C.3   1 <1>  -0.1600 
  9 C       -4.5330    -5.7270    -0.8820 C.3   1 <1>  -0.1600 
 10 C       -5.6540    -5.0890    -1.7220 C.3   1 <1>  -0.0800 
 11 C       -6.0970    -5.9820    -2.9010 C.3   1 <1>   0.2090 
 12 N       -6.5320    -7.3270    -2.4290 N.pl3 1 <1>  -0.8380 
 13 C       -7.5110    -7.4310    -1.4480 C.ar  1 <1>   0.4100 
 14 C       -6.5340    -8.3670    -3.4940 C.3   1 <1>   0.1290 
 15 N       -8.5270    -6.5930    -1.5170 N.ar  1 <1>  -0.3100 
 16 C       -7.3810    -8.3930    -0.4140 C.ar  1 <1>   0.0000 
 17 N       -9.4870    -6.6270    -0.6030 N.ar  1 <1>  -0.3100 
 18 C       -8.4040    -8.4280     0.5440 C.ar  1 <1>   0.0000 
 19 C       -6.2970    -9.2890    -0.2810 C.ar  1 <1>  -0.1500 
 20 C       -9.4440    -7.4940     0.3700 C.ar  1 <1>   0.1670 
 21 C       -8.3140    -9.3690     1.5970 C.ar  1 <1>  -0.1500 
 22 C       -6.2320   -10.1880     0.7480 C.ar  1 <1>  -0.1500 
 23 C      -10.6030    -7.4560     1.3520 C.3   1 <1>  -0.0970 
 24 C       -7.2550   -10.2280     1.6980 C.ar  1 <1>  -0.1500 
 25 H       -1.6100    -1.6220    -0.1980 H     1 <1>   0.0800 
 26 H       -3.1330    -0.7180    -0.1430 H     1 <1>   0.0800 
 27 H       -1.0470     0.9040     2.2230 H     1 <1>   0.0800 
 28 H       -1.9640     1.1640     0.7450 H     1 <1>   0.0800 
 29 H       -0.4480     0.2470     0.7060 H     1 <1>   0.0800 
 30 H       -4.0250    -2.3470     1.4950 H     1 <1>   0.0800 
 31 H       -2.5060    -3.2050     1.4720 H     1 <1>   0.0800 
 32 H       -2.9080    -3.6710    -0.9030 H     1 <1>   0.4500 
 33 H       -4.4490    -1.8680    -1.4040 H     1 <1>   0.0800 
 34 H       -5.6320    -2.6580    -0.3870 H     1 <1>   0.0800 
 35 H       -4.9690    -4.6830     0.9340 H     1 <1>   0.0800 
 36 H       -3.3270    -5.2760     0.8280 H     1 <1>   0.0800 
 37 H       -4.3880    -3.7940    -2.9040 H     1 <1>   0.0800 
 38 H       -6.0200    -3.2250    -2.7210 H     1 <1>   0.0800 
 39 H       -4.8770    -6.6570    -0.4650 H     1 <1>   0.0800 
 40 H       -3.6780    -5.9480    -1.4970 H     1 <1>   0.0800 
 41 H       -6.5100    -4.9370    -1.0870 H     1 <1>   0.0800 
 42 H       -5.2770    -6.0980    -3.5890 H     1 <1>   0.0800 
 43 H       -6.9130    -5.5150    -3.4270 H     1 <1>   0.0800 
 44 H       -5.5230    -8.6210    -3.7610 H     1 <1>   0.0800 
 45 H       -7.0520    -8.0020    -4.3640 H     1 <1>   0.0800 
 46 H       -7.0350    -9.2560    -3.1480 H     1 <1>   0.0800 
 47 H       -5.5090    -9.2560    -1.0110 H     1 <1>   0.1500 
 48 H       -9.0940    -9.4120     2.3350 H     1 <1>   0.1500 
 49 H       -5.4040   -10.8700     0.8390 H     1 <1>   0.1500 
 50 H      -11.3070    -6.6900     1.0750 H     1 <1>   0.0800 
 51 H      -10.2420    -7.2430     2.3410 H     1 <1>   0.0800 
 52 H      -11.1140    -8.4000     1.3520 H     1 <1>   0.0800 
 53 H       -7.1940   -10.9410     2.5030 H     1 <1>   0.1500 
@<TRIPOS>BOND
  1   1   2  1   
  2   1   3  1   
  3   2   4  1   
  4   2  25  1   
  5   2  26  1   
  6   3  27  1   
  7   3  28  1   
  8   3  29  1   
  9   4   5  1   
 10   4  30  1   
 11   4  31  1   
 12   5   6  1   
 13   5   7  1   
 14   5  32  1   
 15   6   8  1   
 16   6  33  1   
 17   6  34  1   
 18   7   9  1   
 19   7  35  1   
 20   7  36  1   
 21   8  10  1   
 22   8  37  1   
 23   8  38  1   
 24   9  10  1   
 25   9  39  1   
 26   9  40  1   
 27  10  11  1   
 28  10  41  1   
 29  11  12  1   
 30  11  42  1   
 31  11  43  1   
 32  12  13  1   
 33  12  14  1   
 34  13  15  ar  
 35  13  16  ar  
 36  14  44  1   
 37  14  45  1   
 38  14  46  1   
 39  15  17  ar  
 40  16  18  ar  
 41  16  19  ar  
 42  17  20  ar  
 43  18  20  ar  
 44  18  21  ar  
 45  19  22  ar  
 46  19  47  1   
 47  20  23  1   
 48  21  24  ar  
 49  21  48  1   
 50  22  24  ar  
 51  22  49  1   
 52  23  50  1   
 53  23  51  1   
 54  23  52  1   
 55  24  53  1   
@<TRIPOS>SUBSTRUCTURE
  1 ****   9 GROUP 4 **** **** 0

# MOE 2024.06 (io_trps.svl 2023.06)
