@<TRIPOS>MOLECULE
NONAME
44 46 1 0 0 
SMALL
USER_CHARGES


@<TRIPOS>ATOM
  1 N        1.1420    -0.6520     2.1320 N.1   1 <1>  -0.5570 
  2 C        1.9600    -1.0080     1.4240 C.1   1 <1>   0.3570 
  3 C        3.0560    -1.4280     0.4810 C.3   1 <1>   0.3440 
  4 C        2.6640    -2.7770    -0.1700 C.ar  1 <1>  -0.1440 
  5 C        3.2110    -0.3760    -0.6360 C.3   1 <1>  -0.1600 
  6 C        4.3780    -1.4980     1.2780 C.3   1 <1>  -0.1600 
  7 C        3.5130    -3.8810    -0.2140 C.ar  1 <1>  -0.1500 
  8 C        1.4040    -2.9070    -0.7520 C.ar  1 <1>  -0.1500 
  9 C        3.6360     0.9940    -0.1030 C.3   1 <1>   0.2090 
 10 C        4.8000    -0.1340     1.8280 C.3   1 <1>   0.2090 
 11 C        3.1180    -5.0650    -0.8130 C.ar  1 <1>  -0.1500 
 12 C        1.0070    -4.0890    -1.3520 C.ar  1 <1>  -0.1500 
 13 N        4.8650     0.8430     0.7120 N.pl3 1 <1>  -0.8380 
 14 C        1.8650    -5.1710    -1.3840 C.ar  1 <1>  -0.1500 
 15 C        6.0930     1.1820     0.1160 C.ar  1 <1>   0.4100 
 16 N        6.9710     0.1910     0.0720 N.ar  1 <1>  -0.6200 
 17 C        6.3670     2.4930    -0.4280 C.ar  1 <1>   0.4100 
 18 C        8.0980     0.5260    -0.5380 C.ar  1 <1>   0.1600 
 19 N        7.5040     2.7860    -1.0410 N.ar  1 <1>  -0.6200 
 20 N        5.4570     3.5650    -0.3320 N.pl3 1 <1>  -0.8380 
 21 C        8.3520     1.7700    -1.0750 C.ar  1 <1>   0.1600 
 22 C        5.0700     3.9990     1.0360 C.3   1 <1>   0.1290 
 23 C        5.5200     4.6730    -1.3250 C.3   1 <1>   0.1290 
 24 H        2.2880    -0.2630    -1.1740 H     1 <1>   0.0800 
 25 H        3.9540    -0.7110    -1.3380 H     1 <1>   0.0800 
 26 H        5.1730    -1.8350     0.6380 H     1 <1>   0.0800 
 27 H        4.2840    -2.1940     2.0910 H     1 <1>   0.0800 
 28 H        4.4990    -3.8570     0.2110 H     1 <1>   0.1500 
 29 H        0.7080    -2.0860    -0.7460 H     1 <1>   0.1500 
 30 H        2.8610     1.4320     0.5030 H     1 <1>   0.0800 
 31 H        3.8180     1.6550    -0.9330 H     1 <1>   0.0800 
 32 H        5.7640    -0.2130     2.3040 H     1 <1>   0.0800 
 33 H        4.1000     0.2180     2.5660 H     1 <1>   0.0800 
 34 H        3.7890    -5.9060    -0.8360 H     1 <1>   0.1500 
 35 H        0.0290    -4.1660    -1.7940 H     1 <1>   0.1500 
 36 H        1.5580    -6.0910    -1.8500 H     1 <1>   0.1500 
 37 H        8.8520    -0.2370    -0.6110 H     1 <1>   0.1500 
 38 H        9.2980     1.9460    -1.5570 H     1 <1>   0.1500 
 39 H        5.3240     3.2450     1.7600 H     1 <1>   0.0800 
 40 H        4.0080     4.1680     1.0730 H     1 <1>   0.0800 
 41 H        5.5850     4.9080     1.2940 H     1 <1>   0.0800 
 42 H        5.6970     4.2730    -2.3090 H     1 <1>   0.0800 
 43 H        6.3230     5.3440    -1.0740 H     1 <1>   0.0800 
 44 H        4.5900     5.2130    -1.3340 H     1 <1>   0.0800 
@<TRIPOS>BOND
  1   1   2  3   
  2   2   3  1   
  3   3   4  1   
  4   3   5  1   
  5   3   6  1   
  6   4   7  ar  
  7   4   8  ar  
  8   5   9  1   
  9   5  24  1   
 10   5  25  1   
 11   6  10  1   
 12   6  26  1   
 13   6  27  1   
 14   7  11  ar  
 15   7  28  1   
 16   8  12  ar  
 17   8  29  1   
 18   9  13  1   
 19   9  30  1   
 20   9  31  1   
 21  10  13  1   
 22  10  32  1   
 23  10  33  1   
 24  11  14  ar  
 25  11  34  1   
 26  12  14  ar  
 27  12  35  1   
 28  13  15  1   
 29  14  36  1   
 30  15  16  ar  
 31  15  17  ar  
 32  16  18  ar  
 33  17  19  ar  
 34  17  20  1   
 35  18  21  ar  
 36  18  37  1   
 37  19  21  ar  
 38  20  22  1   
 39  20  23  1   
 40  21  38  1   
 41  22  39  1   
 42  22  40  1   
 43  22  41  1   
 44  23  42  1   
 45  23  43  1   
 46  23  44  1   
@<TRIPOS>SUBSTRUCTURE
  1 ****   5 GROUP 4 **** **** 0

# MOE 2024.06 (io_trps.svl 2023.06)
