@<TRIPOS>MOLECULE
NONAME
59 62 1 0 0 
SMALL
USER_CHARGES


@<TRIPOS>ATOM
  1 O       -0.2380     1.1700     0.8540 O.2   1 <1>  -0.5700 
  2 C       -0.5800     2.3010     0.5800 C.2   1 <1>   0.5440 
  3 N        0.4010     3.2420     0.6440 N.am  1 <1>  -0.7300 
  4 C       -1.9620     2.5930     0.2340 C.ar  1 <1>   0.0860 
  5 C        0.2610     4.7020     0.7310 C.3   1 <1>   0.2200 
  6 C       -2.3090     3.4740    -0.7870 C.ar  1 <1>  -0.1500 
  7 C       -3.0090     1.9780     0.9190 C.ar  1 <1>  -0.1500 
  8 C        0.9510     5.3410    -0.4760 C.3   1 <1>  -0.1600 
  9 C        0.8940     5.2010     2.0320 C.3   1 <1>  -0.1600 
 10 C       -3.6280     3.7600    -1.0890 C.ar  1 <1>   0.0830 
 11 C       -4.3320     2.2280     0.6030 C.ar  1 <1>  -0.1500 
 12 C        0.8230     6.8680    -0.4110 C.3   1 <1>  -0.1600 
 13 C        0.7850     6.7320     2.1300 C.3   1 <1>  -0.1600 
 14 O       -3.8600     4.6630    -2.0700 O.3   1 <1>  -0.3630 
 15 C       -4.6600     3.1140    -0.4100 C.ar  1 <1>  -0.1430 
 16 C        1.3820     7.4360     0.9020 C.3   1 <1>   0.2200 
 17 C       -4.3820     5.9270    -1.7150 C.3   1 <1>   0.1200 
 18 C       -6.1290     3.3150    -0.7550 C.3   1 <1>  -0.0970 
 19 N        1.0050     8.8470     0.9680 N.am  1 <1>  -0.7300 
 20 C       -3.2980     6.7820    -1.0510 C.3   1 <1>  -0.1600 
 21 C        1.5710     9.8510     0.2560 C.2   1 <1>   0.5690 
 22 C       -3.8410     8.1850    -0.7390 C.3   1 <1>   0.0960 
 23 O        2.6280     9.7090    -0.3060 O.2   1 <1>  -0.5700 
 24 C        0.8550    11.1840     0.0930 C.3   1 <1>  -0.0990 
 25 N       -2.8850     8.9670     0.0690 N.pl3 1 <1>   0.3140 
 26 C       -0.3860    11.4200     0.9760 C.3   1 <1>   0.0210 
 27 N       -2.7030     8.7440     1.3740 N.2   1 <1>  -0.4180 
 28 C       -2.1060     9.9790    -0.3200 C.2   1 <1>  -0.3020 
 29 C       -1.4550    10.3560     0.7910 C.2   1 <1>   0.0460 
 30 N       -1.8430     9.5910     1.8160 N.2   1 <1>  -0.2270 
 31 H        1.3250     2.8760     0.8750 H     1 <1>   0.3700 
 32 H       -0.7820     4.9710     0.7350 H     1 <1>   0.0800 
 33 H       -1.5390     3.9460    -1.3650 H     1 <1>   0.1500 
 34 H       -2.7710     1.2830     1.7070 H     1 <1>   0.1500 
 35 H        0.5050     4.9870    -1.3870 H     1 <1>   0.0800 
 36 H        1.9930     5.0730    -0.4830 H     1 <1>   0.0800 
 37 H        1.9310     4.9160     2.0660 H     1 <1>   0.0800 
 38 H        0.3880     4.7550     2.8710 H     1 <1>   0.0800 
 39 H       -5.1080     1.7200     1.1480 H     1 <1>   0.1500 
 40 H       -0.2150     7.1350    -0.4990 H     1 <1>   0.0800 
 41 H        1.3570     7.3040    -1.2380 H     1 <1>   0.0800 
 42 H        1.2940     7.0710     3.0150 H     1 <1>   0.0800 
 43 H       -0.2560     6.9930     2.2190 H     1 <1>   0.0800 
 44 H        2.4560     7.3450     0.9090 H     1 <1>   0.0800 
 45 H       -5.2190     5.7880    -1.0540 H     1 <1>   0.0800 
 46 H       -4.7270     6.3910    -2.6230 H     1 <1>   0.0800 
 47 H       -6.2430     3.5830    -1.7900 H     1 <1>   0.0800 
 48 H       -6.5510     4.0880    -0.1400 H     1 <1>   0.0800 
 49 H       -6.6790     2.4060    -0.5880 H     1 <1>   0.0800 
 50 H        0.0720     8.9990     1.3690 H     1 <1>   0.3700 
 51 H       -2.4520     6.8610    -1.7100 H     1 <1>   0.0800 
 52 H       -2.9950     6.3100    -0.1320 H     1 <1>   0.0800 
 53 H       -4.7530     8.1070    -0.1750 H     1 <1>   0.0800 
 54 H       -4.0450     8.7190    -1.6490 H     1 <1>   0.0800 
 55 H        0.5680    11.2670    -0.9380 H     1 <1>   0.0800 
 56 H        1.5690    11.9610     0.2890 H     1 <1>   0.0800 
 57 H       -0.8120    12.3800     0.7440 H     1 <1>   0.0800 
 58 H       -0.0830    11.4410     2.0090 H     1 <1>   0.0800 
 59 H       -2.0570    10.3490    -1.3260 H     1 <1>   0.1500 
@<TRIPOS>BOND
  1   1   2  2   
  2   2   3  am  
  3   2   4  1   
  4   3   5  1   
  5   3  31  1   
  6   4   6  ar  
  7   4   7  ar  
  8   5   8  1   
  9   5   9  1   
 10   5  32  1   
 11   6  10  ar  
 12   6  33  1   
 13   7  11  ar  
 14   7  34  1   
 15   8  12  1   
 16   8  35  1   
 17   8  36  1   
 18   9  13  1   
 19   9  37  1   
 20   9  38  1   
 21  10  14  1   
 22  10  15  ar  
 23  11  15  ar  
 24  11  39  1   
 25  12  16  1   
 26  12  40  1   
 27  12  41  1   
 28  13  16  1   
 29  13  42  1   
 30  13  43  1   
 31  14  17  1   
 32  15  18  1   
 33  16  19  1   
 34  16  44  1   
 35  17  20  1   
 36  17  45  1   
 37  17  46  1   
 38  18  47  1   
 39  18  48  1   
 40  18  49  1   
 41  19  21  am  
 42  19  50  1   
 43  20  22  1   
 44  20  51  1   
 45  20  52  1   
 46  21  23  2   
 47  21  24  1   
 48  22  25  1   
 49  22  53  1   
 50  22  54  1   
 51  24  26  1   
 52  24  55  1   
 53  24  56  1   
 54  25  27  1   
 55  25  28  1   
 56  26  29  1   
 57  26  57  1   
 58  26  58  1   
 59  27  30  2   
 60  28  29  2   
 61  28  59  1   
 62  29  30  1   
@<TRIPOS>SUBSTRUCTURE
  1 ****  20 GROUP 4 **** **** 0

# MOE 2024.06 (io_trps.svl 2023.06)
