@<TRIPOS>MOLECULE
NONAME
56 59 1 0 0 
SMALL
USER_CHARGES


@<TRIPOS>ATOM
  1 O       -1.9800     2.6230    -2.3770 O.2   1 <1>  -0.5700 
  2 C       -2.1290     2.1950    -1.2480 C.2   1 <1>   0.5440 
  3 N       -2.9470     1.1000    -1.0640 N.am  1 <1>  -0.6600 
  4 C       -1.4550     2.8610    -0.1560 C.ar  1 <1>   0.0860 
  5 C       -3.0050     0.3290     0.2210 C.3   1 <1>   0.1400 
  6 C       -3.7380     0.5540    -2.2160 C.3   1 <1>   0.1400 
  7 C       -0.2460     2.3900     0.3740 C.ar  1 <1>   0.0000 
  8 C       -2.0070     4.0270     0.3860 C.ar  1 <1>   0.1660 
  9 C       -3.2570    -1.1560    -0.1110 C.3   1 <1>   0.4230 
 10 C       -4.9750    -0.2170    -1.7340 C.3   1 <1>  -0.1600 
 11 C        0.4050     1.1610    -0.0350 C.ar  1 <1>   0.0000 
 12 C        0.3240     3.1690     1.3690 C.ar  1 <1>  -0.1500 
 13 N       -1.4650     4.7450     1.3540 N.ar  1 <1>  -0.6200 
 14 C       -3.3300     4.5640    -0.1390 C.3   1 <1>  -0.0960 
 15 N       -2.9980    -2.1540     0.9800 N.4   1 <1>  -0.9590 
 16 C       -4.6880    -1.3160    -0.6630 C.3   1 <1>  -0.1060 
 17 C        0.6550     0.8580    -1.3720 C.ar  1 <1>  -0.1500 
 18 C        0.8160     0.2340     0.9230 C.ar  1 <1>  -0.1500 
 19 C       -0.3070     4.3090     1.8160 C.ar  1 <1>   0.1600 
 20 C       -3.0900    -3.5490     0.4670 C.3   1 <1>   0.3430 
 21 C       -1.7640    -1.9270     1.7720 C.3   1 <1>   0.2630 
 22 C       -5.7160    -1.1810     0.4760 C.2   1 <1>   0.9060 
 23 C       -4.7770    -2.7290    -1.2850 C.3   1 <1>  -0.1600 
 24 C        1.2670    -0.3260    -1.7380 C.ar  1 <1>  -0.1500 
 25 C        1.4390    -0.9480     0.5640 C.ar  1 <1>  -0.1500 
 26 C       -4.4290    -3.8030    -0.2370 C.3   1 <1>  -0.1600 
 27 O       -5.3200    -1.1260     1.6520 O.co2 1 <1>  -0.9000 
 28 O       -6.9140    -1.1900     0.1990 O.co2 1 <1>  -0.9000 
 29 C        1.6610    -1.2330    -0.7710 C.ar  1 <1>  -0.1500 
 30 H       -2.0770     0.4400     0.7430 H     1 <1>   0.0800 
 31 H       -3.7980     0.7210     0.8350 H     1 <1>   0.0800 
 32 H       -4.0550     1.3640    -2.8530 H     1 <1>   0.0800 
 33 H       -3.1050    -0.0920    -2.8000 H     1 <1>   0.0800 
 34 H       -2.5740    -1.3890    -0.9090 H     1 <1>   0.0800 
 35 H       -5.6520     0.5140    -1.3220 H     1 <1>   0.0800 
 36 H       -5.4860    -0.6430    -2.5800 H     1 <1>   0.0800 
 37 H        1.2680     2.8880     1.7990 H     1 <1>   0.1500 
 38 H       -4.0880     3.8040    -0.0900 H     1 <1>   0.0800 
 39 H       -3.2150     4.8830    -1.1590 H     1 <1>   0.0800 
 40 H       -3.6560     5.4050     0.4460 H     1 <1>   0.0800 
 41 H       -3.8380    -1.9880     1.5990 H     1 <1>   0.4500 
 42 H        0.3740     1.5590    -2.1400 H     1 <1>   0.1500 
 43 H        0.6540     0.4470     1.9650 H     1 <1>   0.1500 
 44 H        0.1570     4.8960     2.5920 H     1 <1>   0.1500 
 45 H       -2.2880    -3.7230    -0.2310 H     1 <1>   0.0800 
 46 H       -2.9860    -4.2440     1.2840 H     1 <1>   0.0800 
 47 H       -0.8990    -1.9680     1.1310 H     1 <1>   0.0800 
 48 H       -1.6720    -2.6790     2.5370 H     1 <1>   0.0800 
 49 H       -1.8030    -0.9620     2.2490 H     1 <1>   0.0800 
 50 H       -5.7800    -2.9000    -1.6450 H     1 <1>   0.0800 
 51 H       -4.1060    -2.8070    -2.1230 H     1 <1>   0.0800 
 52 H        1.4470    -0.5360    -2.7790 H     1 <1>   0.1500 
 53 H        1.7630    -1.6430     1.3190 H     1 <1>   0.1500 
 54 H       -4.4000    -4.7670    -0.7120 H     1 <1>   0.0800 
 55 H       -5.2080    -3.8440     0.5070 H     1 <1>   0.0800 
 56 H        2.1490    -2.1490    -1.0590 H     1 <1>   0.1500 
@<TRIPOS>BOND
  1   1   2  2   
  2   2   3  am  
  3   2   4  1   
  4   3   5  1   
  5   3   6  1   
  6   4   7  ar  
  7   4   8  ar  
  8   5   9  1   
  9   5  30  1   
 10   5  31  1   
 11   6  10  1   
 12   6  32  1   
 13   6  33  1   
 14   7  11  1   
 15   7  12  ar  
 16   8  13  ar  
 17   8  14  1   
 18   9  15  1   
 19   9  16  1   
 20   9  34  1   
 21  10  16  1   
 22  10  35  1   
 23  10  36  1   
 24  11  17  ar  
 25  11  18  ar  
 26  12  19  ar  
 27  12  37  1   
 28  13  19  ar  
 29  14  38  1   
 30  14  39  1   
 31  14  40  1   
 32  15  20  1   
 33  15  21  1   
 34  15  41  1   
 35  16  22  1   
 36  16  23  1   
 37  17  24  ar  
 38  17  42  1   
 39  18  25  ar  
 40  18  43  1   
 41  19  44  1   
 42  20  26  1   
 43  20  45  1   
 44  20  46  1   
 45  21  47  1   
 46  21  48  1   
 47  21  49  1   
 48  22  27  ar  
 49  22  28  ar  
 50  23  26  1   
 51  23  50  1   
 52  23  51  1   
 53  24  29  ar  
 54  24  52  1   
 55  25  29  ar  
 56  25  53  1   
 57  26  54  1   
 58  26  55  1   
 59  29  56  1   
@<TRIPOS>SUBSTRUCTURE
  1 ****   5 GROUP 4 **** **** 0

# MOE 2024.06 (io_trps.svl 2023.06)
