@<TRIPOS>MOLECULE
NONAME
42 43 1 0 0 
SMALL
USER_CHARGES


@<TRIPOS>ATOM
  1 S        0.7450     0.2650    -1.7620 S.o2  1 <1>   1.3330 
  2 O       -0.0360     1.1670    -2.5770 O.2   1 <1>  -0.6500 
  3 O        1.1060    -1.0370    -2.2790 O.2   1 <1>  -0.6500 
  4 N       -0.1100     0.0290    -0.3130 N.am  1 <1>  -0.8490 
  5 C        2.2510     1.0920    -1.2420 C.3   1 <1>  -0.0550 
  6 C       -0.8390     1.2230     0.1310 C.3   1 <1>   0.1160 
  7 C       -1.0320    -1.1080    -0.3970 C.3   1 <1>   0.1160 
  8 C        3.2110     0.2040    -0.4200 C.3   1 <1>  -0.0800 
  9 C        4.5640     0.8320    -0.1200 C.3   1 <1>   0.2200 
 10 C        2.7060    -0.1930     0.9730 C.3   1 <1>   0.1200 
 11 N        4.4090     2.2460     0.2930 N.am  1 <1>  -0.7300 
 12 C        4.9860     0.0140     1.0910 C.3   1 <1>   0.1200 
 13 O        3.8150    -0.1690     1.8270 O.3   1 <1>  -0.5600 
 14 C        4.6350     3.3390    -0.4810 C.2   1 <1>   0.7150 
 15 O        4.9170     3.1610    -1.6510 O.2   1 <1>  -0.5700 
 16 C        4.5060     4.6490     0.1020 C.2   1 <1>  -0.2370 
 17 N        4.6340     5.8350    -0.5850 N.pl3 1 <1>   0.0480 
 18 C        4.2390     4.9680     1.4130 C.2   1 <1>  -0.1500 
 19 C        4.4480     6.8530     0.2890 C.2   1 <1>  -0.3020 
 20 C        4.9230     6.0230    -2.0210 C.3   1 <1>   0.0160 
 21 C        4.2020     6.3530     1.5270 C.2   1 <1>  -0.1500 
 22 H        2.7730     1.4170    -2.1210 H     1 <1>   0.0800 
 23 H        1.9960     1.9700    -0.6820 H     1 <1>   0.0800 
 24 H       -1.2880     1.0460     1.0930 H     1 <1>   0.0800 
 25 H       -1.6130     1.4770    -0.5750 H     1 <1>   0.0800 
 26 H       -0.1670     2.0590     0.2200 H     1 <1>   0.0800 
 27 H       -1.5500    -1.2400     0.5380 H     1 <1>   0.0800 
 28 H       -0.4840    -2.0120    -0.6060 H     1 <1>   0.0800 
 29 H       -1.7510    -0.9500    -1.1830 H     1 <1>   0.0800 
 30 H        3.3870    -0.7040    -0.9720 H     1 <1>   0.0800 
 31 H        5.2590     0.7460    -0.9390 H     1 <1>   0.0800 
 32 H        2.2800    -1.1820     0.9770 H     1 <1>   0.0800 
 33 H        1.9900     0.5130     1.3550 H     1 <1>   0.0800 
 34 H        4.1350     2.3790     1.2670 H     1 <1>   0.3700 
 35 H        5.7240     0.5090     1.6960 H     1 <1>   0.0800 
 36 H        5.3440    -0.9560     0.7930 H     1 <1>   0.0800 
 37 H        4.0820     4.2930     2.2350 H     1 <1>   0.1500 
 38 H        4.4990     7.8870    -0.0040 H     1 <1>   0.1500 
 39 H        4.9560     7.0710    -2.2530 H     1 <1>   0.0800 
 40 H        4.1540     5.5500    -2.6030 H     1 <1>   0.0800 
 41 H        5.8720     5.5750    -2.2530 H     1 <1>   0.0800 
 42 H        4.0150     6.9030     2.4340 H     1 <1>   0.1500 
@<TRIPOS>BOND
  1   1   2  2   
  2   1   3  2   
  3   1   4  am  
  4   1   5  1   
  5   4   6  1   
  6   4   7  1   
  7   5   8  1   
  8   5  22  1   
  9   5  23  1   
 10   6  24  1   
 11   6  25  1   
 12   6  26  1   
 13   7  27  1   
 14   7  28  1   
 15   7  29  1   
 16   8   9  1   
 17   8  10  1   
 18   8  30  1   
 19   9  11  1   
 20   9  12  1   
 21   9  31  1   
 22  10  13  1   
 23  10  32  1   
 24  10  33  1   
 25  11  14  am  
 26  11  34  1   
 27  12  13  1   
 28  12  35  1   
 29  12  36  1   
 30  14  15  2   
 31  14  16  1   
 32  16  17  1   
 33  16  18  2   
 34  17  19  1   
 35  17  20  1   
 36  18  21  1   
 37  18  37  1   
 38  19  21  2   
 39  19  38  1   
 40  20  39  1   
 41  20  40  1   
 42  20  41  1   
 43  21  42  1   
@<TRIPOS>SUBSTRUCTURE
  1 ****  11 GROUP 4 **** **** 0

# MOE 2024.06 (io_trps.svl 2023.06)
