@<TRIPOS>MOLECULE
NONAME
35 36 1 0 0 
SMALL
USER_CHARGES


@<TRIPOS>ATOM
  1 O        0.2540    -0.2590    -0.8300 O.2   1 <1>  -0.5700 
  2 C        1.2120    -0.7650    -0.2750 C.2   1 <1>   0.7800 
  3 O        2.3120    -0.0440    -0.0720 O.3   1 <1>  -0.4300 
  4 N        1.2310    -2.0560     0.1540 N.am  1 <1>  -0.6600 
  5 C        2.3670     1.2950    -0.5050 C.3   1 <1>   0.2640 
  6 C        0.1510    -3.0350    -0.1050 C.3   1 <1>   0.1400 
  7 C        2.4140    -2.7240     0.7400 C.3   1 <1>   0.1400 
  8 C        3.7510     1.8490    -0.2040 C.ar  1 <1>  -0.1440 
  9 C        0.8600    -4.3800    -0.0940 C.3   1 <1>  -0.1860 
 10 C        2.0100    -4.1910     0.9030 C.3   1 <1>  -0.0800 
 11 C        4.8740     1.2470    -0.7510 C.ar  1 <1>  -0.1500 
 12 C        3.9060     2.9590     0.6120 C.ar  1 <1>  -0.1500 
 13 C       -0.0910    -5.5080     0.2450 C.2   1 <1>   0.9060 
 14 C        3.1660    -5.1700     0.6660 C.3   1 <1>  -0.2400 
 15 C        6.1370     1.7500    -0.4890 C.ar  1 <1>  -0.1500 
 16 C        5.1680     3.4630     0.8760 C.ar  1 <1>  -0.1500 
 17 O       -0.1980    -6.4430    -0.5540 O.co2 1 <1>  -0.9000 
 18 O       -0.7340    -5.4590     1.2990 O.co2 1 <1>  -0.9000 
 19 C        6.2840     2.8590     0.3240 C.ar  1 <1>  -0.1500 
 20 H        2.1750     1.3190    -1.5640 H     1 <1>   0.0800 
 21 H        1.6020     1.8470     0.0120 H     1 <1>   0.0800 
 22 H       -0.5710    -2.9820     0.6940 H     1 <1>   0.0800 
 23 H       -0.3370    -2.8510    -1.0470 H     1 <1>   0.0800 
 24 H        3.2430    -2.6280     0.0610 H     1 <1>   0.0800 
 25 H        2.6670    -2.2820     1.6880 H     1 <1>   0.0800 
 26 H        1.2510    -4.5590    -1.0770 H     1 <1>   0.0800 
 27 H        1.6270    -4.3260     1.9010 H     1 <1>   0.0800 
 28 H        4.7640     0.3800    -1.3810 H     1 <1>   0.1500 
 29 H        3.0450     3.4360     1.0480 H     1 <1>   0.1500 
 30 H        3.5650    -5.0530    -0.3260 H     1 <1>   0.0800 
 31 H        2.8090    -6.1810     0.7720 H     1 <1>   0.0800 
 32 H        3.9490    -5.0050     1.3830 H     1 <1>   0.0800 
 33 H        7.0030     1.2770    -0.9180 H     1 <1>   0.1500 
 34 H        5.2810     4.3250     1.5100 H     1 <1>   0.1500 
 35 H        7.2650     3.2510     0.5290 H     1 <1>   0.1500 
@<TRIPOS>BOND
  1   1   2  2   
  2   2   3  1   
  3   2   4  am  
  4   3   5  1   
  5   4   6  1   
  6   4   7  1   
  7   5   8  1   
  8   5  20  1   
  9   5  21  1   
 10   6   9  1   
 11   6  22  1   
 12   6  23  1   
 13   7  10  1   
 14   7  24  1   
 15   7  25  1   
 16   8  11  ar  
 17   8  12  ar  
 18   9  10  1   
 19   9  13  1   
 20   9  26  1   
 21  10  14  1   
 22  10  27  1   
 23  11  15  ar  
 24  11  28  1   
 25  12  16  ar  
 26  12  29  1   
 27  13  17  ar  
 28  13  18  ar  
 29  14  30  1   
 30  14  31  1   
 31  14  32  1   
 32  15  19  ar  
 33  15  33  1   
 34  16  19  ar  
 35  16  34  1   
 36  19  35  1   
@<TRIPOS>SUBSTRUCTURE
  1 ****   3 GROUP 4 **** **** 0

# MOE 2024.06 (io_trps.svl 2023.06)
