@<TRIPOS>MOLECULE
NONAME
50 53 1 0 0 
SMALL
USER_CHARGES


@<TRIPOS>ATOM
  1 O       -1.2350     0.2220     0.4650 O.2   1 <1>  -0.5700 
  2 C       -2.0560     1.0630     0.7990 C.2   1 <1>   0.7160 
  3 N       -3.3140     0.6070     1.1400 N.am  1 <1>  -0.6600 
  4 C       -1.6750     2.4670     0.7870 C.2   1 <1>   0.1410 
  5 C       -3.5340    -0.8280     1.4860 C.3   1 <1>   0.1400 
  6 C       -4.5660     1.3030     0.7240 C.3   1 <1>   0.1400 
  7 N       -2.3370     3.4540     1.4300 N.2   1 <1>  -0.2270 
  8 C       -0.6140     3.0360     0.1700 C.2   1 <1>  -0.3020 
  9 C       -4.0480    -1.5670     0.2280 C.3   1 <1>   0.4230 
 10 C       -5.1450     0.5770    -0.5010 C.3   1 <1>  -0.1600 
 11 N       -1.7320     4.5640     1.2180 N.2   1 <1>  -0.4180 
 12 N       -0.6530     4.3410     0.4440 N.pl3 1 <1>   0.5930 
 13 N       -4.1990    -3.0520     0.3960 N.4   1 <1>  -0.9590 
 14 C       -5.3810    -0.9390    -0.2380 C.3   1 <1>  -0.1060 
 15 C        0.2500     5.3550     0.0080 C.ar  1 <1>  -0.0230 
 16 C       -4.5770    -3.7200    -0.8760 C.3   1 <1>   0.3430 
 17 C       -3.0680    -3.7340     1.0790 C.3   1 <1>   0.2630 
 18 C       -6.4360    -1.1410     0.8680 C.2   1 <1>   0.9060 
 19 C       -5.8360    -1.6100    -1.5560 C.3   1 <1>  -0.1600 
 20 C       -0.1960     6.6570    -0.2100 C.ar  1 <1>  -0.1500 
 21 C        1.5960     5.0710    -0.2120 C.ar  1 <1>  -0.1500 
 22 C       -5.8860    -3.1400    -1.4180 C.3   1 <1>  -0.1600 
 23 O       -6.3620    -2.1470     1.5920 O.co2 1 <1>  -0.9000 
 24 O       -7.3240    -0.3040     1.0170 O.co2 1 <1>  -0.9000 
 25 C        0.6740     7.6420    -0.6420 C.ar  1 <1>  -0.1500 
 26 C        2.4670     6.0560    -0.6450 C.ar  1 <1>  -0.1500 
 27 C        2.0060     7.3430    -0.8610 C.ar  1 <1>  -0.1500 
 28 H       -2.6070    -1.2530     1.8230 H     1 <1>   0.0800 
 29 H       -4.2460    -0.8930     2.2910 H     1 <1>   0.0800 
 30 H       -5.2750     1.2880     1.5380 H     1 <1>   0.0800 
 31 H       -4.3790     2.3310     0.4710 H     1 <1>   0.0800 
 32 H        0.1420     2.5770    -0.4360 H     1 <1>   0.1500 
 33 H       -3.3160    -1.3990    -0.5430 H     1 <1>   0.0800 
 34 H       -6.0780     1.0460    -0.7650 H     1 <1>   0.0800 
 35 H       -4.4730     0.7160    -1.3290 H     1 <1>   0.0800 
 36 H       -5.0550    -3.0920     1.0140 H     1 <1>   0.4500 
 37 H       -3.7930    -3.5800    -1.6020 H     1 <1>   0.0800 
 38 H       -4.7040    -4.7770    -0.7090 H     1 <1>   0.0800 
 39 H       -2.1570    -3.5990     0.5190 H     1 <1>   0.0800 
 40 H       -3.2720    -4.7880     1.1710 H     1 <1>   0.0800 
 41 H       -2.9340    -3.3290     2.0690 H     1 <1>   0.0800 
 42 H       -6.8130    -1.2430    -1.8230 H     1 <1>   0.0800 
 43 H       -5.1580    -1.3510    -2.3510 H     1 <1>   0.0800 
 44 H       -1.2310     6.9040    -0.0410 H     1 <1>   0.1500 
 45 H        1.9770     4.0790    -0.0430 H     1 <1>   0.1500 
 46 H       -6.0950    -3.5770    -2.3780 H     1 <1>   0.0800 
 47 H       -6.6910    -3.4200    -0.7600 H     1 <1>   0.0800 
 48 H        0.3140     8.6440    -0.8070 H     1 <1>   0.1500 
 49 H        3.5040     5.8240    -0.8120 H     1 <1>   0.1500 
 50 H        2.6830     8.1100    -1.1970 H     1 <1>   0.1500 
@<TRIPOS>BOND
  1   1   2  2   
  2   2   3  am  
  3   2   4  1   
  4   3   5  1   
  5   3   6  1   
  6   4   7  1   
  7   4   8  2   
  8   5   9  1   
  9   5  28  1   
 10   5  29  1   
 11   6  10  1   
 12   6  30  1   
 13   6  31  1   
 14   7  11  2   
 15   8  12  1   
 16   8  32  1   
 17   9  13  1   
 18   9  14  1   
 19   9  33  1   
 20  10  14  1   
 21  10  34  1   
 22  10  35  1   
 23  11  12  1   
 24  12  15  1   
 25  13  16  1   
 26  13  17  1   
 27  13  36  1   
 28  14  18  1   
 29  14  19  1   
 30  15  20  ar  
 31  15  21  ar  
 32  16  22  1   
 33  16  37  1   
 34  16  38  1   
 35  17  39  1   
 36  17  40  1   
 37  17  41  1   
 38  18  23  ar  
 39  18  24  ar  
 40  19  22  1   
 41  19  42  1   
 42  19  43  1   
 43  20  25  ar  
 44  20  44  1   
 45  21  26  ar  
 46  21  45  1   
 47  22  46  1   
 48  22  47  1   
 49  25  27  ar  
 50  25  48  1   
 51  26  27  ar  
 52  26  49  1   
 53  27  50  1   
@<TRIPOS>SUBSTRUCTURE
  1 ****   2 GROUP 4 **** **** 0

# MOE 2024.06 (io_trps.svl 2023.06)
