@<TRIPOS>MOLECULE
NONAME
47 49 1 0 0 
SMALL
USER_CHARGES


@<TRIPOS>ATOM
  1 O        1.5880    -0.8800    -2.5270 O.2   1 <1>  -0.5700 
  2 C        1.9420    -1.2010    -1.4190 C.2   1 <1>   0.5690 
  3 N        2.1950    -0.2920    -0.4540 N.am  1 <1>  -0.7300 
  4 C        2.0970    -2.6710    -1.0920 C.3   1 <1>  -0.0990 
  5 C        2.1630     1.1690    -0.6300 C.3   1 <1>   0.3640 
  6 C        0.7890    -3.2660    -0.5430 C.3   1 <1>  -0.1600 
  7 C        3.3620     1.7820     0.1080 C.ar  1 <1>   0.1660 
  8 C        0.8190     1.6880    -0.0970 C.3   1 <1>  -0.1600 
  9 C        0.9220    -4.7680    -0.2530 C.3   1 <1>   0.0200 
 10 N        3.5970     1.3720     1.3550 N.ar  1 <1>  -0.6200 
 11 C        4.1440     2.7220    -0.5490 C.ar  1 <1>  -0.1500 
 12 C        0.6310     3.1990    -0.3040 C.3   1 <1>  -0.2400 
 13 C       -0.3810    -5.3550     0.2550 C.2   1 <1>   0.2980 
 14 C        4.6370     1.9270     1.9570 C.ar  1 <1>   0.1600 
 15 C        5.2250     3.2880     0.0920 C.ar  1 <1>  -0.1500 
 16 O       -0.8170    -4.9980     1.4350 O.3   1 <1>  -0.0190 
 17 N       -1.1110    -6.1850    -0.3670 N.2   1 <1>  -0.5650 
 18 C        5.4690     2.8720     1.3820 C.ar  1 <1>  -0.1500 
 19 N       -1.9240    -5.6570     1.5750 N.2   1 <1>  -0.4100 
 20 C       -2.1030    -6.3580     0.5120 C.2   1 <1>   0.4620 
 21 C       -3.2270    -7.2380     0.2600 C.ar  1 <1>   0.0540 
 22 C       -3.3540    -7.9310    -0.9460 C.ar  1 <1>   0.1600 
 23 C       -4.2300    -7.4360     1.2010 C.ar  1 <1>  -0.1500 
 24 N       -4.3380    -8.7550    -1.2720 N.ar  1 <1>  -0.6200 
 25 C       -5.2650    -8.2890     0.8840 C.ar  1 <1>  -0.1500 
 26 C       -5.2720    -8.9160    -0.3500 C.ar  1 <1>   0.1600 
 27 H        2.5720    -0.5510     0.4610 H     1 <1>   0.3700 
 28 H        2.8900    -2.7900    -0.3770 H     1 <1>   0.0800 
 29 H        2.3810    -3.1850    -1.9930 H     1 <1>   0.0800 
 30 H        2.2330     1.3970    -1.6810 H     1 <1>   0.0800 
 31 H        0.0050    -3.1150    -1.2660 H     1 <1>   0.0800 
 32 H        0.5110    -2.7470     0.3580 H     1 <1>   0.0800 
 33 H        0.7470     1.4670     0.9540 H     1 <1>   0.0800 
 34 H        0.0260     1.1710    -0.6080 H     1 <1>   0.0800 
 35 H        1.6880    -4.9380     0.4830 H     1 <1>   0.0800 
 36 H        1.2030    -5.2860    -1.1540 H     1 <1>   0.0800 
 37 H        3.9100     3.0120    -1.5580 H     1 <1>   0.1500 
 38 H        1.3730     3.7530     0.2440 H     1 <1>   0.0800 
 39 H       -0.3400     3.4980     0.0490 H     1 <1>   0.0800 
 40 H        0.7070     3.4500    -1.3480 H     1 <1>   0.0800 
 41 H        4.8400     1.6110     2.9660 H     1 <1>   0.1500 
 42 H        5.8490     4.0190    -0.3930 H     1 <1>   0.1500 
 43 H        6.2950     3.2740     1.9390 H     1 <1>   0.1500 
 44 H       -2.5880    -7.7920    -1.6900 H     1 <1>   0.1500 
 45 H       -4.2000    -6.9360     2.1540 H     1 <1>   0.1500 
 46 H       -6.0600    -8.4700     1.5840 H     1 <1>   0.1500 
 47 H       -6.0840    -9.5810    -0.5900 H     1 <1>   0.1500 
@<TRIPOS>BOND
  1   1   2  2   
  2   2   3  am  
  3   2   4  1   
  4   3   5  1   
  5   3  27  1   
  6   4   6  1   
  7   4  28  1   
  8   4  29  1   
  9   5   7  1   
 10   5   8  1   
 11   5  30  1   
 12   6   9  1   
 13   6  31  1   
 14   6  32  1   
 15   7  10  ar  
 16   7  11  ar  
 17   8  12  1   
 18   8  33  1   
 19   8  34  1   
 20   9  13  1   
 21   9  35  1   
 22   9  36  1   
 23  10  14  ar  
 24  11  15  ar  
 25  11  37  1   
 26  12  38  1   
 27  12  39  1   
 28  12  40  1   
 29  13  16  1   
 30  13  17  2   
 31  14  18  ar  
 32  14  41  1   
 33  15  18  ar  
 34  15  42  1   
 35  16  19  1   
 36  17  20  1   
 37  18  43  1   
 38  19  20  2   
 39  20  21  1   
 40  21  22  ar  
 41  21  23  ar  
 42  22  24  ar  
 43  22  44  1   
 44  23  25  ar  
 45  23  45  1   
 46  24  26  ar  
 47  25  26  ar  
 48  25  46  1   
 49  26  47  1   
@<TRIPOS>SUBSTRUCTURE
  1 ****   6 GROUP 4 **** **** 0

# MOE 2024.06 (io_trps.svl 2023.06)
