@<TRIPOS>MOLECULE
NONAME
53 56 1 0 0 
SMALL
USER_CHARGES


@<TRIPOS>ATOM
  1 O       -2.1460     1.9130     1.9960 O.2   1 <1>  -0.5700 
  2 C       -2.4240     1.6790     0.8410 C.2   1 <1>   0.6300 
  3 N       -3.6130     1.0880     0.4870 N.am  1 <1>  -0.6600 
  4 C       -1.3840     2.0410    -0.2040 C.3   1 <1>   0.0000 
  5 C       -4.6250     0.7030     1.5080 C.3   1 <1>   0.1400 
  6 C       -3.9640     0.6330    -0.8890 C.3   1 <1>   0.1400 
  7 C       -0.5500     0.8150    -0.5110 C.2   1 <1>   0.6300 
  8 C       -0.6960     3.3820    -0.1400 C.3   1 <1>  -0.2000 
  9 C       -1.6600     3.0970    -1.2460 C.3   1 <1>  -0.2000 
 10 C       -4.7460    -0.8220     1.5350 C.3   1 <1>  -0.1600 
 11 C       -4.0830    -0.8920    -0.8940 C.3   1 <1>  -0.1600 
 12 O       -0.6530     0.2580    -1.5750 O.2   1 <1>  -0.5700 
 13 N        0.3070     0.3510     0.4160 N.am  1 <1>  -0.8000 
 14 C       -5.0940    -1.3930     0.1490 C.3   1 <1>   0.4240 
 15 O       -6.3320    -0.8510    -0.2490 O.3   1 <1>  -0.5600 
 16 C       -5.1270    -2.9360     0.1740 C.ar  1 <1>  -0.1440 
 17 C       -7.4880    -1.4720     0.2190 C.3   1 <1>   0.1200 
 18 C       -6.3000    -3.6380    -0.0770 C.ar  1 <1>  -0.1440 
 19 C       -3.9760    -3.6610     0.4560 C.ar  1 <1>  -0.1500 
 20 C       -7.5720    -2.8720    -0.3810 C.3   1 <1>  -0.0170 
 21 C       -6.3140    -5.0230    -0.0480 C.ar  1 <1>  -0.1500 
 22 C       -3.9710    -5.0450     0.4830 C.ar  1 <1>   0.0820 
 23 C       -5.1610    -5.7470     0.2400 C.ar  1 <1>   0.0820 
 24 O       -2.7620    -5.6100     0.7620 O.3   1 <1>  -0.3630 
 25 O       -5.1730    -7.1120     0.3070 O.3   1 <1>  -0.3620 
 26 C       -2.3730    -6.8170     0.1440 C.3   1 <1>   0.0400 
 27 C       -6.3700    -7.8550     0.2490 C.3   1 <1>   0.0400 
 28 H       -5.5720     1.1470     1.2500 H     1 <1>   0.0800 
 29 H       -4.3420     1.0640     2.4820 H     1 <1>   0.0800 
 30 H       -3.2250     0.9330    -1.6090 H     1 <1>   0.0800 
 31 H       -4.9030     1.0750    -1.1770 H     1 <1>   0.0800 
 32 H        0.3530     3.4400    -0.3730 H     1 <1>   0.1000 
 33 H       -0.9840     4.0670     0.6400 H     1 <1>   0.1000 
 34 H       -2.6160     3.5900    -1.2380 H     1 <1>   0.1000 
 35 H       -1.2830     2.9380    -2.2420 H     1 <1>   0.1000 
 36 H       -5.4840    -1.1200     2.2550 H     1 <1>   0.0800 
 37 H       -3.8070    -1.2240     1.8650 H     1 <1>   0.0800 
 38 H       -3.1100    -1.3030    -0.7000 H     1 <1>   0.0800 
 39 H       -4.3850    -1.2320    -1.8670 H     1 <1>   0.0800 
 40 H        0.8510    -0.4910     0.2330 H     1 <1>   0.3700 
 41 H        0.3540     0.7440     1.3590 H     1 <1>   0.3700 
 42 H       -8.3300    -0.8780    -0.0910 H     1 <1>   0.0800 
 43 H       -7.4610    -1.5110     1.2930 H     1 <1>   0.0800 
 44 H       -3.0500    -3.1560     0.6610 H     1 <1>   0.1500 
 45 H       -7.7050    -2.7980    -1.4450 H     1 <1>   0.0800 
 46 H       -8.4230    -3.3830     0.0330 H     1 <1>   0.0800 
 47 H       -7.2410    -5.5230    -0.2520 H     1 <1>   0.1500 
 48 H       -1.3000    -6.8780     0.1740 H     1 <1>   0.0800 
 49 H       -2.7150    -6.8180    -0.8750 H     1 <1>   0.0800 
 50 H       -2.7980    -7.6390     0.6910 H     1 <1>   0.0800 
 51 H       -6.1270    -8.8910     0.3980 H     1 <1>   0.0800 
 52 H       -6.8180    -7.7220    -0.7200 H     1 <1>   0.0800 
 53 H       -7.0280    -7.5190     1.0310 H     1 <1>   0.0800 
@<TRIPOS>BOND
  1   1   2  2   
  2   2   3  am  
  3   2   4  1   
  4   3   5  1   
  5   3   6  1   
  6   4   7  1   
  7   4   8  1   
  8   4   9  1   
  9   5  10  1   
 10   5  28  1   
 11   5  29  1   
 12   6  11  1   
 13   6  30  1   
 14   6  31  1   
 15   7  12  2   
 16   7  13  am  
 17   8   9  1   
 18   8  32  1   
 19   8  33  1   
 20   9  34  1   
 21   9  35  1   
 22  10  14  1   
 23  10  36  1   
 24  10  37  1   
 25  11  14  1   
 26  11  38  1   
 27  11  39  1   
 28  13  40  1   
 29  13  41  1   
 30  14  15  1   
 31  14  16  1   
 32  15  17  1   
 33  16  18  ar  
 34  16  19  ar  
 35  17  20  1   
 36  17  42  1   
 37  17  43  1   
 38  18  20  1   
 39  18  21  ar  
 40  19  22  ar  
 41  19  44  1   
 42  20  45  1   
 43  20  46  1   
 44  21  23  ar  
 45  21  47  1   
 46  22  23  ar  
 47  22  24  1   
 48  23  25  1   
 49  24  26  1   
 50  25  27  1   
 51  26  48  1   
 52  26  49  1   
 53  26  50  1   
 54  27  51  1   
 55  27  52  1   
 56  27  53  1   
@<TRIPOS>SUBSTRUCTURE
  1 ****  14 GROUP 4 **** **** 0

# MOE 2024.06 (io_trps.svl 2023.06)
