@<TRIPOS>MOLECULE
NONAME
54 57 1 0 0 
SMALL
USER_CHARGES


@<TRIPOS>ATOM
  1 O       -2.2530     0.5540    -1.6530 O.2   1 <1>  -0.5700 
  2 C       -1.7610     0.6510    -0.5540 C.2   1 <1>   0.6300 
  3 N       -1.6220    -0.4210     0.2610 N.am  1 <1>  -0.7300 
  4 C       -1.2650     1.9990    -0.0450 C.3   1 <1>  -0.1000 
  5 C       -2.1690    -1.7610    -0.0300 C.3   1 <1>   0.2200 
  6 C       -1.6810     2.5780     1.2930 C.3   1 <1>  -0.1900 
  7 C       -2.1330     3.2360     0.0230 C.3   1 <1>  -0.1900 
  8 C       -3.4980    -1.9460     0.6920 C.3   1 <1>  -0.0800 
  9 C       -1.2900    -2.8930     0.5080 C.3   1 <1>   0.1200 
 10 C       -2.7130     1.8750     2.1940 C.3   1 <1>  -0.1450 
 11 C       -0.5830     3.2120     2.1610 C.3   1 <1>  -0.1450 
 12 C       -1.5170     4.5700    -0.4300 C.3   1 <1>  -0.1450 
 13 C       -3.6000     3.1630    -0.4370 C.3   1 <1>  -0.1450 
 14 C       -3.4190    -3.4030     1.1330 C.3   1 <1>   0.1200 
 15 C       -4.7010    -1.6050    -0.2050 C.3   1 <1>  -0.0170 
 16 O       -2.0740    -3.6080     1.4150 O.3   1 <1>  -0.5600 
 17 C       -6.0890    -1.7260     0.4340 C.ar  1 <1>  -0.1440 
 18 C       -7.2470    -1.6590    -0.3810 C.ar  1 <1>   0.0000 
 19 C       -6.2890    -1.8860     1.7780 C.ar  1 <1>  -0.1500 
 20 C       -8.5100    -1.8030     0.2430 C.ar  1 <1>   0.3100 
 21 C       -7.2260    -1.4460    -1.7800 C.ar  1 <1>  -0.1500 
 22 C       -7.5840    -2.0080     2.2950 C.ar  1 <1>   0.1600 
 23 N       -8.6620    -1.9790     1.5790 N.ar  1 <1>  -0.6200 
 24 C       -9.6710    -1.7580    -0.5460 C.ar  1 <1>  -0.1500 
 25 C       -8.3760    -1.4020    -2.5200 C.ar  1 <1>  -0.1500 
 26 C       -9.6160    -1.5640    -1.8990 C.ar  1 <1>  -0.1500 
 27 H       -1.2620    -0.2680     1.2030 H     1 <1>   0.3700 
 28 H       -0.2510     2.1520    -0.3620 H     1 <1>   0.1000 
 29 H       -2.2820    -1.8880    -1.0940 H     1 <1>   0.0800 
 30 H       -3.5100    -1.3310     1.5740 H     1 <1>   0.0800 
 31 H       -0.4160    -2.5320     1.0200 H     1 <1>   0.0800 
 32 H       -1.0060    -3.5630    -0.2840 H     1 <1>   0.0800 
 33 H       -2.2220     1.1940     2.8650 H     1 <1>   0.0800 
 34 H       -3.4350     1.3140     1.6310 H     1 <1>   0.0800 
 35 H       -3.2400     2.6080     2.7790 H     1 <1>   0.0800 
 36 H       -0.1730     2.4820     2.8360 H     1 <1>   0.0800 
 37 H       -0.9940     4.0210     2.7390 H     1 <1>   0.0800 
 38 H        0.2280     3.5940     1.5690 H     1 <1>   0.0800 
 39 H       -1.6860     4.7150    -1.4820 H     1 <1>   0.0800 
 40 H       -0.4560     4.6020    -0.2680 H     1 <1>   0.0800 
 41 H       -1.9710     5.3840     0.1060 H     1 <1>   0.0800 
 42 H       -3.6620     3.3490    -1.4950 H     1 <1>   0.0800 
 43 H       -4.1840     3.9050     0.0770 H     1 <1>   0.0800 
 44 H       -4.0400     2.2010    -0.2610 H     1 <1>   0.0800 
 45 H       -3.7000    -4.0750     0.3390 H     1 <1>   0.0800 
 46 H       -3.9990    -3.6130     2.0140 H     1 <1>   0.0800 
 47 H       -4.6610    -2.2530    -1.0630 H     1 <1>   0.0800 
 48 H       -4.5860    -0.5940    -0.5590 H     1 <1>   0.0800 
 49 H       -5.4840    -1.9230     2.4850 H     1 <1>   0.1500 
 50 H       -6.2870    -1.3080    -2.2830 H     1 <1>   0.1500 
 51 H       -7.6890    -2.1380     3.3590 H     1 <1>   0.1500 
 52 H      -10.6130    -1.8800    -0.0440 H     1 <1>   0.1500 
 53 H       -8.3420    -1.2420    -3.5840 H     1 <1>   0.1500 
 54 H      -10.5150    -1.5310    -2.4910 H     1 <1>   0.1500 
@<TRIPOS>BOND
  1   1   2  2   
  2   2   3  am  
  3   2   4  1   
  4   3   5  1   
  5   3  27  1   
  6   4   6  1   
  7   4   7  1   
  8   4  28  1   
  9   5   8  1   
 10   5   9  1   
 11   5  29  1   
 12   6   7  1   
 13   6  10  1   
 14   6  11  1   
 15   7  12  1   
 16   7  13  1   
 17   8  14  1   
 18   8  15  1   
 19   8  30  1   
 20   9  16  1   
 21   9  31  1   
 22   9  32  1   
 23  10  33  1   
 24  10  34  1   
 25  10  35  1   
 26  11  36  1   
 27  11  37  1   
 28  11  38  1   
 29  12  39  1   
 30  12  40  1   
 31  12  41  1   
 32  13  42  1   
 33  13  43  1   
 34  13  44  1   
 35  14  16  1   
 36  14  45  1   
 37  14  46  1   
 38  15  17  1   
 39  15  47  1   
 40  15  48  1   
 41  17  18  ar  
 42  17  19  ar  
 43  18  20  ar  
 44  18  21  ar  
 45  19  22  ar  
 46  19  49  1   
 47  20  23  ar  
 48  20  24  ar  
 49  21  25  ar  
 50  21  50  1   
 51  22  23  ar  
 52  22  51  1   
 53  24  26  ar  
 54  24  52  1   
 55  25  26  ar  
 56  25  53  1   
 57  26  54  1   
@<TRIPOS>SUBSTRUCTURE
  1 ****  15 GROUP 4 **** **** 0

# MOE 2024.06 (io_trps.svl 2023.06)
