@<TRIPOS>MOLECULE
NONAME
48 50 1 0 0 
SMALL
USER_CHARGES


@<TRIPOS>ATOM
  1 S        1.0370     0.1170    -0.8460 S.o2  1 <1>   1.3330 
  2 O        2.1860    -0.7420    -0.6620 O.2   1 <1>  -0.6500 
  3 O        0.5380     0.3620    -2.1800 O.2   1 <1>  -0.6500 
  4 N       -0.2530    -0.5430     0.0430 N.am  1 <1>  -0.8490 
  5 C        1.3400     1.6950    -0.0330 C.3   1 <1>  -0.0550 
  6 C       -0.2550    -2.0100     0.0120 C.3   1 <1>   0.1160 
  7 C       -1.5680    -0.0410    -0.3720 C.3   1 <1>   0.1160 
  8 C        2.1840     1.6790     1.2620 C.3   1 <1>  -0.0800 
  9 C        3.6550     1.3240     1.0280 C.3   1 <1>   0.2200 
 10 C        1.7440     0.7110     2.3650 C.3   1 <1>   0.1200 
 11 N        4.4990     2.5030     1.3140 N.am  1 <1>  -0.7300 
 12 C        3.9120     0.2030     2.0340 C.3   1 <1>   0.1200 
 13 O        2.9200     0.3380     3.0010 O.3   1 <1>  -0.5600 
 14 C        4.7810     3.5170     0.4450 C.2   1 <1>   0.7160 
 15 O        4.2950     3.4580    -0.6740 O.2   1 <1>  -0.5700 
 16 C        5.6150     4.6280     0.8910 C.2   1 <1>   0.2030 
 17 N        6.0930     4.7610     2.1210 N.2   1 <1>  -0.7070 
 18 C        6.0310     5.7140     0.1030 C.2   1 <1>  -0.1810 
 19 N        6.7900     5.9080     2.1140 N.pl3 1 <1>   0.3000 
 20 C        6.7600     6.5020     0.9080 C.2   1 <1>  -0.3320 
 21 C        5.7610     6.0300    -1.3590 C.3   1 <1>   0.0210 
 22 C        7.4220     7.8070     0.5090 C.3   1 <1>   0.0200 
 23 C        6.7140     7.1350    -1.8540 C.3   1 <1>  -0.1600 
 24 C        6.8460     8.2860    -0.8370 C.3   1 <1>  -0.1600 
 25 H        1.8460     2.3350    -0.7320 H     1 <1>   0.0800 
 26 H        0.3980     2.1580     0.1800 H     1 <1>   0.0800 
 27 H       -1.0770    -2.3960     0.5890 H     1 <1>   0.0800 
 28 H        0.6600    -2.3900     0.4360 H     1 <1>   0.0800 
 29 H       -0.3370    -2.3620    -1.0040 H     1 <1>   0.0800 
 30 H       -2.3320    -0.4180     0.2850 H     1 <1>   0.0800 
 31 H       -1.7890    -0.3520    -1.3810 H     1 <1>   0.0800 
 32 H       -1.5860     1.0350    -0.3320 H     1 <1>   0.0800 
 33 H        2.1290     2.6680     1.6840 H     1 <1>   0.0800 
 34 H        3.8550     0.9790     0.0270 H     1 <1>   0.0800 
 35 H        1.2950    -0.1870     1.9820 H     1 <1>   0.0800 
 36 H        1.0870     1.1720     3.0810 H     1 <1>   0.0800 
 37 H        4.8200     2.6330     2.2780 H     1 <1>   0.3700 
 38 H        4.8810     0.2650     2.4960 H     1 <1>   0.0800 
 39 H        3.7860    -0.7580     1.5650 H     1 <1>   0.0800 
 40 H        7.2750     6.2650     2.9470 H     1 <1>   0.2700 
 41 H        5.8910     5.1460    -1.9590 H     1 <1>   0.0800 
 42 H        4.7400     6.3550    -1.4570 H     1 <1>   0.0800 
 43 H        7.2570     8.5590     1.2600 H     1 <1>   0.0800 
 44 H        8.4820     7.6460     0.4120 H     1 <1>   0.0800 
 45 H        7.6860     6.7040    -2.0190 H     1 <1>   0.0800 
 46 H        6.3580     7.5150    -2.7950 H     1 <1>   0.0800 
 47 H        5.8710     8.7090    -0.6660 H     1 <1>   0.0800 
 48 H        7.4750     9.0610    -1.2390 H     1 <1>   0.0800 
@<TRIPOS>BOND
  1   1   2  2   
  2   1   3  2   
  3   1   4  am  
  4   1   5  1   
  5   4   6  1   
  6   4   7  1   
  7   5   8  1   
  8   5  25  1   
  9   5  26  1   
 10   6  27  1   
 11   6  28  1   
 12   6  29  1   
 13   7  30  1   
 14   7  31  1   
 15   7  32  1   
 16   8   9  1   
 17   8  10  1   
 18   8  33  1   
 19   9  11  1   
 20   9  12  1   
 21   9  34  1   
 22  10  13  1   
 23  10  35  1   
 24  10  36  1   
 25  11  14  am  
 26  11  37  1   
 27  12  13  1   
 28  12  38  1   
 29  12  39  1   
 30  14  15  2   
 31  14  16  1   
 32  16  17  2   
 33  16  18  1   
 34  17  19  1   
 35  18  20  2   
 36  18  21  1   
 37  19  20  1   
 38  19  40  1   
 39  20  22  1   
 40  21  23  1   
 41  21  41  1   
 42  21  42  1   
 43  22  24  1   
 44  22  43  1   
 45  22  44  1   
 46  23  24  1   
 47  23  45  1   
 48  23  46  1   
 49  24  47  1   
 50  24  48  1   
@<TRIPOS>SUBSTRUCTURE
  1 ****  14 GROUP 4 **** **** 0

# MOE 2024.06 (io_trps.svl 2023.06)
