@<TRIPOS>MOLECULE
NONAME
36 37 1 0 0 
SMALL
USER_CHARGES


@<TRIPOS>ATOM
  1 S       -1.4720    -0.2470     0.9730 S.3   1 <1>  -0.4600 
  2 C       -1.2240    -0.8920    -0.7220 C.3   1 <1>   0.1310 
  3 C       -0.9100     1.4720     0.8540 C.3   1 <1>  -0.0100 
  4 C       -1.4000    -2.4070    -0.7980 C.2   1 <1>   0.5690 
  5 O       -0.4210    -3.0700    -1.0500 O.2   1 <1>  -0.5700 
  6 N       -2.6320    -2.9870    -0.6360 N.am  1 <1>  -0.6600 
  7 C       -3.8860    -2.2960    -0.2470 C.3   1 <1>   0.1400 
  8 C       -2.8370    -4.4550    -0.6830 C.3   1 <1>   0.1400 
  9 C       -4.9260    -3.4080    -0.1060 C.3   1 <1>   0.2000 
 10 C       -4.1300    -4.6960     0.0970 C.3   1 <1>  -0.0800 
 11 O       -5.7600    -3.1900     0.9800 O.3   1 <1>  -0.6800 
 12 C       -4.9080    -5.9470    -0.3420 C.3   1 <1>  -0.0170 
 13 C       -4.0960    -7.2150    -0.1380 C.ar  1 <1>   0.1670 
 14 N       -3.2870    -7.5600    -1.1270 N.ar  1 <1>  -0.6200 
 15 C       -4.2310    -7.9340     1.0410 C.ar  1 <1>  -0.1500 
 16 C       -2.5800    -8.6610    -0.9330 C.ar  1 <1>   0.1600 
 17 C       -3.4890    -9.0800     1.2290 C.ar  1 <1>  -0.1500 
 18 C       -2.6410    -9.4450     0.2060 C.ar  1 <1>  -0.1500 
 19 H       -1.9300    -0.3990    -1.3620 H     1 <1>   0.0800 
 20 H       -0.2240    -0.6300    -1.0130 H     1 <1>   0.0800 
 21 H       -1.0310     1.9230     1.8230 H     1 <1>   0.0800 
 22 H       -1.5150     1.9730     0.1200 H     1 <1>   0.0800 
 23 H        0.1260     1.4640     0.5640 H     1 <1>   0.0800 
 24 H       -3.7430    -1.7940     0.6940 H     1 <1>   0.0800 
 25 H       -4.1800    -1.5930    -1.0060 H     1 <1>   0.0800 
 26 H       -2.9430    -4.7630    -1.7100 H     1 <1>   0.0800 
 27 H       -2.0060    -4.9800    -0.2420 H     1 <1>   0.0800 
 28 H       -5.5310    -3.4570    -0.9960 H     1 <1>   0.0800 
 29 H       -3.8580    -4.7910     1.1340 H     1 <1>   0.0800 
 30 H       -5.2330    -3.1200     1.7990 H     1 <1>   0.4000 
 31 H       -5.1780    -5.8690    -1.3800 H     1 <1>   0.0800 
 32 H       -5.8210    -6.0130     0.2240 H     1 <1>   0.0800 
 33 H       -4.9070    -7.6000     1.8060 H     1 <1>   0.1500 
 34 H       -1.9140    -8.9550    -1.7260 H     1 <1>   0.1500 
 35 H       -3.5680    -9.6620     2.1310 H     1 <1>   0.1500 
 36 H       -2.0330   -10.3280     0.2870 H     1 <1>   0.1500 
@<TRIPOS>BOND
  1   1   2  1   
  2   1   3  1   
  3   2   4  1   
  4   2  19  1   
  5   2  20  1   
  6   3  21  1   
  7   3  22  1   
  8   3  23  1   
  9   4   5  2   
 10   4   6  am  
 11   6   7  1   
 12   6   8  1   
 13   7   9  1   
 14   7  24  1   
 15   7  25  1   
 16   8  10  1   
 17   8  26  1   
 18   8  27  1   
 19   9  10  1   
 20   9  11  1   
 21   9  28  1   
 22  10  12  1   
 23  10  29  1   
 24  11  30  1   
 25  12  13  1   
 26  12  31  1   
 27  12  32  1   
 28  13  14  ar  
 29  13  15  ar  
 30  14  16  ar  
 31  15  17  ar  
 32  15  33  1   
 33  16  18  ar  
 34  16  34  1   
 35  17  18  ar  
 36  17  35  1   
 37  18  36  1   
@<TRIPOS>SUBSTRUCTURE
  1 ****   8 GROUP 4 **** **** 0

# MOE 2024.06 (io_trps.svl 2023.06)
