@<TRIPOS>MOLECULE
NONAME
53 55 1 0 0 
SMALL
USER_CHARGES


@<TRIPOS>ATOM
  1 CL       2.7400     3.0680     0.6950 Cl    1 <1>  -0.1770 
  2 C        1.2610     3.8120     1.2640 C.ar  1 <1>   0.1770 
  3 C        0.4960     4.5940     0.4050 C.ar  1 <1>   0.0820 
  4 C        0.8880     3.6080     2.5790 C.ar  1 <1>  -0.1500 
  5 O        0.9310     4.7700    -0.8710 O.3   1 <1>  -0.3630 
  6 C       -0.6740     5.1680     0.8950 C.ar  1 <1>  -0.1500 
  7 C       -0.2720     4.1910     3.0630 C.ar  1 <1>  -0.1430 
  8 C        0.4000     5.7870    -1.6950 C.3   1 <1>   0.1200 
  9 C       -1.0480     4.9660     2.2150 C.ar  1 <1>  -0.1500 
 10 C       -0.6950     3.9760     4.5050 C.3   1 <1>  -0.0960 
 11 C        1.3670     6.0240    -2.8550 C.3   1 <1>   0.2090 
 12 N        1.0640     7.3250    -3.5190 N.pl3 1 <1>  -0.8380 
 13 C        1.9790     8.3530    -3.3430 C.ar  1 <1>   0.4100 
 14 C        0.3560     7.2080    -4.8250 C.3   1 <1>   0.1290 
 15 N        2.5480     8.8680    -4.4260 N.ar  1 <1>  -0.6200 
 16 C        2.2790     8.7830    -2.0590 C.ar  1 <1>  -0.1500 
 17 C        3.4370     9.8230    -4.2120 C.ar  1 <1>   0.1600 
 18 C        3.2320     9.7540    -1.8240 C.ar  1 <1>   0.0860 
 19 C        3.8090    10.2890    -2.9670 C.ar  1 <1>  -0.1500 
 20 C        3.5900    10.1820    -0.4860 C.2   1 <1>   0.5440 
 21 O        3.7460    11.3690    -0.2640 O.2   1 <1>  -0.5700 
 22 N        3.7560     9.2800     0.5450 N.am  1 <1>  -0.6600 
 23 C        4.1830     7.8660     0.3540 C.3   1 <1>   0.1400 
 24 C        3.6670     9.7000     1.9700 C.3   1 <1>   0.1400 
 25 C        3.2120     6.9270     1.0790 C.3   1 <1>  -0.1600 
 26 C        2.6890     8.7810     2.7120 C.3   1 <1>  -0.1600 
 27 C        3.0650     7.2990     2.5600 C.3   1 <1>  -0.1600 
 28 H        1.5050     2.9960     3.2120 H     1 <1>   0.1500 
 29 H       -1.3060     5.7690     0.2690 H     1 <1>   0.1500 
 30 H        0.3070     6.6830    -1.1090 H     1 <1>   0.0800 
 31 H       -0.5620     5.4720    -2.0550 H     1 <1>   0.0800 
 32 H       -1.9550     5.4170     2.5810 H     1 <1>   0.1500 
 33 H        0.1600     3.7710     5.1250 H     1 <1>   0.0800 
 34 H       -1.3740     3.1450     4.5660 H     1 <1>   0.0800 
 35 H       -1.1870     4.8540     4.8870 H     1 <1>   0.0800 
 36 H        1.2910     5.2170    -3.5630 H     1 <1>   0.0800 
 37 H        2.3750     6.0450    -2.4760 H     1 <1>   0.0800 
 38 H       -0.5370     6.6200    -4.7120 H     1 <1>   0.0800 
 39 H        1.0030     6.7440    -5.5510 H     1 <1>   0.0800 
 40 H        0.0830     8.1870    -5.1820 H     1 <1>   0.0800 
 41 H        1.7560     8.3550    -1.2300 H     1 <1>   0.1500 
 42 H        3.8980    10.2570    -5.0830 H     1 <1>   0.1500 
 43 H        4.5420    11.0700    -2.8710 H     1 <1>   0.1500 
 44 H        5.1700     7.7460     0.7670 H     1 <1>   0.0800 
 45 H        4.2330     7.6130    -0.6900 H     1 <1>   0.0800 
 46 H        3.3280    10.7200     2.0410 H     1 <1>   0.0800 
 47 H        4.6450     9.6400     2.4150 H     1 <1>   0.0800 
 48 H        3.5680     5.9160     0.9940 H     1 <1>   0.0800 
 49 H        2.2510     6.9730     0.6000 H     1 <1>   0.0800 
 50 H        1.7000     8.9450     2.3200 H     1 <1>   0.0800 
 51 H        2.6760     9.0460     3.7540 H     1 <1>   0.0800 
 52 H        3.9960     7.1150     3.0680 H     1 <1>   0.0800 
 53 H        2.3090     6.6810     3.0150 H     1 <1>   0.0800 
@<TRIPOS>BOND
  1   1   2  1   
  2   2   3  ar  
  3   2   4  ar  
  4   3   5  1   
  5   3   6  ar  
  6   4   7  ar  
  7   4  28  1   
  8   5   8  1   
  9   6   9  ar  
 10   6  29  1   
 11   7   9  ar  
 12   7  10  1   
 13   8  11  1   
 14   8  30  1   
 15   8  31  1   
 16   9  32  1   
 17  10  33  1   
 18  10  34  1   
 19  10  35  1   
 20  11  12  1   
 21  11  36  1   
 22  11  37  1   
 23  12  13  1   
 24  12  14  1   
 25  13  15  ar  
 26  13  16  ar  
 27  14  38  1   
 28  14  39  1   
 29  14  40  1   
 30  15  17  ar  
 31  16  18  ar  
 32  16  41  1   
 33  17  19  ar  
 34  17  42  1   
 35  18  19  ar  
 36  18  20  1   
 37  19  43  1   
 38  20  21  2   
 39  20  22  am  
 40  22  23  1   
 41  22  24  1   
 42  23  25  1   
 43  23  44  1   
 44  23  45  1   
 45  24  26  1   
 46  24  46  1   
 47  24  47  1   
 48  25  27  1   
 49  25  48  1   
 50  25  49  1   
 51  26  27  1   
 52  26  50  1   
 53  26  51  1   
 54  27  52  1   
 55  27  53  1   
@<TRIPOS>SUBSTRUCTURE
  1 ****  25 GROUP 4 **** **** 0

# MOE 2024.06 (io_trps.svl 2023.06)
