@<TRIPOS>MOLECULE
NONAME
43 45 1 0 0 
SMALL
USER_CHARGES


@<TRIPOS>ATOM
  1 O        2.3810     0.6410    -1.5690 O.2   1 <1>  -0.5700 
  2 C        1.6600    -0.0070    -0.8360 C.2   1 <1>   0.6900 
  3 N        2.1240    -0.9580     0.0260 N.am  1 <1>  -0.4200 
  4 N        0.3110     0.1310    -0.7450 N.am  1 <1>  -0.6600 
  5 C        1.0810    -1.5000     0.7140 C.2   1 <1>   0.5690 
  6 C        3.5510    -1.3590     0.1730 C.3   1 <1>   0.2010 
  7 C       -0.2070    -0.8170     0.2790 C.3   1 <1>   0.2010 
  8 C       -0.5570     1.0830    -1.4780 C.3   1 <1>   0.0600 
  9 O        1.1480    -2.3890     1.5250 O.2   1 <1>  -0.5700 
 10 C        4.4160    -0.2880     0.8340 C.2   1 <1>   0.5690 
 11 O        5.0430    -0.5910     1.8170 O.2   1 <1>  -0.5700 
 12 N        4.4590     0.9540     0.2720 N.am  1 <1>  -0.4940 
 13 C        5.1080     2.0970     0.6790 C.2   1 <1>   0.5420 
 14 O        4.9230     3.1650    -0.0170 O.3   1 <1>  -0.2800 
 15 N        5.8940     2.3070     1.6750 N.2   1 <1>  -0.3380 
 16 C        5.6100     4.0930     0.5920 C.2   1 <1>   0.4250 
 17 N        6.2210     3.5960     1.6170 N.2   1 <1>  -0.3380 
 18 C        5.6530     5.4550     0.1070 C.ar  1 <1>   0.0530 
 19 C        4.6110     6.0440    -0.6310 C.ar  1 <1>   0.0820 
 20 C        6.7780     6.2400     0.3710 C.ar  1 <1>  -0.1500 
 21 O        3.4970     5.3060    -0.8660 O.3   1 <1>  -0.3630 
 22 C        4.7240     7.3540    -1.0890 C.ar  1 <1>  -0.1500 
 23 C        6.8850     7.5400    -0.0830 C.ar  1 <1>  -0.1500 
 24 C        2.5160     5.6720    -1.8050 C.3   1 <1>   0.1200 
 25 C        5.8560     8.0980    -0.8180 C.ar  1 <1>  -0.1500 
 26 C        1.5370     4.5070    -1.9290 C.3   1 <1>  -0.2400 
 27 H        3.9540    -1.5790    -0.7980 H     1 <1>   0.0800 
 28 H        3.6070    -2.2550     0.7660 H     1 <1>   0.0800 
 29 H       -0.8880    -1.5250    -0.1570 H     1 <1>   0.0800 
 30 H       -0.6580    -0.2930     1.1010 H     1 <1>   0.0800 
 31 H        0.0350     1.6670    -2.1630 H     1 <1>   0.0800 
 32 H       -1.0410     1.7470    -0.7830 H     1 <1>   0.0800 
 33 H       -1.3030     0.5440    -2.0360 H     1 <1>   0.0800 
 34 H        3.8630     1.0980    -0.5510 H     1 <1>   0.3700 
 35 H        7.5880     5.8180     0.9430 H     1 <1>   0.1500 
 36 H        3.9360     7.8170    -1.6520 H     1 <1>   0.1500 
 37 H        7.7660     8.1180     0.1350 H     1 <1>   0.1500 
 38 H        2.9990     5.8650    -2.7480 H     1 <1>   0.0800 
 39 H        2.0160     6.5570    -1.4510 H     1 <1>   0.0800 
 40 H        5.9370     9.1110    -1.1730 H     1 <1>   0.1500 
 41 H        2.0550     3.6240    -2.2600 H     1 <1>   0.0800 
 42 H        0.7730     4.7470    -2.6450 H     1 <1>   0.0800 
 43 H        1.0720     4.3140    -0.9790 H     1 <1>   0.0800 
@<TRIPOS>BOND
  1   1   2  2   
  2   2   3  am  
  3   2   4  am  
  4   3   5  am  
  5   3   6  1   
  6   4   7  1   
  7   4   8  1   
  8   5   7  1   
  9   5   9  2   
 10   6  10  1   
 11   6  27  1   
 12   6  28  1   
 13   7  29  1   
 14   7  30  1   
 15   8  31  1   
 16   8  32  1   
 17   8  33  1   
 18  10  11  2   
 19  10  12  am  
 20  12  13  1   
 21  12  34  1   
 22  13  14  1   
 23  13  15  2   
 24  14  16  1   
 25  15  17  1   
 26  16  17  2   
 27  16  18  1   
 28  18  19  ar  
 29  18  20  ar  
 30  19  21  1   
 31  19  22  ar  
 32  20  23  ar  
 33  20  35  1   
 34  21  24  1   
 35  22  25  ar  
 36  22  36  1   
 37  23  25  ar  
 38  23  37  1   
 39  24  26  1   
 40  24  38  1   
 41  24  39  1   
 42  25  40  1   
 43  26  41  1   
 44  26  42  1   
 45  26  43  1   
@<TRIPOS>SUBSTRUCTURE
  1 ****  14 GROUP 4 **** **** 0

# MOE 2024.06 (io_trps.svl 2023.06)
