@<TRIPOS>MOLECULE
NONAME
50 52 1 0 0 
SMALL
USER_CHARGES


@<TRIPOS>ATOM
  1 F        1.5490     1.0000     2.2410 F     1 <1>  -0.1900 
  2 C        2.5020     1.3160     1.3890 C.ar  1 <1>   0.1900 
  3 C        2.9290     0.4400     0.3890 C.ar  1 <1>   0.4100 
  4 C        3.0780     2.5520     1.4880 C.ar  1 <1>   0.1600 
  5 N        3.8760     0.8350    -0.4450 N.ar  1 <1>  -0.6200 
  6 N        2.4160    -0.8390     0.1860 N.pl3 1 <1>  -0.8380 
  7 N        4.0290     2.9480     0.6590 N.ar  1 <1>  -0.6200 
  8 C        4.3660     2.0420    -0.2550 C.ar  1 <1>   0.7200 
  9 C        1.8890    -1.6850     1.2830 C.3   1 <1>   0.2090 
 10 C        2.8370    -1.6840    -0.9590 C.3   1 <1>   0.2090 
 11 N        5.3440     2.3700    -1.1340 N.pl3 1 <1>  -0.8690 
 12 C        2.1650    -3.1200     0.8500 C.3   1 <1>  -0.1600 
 13 C        2.2420    -3.0550    -0.6710 C.3   1 <1>  -0.1600 
 14 C        5.5870     3.7550    -1.5900 C.3   1 <1>   0.2090 
 15 C        6.4800     4.4870    -0.5650 C.3   1 <1>   0.3430 
 16 N        6.0820     5.9190    -0.3120 N.4   1 <1>  -0.9590 
 17 C        7.1210     6.6840     0.4690 C.3   1 <1>   0.4230 
 18 C        4.7680     5.9280     0.4090 C.3   1 <1>   0.3430 
 19 C        6.6380     8.1370     0.6500 C.3   1 <1>  -0.1600 
 20 C        8.5190     6.6580    -0.2040 C.3   1 <1>   0.1200 
 21 C        4.2530     7.3570     0.5600 C.3   1 <1>  -0.1600 
 22 C        5.2600     8.2270     1.3130 C.3   1 <1>  -0.1600 
 23 O        9.4380     7.3440     0.5800 O.3   1 <1>  -0.6800 
 24 H        2.7480     3.2240     2.2610 H     1 <1>   0.1500 
 25 H        0.8280    -1.5200     1.3740 H     1 <1>   0.0800 
 26 H        2.3740    -1.4630     2.2190 H     1 <1>   0.0800 
 27 H        3.9120    -1.7440    -0.9850 H     1 <1>   0.0800 
 28 H        2.4730    -1.2770    -1.8880 H     1 <1>   0.0800 
 29 H        5.4010     1.6440    -1.8540 H     1 <1>   0.4000 
 30 H        1.4030    -3.7950     1.1950 H     1 <1>   0.0800 
 31 H        3.1150    -3.4270     1.2510 H     1 <1>   0.0800 
 32 H        2.8390    -3.8450    -1.0890 H     1 <1>   0.0800 
 33 H        1.2520    -3.0980    -1.0910 H     1 <1>   0.0800 
 34 H        4.6400     4.2500    -1.7120 H     1 <1>   0.0800 
 35 H        6.0820     3.7290    -2.5460 H     1 <1>   0.0800 
 36 H        7.4930     4.4360    -0.9230 H     1 <1>   0.0800 
 37 H        6.4330     3.9440     0.3650 H     1 <1>   0.0800 
 38 H        5.9490     6.4110    -1.2020 H     1 <1>   0.4500 
 39 H        7.2200     6.2310     1.4430 H     1 <1>   0.0800 
 40 H        4.8850     5.4800     1.3830 H     1 <1>   0.0800 
 41 H        4.0380     5.3470    -0.1320 H     1 <1>   0.0800 
 42 H        6.6160     8.6320    -0.3040 H     1 <1>   0.0800 
 43 H        7.3410     8.6710     1.2670 H     1 <1>   0.0800 
 44 H        8.4870     7.1370    -1.1680 H     1 <1>   0.0800 
 45 H        8.8880     5.6540    -0.3030 H     1 <1>   0.0800 
 46 H        3.3230     7.3380     1.1020 H     1 <1>   0.0800 
 47 H        4.0520     7.7740    -0.4120 H     1 <1>   0.0800 
 48 H        4.9250     9.2510     1.3260 H     1 <1>   0.0800 
 49 H        5.3310     7.8930     2.3360 H     1 <1>   0.0800 
 50 H       10.3290     7.3640     0.1710 H     1 <1>   0.4000 
@<TRIPOS>BOND
  1   1   2  1   
  2   2   3  ar  
  3   2   4  ar  
  4   3   5  ar  
  5   3   6  1   
  6   4   7  ar  
  7   4  24  1   
  8   5   8  ar  
  9   6   9  1   
 10   6  10  1   
 11   7   8  ar  
 12   8  11  1   
 13   9  12  1   
 14   9  25  1   
 15   9  26  1   
 16  10  13  1   
 17  10  27  1   
 18  10  28  1   
 19  11  14  1   
 20  11  29  1   
 21  12  13  1   
 22  12  30  1   
 23  12  31  1   
 24  13  32  1   
 25  13  33  1   
 26  14  15  1   
 27  14  34  1   
 28  14  35  1   
 29  15  16  1   
 30  15  36  1   
 31  15  37  1   
 32  16  17  1   
 33  16  18  1   
 34  16  38  1   
 35  17  19  1   
 36  17  20  1   
 37  17  39  1   
 38  18  21  1   
 39  18  40  1   
 40  18  41  1   
 41  19  22  1   
 42  19  42  1   
 43  19  43  1   
 44  20  23  1   
 45  20  44  1   
 46  20  45  1   
 47  21  22  1   
 48  21  46  1   
 49  21  47  1   
 50  22  48  1   
 51  22  49  1   
 52  23  50  1   
@<TRIPOS>SUBSTRUCTURE
  1 ****   7 GROUP 4 **** **** 0

# MOE 2024.06 (io_trps.svl 2023.06)
