@<TRIPOS>MOLECULE
NONAME
34 34 1 0 0 
SMALL
USER_CHARGES


@<TRIPOS>ATOM
  1 O       -6.5180    -2.7880     0.7730 O.3   1 <1>  -0.6800 
  2 C       -6.7160    -1.4220     0.5640 C.3   1 <1>   0.2000 
  3 C       -7.9240    -1.1950    -0.3670 C.3   1 <1>   0.2000 
  4 C       -5.4160    -0.8190    -0.0170 C.3   1 <1>   0.2000 
  5 O       -7.6910    -1.8830    -1.5540 O.3   1 <1>  -0.6800 
  6 C       -8.1410     0.3060    -0.7130 C.3   1 <1>   0.4230 
  7 O       -4.5990    -0.4340     1.0430 O.3   1 <1>  -0.6800 
  8 C       -5.6790     0.3970    -0.9350 C.3   1 <1>   0.3430 
  9 N       -6.9030     1.1730    -0.5340 N.4   1 <1>  -0.9590 
 10 C       -9.4190     0.8780    -0.0550 C.3   1 <1>   0.1200 
 11 C       -6.7300     1.8420     0.7950 C.3   1 <1>   0.3430 
 12 O       -9.5150     2.2480    -0.2970 O.3   1 <1>  -0.6800 
 13 C       -6.3320     3.3080     0.5990 C.3   1 <1>  -0.1600 
 14 C       -5.0030     3.5210    -0.1420 C.3   1 <1>  -0.2400 
 15 H       -7.1460    -3.1560     1.4300 H     1 <1>   0.4000 
 16 H       -6.9230    -0.9690     1.5190 H     1 <1>   0.0800 
 17 H       -8.8160    -1.6090     0.0700 H     1 <1>   0.0800 
 18 H       -4.8800    -1.5600    -0.5870 H     1 <1>   0.0800 
 19 H       -7.4110    -2.8050    -1.3470 H     1 <1>   0.4000 
 20 H       -8.3620     0.3040    -1.7680 H     1 <1>   0.0800 
 21 H       -4.2780    -1.2320     1.5180 H     1 <1>   0.4000 
 22 H       -5.8250     0.0270    -1.9370 H     1 <1>   0.0800 
 23 H       -4.8060     1.0280    -0.9400 H     1 <1>   0.0800 
 24 H       -7.0390     1.9560    -1.1900 H     1 <1>   0.4500 
 25 H       -9.4170     0.7190     1.0090 H     1 <1>   0.0800 
 26 H      -10.2890     0.4010    -0.4760 H     1 <1>   0.0800 
 27 H       -5.9780     1.3410     1.3820 H     1 <1>   0.0800 
 28 H       -7.6520     1.8190     1.3490 H     1 <1>   0.0800 
 29 H      -10.3940     2.6000    -0.0320 H     1 <1>   0.4000 
 30 H       -6.2440     3.7520     1.5760 H     1 <1>   0.0800 
 31 H       -7.1230     3.8310     0.0900 H     1 <1>   0.0800 
 32 H       -4.2110     2.9650     0.3310 H     1 <1>   0.0800 
 33 H       -4.7390     4.5650    -0.1170 H     1 <1>   0.0800 
 34 H       -5.0750     3.2270    -1.1730 H     1 <1>   0.0800 
@<TRIPOS>BOND
  1   1   2  1   
  2   1  15  1   
  3   2   3  1   
  4   2   4  1   
  5   2  16  1   
  6   3   5  1   
  7   3   6  1   
  8   3  17  1   
  9   4   7  1   
 10   4   8  1   
 11   4  18  1   
 12   5  19  1   
 13   6   9  1   
 14   6  10  1   
 15   6  20  1   
 16   7  21  1   
 17   8   9  1   
 18   8  22  1   
 19   8  23  1   
 20   9  11  1   
 21   9  24  1   
 22  10  12  1   
 23  10  25  1   
 24  10  26  1   
 25  11  13  1   
 26  11  27  1   
 27  11  28  1   
 28  12  29  1   
 29  13  14  1   
 30  13  30  1   
 31  13  31  1   
 32  14  32  1   
 33  14  33  1   
 34  14  34  1   
@<TRIPOS>SUBSTRUCTURE
  1 ****   9 GROUP 4 **** **** 0

# MOE 2024.06 (io_trps.svl 2023.06)
