@<TRIPOS>MOLECULE
NONAME
54 57 1 0 0 
SMALL
USER_CHARGES


@<TRIPOS>ATOM
  1 O       -0.5930     1.2760    -1.1770 O.2   1 <1>  -0.5700 
  2 C       -0.5720     2.4840    -1.1990 C.2   1 <1>   0.5690 
  3 N       -1.2500     3.2720    -0.3020 N.am  1 <1>  -0.5090 
  4 C        0.2720     3.1570    -2.2760 C.3   1 <1>   0.1810 
  5 C       -1.1450     4.7680    -0.3500 C.3   1 <1>   0.3640 
  6 C       -1.8240     2.7020     0.9460 C.3   1 <1>   0.0490 
  7 O        0.8200     4.3680    -1.8160 O.3   1 <1>  -0.5600 
  8 C       -2.5190     5.3810    -0.6140 C.ar  1 <1>  -0.1440 
  9 C       -0.1520     5.3160    -1.4150 C.3   1 <1>   0.2610 
 10 C       -2.8270     1.5950     0.8440 C.3   1 <1>  -0.2000 
 11 C       -3.2550     2.9430     1.3250 C.3   1 <1>  -0.2000 
 12 C       -2.9700     6.4310     0.1750 C.ar  1 <1>   0.1600 
 13 C       -3.3350     4.9260    -1.6350 C.ar  1 <1>  -0.1500 
 14 C        0.5430     6.5880    -0.9060 C.2   1 <1>   0.5690 
 15 N       -4.1280     7.0510     0.0260 N.ar  1 <1>  -0.6200 
 16 C       -4.5480     5.5580    -1.8000 C.ar  1 <1>  -0.1500 
 17 O       -0.0710     7.4010    -0.2570 O.2   1 <1>  -0.5700 
 18 N        1.8570     6.7920    -1.1990 N.am  1 <1>  -0.7300 
 19 C       -4.8910     6.6000    -0.9560 C.ar  1 <1>   0.1600 
 20 C        2.6680     8.0170    -0.9550 C.3   1 <1>   0.1400 
 21 C        2.5930     8.5070     0.5090 C.3   1 <1>   0.3430 
 22 N        2.1470     9.9370     0.6350 N.4   1 <1>  -0.9590 
 23 C        2.4260    10.4700     2.0130 C.3   1 <1>   0.3430 
 24 C        0.6760    10.0890     0.3360 C.3   1 <1>   0.3430 
 25 C        1.8890    11.9040     2.1800 C.3   1 <1>   0.1200 
 26 C        0.1890    11.5300     0.5820 C.3   1 <1>   0.1200 
 27 O        0.5260    11.9510     1.8740 O.3   1 <1>  -0.5600 
 28 H       -0.3260     3.3480    -3.1480 H     1 <1>   0.0800 
 29 H        1.0860     2.5090    -2.5440 H     1 <1>   0.0800 
 30 H       -0.8060     5.0870     0.6200 H     1 <1>   0.0800 
 31 H       -1.0910     2.6280     1.7330 H     1 <1>   0.1000 
 32 H       -0.7010     5.5890    -2.2980 H     1 <1>   0.0800 
 33 H       -3.1320     1.2690    -0.1350 H     1 <1>   0.1000 
 34 H       -2.7730     0.7870     1.5510 H     1 <1>   0.1000 
 35 H       -3.5060     3.0470     2.3650 H     1 <1>   0.1000 
 36 H       -3.9210     3.4940     0.6880 H     1 <1>   0.1000 
 37 H       -2.3450     6.7890     0.9750 H     1 <1>   0.1500 
 38 H       -3.0500     4.1080    -2.2740 H     1 <1>   0.1500 
 39 H       -5.2270     5.2470    -2.5730 H     1 <1>   0.1500 
 40 H        2.3130     6.0360    -1.7310 H     1 <1>   0.3700 
 41 H       -5.8410     7.0870    -1.0940 H     1 <1>   0.1500 
 42 H        3.6950     7.7910    -1.1870 H     1 <1>   0.0800 
 43 H        2.3380     8.7870    -1.6290 H     1 <1>   0.0800 
 44 H        3.5730     8.4030     0.9460 H     1 <1>   0.0800 
 45 H        1.9190     7.8720     1.0600 H     1 <1>   0.0800 
 46 H        2.6640    10.5210    -0.0340 H     1 <1>   0.4500 
 47 H        1.9510     9.8430     2.7500 H     1 <1>   0.0800 
 48 H        3.4870    10.4630     2.2050 H     1 <1>   0.0800 
 49 H        0.4710     9.8090    -0.6840 H     1 <1>   0.0800 
 50 H        0.1060     9.4290     0.9700 H     1 <1>   0.0800 
 51 H        2.4120    12.5960     1.5430 H     1 <1>   0.0800 
 52 H        2.0030    12.2260     3.2010 H     1 <1>   0.0800 
 53 H       -0.8830    11.5750     0.4940 H     1 <1>   0.0800 
 54 H        0.6190    12.2130    -0.1300 H     1 <1>   0.0800 
@<TRIPOS>BOND
  1   1   2  2   
  2   2   3  am  
  3   2   4  1   
  4   3   5  1   
  5   3   6  1   
  6   4   7  1   
  7   4  28  1   
  8   4  29  1   
  9   5   8  1   
 10   5   9  1   
 11   5  30  1   
 12   6  10  1   
 13   6  11  1   
 14   6  31  1   
 15   7   9  1   
 16   8  12  ar  
 17   8  13  ar  
 18   9  14  1   
 19   9  32  1   
 20  10  11  1   
 21  10  33  1   
 22  10  34  1   
 23  11  35  1   
 24  11  36  1   
 25  12  15  ar  
 26  12  37  1   
 27  13  16  ar  
 28  13  38  1   
 29  14  17  2   
 30  14  18  am  
 31  15  19  ar  
 32  16  19  ar  
 33  16  39  1   
 34  18  20  1   
 35  18  40  1   
 36  19  41  1   
 37  20  21  1   
 38  20  42  1   
 39  20  43  1   
 40  21  22  1   
 41  21  44  1   
 42  21  45  1   
 43  22  23  1   
 44  22  24  1   
 45  22  46  1   
 46  23  25  1   
 47  23  47  1   
 48  23  48  1   
 49  24  26  1   
 50  24  49  1   
 51  24  50  1   
 52  25  27  1   
 53  25  51  1   
 54  25  52  1   
 55  26  27  1   
 56  26  53  1   
 57  26  54  1   
@<TRIPOS>SUBSTRUCTURE
  1 ****  17 GROUP 4 **** **** 0

# MOE 2024.06 (io_trps.svl 2023.06)
