@<TRIPOS>MOLECULE
NONAME
45 47 1 0 0 
SMALL
USER_CHARGES


@<TRIPOS>ATOM
  1 O       -2.0700     0.7270     2.9730 O.2   1 <1>  -0.5700 
  2 C       -2.0020     1.2180     1.8700 C.2   1 <1>   0.5690 
  3 N       -2.2300     0.4640     0.7510 N.am  1 <1>  -0.6600 
  4 C       -1.6740     2.7040     1.7700 C.3   1 <1>   0.0440 
  5 C       -2.1530     0.9180    -0.6620 C.3   1 <1>   0.1400 
  6 C       -2.4660    -0.9990     0.8060 C.3   1 <1>   0.1400 
  7 C       -0.4590     3.0040     0.8970 C.ar  1 <1>  -0.1440 
  8 C       -2.8260    -0.2010    -1.4530 C.3   1 <1>   0.2000 
  9 C       -2.4730    -1.4620    -0.6560 C.3   1 <1>  -0.0800 
 10 C        0.7360     2.3360     1.1130 C.ar  1 <1>  -0.1500 
 11 C       -0.5360     3.9400    -0.1230 C.ar  1 <1>  -0.1500 
 12 O       -4.1960     0.0070    -1.4090 O.3   1 <1>  -0.6800 
 13 C       -3.3730    -2.6830    -0.9200 C.3   1 <1>  -0.0170 
 14 C        1.8360     2.5920     0.3130 C.ar  1 <1>  -0.1500 
 15 C        0.5650     4.1950    -0.9230 C.ar  1 <1>  -0.1500 
 16 C       -2.8830    -3.8960    -0.1450 C.ar  1 <1>  -0.1440 
 17 C        1.7560     3.5200    -0.7120 C.ar  1 <1>  -0.1440 
 18 C       -1.8560    -4.6900    -0.6140 C.ar  1 <1>  -0.1500 
 19 C       -3.4340    -4.2650     1.0650 C.ar  1 <1>  -0.1500 
 20 C        2.9630     3.8020    -1.5870 C.3   1 <1>  -0.0970 
 21 C       -1.4400    -5.7820     0.1300 C.ar  1 <1>   0.1600 
 22 C       -2.9430    -5.3760     1.7310 C.ar  1 <1>   0.1600 
 23 N       -1.9580    -6.1430     1.2930 N.ar  1 <1>  -0.6200 
 24 H       -2.5410     3.2110     1.3930 H     1 <1>   0.0800 
 25 H       -1.4860     3.0800     2.7590 H     1 <1>   0.0800 
 26 H       -2.6430     1.8640    -0.8130 H     1 <1>   0.0800 
 27 H       -1.1180     0.9980    -0.9480 H     1 <1>   0.0800 
 28 H       -1.6910    -1.4900     1.3720 H     1 <1>   0.0800 
 29 H       -3.4170    -1.1820     1.2760 H     1 <1>   0.0800 
 30 H       -2.5150    -0.2400    -2.4830 H     1 <1>   0.0800 
 31 H       -1.4620    -1.7300    -0.9080 H     1 <1>   0.0800 
 32 H        0.8160     1.6100     1.9050 H     1 <1>   0.1500 
 33 H       -1.4500     4.4770    -0.3030 H     1 <1>   0.1500 
 34 H       -4.4520     0.1860    -0.4820 H     1 <1>   0.4000 
 35 H       -3.3700    -2.9080    -1.9730 H     1 <1>   0.0800 
 36 H       -4.3900    -2.4670    -0.6420 H     1 <1>   0.0800 
 37 H        2.7560     2.0650     0.4940 H     1 <1>   0.1500 
 38 H        0.4910     4.9250    -1.7100 H     1 <1>   0.1500 
 39 H       -1.3760    -4.4710    -1.5500 H     1 <1>   0.1500 
 40 H       -4.2400    -3.7020     1.4990 H     1 <1>   0.1500 
 41 H        3.5770     2.9240    -1.6750 H     1 <1>   0.0800 
 42 H        3.5480     4.5930    -1.1530 H     1 <1>   0.0800 
 43 H        2.6530     4.0990    -2.5720 H     1 <1>   0.0800 
 44 H       -0.6370    -6.3900    -0.2510 H     1 <1>   0.1500 
 45 H       -3.3840    -5.6480     2.6750 H     1 <1>   0.1500 
@<TRIPOS>BOND
  1   1   2  2   
  2   2   3  am  
  3   2   4  1   
  4   3   5  1   
  5   3   6  1   
  6   4   7  1   
  7   4  24  1   
  8   4  25  1   
  9   5   8  1   
 10   5  26  1   
 11   5  27  1   
 12   6   9  1   
 13   6  28  1   
 14   6  29  1   
 15   7  10  ar  
 16   7  11  ar  
 17   8   9  1   
 18   8  12  1   
 19   8  30  1   
 20   9  13  1   
 21   9  31  1   
 22  10  14  ar  
 23  10  32  1   
 24  11  15  ar  
 25  11  33  1   
 26  12  34  1   
 27  13  16  1   
 28  13  35  1   
 29  13  36  1   
 30  14  17  ar  
 31  14  37  1   
 32  15  17  ar  
 33  15  38  1   
 34  16  18  ar  
 35  16  19  ar  
 36  17  20  1   
 37  18  21  ar  
 38  18  39  1   
 39  19  22  ar  
 40  19  40  1   
 41  20  41  1   
 42  20  42  1   
 43  20  43  1   
 44  21  23  ar  
 45  21  44  1   
 46  22  23  ar  
 47  22  45  1   
@<TRIPOS>SUBSTRUCTURE
  1 ****   3 GROUP 4 **** **** 0

# MOE 2024.06 (io_trps.svl 2023.06)
