@<TRIPOS>MOLECULE
NONAME
58 62 1 0 0 
SMALL
USER_CHARGES


@<TRIPOS>ATOM
  1 O       -1.8630     1.3680     3.0520 O.2   1 <1>  -0.5700 
  2 C       -2.4870     1.5200     2.0160 C.2   1 <1>   0.5440 
  3 N       -3.6070     0.7440     1.7850 N.am  1 <1>  -0.6600 
  4 C       -2.0640     2.5510     1.1000 C.ar  1 <1>   0.0860 
  5 C       -3.9700    -0.4040     2.6600 C.3   1 <1>   0.1400 
  6 C       -4.5370     0.9320     0.6370 C.3   1 <1>   0.1400 
  7 C       -1.5190     2.2460    -0.1580 C.ar  1 <1>   0.3920 
  8 C       -2.1910     3.8900     1.4480 C.ar  1 <1>  -0.1500 
  9 C       -3.9640    -1.6900     1.8290 C.3   1 <1>  -0.1600 
 10 C       -4.5490    -0.3340    -0.2240 C.3   1 <1>  -0.1600 
 11 O       -1.3700     0.9450    -0.4790 O.3   1 <1>  -0.3630 
 12 N       -1.1410     3.1490    -1.0680 N.ar  1 <1>  -0.6200 
 13 C       -1.7910     4.8190     0.5170 C.ar  1 <1>  -0.1430 
 14 C       -4.8850    -1.5930     0.5990 C.3   1 <1>   0.4240 
 15 C       -0.8900     0.5310    -1.7420 C.3   1 <1>   0.0400 
 16 C       -1.2930     4.4010    -0.6900 C.ar  1 <1>   0.1670 
 17 C       -1.8110     6.3240     0.6230 C.3   1 <1>  -0.0160 
 18 O       -6.1680    -1.3890     1.1530 O.3   1 <1>  -0.5600 
 19 C       -4.8300    -2.8930    -0.2550 C.ar  1 <1>  -0.1430 
 20 C       -0.9210     5.5740    -1.5600 C.3   1 <1>  -0.0170 
 21 C       -1.5050     6.7890    -0.8130 C.3   1 <1>  -0.1600 
 22 C       -7.2720    -1.6980     0.3680 C.3   1 <1>   0.1200 
 23 C       -3.6480    -3.3440    -0.8550 C.ar  1 <1>   0.0830 
 24 C       -5.9850    -3.6540    -0.4400 C.ar  1 <1>  -0.1430 
 25 C       -7.2990    -3.2040     0.1630 C.3   1 <1>  -0.0170 
 26 O       -2.5060    -2.6250    -0.7210 O.3   1 <1>  -0.3630 
 27 C       -3.6350    -4.5180    -1.6020 C.ar  1 <1>  -0.1500 
 28 C       -5.9610    -4.8260    -1.1780 C.ar  1 <1>  -0.1500 
 29 C       -1.2630    -3.2760    -0.5760 C.3   1 <1>   0.0400 
 30 C       -4.7870    -5.2600    -1.7600 C.ar  1 <1>  -0.1500 
 31 H       -4.9470    -0.2350     3.0780 H     1 <1>   0.0800 
 32 H       -3.2730    -0.5010     3.4750 H     1 <1>   0.0800 
 33 H       -4.2480     1.7750     0.0360 H     1 <1>   0.0800 
 34 H       -5.5260     1.1210     1.0200 H     1 <1>   0.0800 
 35 H       -2.5840     4.1730     2.4090 H     1 <1>   0.1500 
 36 H       -4.2770    -2.5180     2.4370 H     1 <1>   0.0800 
 37 H       -2.9510    -1.8730     1.5360 H     1 <1>   0.0800 
 38 H       -3.5810    -0.4360    -0.6670 H     1 <1>   0.0800 
 39 H       -5.2460    -0.2240    -1.0320 H     1 <1>   0.0800 
 40 H       -0.8980    -0.5430    -1.7700 H     1 <1>   0.0800 
 41 H        0.1120     0.9010    -1.8700 H     1 <1>   0.0800 
 42 H       -1.5370     0.9240    -2.5050 H     1 <1>   0.0800 
 43 H       -1.0390     6.6470     1.3000 H     1 <1>   0.0800 
 44 H       -2.7670     6.6850     0.9600 H     1 <1>   0.0800 
 45 H       -1.3430     5.4720    -2.5440 H     1 <1>   0.0800 
 46 H        0.1500     5.6370    -1.6270 H     1 <1>   0.0800 
 47 H       -0.8270     7.6240    -0.8250 H     1 <1>   0.0800 
 48 H       -2.4250     7.0800    -1.2890 H     1 <1>   0.0800 
 49 H       -7.2020    -1.1770    -0.5710 H     1 <1>   0.0800 
 50 H       -8.1520    -1.3700     0.8920 H     1 <1>   0.0800 
 51 H       -8.1160    -3.4570    -0.4880 H     1 <1>   0.0800 
 52 H       -7.4530    -3.6930     1.1090 H     1 <1>   0.0800 
 53 H       -2.7340    -4.8580    -2.0750 H     1 <1>   0.1500 
 54 H       -6.8580    -5.4060    -1.3060 H     1 <1>   0.1500 
 55 H       -0.5570    -2.5620    -0.1910 H     1 <1>   0.0800 
 56 H       -0.9370    -3.6300    -1.5370 H     1 <1>   0.0800 
 57 H       -1.3740    -4.0910     0.1170 H     1 <1>   0.0800 
 58 H       -4.7730    -6.1690    -2.3350 H     1 <1>   0.1500 
@<TRIPOS>BOND
  1   1   2  2   
  2   2   3  am  
  3   2   4  1   
  4   3   5  1   
  5   3   6  1   
  6   4   7  ar  
  7   4   8  ar  
  8   5   9  1   
  9   5  31  1   
 10   5  32  1   
 11   6  10  1   
 12   6  33  1   
 13   6  34  1   
 14   7  11  1   
 15   7  12  ar  
 16   8  13  ar  
 17   8  35  1   
 18   9  14  1   
 19   9  36  1   
 20   9  37  1   
 21  10  14  1   
 22  10  38  1   
 23  10  39  1   
 24  11  15  1   
 25  12  16  ar  
 26  13  16  ar  
 27  13  17  1   
 28  14  18  1   
 29  14  19  1   
 30  15  40  1   
 31  15  41  1   
 32  15  42  1   
 33  16  20  1   
 34  17  21  1   
 35  17  43  1   
 36  17  44  1   
 37  18  22  1   
 38  19  23  ar  
 39  19  24  ar  
 40  20  21  1   
 41  20  45  1   
 42  20  46  1   
 43  21  47  1   
 44  21  48  1   
 45  22  25  1   
 46  22  49  1   
 47  22  50  1   
 48  23  26  1   
 49  23  27  ar  
 50  24  25  1   
 51  24  28  ar  
 52  25  51  1   
 53  25  52  1   
 54  26  29  1   
 55  27  30  ar  
 56  27  53  1   
 57  28  30  ar  
 58  28  54  1   
 59  29  55  1   
 60  29  56  1   
 61  29  57  1   
 62  30  58  1   
@<TRIPOS>SUBSTRUCTURE
  1 ****  10 GROUP 4 **** **** 0

# MOE 2024.06 (io_trps.svl 2023.06)
