@<TRIPOS>MOLECULE
NONAME
55 57 1 0 0 
SMALL
USER_CHARGES


@<TRIPOS>ATOM
  1 O        0.6170    -0.2390     0.3610 O.2   1 <1>  -0.5700 
  2 C        1.2740    -1.2420     0.4570 C.2   1 <1>   0.5690 
  3 N        0.9010    -2.2640     1.2540 N.am  1 <1>  -0.7300 
  4 C        2.5600    -1.4030    -0.3200 C.3   1 <1>  -0.0990 
  5 C        1.7320    -3.4640     1.4730 C.3   1 <1>   0.1400 
  6 C        2.6460    -2.8260    -0.9050 C.3   1 <1>  -0.0800 
  7 C        2.3570    -3.9350     0.1370 C.3   1 <1>  -0.0800 
  8 C        4.0210    -3.1310    -1.5210 C.3   1 <1>  -0.1600 
  9 C        3.6840    -4.6790     0.3300 C.3   1 <1>  -0.1600 
 10 C        4.4050    -4.5130    -1.0080 C.3   1 <1>   0.4230 
 11 N        5.8890    -4.7330    -0.9930 N.4   1 <1>  -0.9590 
 12 C        6.6570    -4.2270     0.2300 C.3   1 <1>   0.4040 
 13 C        6.1660    -6.1910    -1.1860 C.3   1 <1>   0.2630 
 14 C        6.7050    -2.7090     0.4740 C.2   1 <1>   0.5690 
 15 O        5.8100    -2.2300     1.1290 O.2   1 <1>  -0.5700 
 16 N        7.7410    -1.9780    -0.0370 N.am  1 <1>  -0.4930 
 17 C        8.0430    -0.6150     0.2200 C.2   1 <1>   0.0630 
 18 C        9.2860    -0.1260     0.6310 C.2   1 <1>   0.1080 
 19 C        7.2580     0.4830     0.1270 C.2   1 <1>  -0.3320 
 20 N        9.2820     1.1570     0.7880 N.2   1 <1>  -0.7070 
 21 C       10.5300    -0.9480     0.8880 C.3   1 <1>  -0.0590 
 22 N        8.0290     1.5410     0.4880 N.pl3 1 <1>   0.3140 
 23 C        5.8000     0.6160    -0.2860 C.3   1 <1>  -0.0600 
 24 C        7.6300     2.9620     0.5870 C.3   1 <1>   0.0960 
 25 C        7.8610     3.6990    -0.7380 C.3   1 <1>  -0.2400 
 26 H        0.0590    -2.1330     1.8210 H     1 <1>   0.3700 
 27 H        2.5950    -0.6700    -1.1050 H     1 <1>   0.0800 
 28 H        3.3730    -1.2190     0.3580 H     1 <1>   0.0800 
 29 H        2.5030    -3.2050     2.1800 H     1 <1>   0.0800 
 30 H        1.1320    -4.2500     1.8990 H     1 <1>   0.0800 
 31 H        1.8930    -2.8980    -1.6740 H     1 <1>   0.0800 
 32 H        1.6580    -4.6200    -0.3150 H     1 <1>   0.0800 
 33 H        4.7300    -2.3890    -1.2200 H     1 <1>   0.0800 
 34 H        3.9550    -3.1290    -2.5950 H     1 <1>   0.0800 
 35 H        3.5150    -5.7140     0.5670 H     1 <1>   0.0800 
 36 H        4.2170    -4.2080     1.1320 H     1 <1>   0.0800 
 37 H        3.9580    -5.2180    -1.6920 H     1 <1>   0.0800 
 38 H        6.2470    -4.2300    -1.8170 H     1 <1>   0.4500 
 39 H        6.2410    -4.6760     1.1150 H     1 <1>   0.0800 
 40 H        7.6760    -4.5660     0.1620 H     1 <1>   0.0800 
 41 H        5.7860    -6.7580    -0.3520 H     1 <1>   0.0800 
 42 H        7.2270    -6.3670    -1.2700 H     1 <1>   0.0800 
 43 H        5.6910    -6.5470    -2.0870 H     1 <1>   0.0800 
 44 H        8.4990    -2.4540    -0.5240 H     1 <1>   0.3700 
 45 H       10.2850    -1.8260     1.4540 H     1 <1>   0.0800 
 46 H       11.2360    -0.3640     1.4510 H     1 <1>   0.0800 
 47 H       10.9820    -1.2260    -0.0450 H     1 <1>   0.0800 
 48 H        5.4540    -0.2950    -0.7300 H     1 <1>   0.0800 
 49 H        5.6810     1.4030    -1.0080 H     1 <1>   0.0800 
 50 H        5.1920     0.8320     0.5750 H     1 <1>   0.0800 
 51 H        6.5960     3.0130     0.8730 H     1 <1>   0.0800 
 52 H        8.2180     3.4170     1.3640 H     1 <1>   0.0800 
 53 H        7.2750     3.2570    -1.5240 H     1 <1>   0.0800 
 54 H        8.9030     3.6550    -1.0040 H     1 <1>   0.0800 
 55 H        7.5770     4.7310    -0.6360 H     1 <1>   0.0800 
@<TRIPOS>BOND
  1   1   2  2   
  2   2   3  am  
  3   2   4  1   
  4   3   5  1   
  5   3  26  1   
  6   4   6  1   
  7   4  27  1   
  8   4  28  1   
  9   5   7  1   
 10   5  29  1   
 11   5  30  1   
 12   6   7  1   
 13   6   8  1   
 14   6  31  1   
 15   7   9  1   
 16   7  32  1   
 17   8  10  1   
 18   8  33  1   
 19   8  34  1   
 20   9  10  1   
 21   9  35  1   
 22   9  36  1   
 23  10  11  1   
 24  10  37  1   
 25  11  12  1   
 26  11  13  1   
 27  11  38  1   
 28  12  14  1   
 29  12  39  1   
 30  12  40  1   
 31  13  41  1   
 32  13  42  1   
 33  13  43  1   
 34  14  15  2   
 35  14  16  am  
 36  16  17  1   
 37  16  44  1   
 38  17  18  1   
 39  17  19  2   
 40  18  20  2   
 41  18  21  1   
 42  19  22  1   
 43  19  23  1   
 44  20  22  1   
 45  21  45  1   
 46  21  46  1   
 47  21  47  1   
 48  22  24  1   
 49  23  48  1   
 50  23  49  1   
 51  23  50  1   
 52  24  25  1   
 53  24  51  1   
 54  24  52  1   
 55  25  53  1   
 56  25  54  1   
 57  25  55  1   
@<TRIPOS>SUBSTRUCTURE
  1 ****  15 GROUP 4 **** **** 0

# MOE 2024.06 (io_trps.svl 2023.06)
