@<TRIPOS>MOLECULE
NONAME
45 48 1 0 0 
SMALL
USER_CHARGES


@<TRIPOS>ATOM
  1 O       -3.4940    -1.0160     1.1830 O.2   1 <1>  -0.5700 
  2 C       -3.0580    -0.1700     0.4000 C.2   1 <1>   0.7150 
  3 N       -3.2410    -0.4260    -0.9480 N.am  1 <1>  -0.6600 
  4 C       -2.4240     1.0280     0.9060 C.2   1 <1>   0.0550 
  5 C       -3.6490    -1.7770    -1.3770 C.3   1 <1>   0.1400 
  6 C       -3.6450     0.6110    -1.9530 C.3   1 <1>   0.1400 
  7 O       -1.7030     1.8260     0.1200 O.3   1 <1>  -0.2800 
  8 C       -2.4050     1.5450     2.1670 C.2   1 <1>  -0.1500 
  9 C       -5.1770    -1.7700    -1.2820 C.3   1 <1>   0.2890 
 10 C       -5.1610     0.5140    -2.2700 C.3   1 <1>  -0.1600 
 11 C       -1.2360     2.8230     0.8360 C.2   1 <1>  -0.0100 
 12 C       -1.6370     2.7090     2.1200 C.2   1 <1>  -0.1500 
 13 N       -5.7070    -3.1360    -1.1630 N.pl3 1 <1>  -0.8690 
 14 C       -5.7150    -0.9270    -2.4340 C.3   1 <1>  -0.1600 
 15 C       -5.7250    -3.8640    -0.0180 C.ar  1 <1>   0.7710 
 16 N       -5.0510    -3.3960     1.0860 N.ar  1 <1>  -0.1790 
 17 N       -6.3840    -4.9860    -0.0240 N.ar  1 <1>  -0.5670 
 18 C       -5.0110    -4.0540     2.2470 C.ar  1 <1>   0.4610 
 19 C       -6.3710    -5.6780     1.1440 C.ar  1 <1>   0.1050 
 20 N       -4.3210    -3.5400     3.2770 N.pl3 1 <1>  -0.9000 
 21 C       -5.7150    -5.2630     2.2800 C.ar  1 <1>   0.0000 
 22 N       -6.9600    -6.8610     1.4480 N.pl3 1 <1>   0.3140 
 23 C       -5.9750    -6.2760     3.2140 C.2   1 <1>   0.1390 
 24 N       -6.7080    -7.2210     2.7310 N.2   1 <1>  -0.7070 
 25 C       -7.7790    -7.7100     0.5700 C.3   1 <1>   0.0160 
 26 H       -3.2030    -2.5190    -0.7390 H     1 <1>   0.0800 
 27 H       -3.3220    -1.9610    -2.3860 H     1 <1>   0.0800 
 28 H       -3.0760     0.4530    -2.8550 H     1 <1>   0.0800 
 29 H       -3.4190     1.6010    -1.5970 H     1 <1>   0.0800 
 30 H       -2.8800     1.1510     3.0480 H     1 <1>   0.1500 
 31 H       -5.4690    -1.2540    -0.3820 H     1 <1>   0.0800 
 32 H       -5.3690     1.0820    -3.1600 H     1 <1>   0.0800 
 33 H       -5.6920     0.9970    -1.4670 H     1 <1>   0.0800 
 34 H       -0.6260     3.5710     0.3600 H     1 <1>   0.1500 
 35 H       -1.4230     3.3600     2.9490 H     1 <1>   0.1500 
 36 H       -6.2380    -3.5030    -1.9610 H     1 <1>   0.4000 
 37 H       -6.7910    -0.9050    -2.4120 H     1 <1>   0.0800 
 38 H       -5.3940    -1.3380    -3.3760 H     1 <1>   0.0800 
 39 H       -4.5470    -2.5100     1.0120 H     1 <1>   0.4570 
 40 H       -4.2530    -4.0020     4.1920 H     1 <1>   0.4000 
 41 H       -3.7920    -2.6560     3.2520 H     1 <1>   0.4000 
 42 H       -5.6070    -6.2740     4.2270 H     1 <1>   0.1500 
 43 H       -7.8690    -7.2550    -0.3990 H     1 <1>   0.0800 
 44 H       -8.7530    -7.8280     1.0080 H     1 <1>   0.0800 
 45 H       -7.3100    -8.6720     0.4770 H     1 <1>   0.0800 
@<TRIPOS>BOND
  1   1   2  2   
  2   2   3  am  
  3   2   4  1   
  4   3   5  1   
  5   3   6  1   
  6   4   7  1   
  7   4   8  2   
  8   5   9  1   
  9   5  26  1   
 10   5  27  1   
 11   6  10  1   
 12   6  28  1   
 13   6  29  1   
 14   7  11  1   
 15   8  12  1   
 16   8  30  1   
 17   9  13  1   
 18   9  14  1   
 19   9  31  1   
 20  10  14  1   
 21  10  32  1   
 22  10  33  1   
 23  11  12  2   
 24  11  34  1   
 25  12  35  1   
 26  13  15  1   
 27  13  36  1   
 28  14  37  1   
 29  14  38  1   
 30  15  16  ar  
 31  15  17  ar  
 32  16  18  ar  
 33  16  39  1   
 34  17  19  ar  
 35  18  20  1   
 36  18  21  ar  
 37  19  21  ar  
 38  19  22  1   
 39  20  40  1   
 40  20  41  1   
 41  21  23  1   
 42  22  24  1   
 43  22  25  1   
 44  23  24  2   
 45  23  42  1   
 46  25  43  1   
 47  25  44  1   
 48  25  45  1   
@<TRIPOS>SUBSTRUCTURE
  1 ****  16 GROUP 4 **** **** 0

# MOE 2024.06 (io_trps.svl 2023.06)
