@<TRIPOS>MOLECULE
NONAME
53 56 1 0 0 
SMALL
USER_CHARGES


@<TRIPOS>ATOM
  1 N       -0.1170    -0.3740    -0.3040 N.ar  1 <1>  -0.6200 
  2 C        0.9980     0.3000    -0.0580 C.ar  1 <1>   0.7710 
  3 C       -0.0240    -1.6000    -0.7810 C.ar  1 <1>   0.4100 
  4 N        2.2070    -0.2340    -0.3060 N.ar  1 <1>  -0.1790 
  5 N        0.9280     1.5610     0.4510 N.pl3 1 <1>  -0.8380 
  6 N       -1.1770    -2.2820    -0.9990 N.pl3 1 <1>  -0.8380 
  7 C        1.2260    -2.1840    -1.0580 C.ar  1 <1>  -0.1500 
  8 C        2.3560    -1.4800    -0.8120 C.ar  1 <1>   0.2180 
  9 C        2.0630     2.4120     0.9250 C.3   1 <1>   0.2090 
 10 C       -0.3800     2.2870     0.5820 C.3   1 <1>   0.2090 
 11 C       -1.3490    -3.7560    -0.7690 C.3   1 <1>   0.2090 
 12 C       -2.4890    -1.5940    -1.2560 C.3   1 <1>   0.2090 
 13 C        3.7550    -2.0060    -1.0810 C.3   1 <1>  -0.0970 
 14 C        2.1590     3.6590     0.0410 C.3   1 <1>  -0.1600 
 15 C       -0.3450     3.5430    -0.2940 C.3   1 <1>  -0.1600 
 16 C       -2.3800    -4.0480     0.3440 C.3   1 <1>   0.2090 
 17 C       -3.4920    -1.8640    -0.1190 C.3   1 <1>   0.2090 
 18 C        0.8440     4.4520     0.0540 C.3   1 <1>  -0.1600 
 19 N       -3.6840    -3.3390     0.1100 N.pl3 1 <1>  -0.8380 
 20 C       -4.8970    -3.9520     0.1420 C.ar  1 <1>   0.1000 
 21 C       -5.9420    -3.5700    -0.7090 C.ar  1 <1>  -0.1500 
 22 C       -5.1660    -5.0000     1.0340 C.ar  1 <1>  -0.1500 
 23 C       -7.1610    -4.1950    -0.6600 C.ar  1 <1>   0.2110 
 24 C       -6.3930    -5.6090     1.0620 C.ar  1 <1>   0.2110 
 25 N       -7.3780    -5.2050     0.2200 N.ar  1 <1>  -0.1790 
 26 H        2.9940     0.3710    -0.1170 H     1 <1>   0.4570 
 27 H        1.2550    -3.1710    -1.4770 H     1 <1>   0.1500 
 28 H        3.0000     1.8860     0.9150 H     1 <1>   0.0800 
 29 H        1.8740     2.7130     1.9440 H     1 <1>   0.0800 
 30 H       -0.5300     2.5660     1.6120 H     1 <1>   0.0800 
 31 H       -1.2170     1.6780     0.2880 H     1 <1>   0.0800 
 32 H       -0.4150    -4.2080    -0.4900 H     1 <1>   0.0800 
 33 H       -1.6820    -4.2180    -1.6830 H     1 <1>   0.0800 
 34 H       -2.9010    -1.9610    -2.1790 H     1 <1>   0.0800 
 35 H       -2.3510    -0.5330    -1.3650 H     1 <1>   0.0800 
 36 H        4.2620    -1.3800    -1.7940 H     1 <1>   0.0800 
 37 H        3.7110    -3.0030    -1.4830 H     1 <1>   0.0800 
 38 H        4.3270    -2.0370    -0.1700 H     1 <1>   0.0800 
 39 H        2.3950     3.3680    -0.9670 H     1 <1>   0.0800 
 40 H        2.9550     4.2900     0.3960 H     1 <1>   0.0800 
 41 H       -1.2630     4.0900    -0.1660 H     1 <1>   0.0800 
 42 H       -0.2860     3.2450    -1.3260 H     1 <1>   0.0800 
 43 H       -1.9720    -3.7290     1.2880 H     1 <1>   0.0800 
 44 H       -2.5380    -5.1100     0.3910 H     1 <1>   0.0800 
 45 H       -4.4270    -1.3870    -0.3440 H     1 <1>   0.0800 
 46 H       -3.1100    -1.4170     0.7820 H     1 <1>   0.0800 
 47 H        0.8990     5.2660    -0.6500 H     1 <1>   0.0800 
 48 H        0.6910     4.8750     1.0330 H     1 <1>   0.0800 
 49 H       -5.7720    -2.7810    -1.4190 H     1 <1>   0.1500 
 50 H       -4.3930    -5.3130     1.7130 H     1 <1>   0.1500 
 51 H       -7.9620    -3.8990    -1.3180 H     1 <1>   0.1500 
 52 H       -6.5960    -6.4120     1.7530 H     1 <1>   0.1500 
 53 H       -8.2940    -5.6670     0.2500 H     1 <1>   0.4570 
@<TRIPOS>BOND
  1   1   2  ar  
  2   1   3  ar  
  3   2   4  ar  
  4   2   5  1   
  5   3   6  1   
  6   3   7  ar  
  7   4   8  ar  
  8   4  26  1   
  9   5   9  1   
 10   5  10  1   
 11   6  11  1   
 12   6  12  1   
 13   7   8  ar  
 14   7  27  1   
 15   8  13  1   
 16   9  14  1   
 17   9  28  1   
 18   9  29  1   
 19  10  15  1   
 20  10  30  1   
 21  10  31  1   
 22  11  16  1   
 23  11  32  1   
 24  11  33  1   
 25  12  17  1   
 26  12  34  1   
 27  12  35  1   
 28  13  36  1   
 29  13  37  1   
 30  13  38  1   
 31  14  18  1   
 32  14  39  1   
 33  14  40  1   
 34  15  18  1   
 35  15  41  1   
 36  15  42  1   
 37  16  19  1   
 38  16  43  1   
 39  16  44  1   
 40  17  19  1   
 41  17  45  1   
 42  17  46  1   
 43  18  47  1   
 44  18  48  1   
 45  19  20  1   
 46  20  21  ar  
 47  20  22  ar  
 48  21  23  ar  
 49  21  49  1   
 50  22  24  ar  
 51  22  50  1   
 52  23  25  ar  
 53  23  51  1   
 54  24  25  ar  
 55  24  52  1   
 56  25  53  1   
@<TRIPOS>SUBSTRUCTURE
  1 ****   6 GROUP 4 **** **** 0

# MOE 2024.06 (io_trps.svl 2023.06)
