@<TRIPOS>MOLECULE
NONAME
46 48 1 0 0 
SMALL
USER_CHARGES


@<TRIPOS>ATOM
  1 O       -1.6830     0.5320    -1.8290 O.2   1 <1>  -0.5700 
  2 C       -1.7270     0.8820    -0.6650 C.2   1 <1>   0.5440 
  3 N       -2.0170    -0.0660     0.2750 N.am  1 <1>  -0.7300 
  4 C       -1.4750     2.2610    -0.2840 C.ar  1 <1>   0.0860 
  5 C       -2.2930    -1.4920    -0.0090 C.3   1 <1>   0.2200 
  6 C       -0.7140     3.1010    -1.0980 C.ar  1 <1>  -0.1500 
  7 C       -1.9770     2.8080     0.8990 C.ar  1 <1>  -0.1500 
  8 C       -3.7940    -1.7230     0.0280 C.3   1 <1>  -0.0800 
  9 C       -1.8190    -2.3480     1.1590 C.3   1 <1>   0.1200 
 10 C       -0.4480     4.4160    -0.7570 C.ar  1 <1>  -0.1430 
 11 C       -1.7210     4.1190     1.2560 C.ar  1 <1>  -0.1500 
 12 C       -4.0540    -1.9270     1.5250 C.3   1 <1>   0.1200 
 13 C       -4.1970    -2.9500    -0.8110 C.3   1 <1>  -0.0160 
 14 O       -2.8400    -2.3020     2.1100 O.3   1 <1>  -0.5600 
 15 C       -0.9510     4.9350     0.4320 C.ar  1 <1>   0.0820 
 16 C        0.3900     5.2830    -1.6850 C.3   1 <1>  -0.0970 
 17 C       -5.7040    -3.1560    -0.8020 C.ar  1 <1>  -0.1430 
 18 O       -0.6660     6.2260     0.7310 O.3   1 <1>  -0.3630 
 19 C       -6.3050    -4.1600    -0.0700 C.ar  1 <1>  -0.1500 
 20 C       -6.5490    -2.3450    -1.5320 C.ar  1 <1>  -0.1500 
 21 C       -1.1370     6.8480     1.9050 C.3   1 <1>   0.0400 
 22 C       -7.6840    -4.2950    -0.0970 C.ar  1 <1>   0.1600 
 23 C       -7.9150    -2.5660    -1.4910 C.ar  1 <1>   0.1600 
 24 N       -8.5040    -3.5200    -0.7890 N.ar  1 <1>  -0.6200 
 25 H       -2.0300     0.1750     1.2680 H     1 <1>   0.3700 
 26 H       -1.8380    -1.7840    -0.9410 H     1 <1>   0.0800 
 27 H       -0.3270     2.7000    -2.0190 H     1 <1>   0.1500 
 28 H       -2.5830     2.2050     1.5490 H     1 <1>   0.1500 
 29 H       -4.3250    -0.8640    -0.3430 H     1 <1>   0.0800 
 30 H       -0.9010    -1.9900     1.5910 H     1 <1>   0.0800 
 31 H       -1.7020    -3.3740     0.8550 H     1 <1>   0.0800 
 32 H       -2.1280     4.4900     2.1770 H     1 <1>   0.1500 
 33 H       -4.7880    -2.6870     1.7260 H     1 <1>   0.0800 
 34 H       -4.3630    -1.0040     1.9840 H     1 <1>   0.0800 
 35 H       -3.7090    -3.8340    -0.4400 H     1 <1>   0.0800 
 36 H       -3.8770    -2.8050    -1.8290 H     1 <1>   0.0800 
 37 H        0.6990     4.7360    -2.5580 H     1 <1>   0.0800 
 38 H        1.2670     5.6270    -1.1670 H     1 <1>   0.0800 
 39 H       -0.1820     6.1370    -2.0000 H     1 <1>   0.0800 
 40 H       -5.7180    -4.8370     0.5230 H     1 <1>   0.1500 
 41 H       -6.1570    -1.5430    -2.1320 H     1 <1>   0.1500 
 42 H       -0.7810     7.8620     1.9110 H     1 <1>   0.0800 
 43 H       -0.7520     6.3210     2.7590 H     1 <1>   0.0800 
 44 H       -2.2130     6.8390     1.8970 H     1 <1>   0.0800 
 45 H       -8.1360    -5.0830     0.4810 H     1 <1>   0.1500 
 46 H       -8.5590    -1.9220    -2.0670 H     1 <1>   0.1500 
@<TRIPOS>BOND
  1   1   2  2   
  2   2   3  am  
  3   2   4  1   
  4   3   5  1   
  5   3  25  1   
  6   4   6  ar  
  7   4   7  ar  
  8   5   8  1   
  9   5   9  1   
 10   5  26  1   
 11   6  10  ar  
 12   6  27  1   
 13   7  11  ar  
 14   7  28  1   
 15   8  12  1   
 16   8  13  1   
 17   8  29  1   
 18   9  14  1   
 19   9  30  1   
 20   9  31  1   
 21  10  15  ar  
 22  10  16  1   
 23  11  15  ar  
 24  11  32  1   
 25  12  14  1   
 26  12  33  1   
 27  12  34  1   
 28  13  17  1   
 29  13  35  1   
 30  13  36  1   
 31  15  18  1   
 32  16  37  1   
 33  16  38  1   
 34  16  39  1   
 35  17  19  ar  
 36  17  20  ar  
 37  18  21  1   
 38  19  22  ar  
 39  19  40  1   
 40  20  23  ar  
 41  20  41  1   
 42  21  42  1   
 43  21  43  1   
 44  21  44  1   
 45  22  24  ar  
 46  22  45  1   
 47  23  24  ar  
 48  23  46  1   
@<TRIPOS>SUBSTRUCTURE
  1 ****   3 GROUP 4 **** **** 0

# MOE 2024.06 (io_trps.svl 2023.06)
