@<TRIPOS>MOLECULE
NONAME
48 51 1 0 0 
SMALL
USER_CHARGES


@<TRIPOS>ATOM
  1 CL      -0.5740     0.2100    -0.2680 Cl    1 <1>  -0.1770 
  2 C       -2.2290     0.6260     0.0870 C.ar  1 <1>   0.1770 
  3 C       -3.1790     0.5560    -0.9130 C.ar  1 <1>  -0.1500 
  4 C       -2.5720     1.0230     1.3650 C.ar  1 <1>  -0.1500 
  5 C       -4.4920     0.8860    -0.6260 C.ar  1 <1>  -0.1500 
  6 C       -3.8870     1.3490     1.6420 C.ar  1 <1>  -0.1500 
  7 C       -4.8770     1.2840     0.6580 C.ar  1 <1>   0.0530 
  8 C       -6.2440     1.6180     0.9680 C.2   1 <1>   0.0870 
  9 O       -6.5240     2.5060     1.8900 O.3   1 <1>  -0.0190 
 10 C       -7.4310     1.1690     0.4860 C.2   1 <1>  -0.0860 
 11 N       -7.8100     2.6870     2.0510 N.2   1 <1>  -0.4100 
 12 C       -8.3720     1.9020     1.2090 C.2   1 <1>   0.3720 
 13 C       -7.7290     0.1710    -0.4840 C.2   1 <1>   0.7160 
 14 N       -9.7510     1.8290     1.1070 N.pl3 1 <1>  -0.8520 
 15 O       -7.7790     0.4620    -1.6650 O.2   1 <1>  -0.5700 
 16 N       -7.9640    -1.1240    -0.1120 N.am  1 <1>  -0.5100 
 17 C      -10.3150     2.2750    -0.1980 C.3   1 <1>   0.2090 
 18 C       -8.7930    -2.1100    -0.8870 C.3   1 <1>   0.2250 
 19 C       -8.5920    -1.5920     1.1740 C.3   1 <1>   0.2250 
 20 C      -11.8310     2.4400    -0.0860 C.3   1 <1>   0.1200 
 21 C       -9.7550    -2.1570     0.3240 C.3   1 <1>   0.2250 
 22 O      -12.3490     2.6420    -1.3610 O.3   1 <1>  -0.5600 
 23 N      -10.2510    -3.5010     0.6980 N.am  1 <1>  -0.6550 
 24 C      -11.0250    -1.2910     0.2210 C.3   1 <1>   0.1400 
 25 C      -13.7270     2.8370    -1.3890 C.3   1 <1>   0.0400 
 26 C      -11.5900    -3.5150     0.6610 C.2   1 <1>   0.6900 
 27 N      -12.0930    -2.2810     0.4890 N.am  1 <1>  -0.7300 
 28 O      -12.2570    -4.5240     0.6730 O.2   1 <1>  -0.5700 
 29 H       -2.8900     0.2490    -1.9020 H     1 <1>   0.1500 
 30 H       -1.8160     1.0740     2.1280 H     1 <1>   0.1500 
 31 H       -5.2210     0.8410    -1.4160 H     1 <1>   0.1500 
 32 H       -4.1540     1.6580     2.6390 H     1 <1>   0.1500 
 33 H      -10.1260     2.4260     1.8550 H     1 <1>   0.4000 
 34 H      -10.0990     1.5390    -0.9520 H     1 <1>   0.0800 
 35 H       -9.8700     3.2120    -0.4890 H     1 <1>   0.0800 
 36 H       -8.2470    -3.0230    -1.0500 H     1 <1>   0.0000 
 37 H       -9.2210    -1.6810    -1.7760 H     1 <1>   0.0000 
 38 H       -8.8690    -0.7800     1.8210 H     1 <1>   0.0000 
 39 H       -7.9840    -2.3460     1.6430 H     1 <1>   0.0000 
 40 H      -12.0700     3.2940     0.5250 H     1 <1>   0.0800 
 41 H      -12.2750     1.5490     0.3220 H     1 <1>   0.0800 
 42 H       -9.7450    -4.3550     0.4680 H     1 <1>   0.3700 
 43 H      -11.1360    -0.8560    -0.7570 H     1 <1>   0.0800 
 44 H      -11.0360    -0.5210     0.9720 H     1 <1>   0.0800 
 45 H      -14.0230     2.9790    -2.4140 H     1 <1>   0.0800 
 46 H      -13.9750     3.7130    -0.8160 H     1 <1>   0.0800 
 47 H      -14.2190     1.9680    -0.9880 H     1 <1>   0.0800 
 48 H      -13.0540    -2.1710     0.1620 H     1 <1>   0.3700 
@<TRIPOS>BOND
  1   1   2  1   
  2   2   3  ar  
  3   2   4  ar  
  4   3   5  ar  
  5   3  29  1   
  6   4   6  ar  
  7   4  30  1   
  8   5   7  ar  
  9   5  31  1   
 10   6   7  ar  
 11   6  32  1   
 12   7   8  1   
 13   8   9  1   
 14   8  10  2   
 15   9  11  1   
 16  10  12  1   
 17  10  13  1   
 18  11  12  2   
 19  12  14  1   
 20  13  15  2   
 21  13  16  am  
 22  14  17  1   
 23  14  33  1   
 24  16  18  1   
 25  16  19  1   
 26  17  20  1   
 27  17  34  1   
 28  17  35  1   
 29  18  21  1   
 30  18  36  1   
 31  18  37  1   
 32  19  21  1   
 33  19  38  1   
 34  19  39  1   
 35  20  22  1   
 36  20  40  1   
 37  20  41  1   
 38  21  23  1   
 39  21  24  1   
 40  22  25  1   
 41  23  26  am  
 42  23  42  1   
 43  24  27  1   
 44  24  43  1   
 45  24  44  1   
 46  25  45  1   
 47  25  46  1   
 48  25  47  1   
 49  26  27  am  
 50  26  28  2   
 51  27  48  1   
@<TRIPOS>SUBSTRUCTURE
  1 ****  13 GROUP 4 **** **** 0

# MOE 2024.06 (io_trps.svl 2023.06)
