@<TRIPOS>MOLECULE
NONAME
51 53 1 0 0 
SMALL
USER_CHARGES


@<TRIPOS>ATOM
  1 O       -1.4010     0.5160    -1.3100 O.2   1 <1>  -0.5700 
  2 C       -1.8170     1.5960    -0.9310 C.2   1 <1>   0.6900 
  3 N       -0.9690     2.5230    -0.3810 N.am  1 <1>  -0.6600 
  4 N       -3.1320     1.8950    -1.0690 N.am  1 <1>  -0.7300 
  5 C        0.5060     2.3320    -0.4720 C.3   1 <1>   0.1400 
  6 C       -1.4140     3.5760     0.5720 C.3   1 <1>   0.1400 
  7 C       -4.1380     0.9970    -1.6620 C.3   1 <1>   0.1400 
  8 C        1.1810     3.6620    -0.8140 C.3   1 <1>  -0.1600 
  9 C       -0.7490     4.9060     0.2160 C.3   1 <1>  -0.1600 
 10 C       -5.4930     1.3010    -1.0340 C.3   1 <1>  -0.2400 
 11 C        0.7700     4.7470     0.1780 C.3   1 <1>   0.2890 
 12 N        1.3760     6.0230    -0.2350 N.pl3 1 <1>  -0.8690 
 13 C        1.7840     6.9390     0.6960 C.ar  1 <1>   0.4100 
 14 N        1.2880     8.1410     0.5000 N.ar  1 <1>  -0.6200 
 15 C        2.6450     6.6250     1.7580 C.ar  1 <1>   0.1600 
 16 C        1.6690     9.0410     1.4260 C.ar  1 <1>   0.3960 
 17 N        3.0290     7.4750     2.6870 N.ar  1 <1>  -0.6200 
 18 C        1.2130    10.4320     1.3730 C.2   1 <1>   0.5440 
 19 C        2.5110     8.6790     2.4840 C.ar  1 <1>   0.1600 
 20 O        1.0470    11.0340     2.4220 O.2   1 <1>  -0.5700 
 21 N        0.9820    11.1320     0.2010 N.am  1 <1>  -0.6600 
 22 C        1.2340    10.6370    -1.1720 C.3   1 <1>   0.1400 
 23 C        0.6200    12.5660     0.1830 C.3   1 <1>   0.1400 
 24 C        0.9020    11.8110    -2.0880 C.3   1 <1>  -0.1600 
 25 C        1.0230    13.0480    -1.2040 C.3   1 <1>  -0.1600 
 26 H       -3.3940     2.8720    -0.9880 H     1 <1>   0.3700 
 27 H        0.7450     1.6080    -1.2340 H     1 <1>   0.0800 
 28 H        0.8690     1.9570     0.4690 H     1 <1>   0.0800 
 29 H       -1.1300     3.2810     1.5680 H     1 <1>   0.0800 
 30 H       -2.4830     3.6890     0.5560 H     1 <1>   0.0800 
 31 H       -3.8650    -0.0290    -1.4750 H     1 <1>   0.0800 
 32 H       -4.1730     1.1530    -2.7270 H     1 <1>   0.0800 
 33 H        0.8990     3.9470    -1.8110 H     1 <1>   0.0800 
 34 H        2.2480     3.5340    -0.7860 H     1 <1>   0.0800 
 35 H       -1.0160     5.6430     0.9520 H     1 <1>   0.0800 
 36 H       -1.1130     5.2310    -0.7430 H     1 <1>   0.0800 
 37 H       -5.4520     1.1430     0.0290 H     1 <1>   0.0800 
 38 H       -6.2360     0.6420    -1.4460 H     1 <1>   0.0800 
 39 H       -5.7860     2.3150    -1.2390 H     1 <1>   0.0800 
 40 H        1.1190     4.4740     1.1600 H     1 <1>   0.0800 
 41 H        0.8320     6.4770    -0.9730 H     1 <1>   0.4000 
 42 H        3.0210     5.6220     1.8170 H     1 <1>   0.1500 
 43 H        2.7690     9.4390     3.2020 H     1 <1>   0.1500 
 44 H        0.6080     9.7900    -1.3960 H     1 <1>   0.0800 
 45 H        2.2700    10.3600    -1.2670 H     1 <1>   0.0800 
 46 H        1.1350    13.1100     0.9580 H     1 <1>   0.0800 
 47 H       -0.4440    12.6590     0.3240 H     1 <1>   0.0800 
 48 H       -0.1120    11.7070    -2.4320 H     1 <1>   0.0800 
 49 H        1.5580    11.8500    -2.9400 H     1 <1>   0.0800 
 50 H        2.0470    13.3790    -1.1730 H     1 <1>   0.0800 
 51 H        0.4020    13.8590    -1.5420 H     1 <1>   0.0800 
@<TRIPOS>BOND
  1   1   2  2   
  2   2   3  am  
  3   2   4  am  
  4   3   5  1   
  5   3   6  1   
  6   4   7  1   
  7   4  26  1   
  8   5   8  1   
  9   5  27  1   
 10   5  28  1   
 11   6   9  1   
 12   6  29  1   
 13   6  30  1   
 14   7  10  1   
 15   7  31  1   
 16   7  32  1   
 17   8  11  1   
 18   8  33  1   
 19   8  34  1   
 20   9  11  1   
 21   9  35  1   
 22   9  36  1   
 23  10  37  1   
 24  10  38  1   
 25  10  39  1   
 26  11  12  1   
 27  11  40  1   
 28  12  13  1   
 29  12  41  1   
 30  13  14  ar  
 31  13  15  ar  
 32  14  16  ar  
 33  15  17  ar  
 34  15  42  1   
 35  16  18  1   
 36  16  19  ar  
 37  17  19  ar  
 38  18  20  2   
 39  18  21  am  
 40  19  43  1   
 41  21  22  1   
 42  21  23  1   
 43  22  24  1   
 44  22  44  1   
 45  22  45  1   
 46  23  25  1   
 47  23  46  1   
 48  23  47  1   
 49  24  25  1   
 50  24  48  1   
 51  24  49  1   
 52  25  50  1   
 53  25  51  1   
@<TRIPOS>SUBSTRUCTURE
  1 ****  12 GROUP 4 **** **** 0

# MOE 2024.06 (io_trps.svl 2023.06)
