@<TRIPOS>MOLECULE
NONAME
31 31 1 0 0 
SMALL
USER_CHARGES


@<TRIPOS>ATOM
  1 O       -0.5660     0.5080    -0.1110 O.2   1 <1>  -0.5700 
  2 C       -1.6820     0.0920     0.0230 C.2   1 <1>   0.6590 
  3 O       -2.6850     0.8160     0.4780 O.3   1 <1>  -0.4300 
  4 C       -2.1300    -1.3030    -0.3160 C.3   1 <1>  -0.0990 
  5 C       -3.8900     0.0850     0.5800 C.3   1 <1>   0.2000 
  6 C       -3.6510    -1.1790    -0.2590 C.3   1 <1>  -0.1600 
  7 C       -5.0780     0.9550     0.1200 C.3   1 <1>   0.2000 
  8 O       -5.0270     2.1630     0.7940 O.3   1 <1>  -0.6800 
  9 C       -6.4410     0.2980     0.3900 C.3   1 <1>  -0.1600 
 10 C       -7.6240     1.1390    -0.1190 C.3   1 <1>  -0.1600 
 11 C       -8.9570     0.4170     0.1120 C.3   1 <1>  -0.1600 
 12 C      -10.1350     1.2580    -0.3930 C.3   1 <1>  -0.1600 
 13 C      -11.4660     0.5380    -0.1620 C.3   1 <1>  -0.2400 
 14 H       -1.7620    -1.9800     0.4330 H     1 <1>   0.0800 
 15 H       -1.7780    -1.5940    -1.2890 H     1 <1>   0.0800 
 16 H       -4.0120    -0.1800     1.6170 H     1 <1>   0.0800 
 17 H       -4.1180    -2.0430     0.1810 H     1 <1>   0.0800 
 18 H       -4.0420    -1.0400    -1.2520 H     1 <1>   0.0800 
 19 H       -4.9800     1.1670    -0.9310 H     1 <1>   0.0800 
 20 H       -4.1050     2.4970     0.7730 H     1 <1>   0.4000 
 21 H       -6.5470     0.1270     1.4480 H     1 <1>   0.0800 
 22 H       -6.4680    -0.6590    -0.1000 H     1 <1>   0.0800 
 23 H       -7.4990     1.3360    -1.1690 H     1 <1>   0.0800 
 24 H       -7.6380     2.0850     0.3970 H     1 <1>   0.0800 
 25 H       -9.0820     0.2260     1.1650 H     1 <1>   0.0800 
 26 H       -8.9490    -0.5290    -0.4020 H     1 <1>   0.0800 
 27 H      -10.0160     1.4550    -1.4450 H     1 <1>   0.0800 
 28 H      -10.1500     2.2040     0.1230 H     1 <1>   0.0800 
 29 H      -11.4820    -0.4010    -0.6870 H     1 <1>   0.0800 
 30 H      -12.2800     1.1440    -0.5210 H     1 <1>   0.0800 
 31 H      -11.6160     0.3520     0.8870 H     1 <1>   0.0800 
@<TRIPOS>BOND
  1   1   2  2   
  2   2   3  1   
  3   2   4  1   
  4   3   5  1   
  5   4   6  1   
  6   4  14  1   
  7   4  15  1   
  8   5   6  1   
  9   5   7  1   
 10   5  16  1   
 11   6  17  1   
 12   6  18  1   
 13   7   8  1   
 14   7   9  1   
 15   7  19  1   
 16   8  20  1   
 17   9  10  1   
 18   9  21  1   
 19   9  22  1   
 20  10  11  1   
 21  10  23  1   
 22  10  24  1   
 23  11  12  1   
 24  11  25  1   
 25  11  26  1   
 26  12  13  1   
 27  12  27  1   
 28  12  28  1   
 29  13  29  1   
 30  13  30  1   
 31  13  31  1   
@<TRIPOS>SUBSTRUCTURE
  1 ****   7 GROUP 4 **** **** 0

# MOE 2024.06 (io_trps.svl 2023.06)
