@<TRIPOS>MOLECULE
NONAME
41 42 1 0 0 
SMALL
USER_CHARGES


@<TRIPOS>ATOM
  1 S       -0.1950     0.2110    -0.4990 S.o2  1 <1>   1.3330 
  2 O       -0.7710    -1.1150    -0.5160 O.2   1 <1>  -0.6500 
  3 O       -0.1980     0.9880    -1.7190 O.2   1 <1>  -0.6500 
  4 N        1.3990     0.0700     0.0720 N.am  1 <1>  -0.8490 
  5 C       -1.0260     1.1320     0.8060 C.3   1 <1>  -0.0550 
  6 C        2.4100     0.5710    -0.8650 C.3   1 <1>   0.1160 
  7 C        1.7540    -1.2680     0.5510 C.3   1 <1>   0.1160 
  8 C       -0.7700     2.6520     0.9500 C.3   1 <1>  -0.0800 
  9 C       -1.1030     3.4730    -0.3070 C.3   1 <1>   0.2000 
 10 C        0.6590     3.0650     1.3490 C.3   1 <1>   0.2090 
 11 O       -1.8840     4.5460     0.0960 O.3   1 <1>  -0.6800 
 12 C        0.2380     4.0280    -0.7820 C.3   1 <1>   0.2090 
 13 N        1.0050     4.2100     0.4700 N.pl3 1 <1>  -0.8380 
 14 C        2.3270     4.5990     0.3440 C.ar  1 <1>   0.4100 
 15 N        3.2110     3.6340     0.1190 N.ar  1 <1>  -0.6200 
 16 C        2.6700     5.9550     0.4440 C.ar  1 <1>  -0.1440 
 17 C        4.4690     4.0190    -0.0080 C.ar  1 <1>   0.1600 
 18 C        3.9880     6.3290     0.3040 C.ar  1 <1>  -0.1500 
 19 C        1.6110     7.0180     0.7080 C.3   1 <1>  -0.0970 
 20 C        4.9070     5.3270     0.0730 C.ar  1 <1>  -0.1500 
 21 H       -2.0820     1.0120     0.6530 H     1 <1>   0.0800 
 22 H       -0.8010     0.6620     1.7430 H     1 <1>   0.0800 
 23 H        3.3830     0.5590    -0.4050 H     1 <1>   0.0800 
 24 H        2.1890     1.5870    -1.1430 H     1 <1>   0.0800 
 25 H        2.4270    -0.0320    -1.7570 H     1 <1>   0.0800 
 26 H        2.7420    -1.2600     0.9790 H     1 <1>   0.0800 
 27 H        1.7250    -1.9750    -0.2620 H     1 <1>   0.0800 
 28 H        1.0570    -1.5860     1.3080 H     1 <1>   0.0800 
 29 H       -1.4150     2.9720     1.7500 H     1 <1>   0.0800 
 30 H       -1.6370     2.9360    -1.0710 H     1 <1>   0.0800 
 31 H        1.3640     2.2670     1.2110 H     1 <1>   0.0800 
 32 H        0.6950     3.3770     2.3780 H     1 <1>   0.0800 
 33 H       -1.3130     5.1260     0.6420 H     1 <1>   0.4000 
 34 H        0.1230     4.9540    -1.3180 H     1 <1>   0.0800 
 35 H        0.7420     3.3150    -1.4100 H     1 <1>   0.0800 
 36 H        5.1950     3.2460    -0.1880 H     1 <1>   0.1500 
 37 H        4.2990     7.3560     0.3730 H     1 <1>   0.1500 
 38 H        2.0560     7.9870     0.8360 H     1 <1>   0.0800 
 39 H        1.0650     6.7700     1.6010 H     1 <1>   0.0800 
 40 H        0.9230     7.0590    -0.1160 H     1 <1>   0.0800 
 41 H        5.9490     5.5590    -0.0430 H     1 <1>   0.1500 
@<TRIPOS>BOND
  1   1   2  2   
  2   1   3  2   
  3   1   4  am  
  4   1   5  1   
  5   4   6  1   
  6   4   7  1   
  7   5   8  1   
  8   5  21  1   
  9   5  22  1   
 10   6  23  1   
 11   6  24  1   
 12   6  25  1   
 13   7  26  1   
 14   7  27  1   
 15   7  28  1   
 16   8   9  1   
 17   8  10  1   
 18   8  29  1   
 19   9  11  1   
 20   9  12  1   
 21   9  30  1   
 22  10  13  1   
 23  10  31  1   
 24  10  32  1   
 25  11  33  1   
 26  12  13  1   
 27  12  34  1   
 28  12  35  1   
 29  13  14  1   
 30  14  15  ar  
 31  14  16  ar  
 32  15  17  ar  
 33  16  18  ar  
 34  16  19  1   
 35  17  20  ar  
 36  17  36  1   
 37  18  20  ar  
 38  18  37  1   
 39  19  38  1   
 40  19  39  1   
 41  19  40  1   
 42  20  41  1   
@<TRIPOS>SUBSTRUCTURE
  1 ****  13 GROUP 4 **** **** 0

# MOE 2024.06 (io_trps.svl 2023.06)
