@<TRIPOS>MOLECULE
NONAME
48 50 1 0 0 
SMALL
USER_CHARGES


@<TRIPOS>ATOM
  1 O        0.7420     0.0190     3.1070 O.2   1 <1>  -0.5700 
  2 C        1.2160    -0.3290     2.0540 C.2   1 <1>   0.5690 
  3 N        1.7770     0.5350     1.1530 N.am  1 <1>  -0.4940 
  4 C        1.2030    -1.8120     1.7160 C.3   1 <1>   0.0820 
  5 C        2.0790     1.9130     1.2090 C.2   1 <1>  -0.0880 
  6 C        1.5980    -2.0870     0.2690 C.2   1 <1>  -0.1810 
  7 N        1.3970     2.9090     1.8340 N.pl3 1 <1>   0.3140 
  8 C        3.1530     2.4910     0.6030 C.2   1 <1>  -0.0540 
  9 C        0.8160    -2.2740    -0.8070 C.2   1 <1>  -0.0400 
 10 C        2.8900    -2.1670    -0.2550 C.2   1 <1>   0.1080 
 11 N        1.9900     4.1070     1.6400 N.2   1 <1>  -0.7070 
 12 C        0.1400     2.8340     2.5900 C.3   1 <1>   0.0160 
 13 C        4.1930     1.8380    -0.1510 C.ar  1 <1>   0.0540 
 14 C        3.0260     3.8500     0.9110 C.2   1 <1>   0.1080 
 15 O        1.5920    -2.4400    -1.8430 O.3   1 <1>  -0.0190 
 16 C       -0.6860    -2.3040    -1.0000 C.3   1 <1>  -0.0600 
 17 N        2.8500    -2.3730    -1.5220 N.2   1 <1>  -0.4100 
 18 C        4.1840    -2.0270     0.5210 C.3   1 <1>  -0.0590 
 19 C        5.5200     1.9030     0.2630 C.ar  1 <1>  -0.1500 
 20 C        3.9010     1.0990    -1.2950 C.ar  1 <1>  -0.1500 
 21 C        3.9710     4.9390     0.4560 C.3   1 <1>  -0.0590 
 22 C        6.5240     1.2500    -0.4300 C.ar  1 <1>  -0.1500 
 23 C        4.8960     0.4390    -1.9890 C.ar  1 <1>  -0.1500 
 24 C        6.2130     0.5070    -1.5660 C.ar  1 <1>   0.0830 
 25 O        7.1300    -0.1710    -2.3000 O.3   1 <1>  -0.3630 
 26 C        8.5000    -0.1480    -1.9660 C.3   1 <1>   0.0400 
 27 H        2.1680     0.0640     0.3310 H     1 <1>   0.3700 
 28 H        0.2140    -2.1890     1.9000 H     1 <1>   0.0800 
 29 H        1.8730    -2.3230     2.3810 H     1 <1>   0.0800 
 30 H       -0.5140     2.1200     2.1270 H     1 <1>   0.0800 
 31 H       -0.3270     3.8010     2.5960 H     1 <1>   0.0800 
 32 H        0.3570     2.5330     3.5980 H     1 <1>   0.0800 
 33 H       -1.1950    -2.1310    -0.0700 H     1 <1>   0.0800 
 34 H       -0.9820    -3.2630    -1.3860 H     1 <1>   0.0800 
 35 H       -0.9760    -1.5430    -1.7020 H     1 <1>   0.0800 
 36 H        4.2180    -1.0800     1.0270 H     1 <1>   0.0800 
 37 H        5.0210    -2.0820    -0.1530 H     1 <1>   0.0800 
 38 H        4.2690    -2.8200     1.2400 H     1 <1>   0.0800 
 39 H        5.7610     2.4680     1.1460 H     1 <1>   0.1500 
 40 H        2.8840     1.0400    -1.6420 H     1 <1>   0.1500 
 41 H        4.4150     4.6800    -0.4870 H     1 <1>   0.0800 
 42 H        4.7430     5.0750     1.1900 H     1 <1>   0.0800 
 43 H        3.4310     5.8610     0.3440 H     1 <1>   0.0800 
 44 H        7.5330     1.3280    -0.0740 H     1 <1>   0.1500 
 45 H        4.6560    -0.1400    -2.8640 H     1 <1>   0.1500 
 46 H        9.0280    -0.7460    -2.6860 H     1 <1>   0.0800 
 47 H        8.6270    -0.5630    -0.9820 H     1 <1>   0.0800 
 48 H        8.8520     0.8680    -2.0060 H     1 <1>   0.0800 
@<TRIPOS>BOND
  1   1   2  2   
  2   2   3  am  
  3   2   4  1   
  4   3   5  1   
  5   3  27  1   
  6   4   6  1   
  7   4  28  1   
  8   4  29  1   
  9   5   7  1   
 10   5   8  2   
 11   6   9  2   
 12   6  10  1   
 13   7  11  1   
 14   7  12  1   
 15   8  13  1   
 16   8  14  1   
 17   9  15  1   
 18   9  16  1   
 19  10  17  2   
 20  10  18  1   
 21  11  14  2   
 22  12  30  1   
 23  12  31  1   
 24  12  32  1   
 25  13  19  ar  
 26  13  20  ar  
 27  14  21  1   
 28  15  17  1   
 29  16  33  1   
 30  16  34  1   
 31  16  35  1   
 32  18  36  1   
 33  18  37  1   
 34  18  38  1   
 35  19  22  ar  
 36  19  39  1   
 37  20  23  ar  
 38  20  40  1   
 39  21  41  1   
 40  21  42  1   
 41  21  43  1   
 42  22  24  ar  
 43  22  44  1   
 44  23  24  ar  
 45  23  45  1   
 46  24  25  1   
 47  25  26  1   
 48  26  46  1   
 49  26  47  1   
 50  26  48  1   
@<TRIPOS>SUBSTRUCTURE
  1 ****   3 GROUP 4 **** **** 0

# MOE 2024.06 (io_trps.svl 2023.06)
