@<TRIPOS>MOLECULE
NONAME
46 48 1 0 0 
SMALL
USER_CHARGES


@<TRIPOS>ATOM
  1 S       -1.7890    -1.1350     0.5930 S.3   1 <1>  -0.0800 
  2 C       -2.0270    -2.8730     0.4900 C.2   1 <1>  -0.1400 
  3 C       -3.4800    -0.8330     0.2370 C.2   1 <1>  -0.1100 
  4 C       -3.3150    -3.1510     0.2040 C.2   1 <1>  -0.1500 
  5 C       -0.8000    -3.7340     0.7310 C.3   1 <1>   0.3200 
  6 C       -4.1410    -1.9910     0.0600 C.2   1 <1>  -0.1500 
  7 N       -1.1560    -5.1550     0.5980 N.am  1 <1>  -0.7300 
  8 C       -0.3930    -6.1120     0.0230 C.2   1 <1>   0.5690 
  9 O        0.7350    -5.8970    -0.3520 O.2   1 <1>  -0.5700 
 10 C       -0.9990    -7.5080    -0.1500 C.3   1 <1>   0.1710 
 11 N       -2.4890    -7.5150    -0.2920 N.3   1 <1>  -0.8100 
 12 C       -3.0110    -8.8820    -0.0680 C.3   1 <1>   0.2530 
 13 C       -2.8690    -6.9810    -1.6210 C.3   1 <1>   0.1100 
 14 C       -4.4410    -8.8560     0.4500 C.ar  1 <1>  -0.1430 
 15 C       -4.3250    -6.4960    -1.6750 C.3   1 <1>  -0.1600 
 16 C       -5.5070    -8.8210    -0.4370 C.ar  1 <1>   0.0830 
 17 C       -4.6950    -8.8750     1.8130 C.ar  1 <1>  -0.1500 
 18 C       -5.3010    -7.4820    -2.3430 C.3   1 <1>   0.1200 
 19 O       -5.2290    -8.7640    -1.7620 O.3   1 <1>  -0.3630 
 20 C       -6.8260    -8.8260     0.0230 C.ar  1 <1>   0.0830 
 21 C       -5.9970    -8.8740     2.2820 C.ar  1 <1>  -0.1500 
 22 O       -7.8340    -8.7990    -0.8980 O.3   1 <1>  -0.3630 
 23 C       -7.0600    -8.8530     1.3950 C.ar  1 <1>  -0.1500 
 24 C       -9.1780    -8.9910    -0.5190 C.3   1 <1>   0.0400 
 25 H       -3.8020     0.1920     0.1980 H     1 <1>   0.1500 
 26 H       -3.7330    -4.1340     0.0850 H     1 <1>   0.1500 
 27 H       -0.4210    -3.5550     1.7220 H     1 <1>   0.0800 
 28 H       -0.0320    -3.4810     0.0190 H     1 <1>   0.0800 
 29 H       -5.1880    -2.0850    -0.1680 H     1 <1>   0.1500 
 30 H       -2.1230    -5.4090     0.8160 H     1 <1>   0.3700 
 31 H       -0.7190    -8.0680     0.7240 H     1 <1>   0.0800 
 32 H       -0.5470    -7.9800    -1.0040 H     1 <1>   0.0800 
 33 H       -2.4120    -9.3860     0.6690 H     1 <1>   0.0800 
 34 H       -2.9500    -9.4610    -0.9750 H     1 <1>   0.0800 
 35 H       -2.6870    -7.7140    -2.3900 H     1 <1>   0.0800 
 36 H       -2.2490    -6.1280    -1.8430 H     1 <1>   0.0800 
 37 H       -4.3510    -5.5930    -2.2560 H     1 <1>   0.0800 
 38 H       -4.6710    -6.2380    -0.6890 H     1 <1>   0.0800 
 39 H       -3.8770    -8.8890     2.5120 H     1 <1>   0.1500 
 40 H       -5.0620    -7.5950    -3.3860 H     1 <1>   0.0800 
 41 H       -6.3150    -7.1310    -2.2580 H     1 <1>   0.0800 
 42 H       -6.1830    -8.8900     3.3420 H     1 <1>   0.1500 
 43 H       -8.0560    -8.8540     1.7920 H     1 <1>   0.1500 
 44 H       -9.7760    -9.0080    -1.4130 H     1 <1>   0.0800 
 45 H       -9.4840    -8.1740     0.1090 H     1 <1>   0.0800 
 46 H       -9.2640    -9.9310    -0.0040 H     1 <1>   0.0800 
@<TRIPOS>BOND
  1   1   2  1   
  2   1   3  1   
  3   2   4  2   
  4   2   5  1   
  5   3   6  2   
  6   3  25  1   
  7   4   6  1   
  8   4  26  1   
  9   5   7  1   
 10   5  27  1   
 11   5  28  1   
 12   6  29  1   
 13   7   8  am  
 14   7  30  1   
 15   8   9  2   
 16   8  10  1   
 17  10  11  1   
 18  10  31  1   
 19  10  32  1   
 20  11  12  1   
 21  11  13  1   
 22  12  14  1   
 23  12  33  1   
 24  12  34  1   
 25  13  15  1   
 26  13  35  1   
 27  13  36  1   
 28  14  16  ar  
 29  14  17  ar  
 30  15  18  1   
 31  15  37  1   
 32  15  38  1   
 33  16  19  1   
 34  16  20  ar  
 35  17  21  ar  
 36  17  39  1   
 37  18  19  1   
 38  18  40  1   
 39  18  41  1   
 40  20  22  1   
 41  20  23  ar  
 42  21  23  ar  
 43  21  42  1   
 44  22  24  1   
 45  23  43  1   
 46  24  44  1   
 47  24  45  1   
 48  24  46  1   
@<TRIPOS>SUBSTRUCTURE
  1 ****  15 GROUP 4 **** **** 0

# MOE 2024.06 (io_trps.svl 2023.06)
