@<TRIPOS>MOLECULE
NONAME
56 58 1 0 0 
SMALL
USER_CHARGES


@<TRIPOS>ATOM
  1 O        1.5720    -0.3820     2.4100 O.2   1 <1>  -0.5700 
  2 C        1.3340    -0.3470     1.2250 C.2   1 <1>   0.5690 
  3 N        0.8310     0.8280     0.7580 N.am  1 <1>  -0.7300 
  4 C        1.5870    -1.6070     0.3150 C.3   1 <1>   0.3310 
  5 C        0.5250     1.2460    -0.6240 C.3   1 <1>   0.4000 
  6 N        0.3340    -1.9420    -0.4520 N.3   1 <1>  -0.8100 
  7 C        1.9790    -2.8510     1.1710 C.3   1 <1>  -0.1600 
  8 C        2.7470    -1.2520    -0.6630 C.3   1 <1>  -0.1600 
  9 C        1.7370     1.8770    -1.3130 C.2   1 <1>   0.0070 
 10 C       -0.6400     2.2280    -0.5670 C.3   1 <1>  -0.2400 
 11 C       -0.8530    -2.2460     0.3710 C.3   1 <1>   0.1100 
 12 C        0.4250    -2.8400    -1.6300 C.3   1 <1>   0.1100 
 13 C        3.4670    -2.8610     1.5560 C.3   1 <1>  -0.1600 
 14 C        3.7270    -2.4000    -0.9620 C.3   1 <1>  -0.1600 
 15 N        2.0130     1.6420    -2.5530 N.2   1 <1>  -0.3380 
 16 N        2.6380     2.7120    -0.7660 N.pl3 1 <1>   0.0480 
 17 C       -2.1500    -2.1660    -0.4670 C.3   1 <1>   0.1200 
 18 C       -0.9430    -3.4020    -2.0800 C.3   1 <1>   0.1200 
 19 C        4.3820    -2.9350     0.3220 C.3   1 <1>  -0.1600 
 20 N        3.1230     2.3110    -2.8510 N.2   1 <1>  -0.3380 
 21 C        3.4770     2.9320    -1.7820 C.2   1 <1>   0.0360 
 22 C        2.7490     3.2820     0.6050 C.3   1 <1>   0.1760 
 23 O       -1.9740    -2.4950    -1.8220 O.3   1 <1>  -0.5600 
 24 C        3.0000     4.7950     0.5520 C.3   1 <1>  -0.2400 
 25 C        3.8620     2.5710     1.3840 C.3   1 <1>  -0.2400 
 26 H        0.6160     1.5140     1.4750 H     1 <1>   0.3700 
 27 H        0.2160     0.3950    -1.2050 H     1 <1>   0.0800 
 28 H        1.7790    -3.7560     0.6310 H     1 <1>   0.0800 
 29 H        1.3850    -2.8780     2.0670 H     1 <1>   0.0800 
 30 H        3.3320    -0.4620    -0.2280 H     1 <1>   0.0800 
 31 H        2.3550    -0.8650    -1.5840 H     1 <1>   0.0800 
 32 H       -0.3780     3.1090    -0.0110 H     1 <1>   0.0800 
 33 H       -1.4980     1.7560    -0.1230 H     1 <1>   0.0800 
 34 H       -0.8990     2.5230    -1.5680 H     1 <1>   0.0800 
 35 H       -0.9360    -1.5610     1.1950 H     1 <1>   0.0800 
 36 H       -0.7610    -3.2370     0.7800 H     1 <1>   0.0800 
 37 H        1.0680    -3.6740    -1.4230 H     1 <1>   0.0800 
 38 H        0.8510    -2.2930    -2.4530 H     1 <1>   0.0800 
 39 H        3.6710    -3.6940     2.2060 H     1 <1>   0.0800 
 40 H        3.6900    -1.9630     2.1080 H     1 <1>   0.0800 
 41 H        4.4910    -2.0550    -1.6380 H     1 <1>   0.0800 
 42 H        3.2080    -3.2000    -1.4540 H     1 <1>   0.0800 
 43 H       -2.5330    -1.1620    -0.4380 H     1 <1>   0.0800 
 44 H       -2.8950    -2.8230    -0.0570 H     1 <1>   0.0800 
 45 H       -1.1630    -4.3170    -1.5590 H     1 <1>   0.0800 
 46 H       -0.9320    -3.6040    -3.1360 H     1 <1>   0.0800 
 47 H        4.6780    -3.9560     0.1540 H     1 <1>   0.0800 
 48 H        5.2770    -2.3720     0.5270 H     1 <1>   0.0800 
 49 H        4.3450     3.5590    -1.7050 H     1 <1>   0.1500 
 50 H        1.8180     3.1280     1.1150 H     1 <1>   0.0800 
 51 H        3.9570     5.0160     0.1150 H     1 <1>   0.0800 
 52 H        2.9860     5.2010     1.5480 H     1 <1>   0.0800 
 53 H        2.2280     5.2800    -0.0190 H     1 <1>   0.0800 
 54 H        4.8160     2.7170     0.9090 H     1 <1>   0.0800 
 55 H        3.6580     1.5170     1.4460 H     1 <1>   0.0800 
 56 H        3.9160     2.9580     2.3860 H     1 <1>   0.0800 
@<TRIPOS>BOND
  1   1   2  2   
  2   2   3  am  
  3   2   4  1   
  4   3   5  1   
  5   3  26  1   
  6   4   6  1   
  7   4   7  1   
  8   4   8  1   
  9   5   9  1   
 10   5  10  1   
 11   5  27  1   
 12   6  11  1   
 13   6  12  1   
 14   7  13  1   
 15   7  28  1   
 16   7  29  1   
 17   8  14  1   
 18   8  30  1   
 19   8  31  1   
 20   9  15  2   
 21   9  16  1   
 22  10  32  1   
 23  10  33  1   
 24  10  34  1   
 25  11  17  1   
 26  11  35  1   
 27  11  36  1   
 28  12  18  1   
 29  12  37  1   
 30  12  38  1   
 31  13  19  1   
 32  13  39  1   
 33  13  40  1   
 34  14  19  1   
 35  14  41  1   
 36  14  42  1   
 37  15  20  1   
 38  16  21  1   
 39  16  22  1   
 40  17  23  1   
 41  17  43  1   
 42  17  44  1   
 43  18  23  1   
 44  18  45  1   
 45  18  46  1   
 46  19  47  1   
 47  19  48  1   
 48  20  21  2   
 49  21  49  1   
 50  22  24  1   
 51  22  25  1   
 52  22  50  1   
 53  24  51  1   
 54  24  52  1   
 55  24  53  1   
 56  25  54  1   
 57  25  55  1   
 58  25  56  1   
@<TRIPOS>SUBSTRUCTURE
  1 ****   2 GROUP 4 **** **** 0

# MOE 2024.06 (io_trps.svl 2023.06)
