@<TRIPOS>MOLECULE
NONAME
48 50 1 0 0 
SMALL
USER_CHARGES


@<TRIPOS>ATOM
  1 O       -0.2020     0.7340    -0.6310 O.2   1 <1>  -0.5700 
  2 C       -0.1430     1.8960    -0.3190 C.2   1 <1>   0.5690 
  3 N       -1.2180     2.5280     0.1970 N.am  1 <1>  -0.7300 
  4 C        1.1490     2.6860    -0.5430 C.3   1 <1>   0.1810 
  5 C       -1.2260     3.9580     0.5900 C.3   1 <1>   0.3640 
  6 O        1.2010     3.8860     0.1970 O.3   1 <1>  -0.5600 
  7 C       -2.4900     4.6070     0.0270 C.ar  1 <1>  -0.1440 
  8 C        0.0420     4.7040     0.0930 C.3   1 <1>   0.2610 
  9 C       -2.9090     4.3660    -1.2770 C.ar  1 <1>  -0.1500 
 10 C       -3.2370     5.4630     0.8230 C.ar  1 <1>  -0.1500 
 11 C        0.2490     6.0420     0.8300 C.2   1 <1>   0.5690 
 12 C       -4.0530     4.9690    -1.7710 C.ar  1 <1>  -0.1500 
 13 C       -4.3800     6.0670     0.3300 C.ar  1 <1>  -0.1500 
 14 O       -0.3230     6.2150     1.8860 O.2   1 <1>  -0.5700 
 15 N        1.0670     7.0220     0.3090 N.am  1 <1>  -0.6600 
 16 C       -4.7890     5.8200    -0.9680 C.ar  1 <1>  -0.1500 
 17 C        1.1660     8.3640     0.9670 C.3   1 <1>   0.1400 
 18 C        2.0390     6.7930    -0.7980 C.3   1 <1>   0.1400 
 19 C        2.5280     8.5690     1.6420 C.3   1 <1>   0.1400 
 20 C        3.3890     6.3550    -0.2110 C.3   1 <1>  -0.1600 
 21 N        3.6080     8.7390     0.6220 N.am  1 <1>  -0.6600 
 22 C        4.3260     7.4960     0.2190 C.3   1 <1>   0.1400 
 23 C        3.8500     9.9870     0.1050 C.2   1 <1>   0.5690 
 24 O        3.1650    10.9390     0.3920 O.2   1 <1>  -0.5700 
 25 C        4.9880    10.2240    -0.8590 C.3   1 <1>  -0.1790 
 26 H       -2.0830     2.0040     0.3360 H     1 <1>   0.3700 
 27 H        1.2440     2.9260    -1.5860 H     1 <1>   0.0800 
 28 H        1.9880     2.0830    -0.2480 H     1 <1>   0.0800 
 29 H       -1.2580     3.9950     1.6660 H     1 <1>   0.0800 
 30 H       -0.0990     4.9280    -0.9470 H     1 <1>   0.0800 
 31 H       -2.3510     3.7050    -1.9170 H     1 <1>   0.1500 
 32 H       -2.9290     5.6720     1.8350 H     1 <1>   0.1500 
 33 H       -4.3710     4.7740    -2.7810 H     1 <1>   0.1500 
 34 H       -4.9490     6.7310     0.9570 H     1 <1>   0.1500 
 35 H       -5.6790     6.2890    -1.3510 H     1 <1>   0.1500 
 36 H        1.0070     9.1390     0.2370 H     1 <1>   0.0800 
 37 H        0.3980     8.4670     1.7120 H     1 <1>   0.0800 
 38 H        1.6760     6.0250    -1.4560 H     1 <1>   0.0800 
 39 H        2.1510     7.6910    -1.3830 H     1 <1>   0.0800 
 40 H        2.7450     7.7390     2.2900 H     1 <1>   0.0800 
 41 H        2.4780     9.4550     2.2520 H     1 <1>   0.0800 
 42 H        3.2180     5.7000     0.6240 H     1 <1>   0.0800 
 43 H        3.9080     5.7730    -0.9500 H     1 <1>   0.0800 
 44 H        4.9870     7.7060    -0.6020 H     1 <1>   0.0800 
 45 H        4.9360     7.1640     1.0420 H     1 <1>   0.0800 
 46 H        5.9100     9.8780    -0.4310 H     1 <1>   0.0800 
 47 H        5.0780    11.2760    -1.0600 H     1 <1>   0.0800 
 48 H        4.7960     9.7140    -1.7840 H     1 <1>   0.0800 
@<TRIPOS>BOND
  1   1   2  2   
  2   2   3  am  
  3   2   4  1   
  4   3   5  1   
  5   3  26  1   
  6   4   6  1   
  7   4  27  1   
  8   4  28  1   
  9   5   7  1   
 10   5   8  1   
 11   5  29  1   
 12   6   8  1   
 13   7   9  ar  
 14   7  10  ar  
 15   8  11  1   
 16   8  30  1   
 17   9  12  ar  
 18   9  31  1   
 19  10  13  ar  
 20  10  32  1   
 21  11  14  2   
 22  11  15  am  
 23  12  16  ar  
 24  12  33  1   
 25  13  16  ar  
 26  13  34  1   
 27  15  17  1   
 28  15  18  1   
 29  16  35  1   
 30  17  19  1   
 31  17  36  1   
 32  17  37  1   
 33  18  20  1   
 34  18  38  1   
 35  18  39  1   
 36  19  21  1   
 37  19  40  1   
 38  19  41  1   
 39  20  22  1   
 40  20  42  1   
 41  20  43  1   
 42  21  22  1   
 43  21  23  am  
 44  22  44  1   
 45  22  45  1   
 46  23  24  2   
 47  23  25  1   
 48  25  46  1   
 49  25  47  1   
 50  25  48  1   
@<TRIPOS>SUBSTRUCTURE
  1 ****  11 GROUP 4 **** **** 0

# MOE 2024.06 (io_trps.svl 2023.06)
