@<TRIPOS>MOLECULE
NONAME
54 56 1 0 0 
SMALL
USER_CHARGES


@<TRIPOS>ATOM
  1 O        0.8140     0.4600     1.5420 O.2   1 <1>  -0.5700 
  2 C        1.8280     0.3000     0.9100 C.2   1 <1>   0.5950 
  3 C        2.4230    -0.9940     0.7070 C.2   1 <1>  -0.0860 
  4 C        2.4840     1.5180     0.2990 C.3   1 <1>  -0.1790 
  5 C        3.4900    -1.3790    -0.0660 C.2   1 <1>  -0.3020 
  6 C        1.9730    -2.1800     1.3120 C.2   1 <1>  -0.1500 
  7 N        3.7010    -2.7100     0.0290 N.pl3 1 <1>   0.0480 
  8 C        2.7500    -3.2040     0.8750 C.2   1 <1>  -0.3320 
  9 C        4.8080    -3.4330    -0.6300 C.3   1 <1>   0.0160 
 10 C        2.6120    -4.6600     1.2480 C.3   1 <1>   0.5230 
 11 N        1.7410    -5.2700     0.2200 N.4   1 <1>  -0.9590 
 12 C        1.7510    -6.7770     0.2870 C.3   1 <1>   0.3430 
 13 C        0.3320    -4.7460     0.3300 C.3   1 <1>   0.3430 
 14 C        0.6970    -7.4330    -0.6340 C.3   1 <1>   0.3430 
 15 C       -0.6500    -5.4830    -0.6110 C.3   1 <1>   0.2000 
 16 O       -0.5610    -6.8640    -0.3970 O.3   1 <1>  -0.5600 
 17 C        0.6440    -8.9270    -0.3500 C.ar  1 <1>  -0.1430 
 18 C       -2.1180    -5.0550    -0.4000 C.3   1 <1>  -0.0800 
 19 C        1.3690    -9.8070    -1.1430 C.ar  1 <1>  -0.1500 
 20 C       -0.1050    -9.4310     0.7060 C.ar  1 <1>  -0.1500 
 21 C       -2.3280    -3.5680    -0.7300 C.3   1 <1>  -0.2400 
 22 C       -2.6450    -5.3470     1.0160 C.3   1 <1>  -0.2400 
 23 C        1.3530   -11.1650    -0.8780 C.ar  1 <1>  -0.1500 
 24 C       -0.1200   -10.7880     0.9710 C.ar  1 <1>  -0.1500 
 25 C        0.6110   -11.6560     0.1810 C.ar  1 <1>  -0.1500 
 26 H        3.5200     1.5520     0.5770 H     1 <1>   0.0800 
 27 H        2.0000     2.4100     0.6530 H     1 <1>   0.0800 
 28 H        2.3990     1.4760    -0.7700 H     1 <1>   0.0800 
 29 H        4.1090    -0.7430    -0.6770 H     1 <1>   0.1500 
 30 H        1.1430    -2.2010     2.0010 H     1 <1>   0.1500 
 31 H        5.4170    -2.7340    -1.1760 H     1 <1>   0.0800 
 32 H        4.4130    -4.1610    -1.3140 H     1 <1>   0.0800 
 33 H        5.4150    -3.9160     0.1130 H     1 <1>   0.0800 
 34 H        2.1600    -4.7530     2.2230 H     1 <1>   0.0800 
 35 H        3.5810    -5.1310     1.2660 H     1 <1>   0.0800 
 36 H        2.1040    -4.9530    -0.6850 H     1 <1>   0.4500 
 37 H        2.7240    -7.1560     0.0250 H     1 <1>   0.0800 
 38 H        1.5390    -7.0960     1.2940 H     1 <1>   0.0800 
 39 H       -0.0200    -4.8620     1.3410 H     1 <1>   0.0800 
 40 H        0.3140    -3.6930     0.0970 H     1 <1>   0.0800 
 41 H        0.9450    -7.2730    -1.6690 H     1 <1>   0.0800 
 42 H       -0.3840    -5.2890    -1.6360 H     1 <1>   0.0800 
 43 H       -2.7130    -5.6240    -1.0970 H     1 <1>   0.0800 
 44 H        1.9500    -9.4510    -1.9760 H     1 <1>   0.1500 
 45 H       -0.6890    -8.7710     1.3250 H     1 <1>   0.1500 
 46 H       -1.8150    -2.9280    -0.0340 H     1 <1>   0.0800 
 47 H       -3.3770    -3.3300    -0.6880 H     1 <1>   0.0800 
 48 H       -1.9830    -3.3480    -1.7260 H     1 <1>   0.0800 
 49 H       -2.1390    -4.7580     1.7590 H     1 <1>   0.0800 
 50 H       -2.5260    -6.3890     1.2550 H     1 <1>   0.0800 
 51 H       -3.6950    -5.1190     1.0680 H     1 <1>   0.0800 
 52 H        1.9160   -11.8440    -1.4960 H     1 <1>   0.1500 
 53 H       -0.7050   -11.1720     1.7900 H     1 <1>   0.1500 
 54 H        0.5980   -12.7130     0.3860 H     1 <1>   0.1500 
@<TRIPOS>BOND
  1   1   2  2   
  2   2   3  1   
  3   2   4  1   
  4   3   5  2   
  5   3   6  1   
  6   4  26  1   
  7   4  27  1   
  8   4  28  1   
  9   5   7  1   
 10   5  29  1   
 11   6   8  2   
 12   6  30  1   
 13   7   8  1   
 14   7   9  1   
 15   8  10  1   
 16   9  31  1   
 17   9  32  1   
 18   9  33  1   
 19  10  11  1   
 20  10  34  1   
 21  10  35  1   
 22  11  12  1   
 23  11  13  1   
 24  11  36  1   
 25  12  14  1   
 26  12  37  1   
 27  12  38  1   
 28  13  15  1   
 29  13  39  1   
 30  13  40  1   
 31  14  16  1   
 32  14  17  1   
 33  14  41  1   
 34  15  16  1   
 35  15  18  1   
 36  15  42  1   
 37  17  19  ar  
 38  17  20  ar  
 39  18  21  1   
 40  18  22  1   
 41  18  43  1   
 42  19  23  ar  
 43  19  44  1   
 44  20  24  ar  
 45  20  45  1   
 46  21  46  1   
 47  21  47  1   
 48  21  48  1   
 49  22  49  1   
 50  22  50  1   
 51  22  51  1   
 52  23  25  ar  
 53  23  52  1   
 54  24  25  ar  
 55  24  53  1   
 56  25  54  1   
@<TRIPOS>SUBSTRUCTURE
  1 ****  11 GROUP 4 **** **** 0

# MOE 2024.06 (io_trps.svl 2023.06)
