@<TRIPOS>MOLECULE
NONAME
57 59 1 0 0 
SMALL
USER_CHARGES


@<TRIPOS>ATOM
  1 O       -2.0780     1.1150    -3.3960 O.2   1 <1>  -0.5700 
  2 C       -2.1780     1.7440    -2.3590 C.2   1 <1>   0.5440 
  3 N       -3.0580     1.2510    -1.4040 N.am  1 <1>  -0.6600 
  4 C       -1.3760     2.9550    -2.1990 C.ar  1 <1>   0.3960 
  5 C       -3.6260    -0.1310    -1.5050 C.3   1 <1>   0.1400 
  6 C       -3.4070     1.9340    -0.1230 C.3   1 <1>   0.1400 
  7 N       -0.7250     3.2060    -1.0460 N.ar  1 <1>  -0.6200 
  8 C       -1.3020     3.8240    -3.2910 C.ar  1 <1>   0.1600 
  9 C       -3.1580    -0.9820    -0.3100 C.3   1 <1>   0.3430 
 10 C       -2.9190     1.0880     1.0680 C.3   1 <1>   0.3430 
 11 C       -0.0170     4.3240    -1.0750 C.ar  1 <1>   0.4100 
 12 N       -0.6230     4.9620    -3.3220 N.ar  1 <1>  -0.6200 
 13 N       -3.4560    -0.3220     1.0160 N.4   1 <1>  -0.9590 
 14 N        0.7040     4.6420     0.0700 N.pl3 1 <1>  -0.8380 
 15 C        0.0140     5.1730    -2.1930 C.ar  1 <1>   0.1600 
 16 C       -2.9260    -1.1430     2.1470 C.3   1 <1>   0.2630 
 17 C        0.2420     5.8180     0.8870 C.3   1 <1>   0.2090 
 18 C        1.3660     3.5570     0.8580 C.3   1 <1>   0.2090 
 19 C        1.3550     6.8770     1.0450 C.3   1 <1>   0.3430 
 20 C        2.8450     3.8810     1.0950 C.3   1 <1>  -0.1600 
 21 N        2.7100     6.3040     0.7360 N.4   1 <1>  -0.9590 
 22 C        3.1150     5.2570     1.7090 C.3   1 <1>   0.3430 
 23 C        3.7880     7.2830     0.4580 C.3   1 <1>   0.4230 
 24 C        3.9430     8.2750     1.6100 C.3   1 <1>  -0.2400 
 25 C        3.4870     7.9980    -0.8550 C.3   1 <1>  -0.2400 
 26 H       -3.3150    -0.6130    -2.4160 H     1 <1>   0.0800 
 27 H       -4.7000    -0.0760    -1.5230 H     1 <1>   0.0800 
 28 H       -4.4750     2.0540    -0.0680 H     1 <1>   0.0800 
 29 H       -2.9790     2.9180    -0.0730 H     1 <1>   0.0800 
 30 H       -1.8370     3.5560    -4.1870 H     1 <1>   0.1500 
 31 H       -2.0960    -1.1380    -0.4070 H     1 <1>   0.0800 
 32 H       -3.6370    -1.9470    -0.3570 H     1 <1>   0.0800 
 33 H       -3.2250     1.5620     1.9860 H     1 <1>   0.0800 
 34 H       -1.8420     1.0680     1.0460 H     1 <1>   0.0800 
 35 H       -4.4810    -0.2660     1.1050 H     1 <1>   0.4500 
 36 H        0.6080     6.0640    -2.1300 H     1 <1>   0.1500 
 37 H       -1.8530    -1.2240     2.0820 H     1 <1>   0.0800 
 38 H       -3.3480    -2.1350     2.1200 H     1 <1>   0.0800 
 39 H       -3.1810    -0.6900     3.0920 H     1 <1>   0.0800 
 40 H       -0.0660     5.4820     1.8620 H     1 <1>   0.0800 
 41 H       -0.6180     6.2760     0.4280 H     1 <1>   0.0800 
 42 H        1.3050     2.6210     0.3260 H     1 <1>   0.0800 
 43 H        0.8570     3.4280     1.7980 H     1 <1>   0.0800 
 44 H        1.3350     7.2860     2.0410 H     1 <1>   0.0800 
 45 H        1.1440     7.6810     0.3610 H     1 <1>   0.0800 
 46 H        3.3840     3.7840     0.1690 H     1 <1>   0.0800 
 47 H        3.2420     3.1350     1.7600 H     1 <1>   0.0800 
 48 H        2.5340     5.7660    -0.1300 H     1 <1>   0.4500 
 49 H        4.1690     5.3440     1.9220 H     1 <1>   0.0800 
 50 H        2.5740     5.3700     2.6340 H     1 <1>   0.0800 
 51 H        4.7180     6.7480     0.3380 H     1 <1>   0.0800 
 52 H        3.0750     8.8990     1.7190 H     1 <1>   0.0800 
 53 H        4.7810     8.9180     1.4100 H     1 <1>   0.0800 
 54 H        4.1390     7.7650     2.5350 H     1 <1>   0.0800 
 55 H        2.6190     8.6270    -0.7810 H     1 <1>   0.0800 
 56 H        3.3540     7.2890    -1.6530 H     1 <1>   0.0800 
 57 H        4.3210     8.6260    -1.1150 H     1 <1>   0.0800 
@<TRIPOS>BOND
  1   1   2  2   
  2   2   3  am  
  3   2   4  1   
  4   3   5  1   
  5   3   6  1   
  6   4   7  ar  
  7   4   8  ar  
  8   5   9  1   
  9   5  26  1   
 10   5  27  1   
 11   6  10  1   
 12   6  28  1   
 13   6  29  1   
 14   7  11  ar  
 15   8  12  ar  
 16   8  30  1   
 17   9  13  1   
 18   9  31  1   
 19   9  32  1   
 20  10  13  1   
 21  10  33  1   
 22  10  34  1   
 23  11  14  1   
 24  11  15  ar  
 25  12  15  ar  
 26  13  16  1   
 27  13  35  1   
 28  14  17  1   
 29  14  18  1   
 30  15  36  1   
 31  16  37  1   
 32  16  38  1   
 33  16  39  1   
 34  17  19  1   
 35  17  40  1   
 36  17  41  1   
 37  18  20  1   
 38  18  42  1   
 39  18  43  1   
 40  19  21  1   
 41  19  44  1   
 42  19  45  1   
 43  20  22  1   
 44  20  46  1   
 45  20  47  1   
 46  21  22  1   
 47  21  23  1   
 48  21  48  1   
 49  22  49  1   
 50  22  50  1   
 51  23  24  1   
 52  23  25  1   
 53  23  51  1   
 54  24  52  1   
 55  24  53  1   
 56  24  54  1   
 57  25  55  1   
 58  25  56  1   
 59  25  57  1   
@<TRIPOS>SUBSTRUCTURE
  1 ****   7 GROUP 4 **** **** 0

# MOE 2024.06 (io_trps.svl 2023.06)
