@<TRIPOS>MOLECULE
NONAME
41 44 1 0 0 
SMALL
USER_CHARGES


@<TRIPOS>ATOM
  1 O       -0.1700    -0.6120     0.2490 O.3   1 <1>  -0.3630 
  2 C        1.0790    -1.1490     0.1130 C.ar  1 <1>   0.0830 
  3 C       -0.3900     0.7790     0.1550 C.3   1 <1>   0.0400 
  4 C        1.1890    -2.5350     0.1800 C.ar  1 <1>   0.0830 
  5 C        2.2210    -0.3820    -0.0630 C.ar  1 <1>  -0.1500 
  6 O        0.0510    -3.2030     0.4400 O.3   1 <1>  -0.5330 
  7 C        2.4190    -3.1920     0.0260 C.ar  1 <1>   0.0000 
  8 C        3.4530    -0.9990    -0.1910 C.ar  1 <1>  -0.1430 
  9 C        2.6260    -4.6360     0.1540 C.ar  1 <1>   0.0000 
 10 C        3.5450    -2.3860    -0.1900 C.ar  1 <1>  -0.1430 
 11 C        4.7030    -0.1410    -0.2840 C.3   1 <1>  -0.0170 
 12 C        3.8700    -5.1080     0.5960 C.ar  1 <1>  -0.1430 
 13 C        1.6600    -5.5960    -0.1510 C.ar  1 <1>  -0.1500 
 14 C        4.8750    -3.1180    -0.3680 C.3   1 <1>   0.5660 
 15 C        5.9130    -0.9250     0.2220 C.3   1 <1>   0.3430 
 16 C        4.0990    -6.4600     0.7970 C.ar  1 <1>  -0.1500 
 17 C        5.0020    -4.1120     0.7940 C.3   1 <1>  -0.0160 
 18 C        1.8890    -6.9460     0.0390 C.ar  1 <1>  -0.1500 
 19 N        6.0390    -2.1780    -0.5730 N.4   1 <1>  -0.9590 
 20 C        3.1060    -7.3810     0.5250 C.ar  1 <1>  -0.1500 
 21 C        7.3870    -2.8070    -0.4190 C.3   1 <1>   0.2630 
 22 H       -1.4450     0.9590     0.2660 H     1 <1>   0.0800 
 23 H       -0.0620     1.1220    -0.8100 H     1 <1>   0.0800 
 24 H        0.1470     1.2730     0.9460 H     1 <1>   0.0800 
 25 H        2.1640     0.6900    -0.0880 H     1 <1>   0.1500 
 26 H       -0.6860    -2.5660     0.5400 H     1 <1>   0.4500 
 27 H        4.5850     0.7380     0.3250 H     1 <1>   0.0800 
 28 H        4.8580     0.1790    -1.2990 H     1 <1>   0.0800 
 29 H        0.7070    -5.2970    -0.5440 H     1 <1>   0.1500 
 30 H        4.7860    -3.7150    -1.2610 H     1 <1>   0.0800 
 31 H        5.7830    -1.1610     1.2660 H     1 <1>   0.0800 
 32 H        6.8000    -0.3210     0.1120 H     1 <1>   0.0800 
 33 H        5.0490    -6.8140     1.1590 H     1 <1>   0.1500 
 34 H        5.9370    -4.6370     0.7670 H     1 <1>   0.0800 
 35 H        4.8880    -3.6140     1.7400 H     1 <1>   0.0800 
 36 H        1.1160    -7.6590    -0.1910 H     1 <1>   0.1500 
 37 H        5.9430    -1.8890    -1.5560 H     1 <1>   0.4500 
 38 H        3.2790    -8.4310     0.6830 H     1 <1>   0.1500 
 39 H        7.5560    -3.0880     0.6080 H     1 <1>   0.0800 
 40 H        8.1590    -2.1150    -0.7150 H     1 <1>   0.0800 
 41 H        7.4630    -3.6880    -1.0360 H     1 <1>   0.0800 
@<TRIPOS>BOND
  1   1   2  1   
  2   1   3  1   
  3   2   4  ar  
  4   2   5  ar  
  5   3  22  1   
  6   3  23  1   
  7   3  24  1   
  8   4   6  1   
  9   4   7  ar  
 10   5   8  ar  
 11   5  25  1   
 12   6  26  1   
 13   7   9  1   
 14   7  10  ar  
 15   8  10  ar  
 16   8  11  1   
 17   9  12  ar  
 18   9  13  ar  
 19  10  14  1   
 20  11  15  1   
 21  11  27  1   
 22  11  28  1   
 23  12  16  ar  
 24  12  17  1   
 25  13  18  ar  
 26  13  29  1   
 27  14  17  1   
 28  14  19  1   
 29  14  30  1   
 30  15  19  1   
 31  15  31  1   
 32  15  32  1   
 33  16  20  ar  
 34  16  33  1   
 35  17  34  1   
 36  17  35  1   
 37  18  20  ar  
 38  18  36  1   
 39  19  21  1   
 40  19  37  1   
 41  20  38  1   
 42  21  39  1   
 43  21  40  1   
 44  21  41  1   
@<TRIPOS>SUBSTRUCTURE
  1 ****   7 GROUP 4 **** **** 0

# MOE 2024.06 (io_trps.svl 2023.06)
