@<TRIPOS>MOLECULE
NONAME
43 45 1 0 0 
SMALL
USER_CHARGES


@<TRIPOS>ATOM
  1 CL       0.4810     0.3300     0.6960 Cl    1 <1>  -0.1230 
  2 C        1.2300    -1.2410     0.4760 C.2   1 <1>   0.1230 
  3 C        2.4120    -1.4960    -0.1320 C.2   1 <1>  -0.3020 
  4 C        0.6890    -2.4400     0.9130 C.2   1 <1>  -0.1500 
  5 N        2.6330    -2.8350    -0.0910 N.pl3 1 <1>   0.0480 
  6 C        1.5650    -3.4350     0.5460 C.2   1 <1>  -0.2370 
  7 C        3.8310    -3.5030    -0.6380 C.3   1 <1>   0.0160 
  8 C        1.4540    -4.8560     0.7670 C.2   1 <1>   0.7150 
  9 O        2.4460    -5.5200     1.0070 O.2   1 <1>  -0.5700 
 10 N        0.2380    -5.4910     0.6820 N.am  1 <1>  -0.6600 
 11 C       -0.9060    -4.9900    -0.1240 C.3   1 <1>   0.1400 
 12 C        0.0540    -6.9360     0.9530 C.3   1 <1>   0.1400 
 13 C       -1.8210    -6.2000    -0.3640 C.3   1 <1>   0.2000 
 14 C       -0.9100    -7.4100    -0.1350 C.3   1 <1>  -0.0800 
 15 O       -2.8420    -6.2180     0.5940 O.3   1 <1>  -0.5600 
 16 C       -1.6480    -8.7130     0.2220 C.3   1 <1>   0.0200 
 17 C       -3.9680    -5.4610     0.2770 C.3   1 <1>   0.0400 
 18 C       -0.7330    -9.9260     0.2690 C.2   1 <1>  -0.0400 
 19 O       -1.2320   -11.0730     0.6480 O.3   1 <1>  -0.0190 
 20 C        0.5660   -10.1210    -0.0120 C.2   1 <1>  -0.1500 
 21 N       -0.3390   -12.0210     0.6390 N.2   1 <1>  -0.4100 
 22 C        0.7550   -11.4750     0.2470 C.2   1 <1>   0.1080 
 23 C        2.0650   -12.2130     0.0900 C.3   1 <1>  -0.0590 
 24 H        3.0930    -0.7950    -0.5800 H     1 <1>   0.1500 
 25 H       -0.2390    -2.5350     1.4470 H     1 <1>   0.1500 
 26 H        4.4160    -2.7990    -1.2000 H     1 <1>   0.0800 
 27 H        3.5280    -4.3110    -1.2770 H     1 <1>   0.0800 
 28 H        4.4180    -3.8920     0.1740 H     1 <1>   0.0800 
 29 H       -1.4270    -4.2080     0.3980 H     1 <1>   0.0800 
 30 H       -0.5350    -4.6160    -1.0620 H     1 <1>   0.0800 
 31 H        0.9870    -7.4710     0.9230 H     1 <1>   0.0800 
 32 H       -0.3910    -7.0500     1.9270 H     1 <1>   0.0800 
 33 H       -2.2560    -6.2050    -1.3490 H     1 <1>   0.0800 
 34 H       -0.3410    -7.5670    -1.0340 H     1 <1>   0.0800 
 35 H       -2.4160    -8.8980    -0.5080 H     1 <1>   0.0800 
 36 H       -2.1280    -8.6100     1.1800 H     1 <1>   0.0800 
 37 H       -4.6650    -5.5450     1.0920 H     1 <1>   0.0800 
 38 H       -4.4160    -5.8490    -0.6210 H     1 <1>   0.0800 
 39 H       -3.6880    -4.4300     0.1470 H     1 <1>   0.0800 
 40 H        1.3170    -9.4340    -0.3550 H     1 <1>   0.1500 
 41 H        2.8160   -11.7580     0.7110 H     1 <1>   0.0800 
 42 H        2.3830   -12.1780    -0.9360 H     1 <1>   0.0800 
 43 H        1.9460   -13.2400     0.3830 H     1 <1>   0.0800 
@<TRIPOS>BOND
  1   1   2  1   
  2   2   3  2   
  3   2   4  1   
  4   3   5  1   
  5   3  24  1   
  6   4   6  2   
  7   4  25  1   
  8   5   6  1   
  9   5   7  1   
 10   6   8  1   
 11   7  26  1   
 12   7  27  1   
 13   7  28  1   
 14   8   9  2   
 15   8  10  am  
 16  10  11  1   
 17  10  12  1   
 18  11  13  1   
 19  11  29  1   
 20  11  30  1   
 21  12  14  1   
 22  12  31  1   
 23  12  32  1   
 24  13  14  1   
 25  13  15  1   
 26  13  33  1   
 27  14  16  1   
 28  14  34  1   
 29  15  17  1   
 30  16  18  1   
 31  16  35  1   
 32  16  36  1   
 33  17  37  1   
 34  17  38  1   
 35  17  39  1   
 36  18  19  1   
 37  18  20  2   
 38  19  21  1   
 39  20  22  1   
 40  20  40  1   
 41  21  22  2   
 42  22  23  1   
 43  23  41  1   
 44  23  42  1   
 45  23  43  1   
@<TRIPOS>SUBSTRUCTURE
  1 ****  10 GROUP 4 **** **** 0

# MOE 2024.06 (io_trps.svl 2023.06)
