@<TRIPOS>MOLECULE
NONAME
50 53 1 0 0 
SMALL
USER_CHARGES


@<TRIPOS>ATOM
  1 O       -0.2860    -0.4310    -0.4600 O.3   1 <1>  -0.2800 
  2 C        0.2580     0.7860    -0.4930 C.ar  1 <1>   0.1400 
  3 C        0.6980    -1.3010    -0.2380 C.2   1 <1>  -0.0400 
  4 C        1.6220     0.7050    -0.2870 C.ar  1 <1>   0.0000 
  5 C       -0.3850     1.9990    -0.6950 C.ar  1 <1>  -0.1500 
  6 C        1.8860    -0.6730    -0.1250 C.2   1 <1>  -0.1810 
  7 C        0.3440    -2.7740    -0.1470 C.3   1 <1>   0.5230 
  8 C        2.3820     1.8750    -0.2800 C.ar  1 <1>  -0.1500 
  9 C        0.3760     3.1500    -0.6850 C.ar  1 <1>  -0.1500 
 10 C        3.2800    -1.2240     0.1200 C.3   1 <1>  -0.0590 
 11 N       -0.5380    -2.9970     1.0400 N.4   1 <1>  -0.9590 
 12 C        1.7580     3.0920    -0.4780 C.ar  1 <1>  -0.1430 
 13 C       -1.9370    -2.5100     0.7880 C.3   1 <1>   0.3430 
 14 C       -0.6260    -4.4470     1.3770 C.3   1 <1>   0.3430 
 15 C        2.5560     4.3840    -0.4750 C.3   1 <1>  -0.0970 
 16 C       -2.8690    -3.6980     1.0670 C.3   1 <1>   0.2000 
 17 C       -1.9860    -4.9240     0.8590 C.3   1 <1>  -0.0800 
 18 O       -3.2930    -3.6700     2.3900 O.3   1 <1>  -0.6800 
 19 C       -1.9660    -5.3340    -0.6330 C.3   1 <1>  -0.0170 
 20 C       -0.7930    -6.2350    -0.9850 C.ar  1 <1>   0.1670 
 21 N        0.3510    -5.6210    -1.2620 N.ar  1 <1>  -0.6200 
 22 C       -0.9660    -7.6100    -1.0050 C.ar  1 <1>  -0.1500 
 23 C        1.3570    -6.4200    -1.5940 C.ar  1 <1>   0.1600 
 24 C        0.0950    -8.4240    -1.3370 C.ar  1 <1>  -0.1500 
 25 C        1.2840    -7.8010    -1.6410 C.ar  1 <1>  -0.1500 
 26 H       -1.4470     2.0260    -0.8550 H     1 <1>   0.1500 
 27 H        1.2500    -3.3470    -0.0430 H     1 <1>   0.0800 
 28 H       -0.1480    -3.0900    -1.0520 H     1 <1>   0.0800 
 29 H        3.4430     1.8120    -0.1210 H     1 <1>   0.1500 
 30 H       -0.0960     4.1050    -0.8390 H     1 <1>   0.1500 
 31 H        3.6860    -0.8040     1.0230 H     1 <1>   0.0800 
 32 H        3.9240    -0.9580    -0.7000 H     1 <1>   0.0800 
 33 H        3.2660    -2.2940     0.2110 H     1 <1>   0.0800 
 34 H       -0.1210    -2.4570     1.8090 H     1 <1>   0.4500 
 35 H       -2.1880    -1.6670     1.4120 H     1 <1>   0.0800 
 36 H       -2.0370    -2.2160    -0.2440 H     1 <1>   0.0800 
 37 H        0.1950    -5.0110     0.9680 H     1 <1>   0.0800 
 38 H       -0.6080    -4.5610     2.4490 H     1 <1>   0.0800 
 39 H        2.1980     5.0340     0.3030 H     1 <1>   0.0800 
 40 H        2.4490     4.8830    -1.4210 H     1 <1>   0.0800 
 41 H        3.6000     4.1910    -0.3060 H     1 <1>   0.0800 
 42 H       -3.7470    -3.6880     0.4420 H     1 <1>   0.0800 
 43 H       -2.3310    -5.7650     1.4360 H     1 <1>   0.0800 
 44 H       -2.5600    -3.6350     3.0340 H     1 <1>   0.4000 
 45 H       -1.9200    -4.4700    -1.2710 H     1 <1>   0.0800 
 46 H       -2.8860    -5.8410    -0.8690 H     1 <1>   0.0800 
 47 H       -1.9190    -8.0490    -0.7680 H     1 <1>   0.1500 
 48 H        2.2950    -5.9540    -1.8440 H     1 <1>   0.1500 
 49 H       -0.0020    -9.4970    -1.3630 H     1 <1>   0.1500 
 50 H        2.1480    -8.3800    -1.9170 H     1 <1>   0.1500 
@<TRIPOS>BOND
  1   1   2  1   
  2   1   3  1   
  3   2   4  ar  
  4   2   5  ar  
  5   3   6  2   
  6   3   7  1   
  7   4   6  1   
  8   4   8  ar  
  9   5   9  ar  
 10   5  26  1   
 11   6  10  1   
 12   7  11  1   
 13   7  27  1   
 14   7  28  1   
 15   8  12  ar  
 16   8  29  1   
 17   9  12  ar  
 18   9  30  1   
 19  10  31  1   
 20  10  32  1   
 21  10  33  1   
 22  11  13  1   
 23  11  14  1   
 24  11  34  1   
 25  12  15  1   
 26  13  16  1   
 27  13  35  1   
 28  13  36  1   
 29  14  17  1   
 30  14  37  1   
 31  14  38  1   
 32  15  39  1   
 33  15  40  1   
 34  15  41  1   
 35  16  17  1   
 36  16  18  1   
 37  16  42  1   
 38  17  19  1   
 39  17  43  1   
 40  18  44  1   
 41  19  20  1   
 42  19  45  1   
 43  19  46  1   
 44  20  21  ar  
 45  20  22  ar  
 46  21  23  ar  
 47  22  24  ar  
 48  22  47  1   
 49  23  25  ar  
 50  23  48  1   
 51  24  25  ar  
 52  24  49  1   
 53  25  50  1   
@<TRIPOS>SUBSTRUCTURE
  1 ****   7 GROUP 4 **** **** 0

# MOE 2024.06 (io_trps.svl 2023.06)
