@<TRIPOS>MOLECULE
NONAME
51 53 1 0 0 
SMALL
USER_CHARGES


@<TRIPOS>ATOM
  1 O        0.1250     1.3750    -1.0510 O.2   1 <1>  -0.5700 
  2 C        0.9450     0.5030    -0.7730 C.2   1 <1>   0.5690 
  3 N        2.1780     0.5150    -1.3440 N.am  1 <1>  -0.7300 
  4 C        0.6140    -0.6010     0.2640 C.3   1 <1>   0.2810 
  5 C        2.6740     1.5460    -2.2840 C.3   1 <1>   0.3200 
  6 N        0.9630    -0.1670     1.6210 N.am  1 <1>  -0.7300 
  7 C       -0.8660    -1.0190     0.2250 C.3   1 <1>   0.0200 
  8 C        3.9250     2.1840    -1.7110 C.2   1 <1>   0.0070 
  9 C        1.4160    -0.8900     2.6340 C.2   1 <1>   0.5690 
 10 C       -1.3200    -1.5160    -1.1270 C.2   1 <1>  -0.3320 
 11 N        5.1040     2.0010    -2.1990 N.2   1 <1>  -0.3380 
 12 N        3.9520     2.9880    -0.6400 N.pl3 1 <1>   0.0480 
 13 O        1.6370    -0.3310     3.6920 O.2   1 <1>  -0.5700 
 14 C        1.6700    -2.3790     2.4760 C.3   1 <1>  -0.1790 
 15 N       -1.5740    -0.7340    -2.2360 N.pl3 1 <1>   0.0330 
 16 C       -1.5210    -2.8200    -1.4960 C.2   1 <1>   0.0770 
 17 N        5.9530     2.6960    -1.4420 N.2   1 <1>  -0.3380 
 18 C        5.2520     3.2700    -0.5270 C.2   1 <1>   0.0360 
 19 C        2.8390     3.4320     0.2360 C.3   1 <1>   0.1760 
 20 C       -1.9160    -1.5520    -3.2440 C.2   1 <1>   0.0360 
 21 N       -1.8950    -2.8320    -2.8400 N.2   1 <1>  -0.5650 
 22 C        2.7860     4.9650     0.3380 C.3   1 <1>  -0.1600 
 23 C        2.9700     2.7920     1.6270 C.3   1 <1>  -0.1600 
 24 C        1.6380     5.4110     1.2560 C.3   1 <1>  -0.1600 
 25 C        1.8130     3.2260     2.5370 C.3   1 <1>  -0.1600 
 26 C        1.7430     4.7560     2.6410 C.3   1 <1>  -0.1600 
 27 H        2.8960    -0.1610    -1.0710 H     1 <1>   0.3700 
 28 H        1.2070    -1.4750    -0.0070 H     1 <1>   0.0800 
 29 H        2.9110     1.0810    -3.2260 H     1 <1>   0.0800 
 30 H        1.9260     2.3000    -2.4610 H     1 <1>   0.0800 
 31 H        0.8250     0.8060     1.8480 H     1 <1>   0.3700 
 32 H       -1.4830    -0.1640     0.5090 H     1 <1>   0.0800 
 33 H       -1.0370    -1.8030     0.9630 H     1 <1>   0.0800 
 34 H        0.7490    -2.8830     2.1930 H     1 <1>   0.0800 
 35 H        2.0200    -2.7810     3.4260 H     1 <1>   0.0800 
 36 H        2.4340    -2.5410     1.7170 H     1 <1>   0.0800 
 37 H       -1.4890     0.2750    -2.2840 H     1 <1>   0.2700 
 38 H       -1.4080    -3.6940    -0.8670 H     1 <1>   0.1500 
 39 H        5.6530     3.9000     0.2450 H     1 <1>   0.1500 
 40 H        1.9140     3.1030    -0.2010 H     1 <1>   0.0800 
 41 H       -2.1720    -1.2300    -4.2440 H     1 <1>   0.1500 
 42 H        3.7130     5.3390     0.7380 H     1 <1>   0.0800 
 43 H        2.6420     5.3890    -0.6410 H     1 <1>   0.0800 
 44 H        2.9760     1.7210     1.5390 H     1 <1>   0.0800 
 45 H        3.8990     3.0940     2.0810 H     1 <1>   0.0800 
 46 H        1.6560     6.4820     1.3630 H     1 <1>   0.0800 
 47 H        0.6960     5.1430     0.8070 H     1 <1>   0.0800 
 48 H        0.8810     2.8570     2.1430 H     1 <1>   0.0800 
 49 H        1.9460     2.8010     3.5190 H     1 <1>   0.0800 
 50 H        0.8910     5.0360     3.2370 H     1 <1>   0.0800 
 51 H        2.6240     5.1190     3.1420 H     1 <1>   0.0800 
@<TRIPOS>BOND
  1   1   2  2   
  2   2   3  am  
  3   2   4  1   
  4   3   5  1   
  5   3  27  1   
  6   4   6  1   
  7   4   7  1   
  8   4  28  1   
  9   5   8  1   
 10   5  29  1   
 11   5  30  1   
 12   6   9  am  
 13   6  31  1   
 14   7  10  1   
 15   7  32  1   
 16   7  33  1   
 17   8  11  2   
 18   8  12  1   
 19   9  13  2   
 20   9  14  1   
 21  10  15  1   
 22  10  16  2   
 23  11  17  1   
 24  12  18  1   
 25  12  19  1   
 26  14  34  1   
 27  14  35  1   
 28  14  36  1   
 29  15  20  1   
 30  15  37  1   
 31  16  21  1   
 32  16  38  1   
 33  17  18  2   
 34  18  39  1   
 35  19  22  1   
 36  19  23  1   
 37  19  40  1   
 38  20  21  2   
 39  20  41  1   
 40  22  24  1   
 41  22  42  1   
 42  22  43  1   
 43  23  25  1   
 44  23  44  1   
 45  23  45  1   
 46  24  26  1   
 47  24  46  1   
 48  24  47  1   
 49  25  26  1   
 50  25  48  1   
 51  25  49  1   
 52  26  50  1   
 53  26  51  1   
@<TRIPOS>SUBSTRUCTURE
  1 ****   2 GROUP 4 **** **** 0

# MOE 2024.06 (io_trps.svl 2023.06)
