@<TRIPOS>MOLECULE
NONAME
45 47 1 0 0 
SMALL
USER_CHARGES


@<TRIPOS>ATOM
  1 F        0.5250    -0.7290    -1.9430 F     1 <1>  -0.1900 
  2 C        1.4000    -1.1020    -1.0320 C.ar  1 <1>   0.1900 
  3 C        1.1030    -2.1280    -0.1300 C.ar  1 <1>   0.4100 
  4 C        2.6230    -0.4770    -0.9750 C.ar  1 <1>   0.1660 
  5 N        2.0210    -2.4930     0.7530 N.ar  1 <1>  -0.6200 
  6 N       -0.1050    -2.8150    -0.0880 N.pl3 1 <1>  -0.8380 
  7 N        3.5270    -0.8420    -0.0790 N.ar  1 <1>  -0.6200 
  8 C        3.0090     0.6550    -1.9180 C.3   1 <1>  -0.0170 
  9 C        3.1640    -1.8300     0.7230 C.ar  1 <1>   0.4700 
 10 C       -1.4110    -2.1550    -0.3650 C.3   1 <1>   0.2090 
 11 C       -0.3210    -3.9850     0.8040 C.3   1 <1>   0.2090 
 12 C        2.7320     2.0250    -1.2870 C.3   1 <1>  -0.2400 
 13 C       -2.4060    -2.8330     0.5780 C.3   1 <1>  -0.0800 
 14 C       -1.8280    -4.2450     0.7570 C.3   1 <1>  -0.0800 
 15 C       -3.8860    -2.7900     0.1310 C.3   1 <1>   0.2800 
 16 C       -2.1740    -5.1830    -0.4200 C.3   1 <1>  -0.1600 
 17 O       -4.1550    -1.5200    -0.3340 O.3   1 <1>  -0.6800 
 18 C       -4.1510    -3.7500    -1.0450 C.3   1 <1>  -0.1600 
 19 C       -4.8680    -3.0750     1.2960 C.3   1 <1>  -0.1600 
 20 C       -3.6690    -5.1790    -0.7520 C.3   1 <1>  -0.1600 
 21 C       -4.9180    -2.0210     2.4200 C.3   1 <1>  -0.2400 
 22 H        4.0570     0.5730    -2.1500 H     1 <1>   0.0800 
 23 H        2.4680     0.5700    -2.8430 H     1 <1>   0.0800 
 24 H        3.8980    -2.1350     1.4500 H     1 <1>   0.1500 
 25 H       -1.3680    -1.0960    -0.1740 H     1 <1>   0.0800 
 26 H       -1.6780    -2.3220    -1.3930 H     1 <1>   0.0800 
 27 H        0.2500    -4.8320     0.4660 H     1 <1>   0.0800 
 28 H       -0.0230    -3.7290     1.8060 H     1 <1>   0.0800 
 29 H        3.2910     2.1300    -0.3740 H     1 <1>   0.0800 
 30 H        1.6840     2.1260    -1.0640 H     1 <1>   0.0800 
 31 H        3.0200     2.8100    -1.9630 H     1 <1>   0.0800 
 32 H       -2.3140    -2.3210     1.5170 H     1 <1>   0.0800 
 33 H       -2.1650    -4.6850     1.6790 H     1 <1>   0.0800 
 34 H       -1.6300    -4.8750    -1.2980 H     1 <1>   0.0800 
 35 H       -1.8600    -6.1850    -0.1840 H     1 <1>   0.0800 
 36 H       -5.1070    -1.4420    -0.5230 H     1 <1>   0.4000 
 37 H       -5.2010    -3.7740    -1.2750 H     1 <1>   0.0800 
 38 H       -3.6330    -3.3930    -1.9180 H     1 <1>   0.0800 
 39 H       -5.8600    -3.1820     0.8960 H     1 <1>   0.0800 
 40 H       -4.6140    -4.0200     1.7400 H     1 <1>   0.0800 
 41 H       -4.2250    -5.6020     0.0660 H     1 <1>   0.0800 
 42 H       -3.8420    -5.7970    -1.6170 H     1 <1>   0.0800 
 43 H       -5.1670    -1.0510     2.0280 H     1 <1>   0.0800 
 44 H       -3.9770    -1.9520     2.9330 H     1 <1>   0.0800 
 45 H       -5.6690    -2.2950     3.1400 H     1 <1>   0.0800 
@<TRIPOS>BOND
  1   1   2  1   
  2   2   3  ar  
  3   2   4  ar  
  4   3   5  ar  
  5   3   6  1   
  6   4   7  ar  
  7   4   8  1   
  8   5   9  ar  
  9   6  10  1   
 10   6  11  1   
 11   7   9  ar  
 12   8  12  1   
 13   8  22  1   
 14   8  23  1   
 15   9  24  1   
 16  10  13  1   
 17  10  25  1   
 18  10  26  1   
 19  11  14  1   
 20  11  27  1   
 21  11  28  1   
 22  12  29  1   
 23  12  30  1   
 24  12  31  1   
 25  13  14  1   
 26  13  15  1   
 27  13  32  1   
 28  14  16  1   
 29  14  33  1   
 30  15  17  1   
 31  15  18  1   
 32  15  19  1   
 33  16  20  1   
 34  16  34  1   
 35  16  35  1   
 36  17  36  1   
 37  18  20  1   
 38  18  37  1   
 39  18  38  1   
 40  19  21  1   
 41  19  39  1   
 42  19  40  1   
 43  20  41  1   
 44  20  42  1   
 45  21  43  1   
 46  21  44  1   
 47  21  45  1   
@<TRIPOS>SUBSTRUCTURE
  1 ****  10 GROUP 4 **** **** 0

# MOE 2024.06 (io_trps.svl 2023.06)
