@<TRIPOS>MOLECULE
NONAME
56 59 1 0 0 
SMALL
USER_CHARGES


@<TRIPOS>ATOM
  1 F       -0.1620    -0.6900    -0.3040 F     1 <1>  -0.1900 
  2 C       -0.7860    -1.8230    -0.0970 C.ar  1 <1>   0.1900 
  3 C       -0.0970    -3.0250     0.0980 C.ar  1 <1>   0.0820 
  4 C       -2.1660    -1.7700    -0.0770 C.ar  1 <1>  -0.1500 
  5 O        1.2570    -3.2040     0.1000 O.3   1 <1>  -0.3630 
  6 C       -0.8490    -4.1680     0.3130 C.ar  1 <1>  -0.1500 
  7 C       -2.8840    -2.9300     0.1430 C.ar  1 <1>  -0.1500 
  8 C        2.1700    -2.1630    -0.1640 C.3   1 <1>   0.0400 
  9 C       -2.2460    -4.1570     0.3400 C.ar  1 <1>   0.0530 
 10 C       -2.9900    -5.3730     0.5680 C.2   1 <1>   0.0870 
 11 O       -2.4280    -6.3900     1.1800 O.3   1 <1>  -0.0190 
 12 C       -4.2580    -5.7540     0.2710 C.2   1 <1>  -0.2330 
 13 N       -3.2350    -7.4120     1.3150 N.2   1 <1>  -0.4100 
 14 C       -4.3460    -7.0500     0.7770 C.2   1 <1>   0.3720 
 15 C       -5.2990    -5.0550    -0.4030 C.2   1 <1>   1.0330 
 16 N       -5.4610    -7.8910     0.7390 N.pl3 1 <1>  -0.8210 
 17 O       -6.0500    -4.2900     0.2260 O.co2 1 <1>  -0.9000 
 18 O       -5.4750    -5.1970    -1.6250 O.co2 1 <1>  -0.9000 
 19 C       -5.8290    -8.3080    -0.6350 C.3   1 <1>   0.2090 
 20 C       -6.6330    -7.3520     1.4710 C.3   1 <1>   0.2090 
 21 C       -6.8500    -9.4440    -0.5530 C.3   1 <1>  -0.1600 
 22 C       -7.6750    -8.4640     1.6180 C.3   1 <1>  -0.1600 
 23 C       -8.0990    -9.0220     0.2470 C.3   1 <1>  -0.0800 
 24 C       -9.0910   -10.1830     0.4410 C.3   1 <1>  -0.1600 
 25 C       -9.6990   -10.6890    -0.8800 C.3   1 <1>  -0.0990 
 26 C      -10.7280   -11.7750    -0.6430 C.2   1 <1>   0.5690 
 27 O      -11.8970   -11.5130    -0.7850 O.2   1 <1>  -0.5700 
 28 N      -10.2840   -13.0050    -0.2760 N.am  1 <1>  -0.5790 
 29 C      -11.1320   -14.1710     0.0010 C.3   1 <1>   0.0490 
 30 C      -10.7140   -15.0980     1.0930 C.3   1 <1>  -0.2000 
 31 C      -10.5990   -15.5230    -0.3410 C.3   1 <1>  -0.2000 
 32 H       -2.6740    -0.8350    -0.2290 H     1 <1>   0.1500 
 33 H       -0.3310    -5.0990     0.4610 H     1 <1>   0.1500 
 34 H       -3.9600    -2.8780     0.1640 H     1 <1>   0.1500 
 35 H        3.1630    -2.5740    -0.1340 H     1 <1>   0.0800 
 36 H        2.0660    -1.4060     0.5930 H     1 <1>   0.0800 
 37 H        1.9710    -1.7630    -1.1420 H     1 <1>   0.0800 
 38 H       -4.9470    -8.6340    -1.1600 H     1 <1>   0.0800 
 39 H       -6.2570    -7.4780    -1.1730 H     1 <1>   0.0800 
 40 H       -7.0610    -6.5230     0.9330 H     1 <1>   0.0800 
 41 H       -6.3210    -7.0020     2.4410 H     1 <1>   0.0800 
 42 H       -6.3770   -10.2910    -0.0880 H     1 <1>   0.0800 
 43 H       -7.1200    -9.7160    -1.5560 H     1 <1>   0.0800 
 44 H       -8.5310    -8.0670     2.1330 H     1 <1>   0.0800 
 45 H       -7.2510    -9.2450     2.2240 H     1 <1>   0.0800 
 46 H       -8.5930    -8.2290    -0.2920 H     1 <1>   0.0800 
 47 H       -9.8970    -9.8470     1.0720 H     1 <1>   0.0800 
 48 H       -8.5970   -10.9920     0.9490 H     1 <1>   0.0800 
 49 H       -8.9370   -11.0840    -1.5250 H     1 <1>   0.0800 
 50 H      -10.1760    -9.8720    -1.3920 H     1 <1>   0.0800 
 51 H       -9.2850   -13.1590    -0.1550 H     1 <1>   0.3700 
 52 H      -12.1850   -13.9780    -0.1400 H     1 <1>   0.1000 
 53 H      -11.4770   -15.5550     1.6990 H     1 <1>   0.1000 
 54 H       -9.8210   -14.8780     1.6490 H     1 <1>   0.1000 
 55 H       -9.6250   -15.6010    -0.7890 H     1 <1>   0.1000 
 56 H      -11.2840   -16.2670    -0.7070 H     1 <1>   0.1000 
@<TRIPOS>BOND
  1   1   2  1   
  2   2   3  ar  
  3   2   4  ar  
  4   3   5  1   
  5   3   6  ar  
  6   4   7  ar  
  7   4  32  1   
  8   5   8  1   
  9   6   9  ar  
 10   6  33  1   
 11   7   9  ar  
 12   7  34  1   
 13   8  35  1   
 14   8  36  1   
 15   8  37  1   
 16   9  10  1   
 17  10  11  1   
 18  10  12  2   
 19  11  13  1   
 20  12  14  1   
 21  12  15  1   
 22  13  14  2   
 23  14  16  1   
 24  15  17  ar  
 25  15  18  ar  
 26  16  19  1   
 27  16  20  1   
 28  19  21  1   
 29  19  38  1   
 30  19  39  1   
 31  20  22  1   
 32  20  40  1   
 33  20  41  1   
 34  21  23  1   
 35  21  42  1   
 36  21  43  1   
 37  22  23  1   
 38  22  44  1   
 39  22  45  1   
 40  23  24  1   
 41  23  46  1   
 42  24  25  1   
 43  24  47  1   
 44  24  48  1   
 45  25  26  1   
 46  25  49  1   
 47  25  50  1   
 48  26  27  2   
 49  26  28  am  
 50  28  29  1   
 51  28  51  1   
 52  29  30  1   
 53  29  31  1   
 54  29  52  1   
 55  30  31  1   
 56  30  53  1   
 57  30  54  1   
 58  31  55  1   
 59  31  56  1   
@<TRIPOS>SUBSTRUCTURE
  1 ****  16 GROUP 4 **** **** 0

# MOE 2024.06 (io_trps.svl 2023.06)
