@<TRIPOS>MOLECULE
NONAME
49 52 1 0 0 
SMALL
USER_CHARGES


@<TRIPOS>ATOM
  1 O       -0.5950     0.2010    -0.1760 O.2   1 <1>  -0.5700 
  2 C       -1.4880     0.8570     0.3280 C.2   1 <1>   0.5440 
  3 N       -2.6480     0.2140     0.7010 N.am  1 <1>  -0.6600 
  4 C       -1.3170     2.2870     0.5000 C.ar  1 <1>   0.0860 
  5 C       -2.7340    -1.2800     0.7660 C.3   1 <1>   0.1400 
  6 C       -3.9920     0.8660     0.6580 C.3   1 <1>   0.1400 
  7 C       -0.7710     3.0660    -0.5250 C.ar  1 <1>  -0.1500 
  8 C       -1.6900     2.9280     1.6930 C.ar  1 <1>  -0.1500 
  9 C       -3.6840    -1.8200    -0.3150 C.3   1 <1>   0.3440 
 10 C       -4.8940     0.2080    -0.4130 C.3   1 <1>   0.2000 
 11 C       -0.6360     4.4250    -0.3380 C.ar  1 <1>   0.0820 
 12 C       -1.5480     4.2970     1.8690 C.ar  1 <1>  -0.1500 
 13 O       -4.9300    -1.1800    -0.2120 O.3   1 <1>  -0.5600 
 14 C       -3.8660    -3.3280    -0.1670 C.ar  1 <1>  -0.1430 
 15 C       -6.3480     0.7350    -0.3930 C.3   1 <1>  -0.0800 
 16 O       -0.1500     5.3360    -1.1880 O.3   1 <1>  -0.3620 
 17 C       -1.0160     5.0270     0.8260 C.ar  1 <1>   0.0830 
 18 C       -4.8690    -3.8660     0.6280 C.ar  1 <1>  -0.1500 
 19 C       -3.0020    -4.1870    -0.8310 C.ar  1 <1>  -0.1500 
 20 C       -7.2180     0.0280    -1.4470 C.3   1 <1>  -0.2400 
 21 C       -6.4200     2.2530    -0.6360 C.3   1 <1>  -0.2400 
 22 C       -0.2110     6.5940    -0.5190 C.3   1 <1>   0.4000 
 23 O       -0.7860     6.3390     0.7610 O.3   1 <1>  -0.3630 
 24 C       -5.0050    -5.2370     0.7580 C.ar  1 <1>  -0.1500 
 25 C       -3.1360    -5.5590    -0.7030 C.ar  1 <1>  -0.1500 
 26 C       -4.1390    -6.0850     0.0930 C.ar  1 <1>  -0.1500 
 27 H       -1.7630    -1.7250     0.6390 H     1 <1>   0.0800 
 28 H       -3.1010    -1.5730     1.7330 H     1 <1>   0.0800 
 29 H       -4.4610     0.7780     1.6220 H     1 <1>   0.0800 
 30 H       -3.8870     1.9110     0.4320 H     1 <1>   0.0800 
 31 H       -0.4570     2.6110    -1.4480 H     1 <1>   0.1500 
 32 H       -2.0930     2.3330     2.4950 H     1 <1>   0.1500 
 33 H       -3.2790    -1.6060    -1.2890 H     1 <1>   0.0800 
 34 H       -4.4730     0.3880    -1.3880 H     1 <1>   0.0800 
 35 H       -1.8340     4.7870     2.7820 H     1 <1>   0.1500 
 36 H       -6.7640     0.5320     0.5790 H     1 <1>   0.0800 
 37 H       -5.5510    -3.2140     1.1480 H     1 <1>   0.1500 
 38 H       -2.2160    -3.7930    -1.4520 H     1 <1>   0.1500 
 39 H       -6.8220     0.1880    -2.4340 H     1 <1>   0.0800 
 40 H       -8.2270     0.3990    -1.4140 H     1 <1>   0.0800 
 41 H       -7.2490    -1.0310    -1.2600 H     1 <1>   0.0800 
 42 H       -5.9510     2.5110    -1.5690 H     1 <1>   0.0800 
 43 H       -5.9410     2.7980     0.1570 H     1 <1>   0.0800 
 44 H       -7.4470     2.5740    -0.6730 H     1 <1>   0.0800 
 45 H        0.7830     6.9870    -0.3960 H     1 <1>   0.0800 
 46 H       -0.8420     7.2680    -1.0710 H     1 <1>   0.0800 
 47 H       -5.7880    -5.6420     1.3760 H     1 <1>   0.1500 
 48 H       -2.4620    -6.2170    -1.2220 H     1 <1>   0.1500 
 49 H       -4.2440    -7.1510     0.1930 H     1 <1>   0.1500 
@<TRIPOS>BOND
  1   1   2  2   
  2   2   3  am  
  3   2   4  1   
  4   3   5  1   
  5   3   6  1   
  6   4   7  ar  
  7   4   8  ar  
  8   5   9  1   
  9   5  27  1   
 10   5  28  1   
 11   6  10  1   
 12   6  29  1   
 13   6  30  1   
 14   7  11  ar  
 15   7  31  1   
 16   8  12  ar  
 17   8  32  1   
 18   9  13  1   
 19   9  14  1   
 20   9  33  1   
 21  10  13  1   
 22  10  15  1   
 23  10  34  1   
 24  11  16  1   
 25  11  17  ar  
 26  12  17  ar  
 27  12  35  1   
 28  14  18  ar  
 29  14  19  ar  
 30  15  20  1   
 31  15  21  1   
 32  15  36  1   
 33  16  22  1   
 34  17  23  1   
 35  18  24  ar  
 36  18  37  1   
 37  19  25  ar  
 38  19  38  1   
 39  20  39  1   
 40  20  40  1   
 41  20  41  1   
 42  21  42  1   
 43  21  43  1   
 44  21  44  1   
 45  22  23  1   
 46  22  45  1   
 47  22  46  1   
 48  24  26  ar  
 49  24  47  1   
 50  25  26  ar  
 51  25  48  1   
 52  26  49  1   
@<TRIPOS>SUBSTRUCTURE
  1 ****   3 GROUP 4 **** **** 0

# MOE 2024.06 (io_trps.svl 2023.06)
