@<TRIPOS>MOLECULE
NONAME
46 49 1 0 0 
SMALL
USER_CHARGES


@<TRIPOS>ATOM
  1 O       -0.0510    -1.2500     2.2560 O.2   1 <1>  -0.5700 
  2 C       -0.4260    -2.2220     1.6540 C.2   1 <1>   0.5690 
  3 N        0.1160    -3.4600     1.8550 N.am  1 <1>  -0.3680 
  4 C       -1.5540    -2.1280     0.6530 C.3   1 <1>  -0.0990 
  5 N       -0.1930    -4.6240     1.1840 N.2   1 <1>  -0.5120 
  6 C       -1.4220    -3.2190    -0.4270 C.3   1 <1>  -0.0990 
  7 C       -0.9360    -4.5740     0.1240 C.2   1 <1>   0.3890 
  8 C       -1.3220    -5.7590    -0.6210 C.2   1 <1>   0.6300 
  9 O       -2.0230    -5.7010    -1.6210 O.2   1 <1>  -0.5700 
 10 N       -0.9230    -7.0060    -0.2140 N.am  1 <1>  -0.7300 
 11 C       -1.3460    -8.2850    -0.8260 C.3   1 <1>   0.2200 
 12 C       -2.6500    -8.7300    -0.1880 C.3   1 <1>  -0.0800 
 13 C       -0.3950    -9.4080    -0.4240 C.3   1 <1>   0.1200 
 14 C       -2.1590    -9.4590     1.0640 C.3   1 <1>   0.1200 
 15 C       -3.4540    -9.6520    -1.1240 C.3   1 <1>  -0.0170 
 16 O       -0.8670    -9.9170     0.7890 O.3   1 <1>  -0.5600 
 17 C       -4.8300    -9.9610    -0.5430 C.ar  1 <1>  -0.1440 
 18 C       -5.8830    -9.0150    -0.5540 C.ar  1 <1>   0.0000 
 19 C       -5.0810   -11.1800     0.0150 C.ar  1 <1>  -0.1500 
 20 C       -7.1140    -9.3970     0.0320 C.ar  1 <1>   0.3100 
 21 C       -5.7900    -7.7170    -1.1110 C.ar  1 <1>  -0.1500 
 22 C       -6.3390   -11.4580     0.5620 C.ar  1 <1>   0.1600 
 23 N       -7.3250   -10.6180     0.5850 N.ar  1 <1>  -0.6200 
 24 C       -8.1750    -8.4780     0.0450 C.ar  1 <1>  -0.1500 
 25 C       -6.8440    -6.8460    -1.0830 C.ar  1 <1>  -0.1500 
 26 C       -8.0530    -7.2280    -0.4970 C.ar  1 <1>  -0.1500 
 27 H        0.8070    -3.4960     2.6130 H     1 <1>   0.3700 
 28 H       -2.4760    -2.2600     1.1890 H     1 <1>   0.0800 
 29 H       -1.5600    -1.1520     0.2030 H     1 <1>   0.0800 
 30 H       -0.7090    -2.8970    -1.1640 H     1 <1>   0.0800 
 31 H       -2.3730    -3.3290    -0.9190 H     1 <1>   0.0800 
 32 H       -0.4120    -7.0820     0.6730 H     1 <1>   0.3700 
 33 H       -1.4130    -8.1740    -1.8960 H     1 <1>   0.0800 
 34 H       -3.2580    -7.8860     0.0830 H     1 <1>   0.0800 
 35 H        0.6190    -9.0700    -0.3040 H     1 <1>   0.0800 
 36 H       -0.4290   -10.2070    -1.1440 H     1 <1>   0.0800 
 37 H       -2.7780   -10.2950     1.3390 H     1 <1>   0.0800 
 38 H       -2.0890    -8.7780     1.8950 H     1 <1>   0.0800 
 39 H       -2.9130   -10.5680    -1.2850 H     1 <1>   0.0800 
 40 H       -3.5770    -9.1880    -2.0870 H     1 <1>   0.0800 
 41 H       -4.3310   -11.9490     0.0530 H     1 <1>   0.1500 
 42 H       -4.8720    -7.3990    -1.5710 H     1 <1>   0.1500 
 43 H       -6.4950   -12.4320     0.9940 H     1 <1>   0.1500 
 44 H       -9.0960    -8.7950     0.4990 H     1 <1>   0.1500 
 45 H       -6.7580    -5.8610    -1.5100 H     1 <1>   0.1500 
 46 H       -8.8760    -6.5340    -0.4800 H     1 <1>   0.1500 
@<TRIPOS>BOND
  1   1   2  2   
  2   2   3  am  
  3   2   4  1   
  4   3   5  1   
  5   3  27  1   
  6   4   6  1   
  7   4  28  1   
  8   4  29  1   
  9   5   7  2   
 10   6   7  1   
 11   6  30  1   
 12   6  31  1   
 13   7   8  1   
 14   8   9  2   
 15   8  10  am  
 16  10  11  1   
 17  10  32  1   
 18  11  12  1   
 19  11  13  1   
 20  11  33  1   
 21  12  14  1   
 22  12  15  1   
 23  12  34  1   
 24  13  16  1   
 25  13  35  1   
 26  13  36  1   
 27  14  16  1   
 28  14  37  1   
 29  14  38  1   
 30  15  17  1   
 31  15  39  1   
 32  15  40  1   
 33  17  18  ar  
 34  17  19  ar  
 35  18  20  ar  
 36  18  21  ar  
 37  19  22  ar  
 38  19  41  1   
 39  20  23  ar  
 40  20  24  ar  
 41  21  25  ar  
 42  21  42  1   
 43  22  23  ar  
 44  22  43  1   
 45  24  26  ar  
 46  24  44  1   
 47  25  26  ar  
 48  25  45  1   
 49  26  46  1   
@<TRIPOS>SUBSTRUCTURE
  1 ****  12 GROUP 4 **** **** 0

# MOE 2024.06 (io_trps.svl 2023.06)
