@<TRIPOS>MOLECULE
NONAME
51 53 1 0 0 
SMALL
USER_CHARGES


@<TRIPOS>ATOM
  1 O       -1.7630    -0.4020     2.1590 O.2   1 <1>  -0.5700 
  2 C       -2.1750     0.2990     1.2540 C.2   1 <1>   0.7150 
  3 N       -2.9530    -0.2500     0.2660 N.am  1 <1>  -0.6600 
  4 C       -1.7830     1.6800     1.1990 C.2   1 <1>  -0.2370 
  5 C       -2.8990    -1.7330     0.0570 C.3   1 <1>   0.3640 
  6 C       -3.8180     0.5860    -0.6180 C.3   1 <1>   0.1400 
  7 N       -0.4910     2.0530     0.9490 N.pl3 1 <1>   0.0480 
  8 C       -2.5200     2.8240     1.3680 C.2   1 <1>  -0.1500 
  9 C       -1.4970    -2.0800    -0.4530 C.ar  1 <1>  -0.1440 
 10 C       -3.9840    -2.3270    -0.8910 C.3   1 <1>   0.2000 
 11 C       -4.5090    -0.2080    -1.7330 C.3   1 <1>   0.1200 
 12 C       -0.4370     3.4040     0.9560 C.2   1 <1>  -0.3020 
 13 C        0.6430     1.1330     0.7190 C.3   1 <1>   0.0160 
 14 C       -1.6740     3.9260     1.2140 C.2   1 <1>   0.0190 
 15 C       -0.6780    -2.9010     0.3070 C.ar  1 <1>  -0.1500 
 16 C       -1.0110    -1.5700    -1.6480 C.ar  1 <1>  -0.1500 
 17 O       -4.9920    -1.4110    -1.2290 O.3   1 <1>  -0.5600 
 18 C       -4.6760    -3.5520    -0.2760 C.3   1 <1>   0.1200 
 19 C       -2.0620     5.3040     1.3170 C.1   1 <1>   0.5380 
 20 C        0.6150    -3.2190    -0.1000 C.ar  1 <1>   0.0830 
 21 C        0.2640    -1.8900    -2.0760 C.ar  1 <1>  -0.1500 
 22 O       -3.7450    -4.5380     0.0440 O.3   1 <1>  -0.6800 
 23 N       -2.3810     6.3970     1.3910 N.1   1 <1>  -0.5570 
 24 O        1.4270    -3.9890     0.6820 O.3   1 <1>  -0.3630 
 25 C        1.0840    -2.7140    -1.3250 C.ar  1 <1>   0.0830 
 26 C        1.1360    -4.2210     2.0440 C.3   1 <1>   0.0400 
 27 O        2.3110    -2.9470    -1.8740 O.3   1 <1>  -0.3630 
 28 C        3.0240    -4.1350    -1.6120 C.3   1 <1>   0.0400 
 29 H       -3.0300    -2.1950     1.0210 H     1 <1>   0.0800 
 30 H       -4.5780     1.0460    -0.0110 H     1 <1>   0.0800 
 31 H       -3.2310     1.3720    -1.0610 H     1 <1>   0.0800 
 32 H       -3.5710     2.8840     1.5920 H     1 <1>   0.1500 
 33 H       -3.5270    -2.6350    -1.8140 H     1 <1>   0.0800 
 34 H       -3.8340    -0.4120    -2.5460 H     1 <1>   0.0800 
 35 H       -5.3450     0.3490    -2.1180 H     1 <1>   0.0800 
 36 H        0.4770     3.9460     0.7830 H     1 <1>   0.1500 
 37 H        1.5390     1.6950     0.5320 H     1 <1>   0.0800 
 38 H        0.4300     0.5050    -0.1280 H     1 <1>   0.0800 
 39 H        0.7820     0.5160     1.5890 H     1 <1>   0.0800 
 40 H       -1.0710    -3.2820     1.2310 H     1 <1>   0.1500 
 41 H       -1.6170    -0.9180    -2.2500 H     1 <1>   0.1500 
 42 H       -5.3860    -3.9710    -0.9670 H     1 <1>   0.0800 
 43 H       -5.1810    -3.2720     0.6320 H     1 <1>   0.0800 
 44 H        0.6360    -1.4980    -3.0060 H     1 <1>   0.1500 
 45 H       -3.3330    -4.9110    -0.7610 H     1 <1>   0.4000 
 46 H        1.9830    -4.7120     2.4880 H     1 <1>   0.0800 
 47 H        0.2700    -4.8550     2.1140 H     1 <1>   0.0800 
 48 H        0.9630    -3.2770     2.5320 H     1 <1>   0.0800 
 49 H        3.7700    -4.2530    -2.3760 H     1 <1>   0.0800 
 50 H        2.3420    -4.9670    -1.6300 H     1 <1>   0.0800 
 51 H        3.4980    -4.0510    -0.6510 H     1 <1>   0.0800 
@<TRIPOS>BOND
  1   1   2  2   
  2   2   3  am  
  3   2   4  1   
  4   3   5  1   
  5   3   6  1   
  6   4   7  1   
  7   4   8  2   
  8   5   9  1   
  9   5  10  1   
 10   5  29  1   
 11   6  11  1   
 12   6  30  1   
 13   6  31  1   
 14   7  12  1   
 15   7  13  1   
 16   8  14  1   
 17   8  32  1   
 18   9  15  ar  
 19   9  16  ar  
 20  10  17  1   
 21  10  18  1   
 22  10  33  1   
 23  11  17  1   
 24  11  34  1   
 25  11  35  1   
 26  12  14  2   
 27  12  36  1   
 28  13  37  1   
 29  13  38  1   
 30  13  39  1   
 31  14  19  1   
 32  15  20  ar  
 33  15  40  1   
 34  16  21  ar  
 35  16  41  1   
 36  18  22  1   
 37  18  42  1   
 38  18  43  1   
 39  19  23  3   
 40  20  24  1   
 41  20  25  ar  
 42  21  25  ar  
 43  21  44  1   
 44  22  45  1   
 45  24  26  1   
 46  25  27  1   
 47  26  46  1   
 48  26  47  1   
 49  26  48  1   
 50  27  28  1   
 51  28  49  1   
 52  28  50  1   
 53  28  51  1   
@<TRIPOS>SUBSTRUCTURE
  1 ****   9 GROUP 4 **** **** 0

# MOE 2024.06 (io_trps.svl 2023.06)
