@<TRIPOS>MOLECULE
NONAME
56 59 1 0 0 
SMALL
USER_CHARGES


@<TRIPOS>ATOM
  1 O        0.6040     0.0920     0.0300 O.3   1 <1>  -0.6800 
  2 C        1.6080    -0.3360    -0.8320 C.3   1 <1>   0.2000 
  3 C        2.3730    -1.4580    -0.1420 C.3   1 <1>  -0.0800 
  4 C        2.6550     0.7770    -0.9420 C.3   1 <1>   0.3430 
  5 C        3.2450    -0.6990     0.8670 C.3   1 <1>   0.3430 
  6 C        3.2100    -2.2760    -1.1470 C.3   1 <1>   0.0210 
  7 N        3.5140     0.6520     0.2820 N.4   1 <1>  -0.9590 
  8 C        4.0750    -3.3000    -0.4440 C.2   1 <1>   0.1080 
  9 C        3.1880     1.7430     1.2730 C.3   1 <1>   0.4860 
 10 N        5.1870    -2.9850     0.1440 N.2   1 <1>  -0.7070 
 11 C        3.7940    -4.6580    -0.3530 C.2   1 <1>  -0.1500 
 12 C        3.5540     3.1480     0.7760 C.ar  1 <1>   0.4770 
 13 N        5.6600    -4.1570     0.6220 N.pl3 1 <1>   0.3000 
 14 C        4.8280    -5.1800     0.3380 C.2   1 <1>  -0.3320 
 15 N        4.7770     3.5560     0.9860 N.ar  1 <1>  -0.6200 
 16 N        2.6220     3.8170     0.1560 N.ar  1 <1>  -0.6200 
 17 C        5.0810    -6.6210     0.7450 C.3   1 <1>  -0.0600 
 18 C        5.0300     4.7670     0.5320 C.ar  1 <1>   0.7200 
 19 C        3.0110     4.9910    -0.2680 C.ar  1 <1>   0.7200 
 20 N        4.1820     5.5230    -0.1130 N.ar  1 <1>  -0.6200 
 21 N        6.2990     5.2060     0.7660 N.pl3 1 <1>  -0.6000 
 22 N        2.1070     5.7140    -0.9260 N.pl3 1 <1>  -0.9000 
 23 C        6.9390     6.4240     0.5070 C.ar  1 <1>   0.1000 
 24 C        8.2920     6.4170     0.1880 C.ar  1 <1>  -0.1500 
 25 C        6.2840     7.6490     0.5820 C.ar  1 <1>  -0.1500 
 26 C        8.9790     7.5940    -0.0590 C.ar  1 <1>  -0.1440 
 27 C        6.9600     8.8290     0.3340 C.ar  1 <1>  -0.1500 
 28 C        8.3050     8.8020     0.0130 C.ar  1 <1>  -0.1500 
 29 C       10.4550     7.5730    -0.4130 C.3   1 <1>  -0.0960 
 30 H       -0.1770    -0.5010    -0.0110 H     1 <1>   0.4000 
 31 H        1.1710    -0.6010    -1.7810 H     1 <1>   0.0800 
 32 H        1.7100    -2.1340     0.3720 H     1 <1>   0.0800 
 33 H        2.1800     1.7410    -1.0230 H     1 <1>   0.0800 
 34 H        3.2570     0.6100    -1.8200 H     1 <1>   0.0800 
 35 H        4.1590    -1.2180     1.0940 H     1 <1>   0.0800 
 36 H        2.6830    -0.5900     1.7810 H     1 <1>   0.0800 
 37 H        3.8570    -1.6400    -1.7240 H     1 <1>   0.0800 
 38 H        2.5570    -2.7870    -1.8320 H     1 <1>   0.0800 
 39 H        4.5090     0.7310     0.0250 H     1 <1>   0.4500 
 40 H        2.1330     1.7250     1.4900 H     1 <1>   0.0800 
 41 H        3.7220     1.5680     2.1910 H     1 <1>   0.0800 
 42 H        2.9350    -5.1660    -0.7560 H     1 <1>   0.1500 
 43 H        6.5520    -4.2320     1.1280 H     1 <1>   0.2700 
 44 H        4.2790    -7.2500     0.4020 H     1 <1>   0.0800 
 45 H        5.1450    -6.7020     1.8150 H     1 <1>   0.0800 
 46 H        6.0000    -6.9750     0.3110 H     1 <1>   0.0800 
 47 H        6.8880     4.4810     1.1630 H     1 <1>   0.4000 
 48 H        2.3410     6.6850    -1.1240 H     1 <1>   0.4000 
 49 H        1.1210     5.4890    -0.8240 H     1 <1>   0.4000 
 50 H        8.8100     5.4780     0.1270 H     1 <1>   0.1500 
 51 H        5.2420     7.6830     0.8400 H     1 <1>   0.1500 
 52 H        6.4400     9.7690     0.3930 H     1 <1>   0.1500 
 53 H        8.8250     9.7240    -0.1790 H     1 <1>   0.1500 
 54 H       10.9770     8.3400     0.1310 H     1 <1>   0.0800 
 55 H       10.5790     7.7480    -1.4660 H     1 <1>   0.0800 
 56 H       10.8950     6.6240    -0.1660 H     1 <1>   0.0800 
@<TRIPOS>BOND
  1   1   2  1   
  2   1  30  1   
  3   2   3  1   
  4   2   4  1   
  5   2  31  1   
  6   3   5  1   
  7   3   6  1   
  8   3  32  1   
  9   4   7  1   
 10   4  33  1   
 11   4  34  1   
 12   5   7  1   
 13   5  35  1   
 14   5  36  1   
 15   6   8  1   
 16   6  37  1   
 17   6  38  1   
 18   7   9  1   
 19   7  39  1   
 20   8  10  2   
 21   8  11  1   
 22   9  12  1   
 23   9  40  1   
 24   9  41  1   
 25  10  13  1   
 26  11  14  2   
 27  11  42  1   
 28  12  15  ar  
 29  12  16  ar  
 30  13  14  1   
 31  13  43  1   
 32  14  17  1   
 33  15  18  ar  
 34  16  19  ar  
 35  17  44  1   
 36  17  45  1   
 37  17  46  1   
 38  18  20  ar  
 39  18  21  1   
 40  19  20  ar  
 41  19  22  1   
 42  21  23  1   
 43  21  47  1   
 44  22  48  1   
 45  22  49  1   
 46  23  24  ar  
 47  23  25  ar  
 48  24  26  ar  
 49  24  50  1   
 50  25  27  ar  
 51  25  51  1   
 52  26  28  ar  
 53  26  29  1   
 54  27  28  ar  
 55  27  52  1   
 56  28  53  1   
 57  29  54  1   
 58  29  55  1   
 59  29  56  1   
@<TRIPOS>SUBSTRUCTURE
  1 ****  15 GROUP 4 **** **** 0

# MOE 2024.06 (io_trps.svl 2023.06)
