@<TRIPOS>MOLECULE
NONAME
42 44 1 0 0 
SMALL
USER_CHARGES


@<TRIPOS>ATOM
  1 O        1.1730     3.9440    -1.4020 O.3   1 <1>  -0.0190 
  2 N        2.3200     4.1460    -1.9710 N.2   1 <1>  -0.4100 
  3 C        1.1990     2.9110    -0.6050 C.2   1 <1>  -0.0400 
  4 C        3.0850     3.1860    -1.5920 C.2   1 <1>   0.1080 
  5 C        2.4170     2.3560    -0.6950 C.2   1 <1>  -0.1500 
  6 C       -0.0250     2.5660     0.2290 C.3   1 <1>   0.0200 
  7 C        4.5120     2.9990    -2.0650 C.3   1 <1>  -0.0590 
  8 C       -0.4540     3.6900     1.2060 C.3   1 <1>  -0.0800 
  9 C       -1.1070     4.8850     0.4960 C.3   1 <1>   0.2000 
 10 C        0.7310     4.3170     1.9470 C.3   1 <1>   0.3430 
 11 O       -2.1700     5.3420     1.2640 O.3   1 <1>  -0.6800 
 12 C       -0.0370     5.9850     0.4070 C.3   1 <1>   0.3430 
 13 N        1.1810     5.4320     1.0760 N.4   1 <1>  -0.9590 
 14 C        2.0520     6.4560     1.7000 C.3   1 <1>   0.4860 
 15 C        2.6930     7.2440     0.5740 C.ar  1 <1>  -0.1440 
 16 C        3.6570     6.6470    -0.2260 C.ar  1 <1>  -0.1500 
 17 C        2.3180     8.5540     0.3190 C.ar  1 <1>  -0.1500 
 18 C        4.2400     7.3270    -1.2890 C.ar  1 <1>   0.0730 
 19 C        2.8940     9.2470    -0.7310 C.ar  1 <1>  -0.1500 
 20 C        5.2230     6.6760    -2.1090 C.1   1 <1>   0.4840 
 21 C        3.8450     8.6370    -1.5290 C.ar  1 <1>  -0.1500 
 22 N        6.0050     6.1240    -2.7280 N.1   1 <1>  -0.5570 
 23 H        2.8260     1.4860    -0.2100 H     1 <1>   0.1500 
 24 H       -0.8420     2.3210    -0.4290 H     1 <1>   0.0800 
 25 H        0.1990     1.6780     0.7950 H     1 <1>   0.0800 
 26 H        4.7200     1.9560    -2.2120 H     1 <1>   0.0800 
 27 H        5.1990     3.3980    -1.3420 H     1 <1>   0.0800 
 28 H        4.6590     3.5110    -3.0000 H     1 <1>   0.0800 
 29 H       -1.1400     3.2500     1.9110 H     1 <1>   0.0800 
 30 H       -1.4960     4.6380    -0.4790 H     1 <1>   0.0800 
 31 H        1.5200     3.6010     2.1150 H     1 <1>   0.0800 
 32 H        0.3960     4.7090     2.8940 H     1 <1>   0.0800 
 33 H       -1.9760     5.3870     2.2200 H     1 <1>   0.4000 
 34 H       -0.3860     6.8730     0.9060 H     1 <1>   0.0800 
 35 H        0.1830     6.2170    -0.6230 H     1 <1>   0.0800 
 36 H        1.7310     5.0160     0.3010 H     1 <1>   0.4500 
 37 H        1.4770     7.1070     2.3390 H     1 <1>   0.0800 
 38 H        2.8230     5.9840     2.2870 H     1 <1>   0.0800 
 39 H        3.9680     5.6330    -0.0390 H     1 <1>   0.1500 
 40 H        1.5790     9.0510     0.9260 H     1 <1>   0.1500 
 41 H        2.6030    10.2660    -0.9300 H     1 <1>   0.1500 
 42 H        4.2850     9.1850    -2.3460 H     1 <1>   0.1500 
@<TRIPOS>BOND
  1   1   2  1   
  2   1   3  1   
  3   2   4  2   
  4   3   5  2   
  5   3   6  1   
  6   4   5  1   
  7   4   7  1   
  8   5  23  1   
  9   6   8  1   
 10   6  24  1   
 11   6  25  1   
 12   7  26  1   
 13   7  27  1   
 14   7  28  1   
 15   8   9  1   
 16   8  10  1   
 17   8  29  1   
 18   9  11  1   
 19   9  12  1   
 20   9  30  1   
 21  10  13  1   
 22  10  31  1   
 23  10  32  1   
 24  11  33  1   
 25  12  13  1   
 26  12  34  1   
 27  12  35  1   
 28  13  14  1   
 29  13  36  1   
 30  14  15  1   
 31  14  37  1   
 32  14  38  1   
 33  15  16  ar  
 34  15  17  ar  
 35  16  18  ar  
 36  16  39  1   
 37  17  19  ar  
 38  17  40  1   
 39  18  20  1   
 40  18  21  ar  
 41  19  21  ar  
 42  19  41  1   
 43  20  22  3   
 44  21  42  1   
@<TRIPOS>SUBSTRUCTURE
  1 ****  13 GROUP 4 **** **** 0

# MOE 2024.06 (io_trps.svl 2023.06)
