@<TRIPOS>MOLECULE
NONAME
51 53 1 0 0 
SMALL
USER_CHARGES


@<TRIPOS>ATOM
  1 O       -0.2980    -0.3370     0.5380 O.3   1 <1>  -0.8290 
  2 C        0.4390    -1.3320     0.5150 C.ar  1 <1>   0.4490 
  3 N       -0.1450    -2.5050     0.2360 N.ar  1 <1>  -0.6200 
  4 N        1.7450    -1.1440     0.7830 N.ar  1 <1>  -0.6200 
  5 C        0.6170    -3.5830     0.2700 C.ar  1 <1>   0.3960 
  6 C        2.4930    -2.2080     0.7780 C.ar  1 <1>   0.1660 
  7 C        0.0610    -4.9220     0.0300 C.2   1 <1>   0.5440 
  8 C        1.9720    -3.4550     0.5330 C.ar  1 <1>  -0.1500 
  9 C        3.9760    -2.0330     1.0620 C.3   1 <1>  -0.0170 
 10 O        0.7600    -5.7530    -0.5360 O.2   1 <1>  -0.5700 
 11 N       -1.2080    -5.3300     0.4320 N.am  1 <1>  -0.6600 
 12 C        4.8570    -2.2450    -0.1870 C.3   1 <1>  -0.0800 
 13 C       -1.8290    -6.5910    -0.0700 C.3   1 <1>   0.1400 
 14 C       -2.0730    -4.5200     1.3360 C.3   1 <1>   0.1400 
 15 C        6.3420    -2.1660     0.1870 C.3   1 <1>  -0.2400 
 16 C        4.5420    -1.2110    -1.2780 C.3   1 <1>  -0.2400 
 17 C       -3.0760    -6.3120    -0.9230 C.3   1 <1>   0.1400 
 18 C       -3.0950    -3.7350     0.5080 C.3   1 <1>  -0.1600 
 19 N       -4.2570    -5.9360    -0.0800 N.am  1 <1>  -0.6600 
 20 C       -4.4100    -4.4810     0.2460 C.3   1 <1>   0.1400 
 21 C       -5.2540    -6.8380     0.2700 C.2   1 <1>   0.5440 
 22 O       -6.2910    -6.3820     0.7250 O.2   1 <1>  -0.5700 
 23 C       -5.1620    -8.2910     0.0970 C.ar  1 <1>   0.3960 
 24 N       -4.0050    -8.9550     0.2770 N.ar  1 <1>  -0.6200 
 25 C       -6.3320    -8.9790    -0.2540 C.ar  1 <1>   0.1600 
 26 C       -4.1080   -10.2570     0.0880 C.ar  1 <1>   0.1600 
 27 N       -6.4350   -10.2840    -0.4530 N.ar  1 <1>  -0.6200 
 28 C       -5.2840   -10.9020    -0.2670 C.ar  1 <1>   0.1600 
 29 H        2.5980    -4.3250     0.5410 H     1 <1>   0.1500 
 30 H        4.2560    -2.7360     1.8250 H     1 <1>   0.0800 
 31 H        4.1400    -1.0460     1.4560 H     1 <1>   0.0800 
 32 H        4.6590    -3.2260    -0.5840 H     1 <1>   0.0800 
 33 H       -2.0840    -7.2190     0.7640 H     1 <1>   0.0800 
 34 H       -1.1250    -7.1320    -0.6760 H     1 <1>   0.0800 
 35 H       -1.4690    -3.8340     1.9030 H     1 <1>   0.0800 
 36 H       -2.5740    -5.1630     2.0400 H     1 <1>   0.0800 
 37 H        6.5790    -1.1950     0.5840 H     1 <1>   0.0800 
 38 H        6.9540    -2.3420    -0.6800 H     1 <1>   0.0800 
 39 H        6.5820    -2.9100     0.9260 H     1 <1>   0.0800 
 40 H        4.6980    -0.2130    -0.9090 H     1 <1>   0.0800 
 41 H        3.5140    -1.2940    -1.5880 H     1 <1>   0.0800 
 42 H        5.1660    -1.3670    -2.1390 H     1 <1>   0.0800 
 43 H       -3.3080    -7.1920    -1.4930 H     1 <1>   0.0800 
 44 H       -2.8580    -5.5280    -1.6280 H     1 <1>   0.0800 
 45 H       -2.6510    -3.4210    -0.4200 H     1 <1>   0.0800 
 46 H       -3.3310    -2.8320     1.0410 H     1 <1>   0.0800 
 47 H       -4.9370    -3.9970    -0.5570 H     1 <1>   0.0800 
 48 H       -5.0160    -4.3870     1.1310 H     1 <1>   0.0800 
 49 H       -7.2320    -8.4010    -0.3750 H     1 <1>   0.1500 
 50 H       -3.2180   -10.8470     0.2210 H     1 <1>   0.1500 
 51 H       -5.2710   -11.9700    -0.4010 H     1 <1>   0.1500 
@<TRIPOS>BOND
  1   1   2  1   
  2   2   3  ar  
  3   2   4  ar  
  4   3   5  ar  
  5   4   6  ar  
  6   5   7  1   
  7   5   8  ar  
  8   6   8  ar  
  9   6   9  1   
 10   7  10  2   
 11   7  11  am  
 12   8  29  1   
 13   9  12  1   
 14   9  30  1   
 15   9  31  1   
 16  11  13  1   
 17  11  14  1   
 18  12  15  1   
 19  12  16  1   
 20  12  32  1   
 21  13  17  1   
 22  13  33  1   
 23  13  34  1   
 24  14  18  1   
 25  14  35  1   
 26  14  36  1   
 27  15  37  1   
 28  15  38  1   
 29  15  39  1   
 30  16  40  1   
 31  16  41  1   
 32  16  42  1   
 33  17  19  1   
 34  17  43  1   
 35  17  44  1   
 36  18  20  1   
 37  18  45  1   
 38  18  46  1   
 39  19  20  1   
 40  19  21  am  
 41  20  47  1   
 42  20  48  1   
 43  21  22  2   
 44  21  23  1   
 45  23  24  ar  
 46  23  25  ar  
 47  24  26  ar  
 48  25  27  ar  
 49  25  49  1   
 50  26  28  ar  
 51  26  50  1   
 52  27  28  ar  
 53  28  51  1   
@<TRIPOS>SUBSTRUCTURE
  1 ****  11 GROUP 4 **** **** 0

# MOE 2024.06 (io_trps.svl 2023.06)
