@<TRIPOS>MOLECULE
NONAME
37 38 1 0 0 
SMALL
USER_CHARGES


@<TRIPOS>ATOM
  1 O       -0.2590     0.1140    -0.4880 O.2   1 <1>  -0.5700 
  2 C       -1.2860     0.7450    -0.3730 C.2   1 <1>   0.5690 
  3 N       -2.4950     0.1050    -0.2640 N.am  1 <1>  -0.6600 
  4 C       -1.1820     2.2750    -0.4140 C.3   1 <1>   0.1810 
  5 C       -3.8140     0.7570    -0.0750 C.3   1 <1>   0.1400 
  6 C       -2.6220    -1.3710    -0.2120 C.3   1 <1>   0.1400 
  7 O       -1.8970     2.9140     0.6170 O.3   1 <1>  -0.5600 
  8 C       -4.8240    -0.3860    -0.1530 C.3   1 <1>   0.2000 
  9 C       -4.0510    -1.6350     0.2670 C.3   1 <1>  -0.0800 
 10 C       -1.7300     4.2950     0.6480 C.3   1 <1>   0.0400 
 11 O       -5.9000    -0.1780     0.6950 O.3   1 <1>  -0.6800 
 12 C       -4.6570    -2.9330    -0.2850 C.3   1 <1>   0.0210 
 13 C       -3.7950    -4.1300     0.0660 C.2   1 <1>   0.1080 
 14 N       -3.6120    -4.5310     1.2850 N.2   1 <1>  -0.7070 
 15 C       -3.1040    -4.9110    -0.8540 C.2   1 <1>  -0.1500 
 16 N       -2.7900    -5.5910     1.1750 N.pl3 1 <1>   0.3000 
 17 C       -2.4670    -5.8410    -0.1120 C.2   1 <1>  -0.3320 
 18 C       -1.5560    -6.9690    -0.5590 C.3   1 <1>  -0.0600 
 19 H       -1.5600     2.6240    -1.3570 H     1 <1>   0.0800 
 20 H       -0.1460     2.5480    -0.3250 H     1 <1>   0.0800 
 21 H       -3.8380     1.2240     0.8940 H     1 <1>   0.0800 
 22 H       -3.9920     1.4860    -0.8450 H     1 <1>   0.0800 
 23 H       -2.4630    -1.7690    -1.1990 H     1 <1>   0.0800 
 24 H       -1.8980    -1.7960     0.4640 H     1 <1>   0.0800 
 25 H       -5.1960    -0.4730    -1.1590 H     1 <1>   0.0800 
 26 H       -4.0150    -1.6940     1.3410 H     1 <1>   0.0800 
 27 H       -2.3190     4.6860     1.4590 H     1 <1>   0.0800 
 28 H       -2.0680     4.7170    -0.2830 H     1 <1>   0.0800 
 29 H       -0.6910     4.5240     0.8140 H     1 <1>   0.0800 
 30 H       -5.6020    -0.1980     1.6250 H     1 <1>   0.4000 
 31 H       -4.7590    -2.8700    -1.3530 H     1 <1>   0.0800 
 32 H       -5.6360    -3.0790     0.1360 H     1 <1>   0.0800 
 33 H       -3.0950    -4.7790    -1.9210 H     1 <1>   0.1500 
 34 H       -2.4680    -6.1200     1.9940 H     1 <1>   0.2700 
 35 H       -1.4530    -6.9590    -1.6300 H     1 <1>   0.0800 
 36 H       -1.9650    -7.9180    -0.2620 H     1 <1>   0.0800 
 37 H       -0.5800    -6.8540    -0.1210 H     1 <1>   0.0800 
@<TRIPOS>BOND
  1   1   2  2   
  2   2   3  am  
  3   2   4  1   
  4   3   5  1   
  5   3   6  1   
  6   4   7  1   
  7   4  19  1   
  8   4  20  1   
  9   5   8  1   
 10   5  21  1   
 11   5  22  1   
 12   6   9  1   
 13   6  23  1   
 14   6  24  1   
 15   7  10  1   
 16   8   9  1   
 17   8  11  1   
 18   8  25  1   
 19   9  12  1   
 20   9  26  1   
 21  10  27  1   
 22  10  28  1   
 23  10  29  1   
 24  11  30  1   
 25  12  13  1   
 26  12  31  1   
 27  12  32  1   
 28  13  14  2   
 29  13  15  1   
 30  14  16  1   
 31  15  17  2   
 32  15  33  1   
 33  16  17  1   
 34  16  34  1   
 35  17  18  1   
 36  18  35  1   
 37  18  36  1   
 38  18  37  1   
@<TRIPOS>SUBSTRUCTURE
  1 ****   6 GROUP 4 **** **** 0

# MOE 2024.06 (io_trps.svl 2023.06)
