@<TRIPOS>MOLECULE
NONAME
42 44 1 0 0 
SMALL
USER_CHARGES


@<TRIPOS>ATOM
  1 CL       0.2630     0.5240    -1.5210 Cl    1 <1>  -0.1770 
  2 C        0.2860     2.2050    -1.0550 C.ar  1 <1>   0.1770 
  3 C        1.2580     2.6490    -0.1750 C.ar  1 <1>  -0.1500 
  4 C       -0.6680     3.0640    -1.5730 C.ar  1 <1>  -0.1500 
  5 C        1.2810     3.9840     0.1960 C.ar  1 <1>  -0.1500 
  6 C       -0.6460     4.3980    -1.2020 C.ar  1 <1>  -0.1500 
  7 C        0.3270     4.8480    -0.3250 C.ar  1 <1>   0.1020 
  8 S        0.2890     6.5980     0.0970 S.3   1 <1>  -0.3320 
  9 C        1.8140     6.9270     1.1100 C.3   1 <1>   0.1310 
 10 C        1.9660     8.4100     1.4190 C.2   1 <1>   0.5690 
 11 O        1.7260     8.7520     2.5550 O.2   1 <1>  -0.5700 
 12 N        2.4110     9.3080     0.4730 N.am  1 <1>  -0.6600 
 13 C        2.9190    10.6450     0.9190 C.3   1 <1>   0.1400 
 14 C        2.6330     8.9680    -0.9700 C.3   1 <1>   0.1400 
 15 C        4.4520    10.8130     0.8030 C.3   1 <1>   0.2200 
 16 C        4.1070     8.9710    -1.4270 C.3   1 <1>  -0.0190 
 17 N        4.8300    11.2040    -0.5850 N.am  1 <1>  -0.6600 
 18 C        5.3080     9.6210     1.3120 C.3   1 <1>   0.1200 
 19 C        4.6130    10.3780    -1.6490 C.2   1 <1>   0.5690 
 20 C        5.1150     8.1630    -0.5880 C.3   1 <1>   0.1200 
 21 C        5.3750    12.5820    -0.7540 C.3   1 <1>   0.0600 
 22 O        4.9840     8.3570     0.7870 O.3   1 <1>  -0.5600 
 23 O        4.8240    10.7260    -2.7870 O.2   1 <1>  -0.5700 
 24 H        1.9820     1.9540     0.2120 H     1 <1>   0.1500 
 25 H       -1.4130     2.6910    -2.2530 H     1 <1>   0.1500 
 26 H        2.0320     4.3220     0.8830 H     1 <1>   0.1500 
 27 H       -1.3760     5.0880    -1.5890 H     1 <1>   0.1500 
 28 H        1.7090     6.3740     2.0250 H     1 <1>   0.0800 
 29 H        2.6630     6.5720     0.5600 H     1 <1>   0.0800 
 30 H        2.4300    11.4160     0.3510 H     1 <1>   0.0800 
 31 H        2.6530    10.8050     1.9490 H     1 <1>   0.0800 
 32 H        2.2230     8.0010    -1.1880 H     1 <1>   0.0800 
 33 H        2.0840     9.6730    -1.5710 H     1 <1>   0.0800 
 34 H        4.7030    11.6450     1.4360 H     1 <1>   0.0800 
 35 H        4.1110     8.5160    -2.4010 H     1 <1>   0.0800 
 36 H        5.1750     9.5420     2.3770 H     1 <1>   0.0800 
 37 H        6.3500     9.8090     1.1220 H     1 <1>   0.0800 
 38 H        6.1260     8.3990    -0.8730 H     1 <1>   0.0800 
 39 H        4.9550     7.1130    -0.7630 H     1 <1>   0.0800 
 40 H        6.2570    12.7030    -0.1510 H     1 <1>   0.0800 
 41 H        4.6360    13.3050    -0.4560 H     1 <1>   0.0800 
 42 H        5.6380    12.7670    -1.7820 H     1 <1>   0.0800 
@<TRIPOS>BOND
  1   1   2  1   
  2   2   3  ar  
  3   2   4  ar  
  4   3   5  ar  
  5   3  24  1   
  6   4   6  ar  
  7   4  25  1   
  8   5   7  ar  
  9   5  26  1   
 10   6   7  ar  
 11   6  27  1   
 12   7   8  1   
 13   8   9  1   
 14   9  10  1   
 15   9  28  1   
 16   9  29  1   
 17  10  11  2   
 18  10  12  am  
 19  12  13  1   
 20  12  14  1   
 21  13  15  1   
 22  13  30  1   
 23  13  31  1   
 24  14  16  1   
 25  14  32  1   
 26  14  33  1   
 27  15  17  1   
 28  15  18  1   
 29  15  34  1   
 30  16  19  1   
 31  16  20  1   
 32  16  35  1   
 33  17  19  am  
 34  17  21  1   
 35  18  22  1   
 36  18  36  1   
 37  18  37  1   
 38  19  23  2   
 39  20  22  1   
 40  20  38  1   
 41  20  39  1   
 42  21  40  1   
 43  21  41  1   
 44  21  42  1   
@<TRIPOS>SUBSTRUCTURE
  1 ****   9 GROUP 4 **** **** 0

# MOE 2024.06 (io_trps.svl 2023.06)
