@<TRIPOS>MOLECULE
NONAME
41 42 1 0 0 
SMALL
USER_CHARGES


@<TRIPOS>ATOM
  1 F        0.3240    -1.2090     0.9870 F     1 <1>  -0.1900 
  2 C        0.0070    -2.4500     0.7330 C.ar  1 <1>   0.1900 
  3 C       -0.5280    -2.7630    -0.5010 C.ar  1 <1>  -0.1500 
  4 C        0.2200    -3.4040     1.7100 C.ar  1 <1>  -0.1500 
  5 C       -0.8620    -4.0820    -0.7620 C.ar  1 <1>  -0.1500 
  6 C       -0.1180    -4.7190     1.4360 C.ar  1 <1>  -0.1500 
  7 C       -0.6580    -5.0620     0.2020 C.ar  1 <1>  -0.1430 
  8 C       -1.0320    -6.5050    -0.0990 C.3   1 <1>  -0.0160 
  9 C       -2.5240    -6.7300     0.1470 C.3   1 <1>   0.1400 
 10 N       -2.8750    -8.1390    -0.1380 N.am  1 <1>  -0.7300 
 11 C       -3.4430    -8.6010    -1.2820 C.2   1 <1>   0.5690 
 12 O       -3.6910    -7.8760    -2.2150 O.2   1 <1>  -0.5700 
 13 C       -3.7630   -10.0970    -1.3840 C.3   1 <1>   0.1710 
 14 N       -3.9770   -10.7870    -0.0730 N.3   1 <1>  -0.8100 
 15 C       -3.9500   -12.2520    -0.2520 C.3   1 <1>   0.1100 
 16 C       -5.2460   -10.3540     0.5390 C.3   1 <1>   0.1100 
 17 C       -4.0690   -12.9720     1.1000 C.3   1 <1>   0.1200 
 18 C       -5.4020   -10.9910     1.9230 C.3   1 <1>  -0.1600 
 19 C       -4.0630   -14.4480     0.8850 C.1   1 <1>   0.3570 
 20 C       -5.3390   -12.5240     1.8450 C.3   1 <1>  -0.1600 
 21 N       -4.0610   -15.5710     0.7070 N.1   1 <1>  -0.5570 
 22 H       -0.6790    -1.9930    -1.2350 H     1 <1>   0.1500 
 23 H        0.6390    -3.1210     2.6580 H     1 <1>   0.1500 
 24 H       -1.2810    -4.3440    -1.7190 H     1 <1>   0.1500 
 25 H        0.0420    -5.4730     2.1870 H     1 <1>   0.1500 
 26 H       -0.4580    -7.1680     0.5240 H     1 <1>   0.0800 
 27 H       -0.8050    -6.7250    -1.1270 H     1 <1>   0.0800 
 28 H       -3.0950    -6.0790    -0.4950 H     1 <1>   0.0800 
 29 H       -2.7710    -6.4970     1.1680 H     1 <1>   0.0800 
 30 H       -2.7430    -8.8290     0.6090 H     1 <1>   0.3700 
 31 H       -2.9340   -10.5540    -1.8930 H     1 <1>   0.0800 
 32 H       -4.6330   -10.2180    -2.0060 H     1 <1>   0.0800 
 33 H       -3.0210   -12.5380    -0.7180 H     1 <1>   0.0800 
 34 H       -4.7580   -12.5540    -0.8980 H     1 <1>   0.0800 
 35 H       -6.0750   -10.6370    -0.0900 H     1 <1>   0.0800 
 36 H       -5.2590    -9.2810     0.6450 H     1 <1>   0.0800 
 37 H       -3.2060   -12.7240     1.6900 H     1 <1>   0.0800 
 38 H       -6.3430   -10.6900     2.3490 H     1 <1>   0.0800 
 39 H       -4.6200   -10.6240     2.5650 H     1 <1>   0.0800 
 40 H       -5.3510   -12.9420     2.8370 H     1 <1>   0.0800 
 41 H       -6.2080   -12.8840     1.3200 H     1 <1>   0.0800 
@<TRIPOS>BOND
  1   1   2  1   
  2   2   3  ar  
  3   2   4  ar  
  4   3   5  ar  
  5   3  22  1   
  6   4   6  ar  
  7   4  23  1   
  8   5   7  ar  
  9   5  24  1   
 10   6   7  ar  
 11   6  25  1   
 12   7   8  1   
 13   8   9  1   
 14   8  26  1   
 15   8  27  1   
 16   9  10  1   
 17   9  28  1   
 18   9  29  1   
 19  10  11  am  
 20  10  30  1   
 21  11  12  2   
 22  11  13  1   
 23  13  14  1   
 24  13  31  1   
 25  13  32  1   
 26  14  15  1   
 27  14  16  1   
 28  15  17  1   
 29  15  33  1   
 30  15  34  1   
 31  16  18  1   
 32  16  35  1   
 33  16  36  1   
 34  17  19  1   
 35  17  20  1   
 36  17  37  1   
 37  18  20  1   
 38  18  38  1   
 39  18  39  1   
 40  19  21  3   
 41  20  40  1   
 42  20  41  1   
@<TRIPOS>SUBSTRUCTURE
  1 ****  10 GROUP 4 **** **** 0

# MOE 2024.06 (io_trps.svl 2023.06)
