@<TRIPOS>MOLECULE
NONAME
39 42 1 0 0 
SMALL
USER_CHARGES


@<TRIPOS>ATOM
  1 O       -0.6200    -0.0430    -0.0420 O.2   1 <1>  -0.5700 
  2 C       -1.5650     0.6590     0.2700 C.2   1 <1>   0.5440 
  3 N       -2.6590     0.0850     0.8630 N.am  1 <1>  -0.6600 
  4 C       -1.5020     2.0840     0.0140 C.ar  1 <1>   0.0860 
  5 C       -3.8320     0.8080     1.4330 C.3   1 <1>   0.2350 
  6 C       -3.0300    -1.3450     0.6680 C.3   1 <1>   0.2350 
  7 C       -2.4420     2.7270    -0.7890 C.ar  1 <1>  -0.1500 
  8 C       -0.4910     2.8700     0.5590 C.ar  1 <1>  -0.1500 
  9 C       -5.0410     0.0260     0.9600 C.3   1 <1>  -0.2420 
 10 C       -4.5450    -1.3310     0.5180 C.3   1 <1>  -0.2420 
 11 C       -2.3880     4.0880    -1.0170 C.ar  1 <1>  -0.1500 
 12 C       -0.4350     4.2320     0.3310 C.ar  1 <1>  -0.1500 
 13 C       -6.2890     0.5020     1.7060 C.2   1 <1>   0.9470 
 14 C       -5.1970    -0.4060    -0.4780 C.3   1 <1>  -0.2000 
 15 C       -5.1280    -2.7290     0.7360 C.2   1 <1>   0.9470 
 16 C       -1.3840     4.8830    -0.4600 C.ar  1 <1>   0.0540 
 17 O       -7.2510     0.9440     1.0620 O.co2 1 <1>  -0.9000 
 18 O       -6.2410     0.6150     2.9380 O.co2 1 <1>  -0.9000 
 19 O       -4.8110    -3.3590     1.7540 O.co2 1 <1>  -0.9000 
 20 O       -5.7790    -3.2660    -0.1710 O.co2 1 <1>  -0.9000 
 21 C       -1.3250     6.3170    -0.6850 C.2   1 <1>   0.4620 
 22 N       -2.1720     6.9600    -1.5000 N.2   1 <1>  -0.2270 
 23 N       -0.4650     7.1140    -0.1360 N.2   1 <1>  -0.7070 
 24 N       -1.8480     8.1890    -1.4710 N.2   1 <1>  -0.4180 
 25 N       -0.8210     8.2660    -0.6490 N.pl3 1 <1>   0.5800 
 26 C       -0.1410     9.5240    -0.3300 C.3   1 <1>   0.0160 
 27 H       -3.7770     0.7730     2.5080 H     1 <1>   0.0800 
 28 H       -3.8960     1.8320     1.1170 H     1 <1>   0.0800 
 29 H       -2.5600    -1.7600    -0.2060 H     1 <1>   0.0800 
 30 H       -2.7450    -1.9110     1.5380 H     1 <1>   0.0800 
 31 H       -3.2300     2.1390    -1.2300 H     1 <1>   0.1500 
 32 H        0.2550     2.3920     1.1710 H     1 <1>   0.1500 
 33 H       -3.1440     4.5390    -1.6360 H     1 <1>   0.1500 
 34 H        0.3600     4.8070     0.7740 H     1 <1>   0.1500 
 35 H       -4.6000     0.0480    -1.2450 H     1 <1>   0.1000 
 36 H       -6.1850    -0.6640    -0.8230 H     1 <1>   0.1000 
 37 H        0.9150     9.3420    -0.2610 H     1 <1>   0.0800 
 38 H       -0.5110     9.8900     0.6080 H     1 <1>   0.0800 
 39 H       -0.3380    10.2390    -1.1060 H     1 <1>   0.0800 
@<TRIPOS>BOND
  1   1   2  2   
  2   2   3  am  
  3   2   4  1   
  4   3   5  1   
  5   3   6  1   
  6   4   7  ar  
  7   4   8  ar  
  8   5   9  1   
  9   5  27  1   
 10   5  28  1   
 11   6  10  1   
 12   6  29  1   
 13   6  30  1   
 14   7  11  ar  
 15   7  31  1   
 16   8  12  ar  
 17   8  32  1   
 18   9  10  1   
 19   9  13  1   
 20   9  14  1   
 21  10  14  1   
 22  10  15  1   
 23  11  16  ar  
 24  11  33  1   
 25  12  16  ar  
 26  12  34  1   
 27  13  17  ar  
 28  13  18  ar  
 29  14  35  1   
 30  14  36  1   
 31  15  19  ar  
 32  15  20  ar  
 33  16  21  1   
 34  21  22  1   
 35  21  23  2   
 36  22  24  2   
 37  23  25  1   
 38  24  25  1   
 39  25  26  1   
 40  26  37  1   
 41  26  38  1   
 42  26  39  1   
@<TRIPOS>SUBSTRUCTURE
  1 ****   7 GROUP 4 **** **** 0

# MOE 2024.06 (io_trps.svl 2023.06)
