@<TRIPOS>MOLECULE
NONAME
50 54 1 0 0 
SMALL
USER_CHARGES


@<TRIPOS>ATOM
  1 O       -2.6990     0.3420     0.3020 O.2   1 <1>  -0.5700 
  2 C       -2.8030     1.1360    -0.6190 C.2   1 <1>   0.5440 
  3 N       -3.7310     0.8190    -1.5810 N.am  1 <1>  -0.6600 
  4 C       -2.0480     2.3760    -0.6560 C.ar  1 <1>   0.0860 
  5 C       -5.1320     1.2790    -1.3330 C.3   1 <1>   0.1400 
  6 C       -3.6810    -0.5610    -2.1710 C.3   1 <1>   0.1400 
  7 C       -1.3430     2.8190     0.4660 C.ar  1 <1>  -0.1500 
  8 C       -1.9970     3.1760    -1.8030 C.ar  1 <1>  -0.1500 
  9 C       -5.8640     0.3370    -0.3350 C.3   1 <1>   0.4230 
 10 C       -4.6630    -1.5340    -1.4730 C.3   1 <1>   0.3430 
 11 C       -0.6320     4.0030     0.4480 C.ar  1 <1>   0.0830 
 12 C       -1.2910     4.3660    -1.8300 C.ar  1 <1>  -0.1500 
 13 N       -5.1330    -0.9750    -0.1600 N.4   1 <1>  -0.9590 
 14 C       -7.3340     0.1020    -0.7510 C.3   1 <1>   0.1200 
 15 O        0.0430     4.3780     1.5630 O.3   1 <1>  -0.3630 
 16 C       -0.6110     4.7910    -0.7040 C.ar  1 <1>   0.0830 
 17 C       -5.8970    -1.9000     0.7270 C.3   1 <1>   0.5180 
 18 O       -7.9680    -0.7760     0.1370 O.3   1 <1>  -0.5600 
 19 C        1.0220     5.3900     1.4080 C.3   1 <1>   0.1200 
 20 O        0.0580     5.9660    -0.7400 O.3   1 <1>  -0.3630 
 21 C       -5.1830    -3.2540     0.8140 C.3   1 <1>  -0.1950 
 22 C       -7.3650    -2.0380     0.2660 C.3   1 <1>   0.1200 
 23 C        0.4950     6.5050     0.4940 C.3   1 <1>   0.1200 
 24 C       -5.0780    -3.9630     2.1290 C.3   1 <1>  -0.2000 
 25 C       -3.8490    -3.3900     1.4850 C.3   1 <1>  -0.2000 
 26 H       -5.1240     2.2800    -0.9360 H     1 <1>   0.0800 
 27 H       -5.6580     1.3120    -2.2720 H     1 <1>   0.0800 
 28 H       -3.8990    -0.5140    -3.2240 H     1 <1>   0.0800 
 29 H       -2.6800    -0.9490    -2.0710 H     1 <1>   0.0800 
 30 H       -1.3430     2.2330     1.3670 H     1 <1>   0.1500 
 31 H       -2.5150     2.8640    -2.6930 H     1 <1>   0.1500 
 32 H       -5.8850     0.8400     0.6180 H     1 <1>   0.0800 
 33 H       -4.1590    -2.4750    -1.3210 H     1 <1>   0.0800 
 34 H       -5.5070    -1.7140    -2.1170 H     1 <1>   0.0800 
 35 H       -1.2610     4.9720    -2.7190 H     1 <1>   0.1500 
 36 H       -4.2490    -0.7200     0.3290 H     1 <1>   0.4500 
 37 H       -7.4010    -0.3080    -1.7430 H     1 <1>   0.0800 
 38 H       -7.8790     1.0300    -0.7280 H     1 <1>   0.0800 
 39 H       -5.9120    -1.4770     1.7190 H     1 <1>   0.0800 
 40 H        1.2580     5.7740     2.3840 H     1 <1>   0.0800 
 41 H        1.9020     4.9410     0.9820 H     1 <1>   0.0800 
 42 H       -5.3840    -3.8870    -0.0330 H     1 <1>   0.1000 
 43 H       -7.9260    -2.5950     0.9960 H     1 <1>   0.0800 
 44 H       -7.4300    -2.5510    -0.6770 H     1 <1>   0.0800 
 45 H        1.2650     7.2260     0.2870 H     1 <1>   0.0800 
 46 H       -0.3400     7.0030     0.9560 H     1 <1>   0.0800 
 47 H       -5.4370    -3.4970     3.0320 H     1 <1>   0.1000 
 48 H       -5.1830    -5.0360     2.1590 H     1 <1>   0.1000 
 49 H       -3.1220    -4.0760     1.0830 H     1 <1>   0.1000 
 50 H       -3.3860    -2.5360     1.9520 H     1 <1>   0.1000 
@<TRIPOS>BOND
  1   1   2  2   
  2   2   3  am  
  3   2   4  1   
  4   3   5  1   
  5   3   6  1   
  6   4   7  ar  
  7   4   8  ar  
  8   5   9  1   
  9   5  26  1   
 10   5  27  1   
 11   6  10  1   
 12   6  28  1   
 13   6  29  1   
 14   7  11  ar  
 15   7  30  1   
 16   8  12  ar  
 17   8  31  1   
 18   9  13  1   
 19   9  14  1   
 20   9  32  1   
 21  10  13  1   
 22  10  33  1   
 23  10  34  1   
 24  11  15  1   
 25  11  16  ar  
 26  12  16  ar  
 27  12  35  1   
 28  13  17  1   
 29  13  36  1   
 30  14  18  1   
 31  14  37  1   
 32  14  38  1   
 33  15  19  1   
 34  16  20  1   
 35  17  21  1   
 36  17  22  1   
 37  17  39  1   
 38  18  22  1   
 39  19  23  1   
 40  19  40  1   
 41  19  41  1   
 42  20  23  1   
 43  21  24  1   
 44  21  25  1   
 45  21  42  1   
 46  22  43  1   
 47  22  44  1   
 48  23  45  1   
 49  23  46  1   
 50  24  25  1   
 51  24  47  1   
 52  24  48  1   
 53  25  49  1   
 54  25  50  1   
@<TRIPOS>SUBSTRUCTURE
  1 ****   2 GROUP 4 **** **** 0

# MOE 2024.06 (io_trps.svl 2023.06)
