@<TRIPOS>MOLECULE
NONAME
43 45 1 0 0 
SMALL
USER_CHARGES


@<TRIPOS>ATOM
  1 S       -0.0250     0.4160     1.4750 S.3   1 <1>  -0.4600 
  2 C       -1.6840    -0.2560     1.7610 C.3   1 <1>   0.0700 
  3 C       -0.2710     2.1920     1.1590 C.3   1 <1>   0.0700 
  4 C       -2.4130    -0.3100     0.4140 C.3   1 <1>   0.4230 
  5 C       -0.3140     2.4790    -0.3500 C.3   1 <1>   0.0700 
  6 N       -3.5420    -1.2860     0.4460 N.4   1 <1>  -0.9060 
  7 C       -2.8910     1.0860    -0.0200 C.3   1 <1>   0.0700 
  8 S       -1.7080     1.6960    -1.2470 S.3   1 <1>  -0.4600 
  9 C       -4.0170    -1.6880    -0.9120 C.3   1 <1>   0.4230 
 10 C       -5.2660    -2.5650    -0.8030 C.3   1 <1>  -0.0800 
 11 C       -3.0360    -2.7180    -1.4620 C.3   1 <1>   0.1200 
 12 C       -4.6870    -3.9670    -0.5450 C.3   1 <1>   0.1200 
 13 C       -6.3480    -2.1350     0.2070 C.3   1 <1>  -0.0170 
 14 O       -3.3020    -3.8270    -0.6690 O.3   1 <1>  -0.5600 
 15 C       -7.5550    -3.0530     0.1120 C.ar  1 <1>  -0.1430 
 16 C       -8.5010    -2.9070    -0.8830 C.ar  1 <1>  -0.1500 
 17 C       -7.7720    -4.0800     1.0110 C.ar  1 <1>  -0.1500 
 18 C       -9.5810    -3.7730    -0.9360 C.ar  1 <1>   0.1600 
 19 C       -8.8850    -4.8910     0.8700 C.ar  1 <1>   0.1600 
 20 N       -9.7910    -4.7630    -0.0850 N.ar  1 <1>  -0.6200 
 21 H       -1.5280    -1.2420     2.1630 H     1 <1>   0.0800 
 22 H       -2.1730     0.3710     2.4840 H     1 <1>   0.0800 
 23 H       -1.1530     2.5230     1.6740 H     1 <1>   0.0800 
 24 H        0.5810     2.6880     1.5920 H     1 <1>   0.0800 
 25 H       -1.6960    -0.6550    -0.3150 H     1 <1>   0.0800 
 26 H        0.5890     2.1320    -0.8220 H     1 <1>   0.0800 
 27 H       -0.4050     3.5370    -0.5200 H     1 <1>   0.0800 
 28 H       -3.2070    -2.1750     0.8550 H     1 <1>   0.4500 
 29 H       -4.3150    -0.9440     1.0220 H     1 <1>   0.4500 
 30 H       -2.9450     1.7960     0.7840 H     1 <1>   0.0800 
 31 H       -3.8370     1.0500    -0.5280 H     1 <1>   0.0800 
 32 H       -4.1520    -0.8400    -1.5660 H     1 <1>   0.0800 
 33 H       -5.7250    -2.5930    -1.7770 H     1 <1>   0.0800 
 34 H       -2.0010    -2.4400    -1.3680 H     1 <1>   0.0800 
 35 H       -3.2530    -2.9690    -2.4870 H     1 <1>   0.0800 
 36 H       -5.0320    -4.6800    -1.2770 H     1 <1>   0.0800 
 37 H       -4.9000    -4.3360     0.4440 H     1 <1>   0.0800 
 38 H       -6.6670    -1.1280    -0.0020 H     1 <1>   0.0800 
 39 H       -5.9730    -2.1650     1.2150 H     1 <1>   0.0800 
 40 H       -8.4190    -2.1310    -1.6210 H     1 <1>   0.1500 
 41 H       -7.0940    -4.2650     1.8240 H     1 <1>   0.1500 
 42 H      -10.3100    -3.6470    -1.7180 H     1 <1>   0.1500 
 43 H       -9.0410    -5.6880     1.5780 H     1 <1>   0.1500 
@<TRIPOS>BOND
  1   1   2  1   
  2   1   3  1   
  3   2   4  1   
  4   2  21  1   
  5   2  22  1   
  6   3   5  1   
  7   3  23  1   
  8   3  24  1   
  9   4   6  1   
 10   4   7  1   
 11   4  25  1   
 12   5   8  1   
 13   5  26  1   
 14   5  27  1   
 15   6   9  1   
 16   6  28  1   
 17   6  29  1   
 18   7   8  1   
 19   7  30  1   
 20   7  31  1   
 21   9  10  1   
 22   9  11  1   
 23   9  32  1   
 24  10  12  1   
 25  10  13  1   
 26  10  33  1   
 27  11  14  1   
 28  11  34  1   
 29  11  35  1   
 30  12  14  1   
 31  12  36  1   
 32  12  37  1   
 33  13  15  1   
 34  13  38  1   
 35  13  39  1   
 36  15  16  ar  
 37  15  17  ar  
 38  16  18  ar  
 39  16  40  1   
 40  17  19  ar  
 41  17  41  1   
 42  18  20  ar  
 43  18  42  1   
 44  19  20  ar  
 45  19  43  1   
@<TRIPOS>SUBSTRUCTURE
  1 ****   9 GROUP 4 **** **** 0

# MOE 2024.06 (io_trps.svl 2023.06)
