@<TRIPOS>MOLECULE
NONAME
45 47 1 0 0 
SMALL
USER_CHARGES


@<TRIPOS>ATOM
  1 O        1.2330     3.0170    -2.1180 O.2   1 <1>  -0.5700 
  2 C        0.6240     3.0750    -1.0670 C.2   1 <1>   0.5440 
  3 N       -0.7260     3.3510    -1.0890 N.am  1 <1>  -0.6600 
  4 C        1.3280     2.8550     0.1780 C.ar  1 <1>   0.0860 
  5 C       -1.6060     3.2430     0.1220 C.3   1 <1>   0.1400 
  6 C       -1.4050     3.6340    -2.3880 C.3   1 <1>   0.1400 
  7 C        1.8490     1.6190     0.5530 C.ar  1 <1>  -0.1440 
  8 C        1.4880     3.9170     1.0650 C.ar  1 <1>   0.1600 
  9 C       -2.9120     2.4950    -0.2040 C.3   1 <1>   0.0000 
 10 C       -2.8230     4.1740    -2.1770 C.3   1 <1>  -0.1600 
 11 C        2.4750     1.5460     1.7800 C.ar  1 <1>  -0.1500 
 12 C        1.7380     0.3960    -0.3470 C.3   1 <1>  -0.0960 
 13 N        2.0770     3.8600     2.2490 N.ar  1 <1>  -0.6200 
 14 C       -3.7330     2.2700     1.0790 C.3   1 <1>   0.2000 
 15 C       -3.7020     3.2370    -1.3280 C.3   1 <1>  -0.1600 
 16 C       -2.6470     1.0380    -0.6310 C.3   1 <1>  -0.1600 
 17 C        2.5600     2.6740     2.5780 C.ar  1 <1>   0.1600 
 18 O       -4.4220     3.4190     1.4700 O.3   1 <1>  -0.5600 
 19 C       -4.6760     1.1140     0.7500 C.3   1 <1>  -0.1600 
 20 C       -3.9210     0.2570    -0.2760 C.3   1 <1>  -0.1600 
 21 C       -4.9610     3.3780     2.7530 C.3   1 <1>   0.0400 
 22 H       -1.0940     2.7280     0.9150 H     1 <1>   0.0800 
 23 H       -1.8450     4.2320     0.4720 H     1 <1>   0.0800 
 24 H       -0.8230     4.3510    -2.9420 H     1 <1>   0.0800 
 25 H       -1.4430     2.7250    -2.9640 H     1 <1>   0.0800 
 26 H        1.0940     4.8740     0.7670 H     1 <1>   0.1500 
 27 H       -2.7470     5.1310    -1.6910 H     1 <1>   0.0800 
 28 H       -3.2900     4.3390    -3.1320 H     1 <1>   0.0800 
 29 H        2.9010     0.6210     2.1270 H     1 <1>   0.1500 
 30 H        2.1280    -0.4800     0.1390 H     1 <1>   0.0800 
 31 H        2.2950     0.5600    -1.2530 H     1 <1>   0.0800 
 32 H        0.7100     0.2160    -0.6060 H     1 <1>   0.0800 
 33 H       -3.0690     1.9780     1.8760 H     1 <1>   0.0800 
 34 H       -4.1770     2.5210    -1.9750 H     1 <1>   0.0800 
 35 H       -4.4920     3.8350    -0.9100 H     1 <1>   0.0800 
 36 H       -2.3990     0.9490    -1.6750 H     1 <1>   0.0800 
 37 H       -1.8270     0.6390    -0.0580 H     1 <1>   0.0800 
 38 H        3.0520     2.5970     3.5330 H     1 <1>   0.1500 
 39 H       -4.9170     0.5450     1.6300 H     1 <1>   0.0800 
 40 H       -5.5780     1.4970     0.3040 H     1 <1>   0.0800 
 41 H       -3.6710    -0.7090     0.1280 H     1 <1>   0.0800 
 42 H       -4.5310     0.1190    -1.1530 H     1 <1>   0.0800 
 43 H       -5.4330     4.3250     2.9460 H     1 <1>   0.0800 
 44 H       -4.1730     3.2140     3.4670 H     1 <1>   0.0800 
 45 H       -5.6950     2.5930     2.8090 H     1 <1>   0.0800 
@<TRIPOS>BOND
  1   1   2  2   
  2   2   3  am  
  3   2   4  1   
  4   3   5  1   
  5   3   6  1   
  6   4   7  ar  
  7   4   8  ar  
  8   5   9  1   
  9   5  22  1   
 10   5  23  1   
 11   6  10  1   
 12   6  24  1   
 13   6  25  1   
 14   7  11  ar  
 15   7  12  1   
 16   8  13  ar  
 17   8  26  1   
 18   9  14  1   
 19   9  15  1   
 20   9  16  1   
 21  10  15  1   
 22  10  27  1   
 23  10  28  1   
 24  11  17  ar  
 25  11  29  1   
 26  12  30  1   
 27  12  31  1   
 28  12  32  1   
 29  13  17  ar  
 30  14  18  1   
 31  14  19  1   
 32  14  33  1   
 33  15  34  1   
 34  15  35  1   
 35  16  20  1   
 36  16  36  1   
 37  16  37  1   
 38  17  38  1   
 39  18  21  1   
 40  19  20  1   
 41  19  39  1   
 42  19  40  1   
 43  20  41  1   
 44  20  42  1   
 45  21  43  1   
 46  21  44  1   
 47  21  45  1   
@<TRIPOS>SUBSTRUCTURE
  1 ****   5 GROUP 4 **** **** 0

# MOE 2024.06 (io_trps.svl 2023.06)
