@<TRIPOS>MOLECULE
NONAME
54 56 1 0 0 
SMALL
USER_CHARGES


@<TRIPOS>ATOM
  1 O       -2.4380     0.2430     0.6130 O.2   1 <1>  -0.5700 
  2 C       -2.2760     0.8330    -0.4430 C.2   1 <1>   0.7150 
  3 N       -2.8490     0.2590    -1.5540 N.am  1 <1>  -0.6600 
  4 C       -1.6260     2.1160    -0.4930 C.2   1 <1>   0.0550 
  5 C       -4.1330     0.8530    -2.0360 C.3   1 <1>   0.1400 
  6 C       -2.8280    -1.2350    -1.6860 C.3   1 <1>   0.1400 
  7 O       -1.5800     2.8120    -1.6050 O.3   1 <1>  -0.0190 
  8 C       -1.0010     2.8620     0.4450 C.2   1 <1>  -0.1500 
  9 C       -5.3360     0.3040    -1.2180 C.3   1 <1>   0.4230 
 10 C       -4.1310    -1.8810    -1.1530 C.3   1 <1>   0.3430 
 11 N       -0.9870     3.9560    -1.4630 N.2   1 <1>  -0.4100 
 12 C       -0.6220     4.0130    -0.2300 C.2   1 <1>   0.1080 
 13 N       -4.9490    -0.8910    -0.3640 N.4   1 <1>  -0.9590 
 14 C       -6.5280    -0.0370    -2.1400 C.3   1 <1>   0.1200 
 15 C        0.1170     5.1890     0.3830 C.3   1 <1>   0.0210 
 16 C       -6.1510    -1.4430     0.3420 C.3   1 <1>   0.4230 
 17 O       -7.5930    -0.5610    -1.3990 O.3   1 <1>  -0.5600 
 18 C       -0.8230     6.3580     0.7340 C.3   1 <1>  -0.0800 
 19 C       -7.3020    -1.7150    -0.6570 C.3   1 <1>   0.1200 
 20 C       -5.7720    -2.6780     1.1750 C.3   1 <1>  -0.1600 
 21 C       -0.0140     7.5590     1.2400 C.3   1 <1>  -0.2400 
 22 C       -1.8690     5.9620     1.7860 C.3   1 <1>  -0.2400 
 23 C       -6.8620    -3.0590     2.1890 C.3   1 <1>  -0.1600 
 24 C       -6.4120    -4.2400     3.0530 C.3   1 <1>  -0.2400 
 25 H       -4.1030     1.9260    -1.9520 H     1 <1>   0.0800 
 26 H       -4.2500     0.6220    -3.0820 H     1 <1>   0.0800 
 27 H       -2.6820    -1.5050    -2.7180 H     1 <1>   0.0800 
 28 H       -1.9900    -1.6310    -1.1350 H     1 <1>   0.0800 
 29 H       -0.8310     2.6380     1.4820 H     1 <1>   0.1500 
 30 H       -5.6650     1.0950    -0.5640 H     1 <1>   0.0800 
 31 H       -3.8650    -2.7230    -0.5370 H     1 <1>   0.0800 
 32 H       -4.7080    -2.2520    -1.9840 H     1 <1>   0.0800 
 33 H       -4.2870    -0.5230     0.3470 H     1 <1>   0.4500 
 34 H       -6.2510    -0.7530    -2.8940 H     1 <1>   0.0800 
 35 H       -6.8850     0.8530    -2.6300 H     1 <1>   0.0800 
 36 H        0.6370     4.8610     1.2650 H     1 <1>   0.0800 
 37 H        0.8540     5.5240    -0.3250 H     1 <1>   0.0800 
 38 H       -6.5070    -0.6930     1.0300 H     1 <1>   0.0800 
 39 H       -1.3390     6.6540    -0.1650 H     1 <1>   0.0800 
 40 H       -8.1980    -1.9850    -0.1280 H     1 <1>   0.0800 
 41 H       -7.0540    -2.5120    -1.3360 H     1 <1>   0.0800 
 42 H       -5.5920    -3.5220     0.5330 H     1 <1>   0.0800 
 43 H       -4.8700    -2.4640     1.7240 H     1 <1>   0.0800 
 44 H        0.5180     7.3090     2.1410 H     1 <1>   0.0800 
 45 H       -0.6670     8.3880     1.4470 H     1 <1>   0.0800 
 46 H        0.6970     7.8720     0.4950 H     1 <1>   0.0800 
 47 H       -1.3920     5.6240     2.6900 H     1 <1>   0.0800 
 48 H       -2.5030     5.1770     1.4150 H     1 <1>   0.0800 
 49 H       -2.4930     6.8050     2.0240 H     1 <1>   0.0800 
 50 H       -7.0780    -2.2220     2.8320 H     1 <1>   0.0800 
 51 H       -7.7720    -3.3340     1.6830 H     1 <1>   0.0800 
 52 H       -5.5230    -3.9920     3.6060 H     1 <1>   0.0800 
 53 H       -6.2130    -5.1050     2.4450 H     1 <1>   0.0800 
 54 H       -7.1850    -4.4950     3.7580 H     1 <1>   0.0800 
@<TRIPOS>BOND
  1   1   2  2   
  2   2   3  am  
  3   2   4  1   
  4   3   5  1   
  5   3   6  1   
  6   4   7  1   
  7   4   8  2   
  8   5   9  1   
  9   5  25  1   
 10   5  26  1   
 11   6  10  1   
 12   6  27  1   
 13   6  28  1   
 14   7  11  1   
 15   8  12  1   
 16   8  29  1   
 17   9  13  1   
 18   9  14  1   
 19   9  30  1   
 20  10  13  1   
 21  10  31  1   
 22  10  32  1   
 23  11  12  2   
 24  12  15  1   
 25  13  16  1   
 26  13  33  1   
 27  14  17  1   
 28  14  34  1   
 29  14  35  1   
 30  15  18  1   
 31  15  36  1   
 32  15  37  1   
 33  16  19  1   
 34  16  20  1   
 35  16  38  1   
 36  17  19  1   
 37  18  21  1   
 38  18  22  1   
 39  18  39  1   
 40  19  40  1   
 41  19  41  1   
 42  20  23  1   
 43  20  42  1   
 44  20  43  1   
 45  21  44  1   
 46  21  45  1   
 47  21  46  1   
 48  22  47  1   
 49  22  48  1   
 50  22  49  1   
 51  23  24  1   
 52  23  50  1   
 53  23  51  1   
 54  24  52  1   
 55  24  53  1   
 56  24  54  1   
@<TRIPOS>SUBSTRUCTURE
  1 ****   2 GROUP 4 **** **** 0

# MOE 2024.06 (io_trps.svl 2023.06)
