@<TRIPOS>MOLECULE
NONAME
48 50 1 0 0 
SMALL
USER_CHARGES


@<TRIPOS>ATOM
  1 F        0.4120     1.9620    -0.0640 F     1 <1>  -0.1900 
  2 C        1.6860     2.2010    -0.2110 C.ar  1 <1>   0.1900 
  3 C        2.4150     2.6320     0.8790 C.ar  1 <1>  -0.1500 
  4 C        2.2600     2.0160    -1.4530 C.ar  1 <1>  -0.1500 
  5 C        3.7670     2.8850     0.7180 C.ar  1 <1>  -0.1500 
  6 C        3.6120     2.2700    -1.6070 C.ar  1 <1>  -0.1500 
  7 C        4.3730     2.7040    -0.5240 C.ar  1 <1>  -0.1430 
  8 C        5.8650     2.9790    -0.7120 C.3   1 <1>   0.6280 
  9 N        6.6740     1.9080    -0.0030 N.4   1 <1>  -0.9590 
 10 C        6.1850     4.4320    -0.2630 C.2   1 <1>   0.5690 
 11 C        8.1160     1.9660    -0.3940 C.3   1 <1>   0.3430 
 12 C        6.1150     0.5260    -0.1300 C.3   1 <1>   0.3430 
 13 O        7.0880     4.5880     0.5300 O.2   1 <1>  -0.5700 
 14 N        5.4340     5.4710    -0.7430 N.am  1 <1>  -0.4930 
 15 C        8.9320     1.0300     0.4980 C.3   1 <1>  -0.1600 
 16 C        6.9020    -0.4360     0.7610 C.3   1 <1>  -0.1600 
 17 C        5.5260     6.8480    -0.4220 C.2   1 <1>   0.0630 
 18 C        8.4030    -0.4090     0.4490 C.3   1 <1>  -0.1600 
 19 C        6.6350     7.6840    -0.2480 C.2   1 <1>   0.1080 
 20 C        4.4640     7.6570    -0.2330 C.2   1 <1>  -0.3020 
 21 N        6.2870     8.9010     0.0310 N.2   1 <1>  -0.7070 
 22 C        8.0950     7.3040    -0.3680 C.3   1 <1>  -0.0590 
 23 N        4.9470     8.8860     0.0450 N.pl3 1 <1>   0.3140 
 24 C        4.1660    10.0950     0.3290 C.3   1 <1>   0.0160 
 25 H        1.9270     2.7660     1.8300 H     1 <1>   0.1500 
 26 H        1.6520     1.6800    -2.2770 H     1 <1>   0.1500 
 27 H        4.3290     3.2260     1.5730 H     1 <1>   0.1500 
 28 H        4.0540     2.1240    -2.5800 H     1 <1>   0.1500 
 29 H        6.0800     2.9210    -1.7640 H     1 <1>   0.0800 
 30 H        6.6480     2.1710     0.9920 H     1 <1>   0.4500 
 31 H        8.4980     2.9700    -0.2850 H     1 <1>   0.0800 
 32 H        8.2310     1.6680    -1.4240 H     1 <1>   0.0800 
 33 H        6.1770     0.1980    -1.1550 H     1 <1>   0.0800 
 34 H        5.0790     0.5080     0.1700 H     1 <1>   0.0800 
 35 H        4.5820     5.2500    -1.2620 H     1 <1>   0.3700 
 36 H        8.9130     1.3960     1.5100 H     1 <1>   0.0800 
 37 H        9.9590     1.0430     0.1740 H     1 <1>   0.0800 
 38 H        6.5280    -1.4350     0.6170 H     1 <1>   0.0800 
 39 H        6.7380    -0.1810     1.7940 H     1 <1>   0.0800 
 40 H        8.9360    -1.0190     1.1590 H     1 <1>   0.0800 
 41 H        8.5750    -0.8230    -0.5310 H     1 <1>   0.0800 
 42 H        3.4140     7.4420    -0.2740 H     1 <1>   0.1500 
 43 H        8.2240     6.5420    -1.1110 H     1 <1>   0.0800 
 44 H        8.4520     6.9480     0.5800 H     1 <1>   0.0800 
 45 H        8.6700     8.1670    -0.6520 H     1 <1>   0.0800 
 46 H        3.3220     9.8400     0.9410 H     1 <1>   0.0800 
 47 H        3.8340    10.5240    -0.5970 H     1 <1>   0.0800 
 48 H        4.7900    10.8000     0.8480 H     1 <1>   0.0800 
@<TRIPOS>BOND
  1   1   2  1   
  2   2   3  ar  
  3   2   4  ar  
  4   3   5  ar  
  5   3  25  1   
  6   4   6  ar  
  7   4  26  1   
  8   5   7  ar  
  9   5  27  1   
 10   6   7  ar  
 11   6  28  1   
 12   7   8  1   
 13   8   9  1   
 14   8  10  1   
 15   8  29  1   
 16   9  11  1   
 17   9  12  1   
 18   9  30  1   
 19  10  13  2   
 20  10  14  am  
 21  11  15  1   
 22  11  31  1   
 23  11  32  1   
 24  12  16  1   
 25  12  33  1   
 26  12  34  1   
 27  14  17  1   
 28  14  35  1   
 29  15  18  1   
 30  15  36  1   
 31  15  37  1   
 32  16  18  1   
 33  16  38  1   
 34  16  39  1   
 35  17  19  1   
 36  17  20  2   
 37  18  40  1   
 38  18  41  1   
 39  19  21  2   
 40  19  22  1   
 41  20  23  1   
 42  20  42  1   
 43  21  23  1   
 44  22  43  1   
 45  22  44  1   
 46  22  45  1   
 47  23  24  1   
 48  24  46  1   
 49  24  47  1   
 50  24  48  1   
@<TRIPOS>SUBSTRUCTURE
  1 ****  10 GROUP 4 **** **** 0

# MOE 2024.06 (io_trps.svl 2023.06)
