@<TRIPOS>MOLECULE
NONAME
38 40 1 0 0 
SMALL
USER_CHARGES


@<TRIPOS>ATOM
  1 N        0.3400     0.0670     0.3320 N.ar  1 <1>  -0.6200 
  2 C       -0.7280    -0.6530     0.6510 C.ar  1 <1>   0.7710 
  3 C        1.4080    -0.5880    -0.1070 C.ar  1 <1>   0.4100 
  4 N       -0.7850    -2.0020     0.5740 N.ar  1 <1>  -0.1260 
  5 N       -1.7900     0.0340     1.0670 N.pl3 1 <1>  -0.9000 
  6 N        2.4970     0.1300    -0.4670 N.pl3 1 <1>  -0.8690 
  7 C        1.4320    -2.0030    -0.2040 C.ar  1 <1>   0.2270 
  8 C        0.3140    -2.7000     0.1430 C.ar  1 <1>   0.1560 
  9 C        2.6120     1.6090    -0.5950 C.3   1 <1>   0.2090 
 10 N        2.4100    -2.8700    -0.6010 N.2   1 <1>  -0.5650 
 11 N        0.5870    -4.0070    -0.0380 N.pl3 1 <1>   0.0330 
 12 C        3.1580     2.2320     0.7000 C.3   1 <1>   0.3540 
 13 C        1.8730    -4.0350    -0.4890 C.2   1 <1>   0.0360 
 14 N        3.3700     3.7040     0.5520 N.pl3 1 <1>  -0.7640 
 15 C        4.4730     4.3320     0.0160 C.2   1 <1>   0.1820 
 16 C        2.5310     4.6570     0.9460 C.cat 1 <1>   0.6500 
 17 C        4.2580     5.6670     0.0930 C.2   1 <1>   0.1820 
 18 C        5.6690     3.5690    -0.5290 C.3   1 <1>  -0.0720 
 19 N        3.0370     5.8490     0.6770 N.pl3 1 <1>  -0.7000 
 20 C        5.1020     6.8540    -0.3310 C.3   1 <1>  -0.0720 
 21 H       -1.6550    -2.4530     0.8410 H     1 <1>   0.4570 
 22 H       -2.7080    -0.3100     1.3550 H     1 <1>   0.4000 
 23 H       -1.7190     1.0560     1.0950 H     1 <1>   0.4000 
 24 H        3.3010    -0.4120    -0.8220 H     1 <1>   0.4000 
 25 H        1.6440     2.0270    -0.8140 H     1 <1>   0.0800 
 26 H        3.2690     1.8350    -1.4160 H     1 <1>   0.0800 
 27 H       -0.0030    -4.8320     0.1140 H     1 <1>   0.2700 
 28 H        4.0900     1.7610     0.9590 H     1 <1>   0.0800 
 29 H        2.4570     2.0470     1.4960 H     1 <1>   0.0800 
 30 H        2.3750    -4.9620    -0.7250 H     1 <1>   0.1500 
 31 H        1.5730     4.4870     1.4190 H     1 <1>   0.1500 
 32 H        5.3720     2.9500    -1.3550 H     1 <1>   0.0800 
 33 H        6.0930     2.9490     0.2410 H     1 <1>   0.0800 
 34 H        6.4310     4.2450    -0.8720 H     1 <1>   0.0800 
 35 H        2.6020     6.7550     0.8750 H     1 <1>   0.4500 
 36 H        6.0270     6.5320    -0.7720 H     1 <1>   0.0800 
 37 H        5.3280     7.4680     0.5230 H     1 <1>   0.0800 
 38 H        4.5680     7.4460    -1.0530 H     1 <1>   0.0800 
@<TRIPOS>BOND
  1   1   2  ar  
  2   1   3  ar  
  3   2   4  ar  
  4   2   5  1   
  5   3   6  1   
  6   3   7  ar  
  7   4   8  ar  
  8   4  21  1   
  9   5  22  1   
 10   5  23  1   
 11   6   9  1   
 12   6  24  1   
 13   7   8  ar  
 14   7  10  1   
 15   8  11  1   
 16   9  12  1   
 17   9  25  1   
 18   9  26  1   
 19  10  13  2   
 20  11  13  1   
 21  11  27  1   
 22  12  14  1   
 23  12  28  1   
 24  12  29  1   
 25  13  30  1   
 26  14  15  1   
 27  14  16  ar  
 28  15  17  2   
 29  15  18  1   
 30  16  19  ar  
 31  16  31  1   
 32  17  19  1   
 33  17  20  1   
 34  18  32  1   
 35  18  33  1   
 36  18  34  1   
 37  19  35  1   
 38  20  36  1   
 39  20  37  1   
 40  20  38  1   
@<TRIPOS>SUBSTRUCTURE
  1 ****   9 GROUP 4 **** **** 0

# MOE 2024.06 (io_trps.svl 2023.06)
