@<TRIPOS>MOLECULE
NONAME
37 38 1 0 0 
SMALL
USER_CHARGES


@<TRIPOS>ATOM
  1 S       -0.2600     0.1490     1.5910 S.o2  1 <1>   1.3330 
  2 O       -0.8830    -0.8480     2.4310 O.2   1 <1>  -0.6500 
  3 O        0.3950     1.2940     2.1830 O.2   1 <1>  -0.6500 
  4 N       -1.3950     0.7080     0.4660 N.am  1 <1>  -0.8490 
  5 C        0.9060    -0.7000     0.5500 C.3   1 <1>  -0.1350 
  6 C       -2.7360     0.8500     1.0660 C.3   1 <1>   0.1960 
  7 C       -0.9890     1.9700    -0.1600 C.3   1 <1>   0.1960 
  8 C       -3.8100     1.1760    -0.0050 C.3   1 <1>   0.0000 
  9 C       -1.9570     2.3400    -1.2890 C.3   1 <1>  -0.1600 
 10 C       -5.2050     1.3260     0.6260 C.3   1 <1>   0.2000 
 11 C       -3.3990     2.4490    -0.7720 C.3   1 <1>  -0.1600 
 12 C       -4.0170    -0.0300    -0.9390 C.3   1 <1>  -0.1600 
 13 O       -5.1420     2.0100     1.8420 O.3   1 <1>  -0.5600 
 14 C       -5.7330    -0.0990     0.8130 C.3   1 <1>  -0.1600 
 15 C       -4.9710    -0.9700    -0.1950 C.3   1 <1>  -0.1600 
 16 C       -6.3670     2.4520     2.3340 C.3   1 <1>   0.0400 
 17 H        0.4110    -1.4810     0.0090 H     1 <1>   0.0800 
 18 H        1.6810    -1.1340     1.1500 H     1 <1>   0.0800 
 19 H        1.3500    -0.0200    -0.1480 H     1 <1>   0.0800 
 20 H       -3.0110    -0.0620     1.5660 H     1 <1>   0.0800 
 21 H       -2.7080     1.6290     1.8100 H     1 <1>   0.0800 
 22 H       -0.9750     2.7570     0.5790 H     1 <1>   0.0800 
 23 H        0.0030     1.8750    -0.5650 H     1 <1>   0.0800 
 24 H       -1.6580     3.2790    -1.7180 H     1 <1>   0.0800 
 25 H       -1.8960     1.5920    -2.0600 H     1 <1>   0.0800 
 26 H       -5.8430     1.8690    -0.0510 H     1 <1>   0.0800 
 27 H       -4.0700     2.6310    -1.5930 H     1 <1>   0.0800 
 28 H       -3.4640     3.2910    -0.1030 H     1 <1>   0.0800 
 29 H       -4.4920     0.2940    -1.8490 H     1 <1>   0.0800 
 30 H       -3.0940    -0.5210    -1.1940 H     1 <1>   0.0800 
 31 H       -5.5280    -0.4450     1.8120 H     1 <1>   0.0800 
 32 H       -6.7920    -0.1370     0.6280 H     1 <1>   0.0800 
 33 H       -4.4040    -1.7190     0.3330 H     1 <1>   0.0800 
 34 H       -5.6390    -1.4620    -0.8810 H     1 <1>   0.0800 
 35 H       -6.1850     2.9780     3.2550 H     1 <1>   0.0800 
 36 H       -7.0050     1.6070     2.5220 H     1 <1>   0.0800 
 37 H       -6.8170     3.1190     1.6190 H     1 <1>   0.0800 
@<TRIPOS>BOND
  1   1   2  2   
  2   1   3  2   
  3   1   4  am  
  4   1   5  1   
  5   4   6  1   
  6   4   7  1   
  7   5  17  1   
  8   5  18  1   
  9   5  19  1   
 10   6   8  1   
 11   6  20  1   
 12   6  21  1   
 13   7   9  1   
 14   7  22  1   
 15   7  23  1   
 16   8  10  1   
 17   8  11  1   
 18   8  12  1   
 19   9  11  1   
 20   9  24  1   
 21   9  25  1   
 22  10  13  1   
 23  10  14  1   
 24  10  26  1   
 25  11  27  1   
 26  11  28  1   
 27  12  15  1   
 28  12  29  1   
 29  12  30  1   
 30  13  16  1   
 31  14  15  1   
 32  14  31  1   
 33  14  32  1   
 34  15  33  1   
 35  15  34  1   
 36  16  35  1   
 37  16  36  1   
 38  16  37  1   
@<TRIPOS>SUBSTRUCTURE
  1 ****   6 GROUP 4 **** **** 0

# MOE 2024.06 (io_trps.svl 2023.06)
