@<TRIPOS>MOLECULE
NONAME
43 45 1 0 0 
SMALL
USER_CHARGES


@<TRIPOS>ATOM
  1 O        0.7310    -0.4650     1.3000 O.co2 1 <1>  -0.9000 
  2 C        1.9160    -0.6180     1.0110 C.2   1 <1>   0.9060 
  3 O        2.5680    -1.5890     1.4290 O.co2 1 <1>  -0.9000 
  4 C        2.5800     0.3890     0.0540 C.3   1 <1>  -0.1060 
  5 C        4.0770     0.0650    -0.1020 C.3   1 <1>   0.4230 
  6 C        2.4020     1.8240     0.6470 C.3   1 <1>  -0.1600 
  7 C        1.9520     0.2700    -1.3540 C.3   1 <1>  -0.1600 
  8 N        4.2760    -1.3520    -0.5540 N.4   1 <1>  -0.9590 
  9 C        4.8140     0.5420     1.1620 C.3   1 <1>   0.2090 
 10 C        3.6470     2.7270     0.5900 C.3   1 <1>   0.2090 
 11 C        2.1970    -1.1380    -1.9310 C.3   1 <1>  -0.1600 
 12 C        3.6710    -1.5660    -1.8970 C.3   1 <1>   0.3430 
 13 C        5.6810    -1.8270    -0.4760 C.3   1 <1>   0.2630 
 14 N        4.8830     2.0390     1.0900 N.pl3 1 <1>  -0.8380 
 15 C        6.0710     2.5880     0.6710 C.ar  1 <1>   0.4100 
 16 N        6.6910     2.0190    -0.3480 N.ar  1 <1>  -0.6200 
 17 C        6.5810     3.7130     1.2850 C.ar  1 <1>  -0.1500 
 18 C        7.8130     2.6030    -0.7260 C.ar  1 <1>   0.4770 
 19 C        7.7540     4.2230     0.8060 C.ar  1 <1>   0.1600 
 20 N        8.3880     3.6740    -0.2110 N.ar  1 <1>  -0.6200 
 21 C        8.5380     1.9720    -1.8910 C.3   1 <1>  -0.0970 
 22 H        4.4610     0.6900    -0.8900 H     1 <1>   0.0800 
 23 H        2.1360     1.7420     1.6880 H     1 <1>   0.0800 
 24 H        1.5730     2.3200     0.1740 H     1 <1>   0.0800 
 25 H        0.8900     0.4460    -1.2890 H     1 <1>   0.0800 
 26 H        2.3750     1.0120    -2.0090 H     1 <1>   0.0800 
 27 H        3.6910    -1.8700     0.1560 H     1 <1>   0.4500 
 28 H        5.8110     0.1460     1.2100 H     1 <1>   0.0800 
 29 H        4.2890     0.2440     2.0540 H     1 <1>   0.0800 
 30 H        3.4730     3.6090     1.1820 H     1 <1>   0.0800 
 31 H        3.8080     3.0400    -0.4290 H     1 <1>   0.0800 
 32 H        1.8450    -1.1720    -2.9460 H     1 <1>   0.0800 
 33 H        1.6180    -1.8580    -1.3760 H     1 <1>   0.0800 
 34 H        4.2190    -0.9900    -2.6250 H     1 <1>   0.0800 
 35 H        3.7430    -2.6070    -2.1660 H     1 <1>   0.0800 
 36 H        6.3210    -1.1970    -1.0730 H     1 <1>   0.0800 
 37 H        5.7500    -2.8410    -0.8310 H     1 <1>   0.0800 
 38 H        6.0230    -1.8020     0.5460 H     1 <1>   0.0800 
 39 H        6.0610     4.1530     2.1120 H     1 <1>   0.1500 
 40 H        8.1910     5.0980     1.2570 H     1 <1>   0.1500 
 41 H        8.9270     2.7400    -2.5340 H     1 <1>   0.0800 
 42 H        7.8730     1.3490    -2.4570 H     1 <1>   0.0800 
 43 H        9.3540     1.3800    -1.5210 H     1 <1>   0.0800 
@<TRIPOS>BOND
  1   1   2  ar  
  2   2   3  ar  
  3   2   4  1   
  4   4   5  1   
  5   4   6  1   
  6   4   7  1   
  7   5   8  1   
  8   5   9  1   
  9   5  22  1   
 10   6  10  1   
 11   6  23  1   
 12   6  24  1   
 13   7  11  1   
 14   7  25  1   
 15   7  26  1   
 16   8  12  1   
 17   8  13  1   
 18   8  27  1   
 19   9  14  1   
 20   9  28  1   
 21   9  29  1   
 22  10  14  1   
 23  10  30  1   
 24  10  31  1   
 25  11  12  1   
 26  11  32  1   
 27  11  33  1   
 28  12  34  1   
 29  12  35  1   
 30  13  36  1   
 31  13  37  1   
 32  13  38  1   
 33  14  15  1   
 34  15  16  ar  
 35  15  17  ar  
 36  16  18  ar  
 37  17  19  ar  
 38  17  39  1   
 39  18  20  ar  
 40  18  21  1   
 41  19  20  ar  
 42  19  40  1   
 43  21  41  1   
 44  21  42  1   
 45  21  43  1   
@<TRIPOS>SUBSTRUCTURE
  1 ****   5 GROUP 4 **** **** 0

# MOE 2024.06 (io_trps.svl 2023.06)
