@<TRIPOS>MOLECULE
NONAME
54 56 1 0 0 
SMALL
USER_CHARGES


@<TRIPOS>ATOM
  1 O       -0.4030     1.8380    -2.1940 O.2   1 <1>  -0.5700 
  2 C       -1.4740     2.0850    -1.6740 C.2   1 <1>   0.5440 
  3 N       -2.0030     3.3560    -1.7880 N.am  1 <1>  -0.6600 
  4 C       -2.1680     1.0410    -0.9430 C.ar  1 <1>   0.0860 
  5 C       -3.2360     3.8020    -1.0850 C.3   1 <1>   0.1400 
  6 C       -1.3360     4.4170    -2.5910 C.3   1 <1>   0.1400 
  7 C       -1.8220     0.6860     0.3660 C.ar  1 <1>  -0.1440 
  8 C       -3.2300     0.3680    -1.5470 C.ar  1 <1>  -0.1500 
  9 C       -2.8870     4.9600    -0.1450 C.3   1 <1>  -0.1600 
 10 C       -0.9580     5.5800    -1.6710 C.3   1 <1>  -0.1600 
 11 C       -2.5310    -0.3010     1.0330 C.ar  1 <1>  -0.1500 
 12 C       -0.6600     1.3770     1.0670 C.3   1 <1>  -0.0970 
 13 C       -3.9340    -0.6150    -0.8800 C.ar  1 <1>  -0.1500 
 14 C       -2.1810     6.1080    -0.8940 C.3   1 <1>  -0.0190 
 15 C       -3.5850    -0.9500     0.4150 C.ar  1 <1>  -0.1500 
 16 C       -1.8120     7.2440     0.0550 C.2   1 <1>   0.5690 
 17 O       -2.3580     8.3130    -0.0640 O.2   1 <1>  -0.5700 
 18 N       -0.8700     7.0340     1.0030 N.am  1 <1>  -0.7300 
 19 C       -0.4060     8.0340     1.9700 C.3   1 <1>   0.4000 
 20 C        1.0200     8.4370     1.6050 C.2   1 <1>   0.0060 
 21 C       -0.5090     7.4140     3.3620 C.3   1 <1>  -0.2400 
 22 N        2.0950     7.9310     2.1090 N.2   1 <1>  -0.5650 
 23 N        1.3120     9.3760     0.6900 N.pl3 1 <1>   0.3140 
 24 C        3.0450     8.6150     1.4640 C.2   1 <1>   0.3660 
 25 N        2.6330     9.4900     0.6110 N.2   1 <1>  -0.7070 
 26 C        0.4180    10.2070    -0.1520 C.3   1 <1>   0.0960 
 27 C        0.4120     9.7190    -1.6070 C.3   1 <1>  -0.2400 
 28 H       -3.6750     3.0010    -0.5170 H     1 <1>   0.0800 
 29 H       -3.9570     4.1260    -1.8150 H     1 <1>   0.0800 
 30 H       -2.0130     4.7550    -3.3560 H     1 <1>   0.0800 
 31 H       -0.4530     4.0370    -3.0750 H     1 <1>   0.0800 
 32 H       -3.4980     0.6260    -2.5570 H     1 <1>   0.1500 
 33 H       -2.2560     4.5850     0.6410 H     1 <1>   0.0800 
 34 H       -3.7900     5.3290     0.3090 H     1 <1>   0.0800 
 35 H       -0.5360     6.3710    -2.2640 H     1 <1>   0.0800 
 36 H       -0.1970     5.2370    -0.9920 H     1 <1>   0.0800 
 37 H       -2.2650    -0.5750     2.0390 H     1 <1>   0.1500 
 38 H        0.2470     1.2180     0.5100 H     1 <1>   0.0800 
 39 H       -0.5200     0.9910     2.0600 H     1 <1>   0.0800 
 40 H       -0.8430     2.4340     1.1320 H     1 <1>   0.0800 
 41 H       -4.7500    -1.1230    -1.3650 H     1 <1>   0.1500 
 42 H       -2.8770     6.5080    -1.6110 H     1 <1>   0.0800 
 43 H       -4.1290    -1.7160     0.9410 H     1 <1>   0.1500 
 44 H       -0.3350     6.1660     1.0200 H     1 <1>   0.3700 
 45 H       -1.0450     8.9000     1.9410 H     1 <1>   0.0800 
 46 H        0.0980     6.5290     3.4290 H     1 <1>   0.0800 
 47 H       -1.5320     7.1690     3.5840 H     1 <1>   0.0800 
 48 H       -0.1600     8.1190     4.0940 H     1 <1>   0.0800 
 49 H        4.0890     8.4290     1.6620 H     1 <1>   0.1500 
 50 H        0.7750    11.2200    -0.1140 H     1 <1>   0.0800 
 51 H       -0.5780    10.1860     0.2460 H     1 <1>   0.0800 
 52 H        1.4020     9.7830    -2.0240 H     1 <1>   0.0800 
 53 H       -0.2480    10.3330    -2.1930 H     1 <1>   0.0800 
 54 H        0.0680     8.7030    -1.6580 H     1 <1>   0.0800 
@<TRIPOS>BOND
  1   1   2  2   
  2   2   3  am  
  3   2   4  1   
  4   3   5  1   
  5   3   6  1   
  6   4   7  ar  
  7   4   8  ar  
  8   5   9  1   
  9   5  28  1   
 10   5  29  1   
 11   6  10  1   
 12   6  30  1   
 13   6  31  1   
 14   7  11  ar  
 15   7  12  1   
 16   8  13  ar  
 17   8  32  1   
 18   9  14  1   
 19   9  33  1   
 20   9  34  1   
 21  10  14  1   
 22  10  35  1   
 23  10  36  1   
 24  11  15  ar  
 25  11  37  1   
 26  12  38  1   
 27  12  39  1   
 28  12  40  1   
 29  13  15  ar  
 30  13  41  1   
 31  14  16  1   
 32  14  42  1   
 33  15  43  1   
 34  16  17  2   
 35  16  18  am  
 36  18  19  1   
 37  18  44  1   
 38  19  20  1   
 39  19  21  1   
 40  19  45  1   
 41  20  22  2   
 42  20  23  1   
 43  21  46  1   
 44  21  47  1   
 45  21  48  1   
 46  22  24  1   
 47  23  25  1   
 48  23  26  1   
 49  24  25  2   
 50  24  49  1   
 51  26  27  1   
 52  26  50  1   
 53  26  51  1   
 54  27  52  1   
 55  27  53  1   
 56  27  54  1   
@<TRIPOS>SUBSTRUCTURE
  1 ****  10 GROUP 4 **** **** 0

# MOE 2024.06 (io_trps.svl 2023.06)
