@<TRIPOS>MOLECULE
NONAME
52 54 1 0 0 
SMALL
USER_CHARGES


@<TRIPOS>ATOM
  1 S        0.9420    -0.1490    -1.3600 S.o2  1 <1>   1.2040 
  2 O        2.3590     0.0810    -1.1890 O.2   1 <1>  -0.6500 
  3 O        0.3890    -0.2990    -2.6890 O.2   1 <1>  -0.6500 
  4 C        0.0180     1.1270    -0.4690 C.ar  1 <1>  -0.0090 
  5 C        0.5170    -1.6230    -0.4340 C.3   1 <1>  -0.0550 
  6 C       -1.1510     1.6680    -0.9930 C.ar  1 <1>  -0.1500 
  7 C        0.4360     1.5710     0.7810 C.ar  1 <1>  -0.1500 
  8 C       -0.9870    -1.9560    -0.4750 C.3   1 <1>  -0.0990 
  9 C       -1.8840     2.6100    -0.2920 C.ar  1 <1>  -0.1500 
 10 C       -0.2920     2.5120     1.4890 C.ar  1 <1>  -0.1500 
 11 C       -1.3670    -3.1410     0.3990 C.2   1 <1>   0.5690 
 12 C       -1.4550     3.0310     0.9530 C.ar  1 <1>  -0.1500 
 13 O       -0.4690    -3.8170     0.8420 O.2   1 <1>  -0.5700 
 14 N       -2.6850    -3.4100     0.6800 N.am  1 <1>  -0.6600 
 15 C       -3.8210    -2.6540     0.0660 C.3   1 <1>   0.2200 
 16 C       -3.0200    -4.4910     1.6610 C.3   1 <1>   0.0600 
 17 C       -5.0340    -3.4990    -0.3220 C.3   1 <1>  -0.1600 
 18 C       -4.3880    -1.6020     1.0120 C.3   1 <1>  -0.1600 
 19 C       -6.1730    -2.4790    -0.4550 C.3   1 <1>  -0.0800 
 20 C       -5.7750    -1.2820     0.4410 C.3   1 <1>  -0.0800 
 21 C       -7.5590    -3.0860    -0.1600 C.3   1 <1>   0.1400 
 22 C       -6.8140    -0.9510     1.5270 C.3   1 <1>  -0.0990 
 23 N       -8.5420    -2.0090     0.1190 N.am  1 <1>  -0.6600 
 24 C       -8.2110    -0.9650     0.9390 C.2   1 <1>   0.5690 
 25 C       -9.8940    -2.1590    -0.4830 C.3   1 <1>   0.0600 
 26 O       -8.9700    -0.0680     1.2140 O.2   1 <1>  -0.5700 
 27 H        1.0640    -2.4570    -0.8300 H     1 <1>   0.0800 
 28 H        0.8210    -1.5010     0.5890 H     1 <1>   0.0800 
 29 H       -1.4930     1.3520    -1.9650 H     1 <1>   0.1500 
 30 H        1.3450     1.1800     1.2060 H     1 <1>   0.1500 
 31 H       -1.5420    -1.1020    -0.1380 H     1 <1>   0.0800 
 32 H       -1.2700    -2.1750    -1.4890 H     1 <1>   0.0800 
 33 H       -2.7860     3.0180    -0.7160 H     1 <1>   0.1500 
 34 H        0.0500     2.8430     2.4550 H     1 <1>   0.1500 
 35 H       -2.0230     3.7650     1.5010 H     1 <1>   0.1500 
 36 H       -3.4930    -2.1570    -0.8300 H     1 <1>   0.0800 
 37 H       -3.8130    -4.1750     2.3140 H     1 <1>   0.0800 
 38 H       -2.1660    -4.7340     2.2700 H     1 <1>   0.0800 
 39 H       -3.3220    -5.3770     1.1330 H     1 <1>   0.0800 
 40 H       -4.8660    -4.0300    -1.2430 H     1 <1>   0.0800 
 41 H       -5.2820    -4.1970     0.4550 H     1 <1>   0.0800 
 42 H       -4.4800    -2.0140     2.0010 H     1 <1>   0.0800 
 43 H       -3.7660    -0.7250     1.0490 H     1 <1>   0.0800 
 44 H       -6.1860    -2.1290    -1.4740 H     1 <1>   0.0800 
 45 H       -5.6890    -0.4190    -0.2000 H     1 <1>   0.0800 
 46 H       -7.5100    -3.7250     0.7050 H     1 <1>   0.0800 
 47 H       -7.8820    -3.6770    -0.9990 H     1 <1>   0.0800 
 48 H       -6.6130     0.0150     1.9510 H     1 <1>   0.0800 
 49 H       -6.7860    -1.6800     2.3150 H     1 <1>   0.0800 
 50 H      -10.3420    -3.0780    -0.1490 H     1 <1>   0.0800 
 51 H       -9.8160    -2.1670    -1.5560 H     1 <1>   0.0800 
 52 H      -10.5300    -1.3400    -0.1910 H     1 <1>   0.0800 
@<TRIPOS>BOND
  1   1   2  2   
  2   1   3  2   
  3   1   4  1   
  4   1   5  1   
  5   4   6  ar  
  6   4   7  ar  
  7   5   8  1   
  8   5  27  1   
  9   5  28  1   
 10   6   9  ar  
 11   6  29  1   
 12   7  10  ar  
 13   7  30  1   
 14   8  11  1   
 15   8  31  1   
 16   8  32  1   
 17   9  12  ar  
 18   9  33  1   
 19  10  12  ar  
 20  10  34  1   
 21  11  13  2   
 22  11  14  am  
 23  12  35  1   
 24  14  15  1   
 25  14  16  1   
 26  15  17  1   
 27  15  18  1   
 28  15  36  1   
 29  16  37  1   
 30  16  38  1   
 31  16  39  1   
 32  17  19  1   
 33  17  40  1   
 34  17  41  1   
 35  18  20  1   
 36  18  42  1   
 37  18  43  1   
 38  19  20  1   
 39  19  21  1   
 40  19  44  1   
 41  20  22  1   
 42  20  45  1   
 43  21  23  1   
 44  21  46  1   
 45  21  47  1   
 46  22  24  1   
 47  22  48  1   
 48  22  49  1   
 49  23  24  am  
 50  23  25  1   
 51  24  26  2   
 52  25  50  1   
 53  25  51  1   
 54  25  52  1   
@<TRIPOS>SUBSTRUCTURE
  1 ****  18 GROUP 4 **** **** 0

# MOE 2024.06 (io_trps.svl 2023.06)
