@<TRIPOS>MOLECULE
NONAME
41 42 1 0 0 
SMALL
USER_CHARGES


@<TRIPOS>ATOM
  1 O        2.2140    -0.2810    -1.3510 O.2   1 <1>  -0.5700 
  2 C        2.0960     0.1510    -0.2190 C.2   1 <1>   0.5440 
  3 N        1.4060     1.3220    -0.0420 N.am  1 <1>  -0.7300 
  4 C        2.6510    -0.5410     0.9230 C.ar  1 <1>   0.0860 
  5 C        0.7930     2.1360    -1.1240 C.3   1 <1>   0.0600 
  6 C        2.6300    -1.9480     1.0250 C.ar  1 <1>   0.4100 
  7 C        3.2070     0.1680     1.9810 C.ar  1 <1>  -0.1500 
  8 N        3.0720    -2.6240     2.0840 N.ar  1 <1>  -0.6200 
  9 N        2.1420    -2.7220     0.0040 N.pl3 1 <1>  -0.8690 
 10 C        3.6750    -0.5330     3.0680 C.ar  1 <1>  -0.1500 
 11 C        3.5790    -1.9120     3.0700 C.ar  1 <1>   0.1600 
 12 C        1.4700    -4.0340     0.1500 C.3   1 <1>   0.4690 
 13 C        2.1270    -5.0170    -0.8250 C.2   1 <1>   0.0060 
 14 C       -0.0650    -3.8780    -0.0460 C.3   1 <1>  -0.0800 
 15 N        1.5870    -5.5750    -1.8570 N.2   1 <1>  -0.5650 
 16 N        3.4030    -5.4040    -0.6890 N.pl3 1 <1>   0.3140 
 17 C       -0.6690    -2.6990     0.7450 C.3   1 <1>  -0.2400 
 18 C       -0.8170    -5.1590     0.3660 C.3   1 <1>  -0.2400 
 19 C        2.5970    -6.3170    -2.3240 C.2   1 <1>   0.3660 
 20 N        3.7010    -6.2570    -1.6600 N.2   1 <1>  -0.7070 
 21 C        4.4030    -5.0030     0.3120 C.3   1 <1>   0.0160 
 22 H        1.2060     1.6340     0.9100 H     1 <1>   0.3700 
 23 H        1.0710     1.7520    -2.0910 H     1 <1>   0.0800 
 24 H        1.1310     3.1550    -1.0490 H     1 <1>   0.0800 
 25 H       -0.2790     2.1090    -1.0370 H     1 <1>   0.0800 
 26 H        3.2750     1.2420     1.9510 H     1 <1>   0.1500 
 27 H        1.9340    -2.2400    -0.8840 H     1 <1>   0.4000 
 28 H        4.1110    -0.0230     3.9090 H     1 <1>   0.1500 
 29 H        3.9420    -2.4530     3.9280 H     1 <1>   0.1500 
 30 H        1.6300    -4.4040     1.1480 H     1 <1>   0.0800 
 31 H       -0.2490    -3.7070    -1.0930 H     1 <1>   0.0800 
 32 H       -0.4270    -2.7830     1.7900 H     1 <1>   0.0800 
 33 H       -1.7390    -2.6820     0.6370 H     1 <1>   0.0800 
 34 H       -0.2910    -1.7620     0.3770 H     1 <1>   0.0800 
 35 H       -0.6740    -5.3640     1.4120 H     1 <1>   0.0800 
 36 H       -0.4690    -6.0060    -0.1990 H     1 <1>   0.0800 
 37 H       -1.8700    -5.0510     0.1780 H     1 <1>   0.0800 
 38 H        2.4710    -6.9230    -3.2070 H     1 <1>   0.1500 
 39 H        3.9930    -5.1230     1.2970 H     1 <1>   0.0800 
 40 H        4.6640    -3.9730     0.1520 H     1 <1>   0.0800 
 41 H        5.2780    -5.6160     0.2070 H     1 <1>   0.0800 
@<TRIPOS>BOND
  1   1   2  2   
  2   2   3  am  
  3   2   4  1   
  4   3   5  1   
  5   3  22  1   
  6   4   6  ar  
  7   4   7  ar  
  8   5  23  1   
  9   5  24  1   
 10   5  25  1   
 11   6   8  ar  
 12   6   9  1   
 13   7  10  ar  
 14   7  26  1   
 15   8  11  ar  
 16   9  12  1   
 17   9  27  1   
 18  10  11  ar  
 19  10  28  1   
 20  11  29  1   
 21  12  13  1   
 22  12  14  1   
 23  12  30  1   
 24  13  15  2   
 25  13  16  1   
 26  14  17  1   
 27  14  18  1   
 28  14  31  1   
 29  15  19  1   
 30  16  20  1   
 31  16  21  1   
 32  17  32  1   
 33  17  33  1   
 34  17  34  1   
 35  18  35  1   
 36  18  36  1   
 37  18  37  1   
 38  19  20  2   
 39  19  38  1   
 40  21  39  1   
 41  21  40  1   
 42  21  41  1   
@<TRIPOS>SUBSTRUCTURE
  1 ****   9 GROUP 4 **** **** 0

# MOE 2024.06 (io_trps.svl 2023.06)
