@<TRIPOS>MOLECULE
NONAME
47 48 1 0 0 
SMALL
USER_CHARGES


@<TRIPOS>ATOM
  1 S        0.2880     0.3690     0.3110 S.o2  1 <1>   1.3330 
  2 O       -1.1330     0.5680     0.1400 O.2   1 <1>  -0.6500 
  3 O        0.8710     0.4530     1.6310 O.2   1 <1>  -0.6500 
  4 N        0.7030    -1.1400    -0.3470 N.am  1 <1>  -0.8490 
  5 C        1.1310     1.5200    -0.7720 C.3   1 <1>  -0.0550 
  6 C       -0.3370    -2.1480    -0.1240 C.3   1 <1>   0.1160 
  7 C        1.9970    -1.6450     0.1220 C.3   1 <1>   0.1160 
  8 C        0.8290     2.9930    -0.4460 C.3   1 <1>  -0.0800 
  9 C        1.4740     3.9490    -1.4450 C.3   1 <1>   0.2000 
 10 C        1.3600     3.4610     0.9110 C.3   1 <1>   0.1400 
 11 O        0.6670     4.0800    -2.5630 O.3   1 <1>  -0.6800 
 12 C        1.6380     5.2740    -0.7040 C.3   1 <1>   0.1400 
 13 N        1.6280     4.9070     0.7350 N.am  1 <1>  -0.6600 
 14 C        1.9060     5.7350     1.7910 C.2   1 <1>   0.5690 
 15 O        1.9530     5.3110     2.9220 O.2   1 <1>  -0.5700 
 16 C        2.1520     7.2230     1.5810 C.3   1 <1>   0.0440 
 17 C        3.4140     7.5240     0.7770 C.ar  1 <1>  -0.1430 
 18 C        4.6130     6.9040     1.0970 C.ar  1 <1>  -0.1500 
 19 C        3.3780     8.4180    -0.2860 C.ar  1 <1>  -0.1500 
 20 C        5.7370     7.1840     0.3440 C.ar  1 <1>   0.1900 
 21 C        4.5170     8.6870    -1.0300 C.ar  1 <1>  -0.1500 
 22 F        6.8540     6.5830     0.6600 F     1 <1>  -0.1900 
 23 C        5.7200     8.0680    -0.7250 C.ar  1 <1>  -0.1430 
 24 C        6.9740     8.3560    -1.5360 C.3   1 <1>  -0.0970 
 25 H        2.1890     1.3520    -0.7200 H     1 <1>   0.0800 
 26 H        0.8190     1.3260    -1.7810 H     1 <1>   0.0800 
 27 H       -0.0500    -3.0860    -0.5670 H     1 <1>   0.0800 
 28 H       -1.2610    -1.8320    -0.5780 H     1 <1>   0.0800 
 29 H       -0.5020    -2.2890     0.9320 H     1 <1>   0.0800 
 30 H        2.2490    -2.5550    -0.3950 H     1 <1>   0.0800 
 31 H        1.9630    -1.8430     1.1820 H     1 <1>   0.0800 
 32 H        2.7710    -0.9220    -0.0680 H     1 <1>   0.0800 
 33 H       -0.2370     3.1460    -0.4410 H     1 <1>   0.0800 
 34 H        2.4400     3.5940    -1.7650 H     1 <1>   0.0800 
 35 H        2.2820     2.9640     1.1640 H     1 <1>   0.0800 
 36 H        0.6440     3.2960     1.6990 H     1 <1>   0.0800 
 37 H       -0.2430     4.3240    -2.3030 H     1 <1>   0.4000 
 38 H        0.8180     5.9390    -0.9100 H     1 <1>   0.0800 
 39 H        2.5730     5.7340    -0.9730 H     1 <1>   0.0800 
 40 H        1.2900     7.6390     1.0960 H     1 <1>   0.0800 
 41 H        2.2390     7.6940     2.5430 H     1 <1>   0.0800 
 42 H        4.6820     6.2100     1.9160 H     1 <1>   0.1500 
 43 H        2.4600     8.9160    -0.5440 H     1 <1>   0.1500 
 44 H        4.4610     9.3830    -1.8490 H     1 <1>   0.1500 
 45 H        6.7750     9.0660    -2.3180 H     1 <1>   0.0800 
 46 H        7.3380     7.4470    -1.9820 H     1 <1>   0.0800 
 47 H        7.7390     8.7560    -0.8950 H     1 <1>   0.0800 
@<TRIPOS>BOND
  1   1   2  2   
  2   1   3  2   
  3   1   4  am  
  4   1   5  1   
  5   4   6  1   
  6   4   7  1   
  7   5   8  1   
  8   5  25  1   
  9   5  26  1   
 10   6  27  1   
 11   6  28  1   
 12   6  29  1   
 13   7  30  1   
 14   7  31  1   
 15   7  32  1   
 16   8   9  1   
 17   8  10  1   
 18   8  33  1   
 19   9  11  1   
 20   9  12  1   
 21   9  34  1   
 22  10  13  1   
 23  10  35  1   
 24  10  36  1   
 25  11  37  1   
 26  12  13  1   
 27  12  38  1   
 28  12  39  1   
 29  13  14  am  
 30  14  15  2   
 31  14  16  1   
 32  16  17  1   
 33  16  40  1   
 34  16  41  1   
 35  17  18  ar  
 36  17  19  ar  
 37  18  20  ar  
 38  18  42  1   
 39  19  21  ar  
 40  19  43  1   
 41  20  22  1   
 42  20  23  ar  
 43  21  23  ar  
 44  21  44  1   
 45  23  24  1   
 46  24  45  1   
 47  24  46  1   
 48  24  47  1   
@<TRIPOS>SUBSTRUCTURE
  1 ****  13 GROUP 4 **** **** 0

# MOE 2024.06 (io_trps.svl 2023.06)
