@<TRIPOS>MOLECULE
NONAME
47 49 1 0 0 
SMALL
USER_CHARGES


@<TRIPOS>ATOM
  1 S       -1.0260     0.6970     2.1060 S.3   1 <1>  -0.0800 
  2 C       -1.5390     0.3530     0.4630 C.2   1 <1>  -0.1400 
  3 C       -0.6020     2.3370     1.6790 C.2   1 <1>  -0.1100 
  4 C       -1.3680     1.4430    -0.3090 C.2   1 <1>  -0.1500 
  5 C       -2.0680    -1.0460     0.1820 C.3   1 <1>   0.1000 
  6 C       -0.8210     2.5930     0.3650 C.2   1 <1>  -0.0860 
  7 C       -2.1480    -1.3160    -1.3240 C.3   1 <1>  -0.2400 
  8 C       -3.4480    -1.2280     0.8190 C.3   1 <1>  -0.2400 
  9 C       -0.5760     3.8350    -0.3400 C.2   1 <1>   0.7160 
 10 O       -1.3610     4.2090    -1.1920 O.2   1 <1>  -0.5700 
 11 N        0.5340     4.6110    -0.0850 N.am  1 <1>  -0.6600 
 12 C        0.6490     5.9760    -0.6920 C.3   1 <1>   0.1400 
 13 C        1.7670     4.0820     0.5810 C.3   1 <1>   0.1400 
 14 C        1.7190     6.8360     0.0040 C.3   1 <1>   0.2090 
 15 C        3.0520     4.6720    -0.0280 C.3   1 <1>   0.2090 
 16 N        3.0710     6.1740     0.0110 N.pl3 1 <1>  -0.8380 
 17 C        4.2250     6.8810    -0.1250 C.ar  1 <1>   0.1000 
 18 C        4.6040     7.9280     0.7400 C.ar  1 <1>  -0.1440 
 19 C        5.1010     6.5710    -1.1740 C.ar  1 <1>  -0.1500 
 20 C        5.7790     8.6040     0.5190 C.ar  1 <1>   0.2110 
 21 C        3.7450     8.3080     1.9440 C.3   1 <1>  -0.0970 
 22 C        6.2640     7.2680    -1.3570 C.ar  1 <1>   0.2110 
 23 N        6.5920     8.2770    -0.5160 N.ar  1 <1>  -0.1790 
 24 H       -0.2280     2.9670     2.4650 H     1 <1>   0.1500 
 25 H       -1.6090     1.5090    -1.3560 H     1 <1>   0.1500 
 26 H       -1.3860    -1.7590     0.6160 H     1 <1>   0.0800 
 27 H       -2.8430    -0.6410    -1.7920 H     1 <1>   0.0800 
 28 H       -2.4720    -2.3250    -1.5060 H     1 <1>   0.0800 
 29 H       -1.1800    -1.1820    -1.7740 H     1 <1>   0.0800 
 30 H       -4.1390    -0.5050     0.4230 H     1 <1>   0.0800 
 31 H       -3.3880    -1.0930     1.8840 H     1 <1>   0.0800 
 32 H       -3.8260    -2.2150     0.6230 H     1 <1>   0.0800 
 33 H       -0.3020     6.4760    -0.6260 H     1 <1>   0.0800 
 34 H        0.8960     5.8780    -1.7350 H     1 <1>   0.0800 
 35 H        1.8040     3.0110     0.4860 H     1 <1>   0.0800 
 36 H        1.7360     4.3250     1.6290 H     1 <1>   0.0800 
 37 H        1.4030     7.0110     1.0170 H     1 <1>   0.0800 
 38 H        1.7880     7.7860    -0.4950 H     1 <1>   0.0800 
 39 H        3.1260     4.3410    -1.0500 H     1 <1>   0.0800 
 40 H        3.9040     4.2930     0.5080 H     1 <1>   0.0800 
 41 H        4.8350     5.7770    -1.8480 H     1 <1>   0.1500 
 42 H        6.0840     9.4080     1.1700 H     1 <1>   0.1500 
 43 H        3.4100     7.4210     2.4530 H     1 <1>   0.0800 
 44 H        2.8860     8.8700     1.6260 H     1 <1>   0.0800 
 45 H        4.2970     8.9040     2.6490 H     1 <1>   0.0800 
 46 H        6.9320     7.0290    -2.1700 H     1 <1>   0.1500 
 47 H        7.4650     8.7970    -0.6590 H     1 <1>   0.4570 
@<TRIPOS>BOND
  1   1   2  1   
  2   1   3  1   
  3   2   4  2   
  4   2   5  1   
  5   3   6  2   
  6   3  24  1   
  7   4   6  1   
  8   4  25  1   
  9   5   7  1   
 10   5   8  1   
 11   5  26  1   
 12   6   9  1   
 13   7  27  1   
 14   7  28  1   
 15   7  29  1   
 16   8  30  1   
 17   8  31  1   
 18   8  32  1   
 19   9  10  2   
 20   9  11  am  
 21  11  12  1   
 22  11  13  1   
 23  12  14  1   
 24  12  33  1   
 25  12  34  1   
 26  13  15  1   
 27  13  35  1   
 28  13  36  1   
 29  14  16  1   
 30  14  37  1   
 31  14  38  1   
 32  15  16  1   
 33  15  39  1   
 34  15  40  1   
 35  16  17  1   
 36  17  18  ar  
 37  17  19  ar  
 38  18  20  ar  
 39  18  21  1   
 40  19  22  ar  
 41  19  41  1   
 42  20  23  ar  
 43  20  42  1   
 44  21  43  1   
 45  21  44  1   
 46  21  45  1   
 47  22  23  ar  
 48  22  46  1   
 49  23  47  1   
@<TRIPOS>SUBSTRUCTURE
  1 ****  13 GROUP 4 **** **** 0

# MOE 2024.06 (io_trps.svl 2023.06)
