@<TRIPOS>MOLECULE
NONAME
47 49 1 0 0 
SMALL
USER_CHARGES


@<TRIPOS>ATOM
  1 O       -0.3730     1.1300     1.0790 O.2   1 <1>  -0.5700 
  2 C       -0.4360     2.2500     0.6410 C.2   1 <1>   0.5690 
  3 N       -1.2110     3.1830     1.2310 N.am  1 <1>  -0.7300 
  4 C        0.3380     2.6300    -0.6210 C.3   1 <1>   0.1810 
  5 C       -1.4240     4.5490     0.6890 C.3   1 <1>   0.3640 
  6 O        0.5570     4.0200    -0.7080 O.3   1 <1>  -0.5600 
  7 C       -2.9250     4.7410     0.4740 C.ar  1 <1>  -0.1440 
  8 C       -0.6230     4.8180    -0.6180 C.3   1 <1>   0.2610 
  9 C       -3.7040     3.7530    -0.1180 C.ar  1 <1>  -0.1500 
 10 C       -3.5320     5.9240     0.8700 C.ar  1 <1>  -0.1500 
 11 C       -0.2580     6.3050    -0.6910 C.2   1 <1>   0.5690 
 12 C       -5.0630     3.9440    -0.3030 C.ar  1 <1>  -0.1500 
 13 C       -4.8900     6.1160     0.6840 C.ar  1 <1>  -0.1500 
 14 O       -1.1400     7.1280    -0.7500 O.2   1 <1>  -0.5700 
 15 N        1.0610     6.6460    -0.6720 N.am  1 <1>  -0.7300 
 16 C       -5.6570     5.1260     0.0990 C.ar  1 <1>  -0.1500 
 17 C        1.6990     7.9690    -0.7110 C.3   1 <1>   0.3000 
 18 C        3.2120     7.7240    -0.5550 C.3   1 <1>  -0.1600 
 19 C        1.1810     8.8260     0.4610 C.3   1 <1>  -0.1600 
 20 C        1.3870     8.6050    -2.0720 C.3   1 <1>  -0.2400 
 21 C        4.0250     9.0130    -0.3450 C.3   1 <1>  -0.1600 
 22 C        1.9890    10.1170     0.6760 C.3   1 <1>  -0.1600 
 23 C        3.4830     9.8180     0.8420 C.3   1 <1>  -0.1600 
 24 H       -1.7780     2.9120     2.0360 H     1 <1>   0.3700 
 25 H       -0.2060     2.3120    -1.4910 H     1 <1>   0.0800 
 26 H        1.2970     2.1450    -0.6110 H     1 <1>   0.0800 
 27 H       -1.0910     5.2490     1.4360 H     1 <1>   0.0800 
 28 H       -1.2380     4.5860    -1.4690 H     1 <1>   0.0800 
 29 H       -3.2630     2.8250    -0.4370 H     1 <1>   0.1500 
 30 H       -2.9510     6.7130     1.3180 H     1 <1>   0.1500 
 31 H       -5.6570     3.1720    -0.7600 H     1 <1>   0.1500 
 32 H       -5.3480     7.0400     0.9930 H     1 <1>   0.1500 
 33 H        1.7180     5.8610    -0.6720 H     1 <1>   0.3700 
 34 H       -6.7130     5.2760    -0.0450 H     1 <1>   0.1500 
 35 H        3.3730     7.0930     0.3020 H     1 <1>   0.0800 
 36 H        3.5880     7.2100    -1.4220 H     1 <1>   0.0800 
 37 H        0.1520     9.0890     0.2940 H     1 <1>   0.0800 
 38 H        1.2310     8.2430     1.3640 H     1 <1>   0.0800 
 39 H        1.8770     9.5530    -2.1780 H     1 <1>   0.0800 
 40 H        0.3300     8.7710    -2.1740 H     1 <1>   0.0800 
 41 H        1.7150     7.9630    -2.8690 H     1 <1>   0.0800 
 42 H        5.0550     8.7600    -0.1630 H     1 <1>   0.0800 
 43 H        3.9930     9.6170    -1.2340 H     1 <1>   0.0800 
 44 H        1.8460    10.7790    -0.1610 H     1 <1>   0.0800 
 45 H        1.6260    10.6230     1.5540 H     1 <1>   0.0800 
 46 H        4.0290    10.7420     0.9290 H     1 <1>   0.0800 
 47 H        3.6350     9.2600     1.7500 H     1 <1>   0.0800 
@<TRIPOS>BOND
  1   1   2  2   
  2   2   3  am  
  3   2   4  1   
  4   3   5  1   
  5   3  24  1   
  6   4   6  1   
  7   4  25  1   
  8   4  26  1   
  9   5   7  1   
 10   5   8  1   
 11   5  27  1   
 12   6   8  1   
 13   7   9  ar  
 14   7  10  ar  
 15   8  11  1   
 16   8  28  1   
 17   9  12  ar  
 18   9  29  1   
 19  10  13  ar  
 20  10  30  1   
 21  11  14  2   
 22  11  15  am  
 23  12  16  ar  
 24  12  31  1   
 25  13  16  ar  
 26  13  32  1   
 27  15  17  1   
 28  15  33  1   
 29  16  34  1   
 30  17  18  1   
 31  17  19  1   
 32  17  20  1   
 33  18  21  1   
 34  18  35  1   
 35  18  36  1   
 36  19  22  1   
 37  19  37  1   
 38  19  38  1   
 39  20  39  1   
 40  20  40  1   
 41  20  41  1   
 42  21  23  1   
 43  21  42  1   
 44  21  43  1   
 45  22  23  1   
 46  22  44  1   
 47  22  45  1   
 48  23  46  1   
 49  23  47  1   
@<TRIPOS>SUBSTRUCTURE
  1 ****  11 GROUP 4 **** **** 0

# MOE 2024.06 (io_trps.svl 2023.06)
