@<TRIPOS>MOLECULE
NONAME
53 55 1 0 0 
SMALL
USER_CHARGES


@<TRIPOS>ATOM
  1 O        2.7390     0.4530    -3.7900 O.2   1 <1>  -0.5700 
  2 C        3.1320     0.7680    -2.6840 C.2   1 <1>   0.5440 
  3 N        2.9460     2.0770    -2.3370 N.am  1 <1>  -0.5470 
  4 C        3.7770    -0.2100    -1.8450 C.ar  1 <1>   0.0860 
  5 C        3.2470     2.7870    -1.1610 C.ar  1 <1>   0.1170 
  6 C        3.2920    -0.5460    -0.5660 C.ar  1 <1>   0.4100 
  7 C        4.9150    -0.8660    -2.2940 C.ar  1 <1>  -0.1500 
  8 C        2.3400     3.7410    -0.6840 C.ar  1 <1>   0.0820 
  9 C        4.4280     2.5730    -0.4630 C.ar  1 <1>  -0.1500 
 10 N        3.8790    -1.4250     0.2450 N.ar  1 <1>  -0.6200 
 11 N        2.1310    -0.0030    -0.0620 N.pl3 1 <1>  -0.8380 
 12 C        5.5150    -1.7810    -1.4600 C.ar  1 <1>  -0.1500 
 13 O        1.2040     3.9420    -1.4170 O.3   1 <1>  -0.3620 
 14 C        2.6100     4.4350     0.4920 C.ar  1 <1>  -0.1500 
 15 C        4.6930     3.2640     0.7040 C.ar  1 <1>  -0.1500 
 16 C        4.9640    -2.0160    -0.2140 C.ar  1 <1>   0.1600 
 17 C        0.8220    -0.4360    -0.6350 C.3   1 <1>   0.2090 
 18 C        2.1090     0.6040     1.2940 C.3   1 <1>   0.2090 
 19 C        0.2680     4.9400    -1.0760 C.3   1 <1>   0.0400 
 20 C        3.7880     4.1910     1.1910 C.ar  1 <1>   0.0830 
 21 C       -0.1660    -0.8870     0.4600 C.3   1 <1>  -0.0800 
 22 C        1.4760    -0.3460     2.3220 C.3   1 <1>  -0.1600 
 23 O        4.1270     4.8180     2.3480 O.3   1 <1>  -0.3630 
 24 C        0.5640    -1.4160     1.7070 C.3   1 <1>   0.2000 
 25 C       -1.1440    -1.9370    -0.0820 C.3   1 <1>   0.1200 
 26 C        3.3490     5.8750     2.8650 C.3   1 <1>   0.0400 
 27 O        1.3580    -2.4850     1.3480 O.3   1 <1>  -0.6800 
 28 O       -1.8830    -1.3910    -1.1210 O.3   1 <1>  -0.6800 
 29 H        2.2760     2.5470    -2.9470 H     1 <1>   0.3700 
 30 H        5.3080    -0.6560    -3.2740 H     1 <1>   0.1500 
 31 H        5.1480     1.8640    -0.8280 H     1 <1>   0.1500 
 32 H        6.4000    -2.3090    -1.7680 H     1 <1>   0.1500 
 33 H        1.9130     5.1560     0.8630 H     1 <1>   0.1500 
 34 H        5.6050     3.0870     1.2450 H     1 <1>   0.1500 
 35 H        5.4400    -2.7320     0.4360 H     1 <1>   0.1500 
 36 H        0.3940     0.3710    -1.2060 H     1 <1>   0.0800 
 37 H        0.9980    -1.2550    -1.3120 H     1 <1>   0.0800 
 38 H        3.1100     0.8580     1.5990 H     1 <1>   0.0800 
 39 H        1.5410     1.5170     1.2430 H     1 <1>   0.0800 
 40 H       -0.5120     4.9320    -1.8160 H     1 <1>   0.0800 
 41 H        0.7610     5.8960    -1.0760 H     1 <1>   0.0800 
 42 H       -0.1450     4.7170    -0.1090 H     1 <1>   0.0800 
 43 H       -0.7390    -0.0320     0.7690 H     1 <1>   0.0800 
 44 H        0.9000     0.2510     3.0040 H     1 <1>   0.0800 
 45 H        2.2500    -0.8190     2.9000 H     1 <1>   0.0800 
 46 H       -0.1380    -1.7740     2.4400 H     1 <1>   0.0800 
 47 H       -1.8260    -2.2680     0.6830 H     1 <1>   0.0800 
 48 H       -0.6090    -2.7910    -0.4650 H     1 <1>   0.0800 
 49 H        3.8360     6.2460     3.7490 H     1 <1>   0.0800 
 50 H        2.3730     5.5000     3.1170 H     1 <1>   0.0800 
 51 H        3.2870     6.6560     2.1270 H     1 <1>   0.0800 
 52 H        2.1510    -2.1150     0.8760 H     1 <1>   0.4000 
 53 H       -2.4830    -0.6940    -0.7940 H     1 <1>   0.4000 
@<TRIPOS>BOND
  1   1   2  2   
  2   2   3  am  
  3   2   4  1   
  4   3   5  1   
  5   3  29  1   
  6   4   6  ar  
  7   4   7  ar  
  8   5   8  ar  
  9   5   9  ar  
 10   6  10  ar  
 11   6  11  1   
 12   7  12  ar  
 13   7  30  1   
 14   8  13  1   
 15   8  14  ar  
 16   9  15  ar  
 17   9  31  1   
 18  10  16  ar  
 19  11  17  1   
 20  11  18  1   
 21  12  16  ar  
 22  12  32  1   
 23  13  19  1   
 24  14  20  ar  
 25  14  33  1   
 26  15  20  ar  
 27  15  34  1   
 28  16  35  1   
 29  17  21  1   
 30  17  36  1   
 31  17  37  1   
 32  18  22  1   
 33  18  38  1   
 34  18  39  1   
 35  19  40  1   
 36  19  41  1   
 37  19  42  1   
 38  20  23  1   
 39  21  24  1   
 40  21  25  1   
 41  21  43  1   
 42  22  24  1   
 43  22  44  1   
 44  22  45  1   
 45  23  26  1   
 46  24  27  1   
 47  24  46  1   
 48  25  28  1   
 49  25  47  1   
 50  25  48  1   
 51  26  49  1   
 52  26  50  1   
 53  26  51  1   
 54  27  52  1   
 55  28  53  1   
@<TRIPOS>SUBSTRUCTURE
  1 ****  11 GROUP 4 **** **** 0

# MOE 2024.06 (io_trps.svl 2023.06)
