@<TRIPOS>MOLECULE
NONAME
43 45 1 0 0 
SMALL
USER_CHARGES


@<TRIPOS>ATOM
  1 S        0.9890    -1.1970     2.0750 S.o2  1 <1>   1.5010 
  2 O        1.9780    -2.2030     1.7490 O.2   1 <1>  -0.6500 
  3 O        0.9820    -0.6470     3.4120 O.2   1 <1>  -0.6500 
  4 N       -0.4990    -1.9590     1.9330 N.am  1 <1>  -0.9140 
  5 C        0.9330     0.1540     0.8250 C.2   1 <1>   0.1640 
  6 C       -0.5850    -2.8670     0.7950 C.3   1 <1>   0.2760 
  7 N        0.5350    -0.0120    -0.4730 N.2   1 <1>  -0.5650 
  8 C        1.2680     1.4570     1.0100 C.2   1 <1>  -0.3020 
  9 C       -2.0310    -3.0070     0.3520 C.3   1 <1>  -0.0800 
 10 C       -0.3020    -4.2960     1.2500 C.3   1 <1>   0.1200 
 11 C        0.6330     1.1600    -1.0080 C.2   1 <1>   0.0060 
 12 N        1.0780     2.1000    -0.1530 N.pl3 1 <1>   0.0330 
 13 C       -2.5830    -4.0570     1.3220 C.3   1 <1>   0.1200 
 14 C       -2.8340    -1.6940     0.2960 C.3   1 <1>  -0.0170 
 15 O       -1.4780    -4.7180     1.8730 O.3   1 <1>  -0.5600 
 16 C        0.2860     1.4620    -2.4550 C.3   1 <1>   0.0200 
 17 C       -4.2310    -1.9380    -0.2490 C.ar  1 <1>  -0.1430 
 18 C       -1.0190     2.2580    -2.5570 C.3   1 <1>  -0.2400 
 19 C       -4.4720    -2.0490    -1.6030 C.ar  1 <1>  -0.1500 
 20 C       -5.3280    -2.0630     0.5790 C.ar  1 <1>  -0.1500 
 21 C       -5.7630    -2.2790    -2.0510 C.ar  1 <1>   0.1600 
 22 C       -6.5780    -2.2920     0.0290 C.ar  1 <1>   0.1600 
 23 N       -6.8200    -2.4060    -1.2670 N.ar  1 <1>  -0.6200 
 24 H       -0.5810    -2.5380     2.7680 H     1 <1>   0.4200 
 25 H        0.0530    -2.5570    -0.0170 H     1 <1>   0.0800 
 26 H        1.6210     1.9400     1.9050 H     1 <1>   0.1500 
 27 H       -2.0320    -3.4440    -0.6320 H     1 <1>   0.0800 
 28 H        0.5230    -4.3710     1.9360 H     1 <1>   0.0800 
 29 H       -0.1290    -4.9370     0.4030 H     1 <1>   0.0800 
 30 H        1.2300     3.0930    -0.3550 H     1 <1>   0.2700 
 31 H       -3.2110    -4.7750     0.8220 H     1 <1>   0.0800 
 32 H       -3.1240    -3.6000     2.1320 H     1 <1>   0.0800 
 33 H       -2.3220    -0.9890    -0.3360 H     1 <1>   0.0800 
 34 H       -2.9060    -1.2530     1.2750 H     1 <1>   0.0800 
 35 H        1.0910     2.0100    -2.9120 H     1 <1>   0.0800 
 36 H        0.1770     0.5330    -2.9870 H     1 <1>   0.0800 
 37 H       -0.9250     3.2070    -2.0600 H     1 <1>   0.0800 
 38 H       -1.8210     1.7060    -2.0990 H     1 <1>   0.0800 
 39 H       -1.2650     2.4310    -3.5890 H     1 <1>   0.0800 
 40 H       -3.6700    -1.9580    -2.3120 H     1 <1>   0.1500 
 41 H       -5.2230    -1.9840     1.6460 H     1 <1>   0.1500 
 42 H       -5.9340    -2.3630    -3.1110 H     1 <1>   0.1500 
 43 H       -7.4230    -2.3870     0.6890 H     1 <1>   0.1500 
@<TRIPOS>BOND
  1   1   2  2   
  2   1   3  2   
  3   1   4  am  
  4   1   5  1   
  5   4   6  1   
  6   4  24  1   
  7   5   7  1   
  8   5   8  2   
  9   6   9  1   
 10   6  10  1   
 11   6  25  1   
 12   7  11  2   
 13   8  12  1   
 14   8  26  1   
 15   9  13  1   
 16   9  14  1   
 17   9  27  1   
 18  10  15  1   
 19  10  28  1   
 20  10  29  1   
 21  11  12  1   
 22  11  16  1   
 23  12  30  1   
 24  13  15  1   
 25  13  31  1   
 26  13  32  1   
 27  14  17  1   
 28  14  33  1   
 29  14  34  1   
 30  16  18  1   
 31  16  35  1   
 32  16  36  1   
 33  17  19  ar  
 34  17  20  ar  
 35  18  37  1   
 36  18  38  1   
 37  18  39  1   
 38  19  21  ar  
 39  19  40  1   
 40  20  22  ar  
 41  20  41  1   
 42  21  23  ar  
 43  21  42  1   
 44  22  23  ar  
 45  22  43  1   
@<TRIPOS>SUBSTRUCTURE
  1 ****  14 GROUP 4 **** **** 0

# MOE 2024.06 (io_trps.svl 2023.06)
