@<TRIPOS>MOLECULE
NONAME
48 51 1 0 0 
SMALL
USER_CHARGES


@<TRIPOS>ATOM
  1 CL      -1.2240    -0.2330     0.0830 Cl    1 <1>  -0.1770 
  2 C       -1.8100    -1.8800     0.1410 C.ar  1 <1>   0.1770 
  3 C       -0.9200    -2.9210     0.0410 C.ar  1 <1>  -0.1500 
  4 C       -3.1860    -2.0880     0.2900 C.ar  1 <1>  -0.1500 
  5 C       -1.4140    -4.2300     0.0890 C.ar  1 <1>   0.0000 
  6 C       -3.6780    -3.3720     0.3410 C.ar  1 <1>  -0.1500 
  7 C       -2.7800    -4.4390     0.2400 C.ar  1 <1>  -0.1520 
  8 C       -0.8260    -5.5050     0.0190 C.2   1 <1>  -0.1500 
  9 N       -3.0090    -5.7870     0.2630 N.pl3 1 <1>   0.0330 
 10 C       -1.8100    -6.4490     0.1130 C.2   1 <1>  -0.2370 
 11 C       -1.7010    -7.8840     0.1120 C.2   1 <1>   0.7150 
 12 O       -0.7690    -8.4190     0.6860 O.2   1 <1>  -0.5700 
 13 N       -2.6190    -8.6970    -0.5130 N.am  1 <1>  -0.6600 
 14 C       -2.9690    -9.9880     0.1570 C.3   1 <1>   0.1400 
 15 C       -3.3210    -8.2850    -1.7680 C.3   1 <1>   0.1400 
 16 C       -4.4300   -10.4730    -0.0430 C.3   1 <1>   0.4230 
 17 C       -4.7390    -8.8650    -1.8980 C.3   1 <1>  -0.1600 
 18 N       -5.0270   -11.0960     1.1910 N.4   1 <1>  -0.9590 
 19 C       -5.3460    -9.3490    -0.5580 C.3   1 <1>  -0.1060 
 20 C       -6.3680   -11.6860     0.9450 C.3   1 <1>   0.3430 
 21 C       -4.1400   -12.0200     1.9520 C.3   1 <1>   0.2630 
 22 C       -5.3900    -8.2210     0.4890 C.2   1 <1>   0.9060 
 23 C       -6.7640    -9.9060    -0.8300 C.3   1 <1>  -0.1600 
 24 C       -7.3300   -10.6280     0.4020 C.3   1 <1>  -0.1600 
 25 O       -5.4670    -7.0460     0.1240 O.co2 1 <1>  -0.9000 
 26 O       -5.3270    -8.5160     1.6920 O.co2 1 <1>  -0.9000 
 27 H        0.1330    -2.7480    -0.0730 H     1 <1>   0.1500 
 28 H       -3.8400    -1.2400     0.3650 H     1 <1>   0.1500 
 29 H       -4.7300    -3.5770     0.4560 H     1 <1>   0.1500 
 30 H        0.2290    -5.6850    -0.0840 H     1 <1>   0.1500 
 31 H       -3.9460    -6.2290     0.3600 H     1 <1>   0.2700 
 32 H       -2.2910   -10.7460    -0.1920 H     1 <1>   0.0800 
 33 H       -2.8000    -9.8460     1.2110 H     1 <1>   0.0800 
 34 H       -3.3930    -7.2120    -1.8090 H     1 <1>   0.0800 
 35 H       -2.7290    -8.5910    -2.6130 H     1 <1>   0.0800 
 36 H       -4.3980   -11.2300    -0.8080 H     1 <1>   0.0800 
 37 H       -5.3720    -8.1050    -2.3250 H     1 <1>   0.0800 
 38 H       -4.7090    -9.6760    -2.6030 H     1 <1>   0.0800 
 39 H       -5.1960   -10.2300     1.7740 H     1 <1>   0.4500 
 40 H       -6.2830   -12.4920     0.2350 H     1 <1>   0.0800 
 41 H       -6.7660   -12.0820     1.8650 H     1 <1>   0.0800 
 42 H       -3.8740   -12.8700     1.3450 H     1 <1>   0.0800 
 43 H       -4.6440   -12.3670     2.8380 H     1 <1>   0.0800 
 44 H       -3.2400   -11.5120     2.2570 H     1 <1>   0.0800 
 45 H       -7.4200    -9.0930    -1.0990 H     1 <1>   0.0800 
 46 H       -6.7380   -10.5940    -1.6570 H     1 <1>   0.0800 
 47 H       -8.2630   -11.0960     0.1450 H     1 <1>   0.0800 
 48 H       -7.5380    -9.9120     1.1800 H     1 <1>   0.0800 
@<TRIPOS>BOND
  1   1   2  1   
  2   2   3  ar  
  3   2   4  ar  
  4   3   5  ar  
  5   3  27  1   
  6   4   6  ar  
  7   4  28  1   
  8   5   7  ar  
  9   5   8  1   
 10   6   7  ar  
 11   6  29  1   
 12   7   9  1   
 13   8  10  2   
 14   8  30  1   
 15   9  10  1   
 16   9  31  1   
 17  10  11  1   
 18  11  12  2   
 19  11  13  am  
 20  13  14  1   
 21  13  15  1   
 22  14  16  1   
 23  14  32  1   
 24  14  33  1   
 25  15  17  1   
 26  15  34  1   
 27  15  35  1   
 28  16  18  1   
 29  16  19  1   
 30  16  36  1   
 31  17  19  1   
 32  17  37  1   
 33  17  38  1   
 34  18  20  1   
 35  18  21  1   
 36  18  39  1   
 37  19  22  1   
 38  19  23  1   
 39  20  24  1   
 40  20  40  1   
 41  20  41  1   
 42  21  42  1   
 43  21  43  1   
 44  21  44  1   
 45  22  25  ar  
 46  22  26  ar  
 47  23  24  1   
 48  23  45  1   
 49  23  46  1   
 50  24  47  1   
 51  24  48  1   
@<TRIPOS>SUBSTRUCTURE
  1 ****   9 GROUP 4 **** **** 0

# MOE 2024.06 (io_trps.svl 2023.06)
