@<TRIPOS>MOLECULE
NONAME
52 54 1 0 0 
SMALL
USER_CHARGES


@<TRIPOS>ATOM
  1 O       -4.2880     1.1090    -1.9490 O.2   1 <1>  -0.5700 
  2 C       -3.3820     1.5280    -1.2570 C.2   1 <1>   0.6900 
  3 N       -3.0250     0.9230    -0.0590 N.am  1 <1>  -0.4690 
  4 N       -2.6980     2.6330    -1.6560 N.am  1 <1>  -0.4900 
  5 C       -2.0030     1.4530     0.7200 C.2   1 <1>  -0.0410 
  6 C       -3.7250    -0.3130     0.3780 C.3   1 <1>   0.1400 
  7 C       -1.6870     3.1820    -0.9300 C.2   1 <1>   0.6160 
  8 C       -1.3430     2.5570     0.3030 C.2   1 <1>  -0.1360 
  9 C       -5.0370     0.0410     1.0750 C.3   1 <1>  -0.0990 
 10 O       -1.1280     4.1700    -1.3550 O.2   1 <1>  -0.5700 
 11 C       -5.8000    -1.2290     1.3830 C.2   1 <1>   0.5690 
 12 O       -5.6240    -1.7200     2.4720 O.2   1 <1>  -0.5700 
 13 N       -6.6350    -1.8030     0.4600 N.am  1 <1>  -0.6600 
 14 C       -7.3280    -3.0970     0.7550 C.3   1 <1>   0.1400 
 15 C       -6.9670    -1.2360    -0.8800 C.3   1 <1>   0.1400 
 16 C       -8.7960    -2.8940     1.1620 C.3   1 <1>   0.1400 
 17 C       -8.1530    -0.2650    -0.8120 C.3   1 <1>  -0.1600 
 18 N       -9.5660    -2.1000     0.1490 N.am  1 <1>  -0.6600 
 19 C       -9.2710    -0.6400     0.1720 C.3   1 <1>   0.1400 
 20 C      -10.4040    -2.6410    -0.8040 C.2   1 <1>   0.5440 
 21 O      -10.7700    -1.9450    -1.7320 O.2   1 <1>  -0.5700 
 22 C      -10.8470    -4.0140    -0.7460 C.ar  1 <1>   0.0860 
 23 C      -11.5750    -4.4870     0.3410 C.ar  1 <1>   0.1600 
 24 C      -10.5760    -4.9170    -1.7660 C.ar  1 <1>  -0.1500 
 25 N      -12.0030    -5.7260     0.5080 N.ar  1 <1>  -0.6200 
 26 C      -11.0220    -6.2110    -1.6210 C.ar  1 <1>  -0.1500 
 27 C      -11.7240    -6.5740    -0.4720 C.ar  1 <1>   0.3930 
 28 O      -12.1790    -7.8240    -0.2680 O.3   1 <1>  -0.3620 
 29 C      -12.0620    -8.8590    -1.2190 C.3   1 <1>   0.0400 
 30 H       -2.9570     3.0690    -2.5330 H     1 <1>   0.3700 
 31 H       -1.7690     0.9540     1.6480 H     1 <1>   0.1500 
 32 H       -3.0970    -0.8730     1.0500 H     1 <1>   0.0800 
 33 H       -3.9200    -0.9320    -0.4820 H     1 <1>   0.0800 
 34 H       -0.5470     3.0100     0.8620 H     1 <1>   0.1500 
 35 H       -5.6310     0.6910     0.4630 H     1 <1>   0.0800 
 36 H       -4.8270     0.5490     1.9980 H     1 <1>   0.0800 
 37 H       -6.8190    -3.6110     1.5520 H     1 <1>   0.0800 
 38 H       -7.2830    -3.7350    -0.1090 H     1 <1>   0.0800 
 39 H       -7.2240    -2.0420    -1.5470 H     1 <1>   0.0800 
 40 H       -6.1130    -0.7390    -1.3060 H     1 <1>   0.0800 
 41 H       -8.8250    -2.3880     2.1110 H     1 <1>   0.0800 
 42 H       -9.2410    -3.8610     1.3070 H     1 <1>   0.0800 
 43 H       -8.5790    -0.1880    -1.7970 H     1 <1>   0.0800 
 44 H       -7.7940     0.7150    -0.5600 H     1 <1>   0.0800 
 45 H      -10.1630    -0.0900    -0.0750 H     1 <1>   0.0800 
 46 H       -8.9780    -0.3540     1.1680 H     1 <1>   0.0800 
 47 H      -11.8140    -3.7870     1.1230 H     1 <1>   0.1500 
 48 H      -10.0360    -4.5970    -2.6410 H     1 <1>   0.1500 
 49 H      -10.8220    -6.9230    -2.3980 H     1 <1>   0.1500 
 50 H      -12.5320    -9.7370    -0.8140 H     1 <1>   0.0800 
 51 H      -11.0190    -9.0540    -1.3980 H     1 <1>   0.0800 
 52 H      -12.5630    -8.5610    -2.1240 H     1 <1>   0.0800 
@<TRIPOS>BOND
  1   1   2  2   
  2   2   3  am  
  3   2   4  am  
  4   3   5  1   
  5   3   6  1   
  6   4   7  am  
  7   4  30  1   
  8   5   8  2   
  9   5  31  1   
 10   6   9  1   
 11   6  32  1   
 12   6  33  1   
 13   7   8  1   
 14   7  10  2   
 15   8  34  1   
 16   9  11  1   
 17   9  35  1   
 18   9  36  1   
 19  11  12  2   
 20  11  13  am  
 21  13  14  1   
 22  13  15  1   
 23  14  16  1   
 24  14  37  1   
 25  14  38  1   
 26  15  17  1   
 27  15  39  1   
 28  15  40  1   
 29  16  18  1   
 30  16  41  1   
 31  16  42  1   
 32  17  19  1   
 33  17  43  1   
 34  17  44  1   
 35  18  19  1   
 36  18  20  am  
 37  19  45  1   
 38  19  46  1   
 39  20  21  2   
 40  20  22  1   
 41  22  23  ar  
 42  22  24  ar  
 43  23  25  ar  
 44  23  47  1   
 45  24  26  ar  
 46  24  48  1   
 47  25  27  ar  
 48  26  27  ar  
 49  26  49  1   
 50  27  28  1   
 51  28  29  1   
 52  29  50  1   
 53  29  51  1   
 54  29  52  1   
@<TRIPOS>SUBSTRUCTURE
  1 ****  15 GROUP 4 **** **** 0

# MOE 2024.06 (io_trps.svl 2023.06)
