@<TRIPOS>MOLECULE
NONAME
58 61 1 0 0 
SMALL
USER_CHARGES


@<TRIPOS>ATOM
  1 O        0.9030     1.4770     1.1500 O.2   1 <1>  -0.5700 
  2 C        0.6950     2.4830     0.5130 C.2   1 <1>   0.5690 
  3 N       -0.5330     3.0950     0.5180 N.am  1 <1>  -0.6600 
  4 C        1.8350     3.0620    -0.3190 C.3   1 <1>  -0.0990 
  5 C       -1.6840     2.5040     1.2640 C.3   1 <1>   0.1400 
  6 C       -0.9140     4.2960    -0.2730 C.3   1 <1>   0.1400 
  7 C        3.1410     2.2460    -0.2640 C.3   1 <1>  -0.1600 
  8 C       -2.7680     2.0270     0.2780 C.3   1 <1>   0.0000 
  9 C       -1.9830     3.9080    -1.3010 C.3   1 <1>  -0.1600 
 10 C        4.2460     2.8710    -1.1280 C.3   1 <1>   0.0200 
 11 C       -3.9470     1.3940     1.0410 C.3   1 <1>   0.2000 
 12 C       -3.1890     3.2120    -0.6400 C.3   1 <1>  -0.1600 
 13 C       -2.2860     0.8290    -0.5620 C.3   1 <1>  -0.1600 
 14 C        5.5340     2.0730    -1.0540 C.2   1 <1>   0.2980 
 15 O       -4.8610     2.3260     1.4970 O.3   1 <1>  -0.6800 
 16 C       -4.6200     0.4240     0.0710 C.3   1 <1>  -0.1600 
 17 C       -3.5530     0.0700    -0.9740 C.3   1 <1>  -0.1600 
 18 O        5.5630     0.8730    -1.5720 O.3   1 <1>  -0.0190 
 19 N        6.6170     2.4680    -0.5280 N.2   1 <1>  -0.5650 
 20 N        6.7740     0.4660    -1.3540 N.2   1 <1>  -0.4100 
 21 C        7.4010     1.4040    -0.7340 C.2   1 <1>   0.4620 
 22 C        8.7870     1.3520    -0.2980 C.ar  1 <1>   0.0540 
 23 C        9.3890     2.4200     0.3700 C.ar  1 <1>  -0.1500 
 24 C        9.5780     0.2240    -0.5300 C.ar  1 <1>  -0.1500 
 25 C       10.7080     2.3660     0.7830 C.ar  1 <1>  -0.1500 
 26 C       10.8980     0.1600    -0.1210 C.ar  1 <1>  -0.1500 
 27 C       11.4740     1.2380     0.5420 C.ar  1 <1>   0.0820 
 28 O       12.7570     1.2620     0.9770 O.3   1 <1>  -0.3620 
 29 C       13.6200     0.1650     0.7820 C.3   1 <1>   0.0400 
 30 H        1.5050     3.1180    -1.3400 H     1 <1>   0.0800 
 31 H        2.0300     4.0580     0.0340 H     1 <1>   0.0800 
 32 H       -1.3580     1.6820     1.8770 H     1 <1>   0.0800 
 33 H       -2.0990     3.2510     1.9200 H     1 <1>   0.0800 
 34 H       -1.3100     5.0400     0.3970 H     1 <1>   0.0800 
 35 H       -0.0660     4.7250    -0.7750 H     1 <1>   0.0800 
 36 H        3.4810     2.1860     0.7570 H     1 <1>   0.0800 
 37 H        2.9460     1.2410    -0.6020 H     1 <1>   0.0800 
 38 H       -2.3200     4.7950    -1.8080 H     1 <1>   0.0800 
 39 H       -1.5400     3.2680    -2.0420 H     1 <1>   0.0800 
 40 H        4.4440     3.8730    -0.7910 H     1 <1>   0.0800 
 41 H        3.9310     2.9180    -2.1550 H     1 <1>   0.0800 
 42 H       -3.5810     0.8460     1.8940 H     1 <1>   0.0800 
 43 H       -3.8720     2.8780    -1.4010 H     1 <1>   0.0800 
 44 H       -3.6950     3.9550    -0.0490 H     1 <1>   0.0800 
 45 H       -1.6930     1.1110    -1.4120 H     1 <1>   0.0800 
 46 H       -1.6850     0.1830     0.0570 H     1 <1>   0.0800 
 47 H       -5.2550     2.7920     0.7370 H     1 <1>   0.4000 
 48 H       -4.9470    -0.4560     0.5960 H     1 <1>   0.0800 
 49 H       -5.4630     0.8830    -0.4170 H     1 <1>   0.0800 
 50 H       -3.3700    -0.9900    -1.0090 H     1 <1>   0.0800 
 51 H       -3.8750     0.3980    -1.9470 H     1 <1>   0.0800 
 52 H        8.8160     3.3090     0.5700 H     1 <1>   0.1500 
 53 H        9.1490    -0.6200    -1.0420 H     1 <1>   0.1500 
 54 H       11.1530     3.1990     1.2960 H     1 <1>   0.1500 
 55 H       11.4590    -0.7310    -0.3260 H     1 <1>   0.1500 
 56 H       14.5760     0.4130     1.2070 H     1 <1>   0.0800 
 57 H       13.7250    -0.0130    -0.2740 H     1 <1>   0.0800 
 58 H       13.2100    -0.6950     1.2810 H     1 <1>   0.0800 
@<TRIPOS>BOND
  1   1   2  2   
  2   2   3  am  
  3   2   4  1   
  4   3   5  1   
  5   3   6  1   
  6   4   7  1   
  7   4  30  1   
  8   4  31  1   
  9   5   8  1   
 10   5  32  1   
 11   5  33  1   
 12   6   9  1   
 13   6  34  1   
 14   6  35  1   
 15   7  10  1   
 16   7  36  1   
 17   7  37  1   
 18   8  11  1   
 19   8  12  1   
 20   8  13  1   
 21   9  12  1   
 22   9  38  1   
 23   9  39  1   
 24  10  14  1   
 25  10  40  1   
 26  10  41  1   
 27  11  15  1   
 28  11  16  1   
 29  11  42  1   
 30  12  43  1   
 31  12  44  1   
 32  13  17  1   
 33  13  45  1   
 34  13  46  1   
 35  14  18  1   
 36  14  19  2   
 37  15  47  1   
 38  16  17  1   
 39  16  48  1   
 40  16  49  1   
 41  17  50  1   
 42  17  51  1   
 43  18  20  1   
 44  19  21  1   
 45  20  21  2   
 46  21  22  1   
 47  22  23  ar  
 48  22  24  ar  
 49  23  25  ar  
 50  23  52  1   
 51  24  26  ar  
 52  24  53  1   
 53  25  27  ar  
 54  25  54  1   
 55  26  27  ar  
 56  26  55  1   
 57  27  28  1   
 58  28  29  1   
 59  29  56  1   
 60  29  57  1   
 61  29  58  1   
@<TRIPOS>SUBSTRUCTURE
  1 ****   7 GROUP 4 **** **** 0

# MOE 2024.06 (io_trps.svl 2023.06)
