@<TRIPOS>MOLECULE
NONAME
68 70 1 0 0 
SMALL
USER_CHARGES


@<TRIPOS>ATOM
  1 O       -0.8920     0.0240    -2.0730 O.2   1 <1>  -0.5700 
  2 C       -1.5110     1.0160    -1.7450 C.2   1 <1>   0.5690 
  3 N       -2.8920     0.9220    -1.6700 N.am  1 <1>  -0.6600 
  4 C       -0.7030     2.3160    -1.4120 C.3   1 <1>   0.3410 
  5 C       -3.5600    -0.3720    -1.9780 C.3   1 <1>   0.1400 
  6 C       -3.7830     1.8370    -0.9020 C.3   1 <1>   0.1400 
  7 O       -1.0640     2.7370    -0.0850 O.3   1 <1>  -0.3630 
  8 C       -1.0540     3.4360    -2.4060 C.3   1 <1>  -0.2400 
  9 C        0.8210     2.0720    -1.5140 C.3   1 <1>  -0.2400 
 10 C       -3.8420    -1.0950    -0.6430 C.3   1 <1>   0.4230 
 11 C       -4.0840     1.1720     0.4480 C.3   1 <1>  -0.1600 
 12 C       -0.3320     3.5900     0.6800 C.ar  1 <1>   0.0820 
 13 N       -4.3070    -2.5360    -0.8020 N.4   1 <1>  -0.9590 
 14 C       -4.7320    -0.2390     0.3110 C.3   1 <1>   0.0000 
 15 C       -0.7020     4.9270     0.8460 C.ar  1 <1>  -0.1440 
 16 C        0.7650     3.0830     1.3650 C.ar  1 <1>  -0.1500 
 17 C       -4.9550    -3.1060     0.4250 C.3   1 <1>   0.3430 
 18 C       -5.1540    -2.8140    -2.0090 C.3   1 <1>   0.2630 
 19 C       -4.7680    -0.9140     1.7140 C.3   1 <1>  -0.1600 
 20 C       -6.1710    -0.1170    -0.2670 C.3   1 <1>   0.1200 
 21 C        0.0930     5.7350     1.6500 C.ar  1 <1>  -0.1500 
 22 C       -1.9640     5.5230     0.2140 C.3   1 <1>   0.0630 
 23 C        1.5490     3.8980     2.1600 C.ar  1 <1>  -0.1440 
 24 C       -4.4400    -2.4200     1.6890 C.3   1 <1>  -0.1600 
 25 O       -6.9310     0.8040     0.4330 O.3   1 <1>  -0.6800 
 26 C        1.2090     5.2310     2.2930 C.ar  1 <1>  -0.1500 
 27 C       -1.6490     6.7550    -0.6440 C.3   1 <1>  -0.2400 
 28 C       -2.9900     5.8720     1.2970 C.3   1 <1>  -0.2400 
 29 C        2.7580     3.3400     2.8880 C.3   1 <1>  -0.0960 
 30 H       -4.4650    -0.1730    -2.5220 H     1 <1>   0.0800 
 31 H       -2.9280    -0.9820    -2.5990 H     1 <1>   0.0800 
 32 H       -3.3300     2.7950    -0.7430 H     1 <1>   0.0800 
 33 H       -4.6940     2.0050    -1.4520 H     1 <1>   0.0800 
 34 H       -0.7910     3.1290    -3.4020 H     1 <1>   0.0800 
 35 H       -0.4990     4.3260    -2.1760 H     1 <1>   0.0800 
 36 H       -2.1040     3.6530    -2.4000 H     1 <1>   0.0800 
 37 H        1.0720     1.7590    -2.5110 H     1 <1>   0.0800 
 38 H        1.1230     1.2860    -0.8460 H     1 <1>   0.0800 
 39 H        1.3790     2.9670    -1.3050 H     1 <1>   0.0800 
 40 H       -2.8810    -1.1460    -0.1560 H     1 <1>   0.0800 
 41 H       -3.1500     1.1000     0.9790 H     1 <1>   0.0800 
 42 H       -4.7100     1.8290     1.0250 H     1 <1>   0.0800 
 43 H       -3.4310    -3.0670    -0.9300 H     1 <1>   0.4500 
 44 H        1.0020     2.0400     1.2790 H     1 <1>   0.1500 
 45 H       -6.0230    -2.9660     0.3720 H     1 <1>   0.0800 
 46 H       -4.7640    -4.1670     0.4810 H     1 <1>   0.0800 
 47 H       -6.0740    -2.2550    -1.9630 H     1 <1>   0.0800 
 48 H       -5.3940    -3.8640    -2.0620 H     1 <1>   0.0800 
 49 H       -4.6290    -2.5440    -2.9100 H     1 <1>   0.0800 
 50 H       -4.0600    -0.4440     2.3770 H     1 <1>   0.0800 
 51 H       -5.7340    -0.7740     2.1670 H     1 <1>   0.0800 
 52 H       -6.6930    -1.0560    -0.2280 H     1 <1>   0.0800 
 53 H       -6.1580     0.2200    -1.2880 H     1 <1>   0.0800 
 54 H       -0.1580     6.7700     1.7940 H     1 <1>   0.1500 
 55 H       -2.4210     4.7950    -0.4250 H     1 <1>   0.0800 
 56 H       -4.8800    -2.8900     2.5520 H     1 <1>   0.0800 
 57 H       -3.3750    -2.5680     1.7600 H     1 <1>   0.0800 
 58 H       -7.0230     0.5690     1.3770 H     1 <1>   0.4000 
 59 H        1.8060     5.8820     2.9080 H     1 <1>   0.1500 
 60 H       -1.3040     7.5710    -0.0370 H     1 <1>   0.0800 
 61 H       -2.5310     7.0740    -1.1710 H     1 <1>   0.0800 
 62 H       -0.8860     6.5210    -1.3640 H     1 <1>   0.0800 
 63 H       -2.6130     6.6400     1.9480 H     1 <1>   0.0800 
 64 H       -3.2050     4.9990     1.8870 H     1 <1>   0.0800 
 65 H       -3.9040     6.2170     0.8480 H     1 <1>   0.0800 
 66 H        3.5560     4.0610     2.8900 H     1 <1>   0.0800 
 67 H        3.1110     2.4460     2.4060 H     1 <1>   0.0800 
 68 H        2.4960     3.1070     3.9040 H     1 <1>   0.0800 
@<TRIPOS>BOND
  1   1   2  2   
  2   2   3  am  
  3   2   4  1   
  4   3   5  1   
  5   3   6  1   
  6   4   7  1   
  7   4   8  1   
  8   4   9  1   
  9   5  10  1   
 10   5  30  1   
 11   5  31  1   
 12   6  11  1   
 13   6  32  1   
 14   6  33  1   
 15   7  12  1   
 16   8  34  1   
 17   8  35  1   
 18   8  36  1   
 19   9  37  1   
 20   9  38  1   
 21   9  39  1   
 22  10  13  1   
 23  10  14  1   
 24  10  40  1   
 25  11  14  1   
 26  11  41  1   
 27  11  42  1   
 28  12  15  ar  
 29  12  16  ar  
 30  13  17  1   
 31  13  18  1   
 32  13  43  1   
 33  14  19  1   
 34  14  20  1   
 35  15  21  ar  
 36  15  22  1   
 37  16  23  ar  
 38  16  44  1   
 39  17  24  1   
 40  17  45  1   
 41  17  46  1   
 42  18  47  1   
 43  18  48  1   
 44  18  49  1   
 45  19  24  1   
 46  19  50  1   
 47  19  51  1   
 48  20  25  1   
 49  20  52  1   
 50  20  53  1   
 51  21  26  ar  
 52  21  54  1   
 53  22  27  1   
 54  22  28  1   
 55  22  55  1   
 56  23  26  ar  
 57  23  29  1   
 58  24  56  1   
 59  24  57  1   
 60  25  58  1   
 61  26  59  1   
 62  27  60  1   
 63  27  61  1   
 64  27  62  1   
 65  28  63  1   
 66  28  64  1   
 67  28  65  1   
 68  29  66  1   
 69  29  67  1   
 70  29  68  1   
@<TRIPOS>SUBSTRUCTURE
  1 ****   7 GROUP 4 **** **** 0

# MOE 2024.06 (io_trps.svl 2023.06)
