@<TRIPOS>MOLECULE
NONAME
46 47 1 0 0 
SMALL
USER_CHARGES


@<TRIPOS>ATOM
  1 S        0.8140    -1.2150     2.5900 S.o2  1 <1>   1.4470 
  2 O        0.2640    -0.6580     3.8020 O.2   1 <1>  -0.6500 
  3 O        1.9650    -2.0880     2.6480 O.2   1 <1>  -0.6500 
  4 N       -0.4410    -2.1180     1.9410 N.am  1 <1>  -0.9140 
  5 C        1.0450     0.0780     1.3420 C.ar  1 <1>  -0.0090 
  6 C       -0.0310    -3.1220     0.9670 C.3   1 <1>   0.2760 
  7 C        0.0420     1.0070     1.0860 C.ar  1 <1>  -0.1500 
  8 C        2.2140     0.1610     0.5930 C.ar  1 <1>  -0.1500 
  9 C       -1.2300    -3.5300     0.1220 C.3   1 <1>  -0.0800 
 10 C        0.2660    -4.4450     1.6700 C.3   1 <1>   0.1200 
 11 C        0.1920     1.9840     0.1160 C.ar  1 <1>  -0.1500 
 12 C        2.3730     1.1340    -0.3780 C.ar  1 <1>  -0.1500 
 13 C       -1.9040    -4.6180     0.9710 C.3   1 <1>   0.1200 
 14 C       -2.1680    -2.3730    -0.2820 C.3   1 <1>  -0.0550 
 15 O       -0.9890    -4.9700     1.9670 O.3   1 <1>  -0.5600 
 16 C        1.3660     2.0500    -0.6260 C.ar  1 <1>   0.0830 
 17 S       -3.4380    -2.8760    -1.4390 S.o2  1 <1>   1.3330 
 18 O        1.5980     2.9680    -1.5940 O.3   1 <1>  -0.3630 
 19 O       -4.3580    -3.7710    -0.7740 O.2   1 <1>  -0.6500 
 20 O       -2.7730    -3.3030    -2.6490 O.2   1 <1>  -0.6500 
 21 N       -4.2590    -1.4250    -1.7610 N.am  1 <1>  -0.8490 
 22 C        0.6530     3.9670    -1.9060 C.3   1 <1>   0.0400 
 23 C       -4.8780    -1.4240    -3.0900 C.3   1 <1>   0.1160 
 24 C       -5.2630    -1.0880    -0.7450 C.3   1 <1>   0.1160 
 25 H       -0.8160    -2.6430     2.7340 H     1 <1>   0.4200 
 26 H        0.7900    -2.7740     0.3600 H     1 <1>   0.0800 
 27 H       -0.8700     0.9620     1.6580 H     1 <1>   0.1500 
 28 H        3.0110    -0.5410     0.7710 H     1 <1>   0.1500 
 29 H       -0.8610    -3.9990    -0.7750 H     1 <1>   0.0800 
 30 H        0.8370    -4.3370     2.5750 H     1 <1>   0.0800 
 31 H        0.7650    -5.1290     1.0060 H     1 <1>   0.0800 
 32 H       -0.6100     2.6800    -0.0460 H     1 <1>   0.1500 
 33 H        3.2820     1.1900    -0.9520 H     1 <1>   0.1500 
 34 H       -2.1400    -5.4920     0.3870 H     1 <1>   0.0800 
 35 H       -2.7950    -4.2590     1.4580 H     1 <1>   0.0800 
 36 H       -1.5810    -1.5970    -0.7350 H     1 <1>   0.0800 
 37 H       -2.6300    -1.9620     0.5930 H     1 <1>   0.0800 
 38 H        1.0600     4.5770    -2.6920 H     1 <1>   0.0800 
 39 H        0.4780     4.5680    -1.0310 H     1 <1>   0.0800 
 40 H       -0.2550     3.4980    -2.2410 H     1 <1>   0.0800 
 41 H       -5.3760    -0.4870    -3.2710 H     1 <1>   0.0800 
 42 H       -5.5920    -2.2280    -3.1720 H     1 <1>   0.0800 
 43 H       -4.1230    -1.5540    -3.8480 H     1 <1>   0.0800 
 44 H       -5.6890    -0.1220    -0.9540 H     1 <1>   0.0800 
 45 H       -4.8090    -1.0550     0.2300 H     1 <1>   0.0800 
 46 H       -6.0500    -1.8240    -0.7350 H     1 <1>   0.0800 
@<TRIPOS>BOND
  1   1   2  2   
  2   1   3  2   
  3   1   4  am  
  4   1   5  1   
  5   4   6  1   
  6   4  25  1   
  7   5   7  ar  
  8   5   8  ar  
  9   6   9  1   
 10   6  10  1   
 11   6  26  1   
 12   7  11  ar  
 13   7  27  1   
 14   8  12  ar  
 15   8  28  1   
 16   9  13  1   
 17   9  14  1   
 18   9  29  1   
 19  10  15  1   
 20  10  30  1   
 21  10  31  1   
 22  11  16  ar  
 23  11  32  1   
 24  12  16  ar  
 25  12  33  1   
 26  13  15  1   
 27  13  34  1   
 28  13  35  1   
 29  14  17  1   
 30  14  36  1   
 31  14  37  1   
 32  16  18  1   
 33  17  19  2   
 34  17  20  2   
 35  17  21  am  
 36  18  22  1   
 37  21  23  1   
 38  21  24  1   
 39  22  38  1   
 40  22  39  1   
 41  22  40  1   
 42  23  41  1   
 43  23  42  1   
 44  23  43  1   
 45  24  44  1   
 46  24  45  1   
 47  24  46  1   
@<TRIPOS>SUBSTRUCTURE
  1 ****  14 GROUP 4 **** **** 0

# MOE 2024.06 (io_trps.svl 2023.06)
