@<TRIPOS>MOLECULE
NONAME
29 31 1 0 0 
SMALL
USER_CHARGES


@<TRIPOS>ATOM
  1 F       -0.5900     0.2420    -0.2640 F     1 <1>  -0.3400 
  2 C       -1.7790     0.4830    -0.8190 C.3   1 <1>   0.2600 
  3 C       -2.5940     1.2970     0.1820 C.3   1 <1>   0.2000 
  4 C       -2.5260    -0.8510    -0.9410 C.3   1 <1>   0.2090 
  5 O       -3.6690     1.8860    -0.4790 O.3   1 <1>  -0.6800 
  6 C       -3.1450     0.2240     1.1240 C.3   1 <1>   0.2090 
  7 N       -3.4240    -0.9570     0.2520 N.pl3 1 <1>  -0.8380 
  8 C       -4.7390    -1.2980    -0.0030 C.ar  1 <1>   0.4100 
  9 N       -5.5110    -0.2910    -0.4100 N.ar  1 <1>  -0.6200 
 10 C       -5.1870    -2.6210     0.1520 C.ar  1 <1>   0.0540 
 11 C       -6.7780    -0.5850    -0.6410 C.ar  1 <1>   0.1600 
 12 C       -4.2920    -3.6760     0.5550 C.2   1 <1>   0.4620 
 13 C       -6.5240    -2.8870    -0.0930 C.ar  1 <1>  -0.1500 
 14 C       -7.3290    -1.8440    -0.4970 C.ar  1 <1>  -0.1500 
 15 N       -4.3340    -4.2930     1.6830 N.2   1 <1>  -0.4100 
 16 N       -3.3370    -4.1610    -0.2470 N.2   1 <1>  -0.5650 
 17 O       -3.3920    -5.1850     1.6800 O.3   1 <1>  -0.0190 
 18 C       -2.8390    -5.0530     0.5040 C.2   1 <1>   0.3280 
 19 H       -1.5940     0.9830    -1.7520 H     1 <1>   0.0800 
 20 H       -2.0250     2.0670     0.6710 H     1 <1>   0.0800 
 21 H       -1.8420    -1.6820    -0.9780 H     1 <1>   0.0800 
 22 H       -3.1220    -0.8460    -1.8370 H     1 <1>   0.0800 
 23 H       -4.3750     1.1900    -0.5750 H     1 <1>   0.4000 
 24 H       -4.0240     0.5630     1.6450 H     1 <1>   0.0800 
 25 H       -2.3940    -0.0500     1.8450 H     1 <1>   0.0800 
 26 H       -7.4140     0.2220    -0.9620 H     1 <1>   0.1500 
 27 H       -6.9150    -3.8820     0.0280 H     1 <1>   0.1500 
 28 H       -8.3730    -2.0050    -0.7000 H     1 <1>   0.1500 
 29 H       -2.0160    -5.6990     0.2560 H     1 <1>   0.1500 
@<TRIPOS>BOND
  1   1   2  1   
  2   2   3  1   
  3   2   4  1   
  4   2  19  1   
  5   3   5  1   
  6   3   6  1   
  7   3  20  1   
  8   4   7  1   
  9   4  21  1   
 10   4  22  1   
 11   5  23  1   
 12   6   7  1   
 13   6  24  1   
 14   6  25  1   
 15   7   8  1   
 16   8   9  ar  
 17   8  10  ar  
 18   9  11  ar  
 19  10  12  1   
 20  10  13  ar  
 21  11  14  ar  
 22  11  26  1   
 23  12  15  2   
 24  12  16  1   
 25  13  14  ar  
 26  13  27  1   
 27  14  28  1   
 28  15  17  1   
 29  16  18  2   
 30  17  18  1   
 31  18  29  1   
@<TRIPOS>SUBSTRUCTURE
  1 ****   8 GROUP 4 **** **** 0

# MOE 2024.06 (io_trps.svl 2023.06)
