@<TRIPOS>MOLECULE
NONAME
42 44 1 0 0 
SMALL
USER_CHARGES


@<TRIPOS>ATOM
  1 O       -1.4250    -0.1360    -0.3110 O.2   1 <1>  -0.5700 
  2 C       -2.0890     0.8290     0.0260 C.2   1 <1>   0.7150 
  3 N       -3.3140     0.5990     0.6050 N.am  1 <1>  -0.6600 
  4 C       -1.6050     2.1650    -0.1820 C.2   1 <1>  -0.2370 
  5 C       -3.5790    -0.7210     1.2490 C.3   1 <1>   0.1400 
  6 C       -4.5430     1.2480     0.0660 C.3   1 <1>   0.1400 
  7 N       -2.0470     3.2430     0.5360 N.pl3 1 <1>   0.0330 
  8 C       -0.6520     2.6220    -1.0570 C.2   1 <1>  -0.1500 
  9 C       -4.1810    -1.6830     0.1970 C.3   1 <1>   0.4230 
 10 C       -5.2090     0.3020    -0.9450 C.3   1 <1>  -0.1600 
 11 C       -1.3910     4.3480     0.1090 C.2   1 <1>  -0.3020 
 12 C       -0.5220     3.9970    -0.8760 C.2   1 <1>  -0.1500 
 13 N       -4.3870    -3.0880     0.6870 N.4   1 <1>  -0.9590 
 14 C       -5.5070    -1.1000    -0.3390 C.3   1 <1>  -0.1060 
 15 C       -4.8550    -3.9880    -0.3970 C.3   1 <1>   0.3430 
 16 C       -3.2460    -3.6650     1.4460 C.3   1 <1>   0.2630 
 17 C       -6.5010    -0.9900     0.8340 C.2   1 <1>   0.9060 
 18 C       -6.0670    -2.0140    -1.4550 C.3   1 <1>  -0.1600 
 19 C       -6.1690    -3.4750    -0.9890 C.3   1 <1>  -0.1600 
 20 O       -6.4620    -1.8440     1.7340 O.co2 1 <1>  -0.9000 
 21 O       -7.2900    -0.0470     0.8750 O.co2 1 <1>  -0.9000 
 22 H       -2.6510    -1.1100     1.6260 H     1 <1>   0.0800 
 23 H       -4.2500    -0.5830     2.0790 H     1 <1>   0.0800 
 24 H       -5.2220     1.4650     0.8760 H     1 <1>   0.0800 
 25 H       -4.3030     2.1750    -0.4250 H     1 <1>   0.0800 
 26 H       -2.7540     3.1960     1.2800 H     1 <1>   0.2700 
 27 H       -0.0940     2.0290    -1.7620 H     1 <1>   0.1500 
 28 H       -3.4790    -1.7190    -0.6190 H     1 <1>   0.0800 
 29 H       -6.1280     0.7520    -1.2800 H     1 <1>   0.0800 
 30 H       -4.5660     0.2120    -1.8030 H     1 <1>   0.0800 
 31 H       -1.5690     5.3250     0.5230 H     1 <1>   0.1500 
 32 H        0.1500     4.6370    -1.4220 H     1 <1>   0.1500 
 33 H       -5.2120    -2.9520     1.3330 H     1 <1>   0.4500 
 34 H       -4.1070    -4.0390    -1.1710 H     1 <1>   0.0800 
 35 H       -5.0100    -4.9800    -0.0050 H     1 <1>   0.0800 
 36 H       -2.3630    -3.6920     0.8280 H     1 <1>   0.0800 
 37 H       -3.4840    -4.6660     1.7660 H     1 <1>   0.0800 
 38 H       -3.0430    -3.0690     2.3210 H     1 <1>   0.0800 
 39 H       -7.0420    -1.6620    -1.7490 H     1 <1>   0.0800 
 40 H       -5.4260    -1.9680    -2.3200 H     1 <1>   0.0800 
 41 H       -6.4490    -4.0960    -1.8220 H     1 <1>   0.0800 
 42 H       -6.9470    -3.5670    -0.2500 H     1 <1>   0.0800 
@<TRIPOS>BOND
  1   1   2  2   
  2   2   3  am  
  3   2   4  1   
  4   3   5  1   
  5   3   6  1   
  6   4   7  1   
  7   4   8  2   
  8   5   9  1   
  9   5  22  1   
 10   5  23  1   
 11   6  10  1   
 12   6  24  1   
 13   6  25  1   
 14   7  11  1   
 15   7  26  1   
 16   8  12  1   
 17   8  27  1   
 18   9  13  1   
 19   9  14  1   
 20   9  28  1   
 21  10  14  1   
 22  10  29  1   
 23  10  30  1   
 24  11  12  2   
 25  11  31  1   
 26  12  32  1   
 27  13  15  1   
 28  13  16  1   
 29  13  33  1   
 30  14  17  1   
 31  14  18  1   
 32  15  19  1   
 33  15  34  1   
 34  15  35  1   
 35  16  36  1   
 36  16  37  1   
 37  16  38  1   
 38  17  20  ar  
 39  17  21  ar  
 40  18  19  1   
 41  18  39  1   
 42  18  40  1   
 43  19  41  1   
 44  19  42  1   
@<TRIPOS>SUBSTRUCTURE
  1 ****   3 GROUP 4 **** **** 0

# MOE 2024.06 (io_trps.svl 2023.06)
