@<TRIPOS>MOLECULE
NONAME
44 46 1 0 0 
SMALL
USER_CHARGES


@<TRIPOS>ATOM
  1 S        0.5740     0.3840    -1.7050 S.o2  1 <1>   1.3330 
  2 O       -0.1510     1.3040    -2.5510 O.2   1 <1>  -0.6500 
  3 O        0.8310    -0.9630    -2.1640 O.2   1 <1>  -0.6500 
  4 N       -0.2700     0.2810    -0.2340 N.am  1 <1>  -0.8490 
  5 C        2.1450     1.1210    -1.2480 C.3   1 <1>  -0.0550 
  6 C       -0.9100     1.5420     0.1590 C.3   1 <1>   0.1160 
  7 C       -1.2660    -0.7950    -0.2440 C.3   1 <1>   0.1160 
  8 C        3.0440     0.2120    -0.3800 C.3   1 <1>  -0.0800 
  9 C        4.4530     0.7400    -0.1470 C.3   1 <1>   0.2200 
 10 C        2.5360    -0.0390     1.0450 C.3   1 <1>   0.1200 
 11 N        4.4290     2.1930     0.1460 N.am  1 <1>  -0.7300 
 12 C        4.8250    -0.0100     1.1230 C.3   1 <1>   0.1200 
 13 O        3.6560    -0.0260     1.8820 O.3   1 <1>  -0.5600 
 14 C        4.7930     3.1890    -0.7110 C.2   1 <1>   0.7150 
 15 O        5.1040     2.8890    -1.8480 O.2   1 <1>  -0.5700 
 16 C        4.7860     4.5630    -0.2860 C.2   1 <1>   0.0550 
 17 O        4.4080     4.9020     0.9270 O.3   1 <1>  -0.0190 
 18 C        5.1090     5.7150    -0.9140 C.2   1 <1>  -0.1500 
 19 N        4.4600     6.1820     1.1350 N.2   1 <1>  -0.4100 
 20 C        4.8850     6.7000     0.0360 C.2   1 <1>   0.2030 
 21 C        5.1020     8.1870    -0.1780 C.3   1 <1>  -0.0140 
 22 C        6.3390     8.6900    -0.8610 C.3   1 <1>  -0.2000 
 23 C        6.1560     8.9040     0.6090 C.3   1 <1>  -0.2000 
 24 H        2.6800     1.3500    -2.1500 H     1 <1>   0.0800 
 25 H        1.9660     2.0470    -0.7410 H     1 <1>   0.0800 
 26 H       -1.3530     1.4440     1.1350 H     1 <1>   0.0800 
 27 H       -1.6780     1.8120    -0.5480 H     1 <1>   0.0800 
 28 H       -0.1820     2.3340     0.1950 H     1 <1>   0.0800 
 29 H       -1.7750    -0.8430     0.7030 H     1 <1>   0.0800 
 30 H       -0.7840    -1.7430    -0.4140 H     1 <1>   0.0800 
 31 H       -1.9880    -0.6290    -1.0280 H     1 <1>   0.0800 
 32 H        3.1300    -0.7440    -0.8670 H     1 <1>   0.0800 
 33 H        5.1220     0.5220    -0.9630 H     1 <1>   0.0800 
 34 H        2.0430    -0.9930     1.1310 H     1 <1>   0.0800 
 35 H        1.8740     0.7410     1.3800 H     1 <1>   0.0800 
 36 H        4.1600     2.4280     1.1060 H     1 <1>   0.3700 
 37 H        5.6140     0.4660     1.6770 H     1 <1>   0.0800 
 38 H        5.0910    -1.0300     0.9030 H     1 <1>   0.0800 
 39 H        5.4610     5.8550    -1.9190 H     1 <1>   0.1500 
 40 H        4.1790     8.7110    -0.3540 H     1 <1>   0.1000 
 41 H        7.0880     7.9860    -1.1820 H     1 <1>   0.1000 
 42 H        6.2560     9.5350    -1.5220 H     1 <1>   0.1000 
 43 H        5.9370     9.8930     0.9730 H     1 <1>   0.1000 
 44 H        6.7490     8.3310     1.3010 H     1 <1>   0.1000 
@<TRIPOS>BOND
  1   1   2  2   
  2   1   3  2   
  3   1   4  am  
  4   1   5  1   
  5   4   6  1   
  6   4   7  1   
  7   5   8  1   
  8   5  24  1   
  9   5  25  1   
 10   6  26  1   
 11   6  27  1   
 12   6  28  1   
 13   7  29  1   
 14   7  30  1   
 15   7  31  1   
 16   8   9  1   
 17   8  10  1   
 18   8  32  1   
 19   9  11  1   
 20   9  12  1   
 21   9  33  1   
 22  10  13  1   
 23  10  34  1   
 24  10  35  1   
 25  11  14  am  
 26  11  36  1   
 27  12  13  1   
 28  12  37  1   
 29  12  38  1   
 30  14  15  2   
 31  14  16  1   
 32  16  17  1   
 33  16  18  2   
 34  17  19  1   
 35  18  20  1   
 36  18  39  1   
 37  19  20  2   
 38  20  21  1   
 39  21  22  1   
 40  21  23  1   
 41  21  40  1   
 42  22  23  1   
 43  22  41  1   
 44  22  42  1   
 45  23  43  1   
 46  23  44  1   
@<TRIPOS>SUBSTRUCTURE
  1 ****  11 GROUP 4 **** **** 0

# MOE 2024.06 (io_trps.svl 2023.06)
