@<TRIPOS>MOLECULE
NONAME
59 62 1 0 0 
SMALL
USER_CHARGES


@<TRIPOS>ATOM
  1 F       -0.9210     0.7630     0.9310 F     1 <1>  -0.1900 
  2 C       -2.0610     1.2460     0.5130 C.ar  1 <1>   0.1900 
  3 C       -3.2170     0.5480     0.7880 C.ar  1 <1>  -0.1500 
  4 C       -2.0580     2.4330    -0.1940 C.ar  1 <1>  -0.1500 
  5 C       -4.4450     1.0400     0.3470 C.ar  1 <1>   0.0860 
  6 C       -3.2700     2.9360    -0.6300 C.ar  1 <1>  -0.1500 
  7 C       -5.6430     0.2760     0.6000 C.2   1 <1>   0.5440 
  8 C       -4.4510     2.2580    -0.3540 C.ar  1 <1>   0.0830 
  9 O       -6.3180     0.4820     1.5910 O.2   1 <1>  -0.5700 
 10 N       -6.0120    -0.7070    -0.2720 N.am  1 <1>  -0.7300 
 11 O       -5.5950     2.8130    -0.8060 O.3   1 <1>  -0.3630 
 12 C       -7.1680    -1.6100    -0.1200 C.3   1 <1>   0.2200 
 13 C       -6.5130     3.3140     0.1430 C.3   1 <1>   0.1200 
 14 C       -6.6660    -3.0390     0.0800 C.3   1 <1>  -0.1600 
 15 C       -8.0710    -1.5080    -1.3590 C.3   1 <1>  -0.1600 
 16 C       -7.8880     2.7140    -0.1520 C.3   1 <1>  -0.1600 
 17 C       -7.8490    -3.9890     0.3360 C.3   1 <1>   0.2200 
 18 C       -8.7780    -2.8330    -1.6910 C.3   1 <1>   0.1400 
 19 C       -8.8000     2.8040     1.0800 C.3   1 <1>   0.0960 
 20 N       -9.0620    -3.5820    -0.4360 N.am  1 <1>  -0.6600 
 21 C       -7.4880    -5.4310    -0.0210 C.3   1 <1>  -0.2400 
 22 N       -9.9540     1.9030     0.9200 N.pl3 1 <1>   0.3140 
 23 C      -10.3120    -3.8240     0.0850 C.2   1 <1>   0.5690 
 24 N      -11.0930     2.2480     0.3100 N.2   1 <1>  -0.4180 
 25 C       -9.9990     0.6160     1.2530 C.2   1 <1>  -0.3020 
 26 O      -10.4570    -4.4250     1.1240 O.2   1 <1>  -0.5700 
 27 C      -11.5900    -3.3410    -0.5950 C.3   1 <1>  -0.0990 
 28 N      -11.8510     1.2080     0.2500 N.2   1 <1>  -0.2270 
 29 C      -11.1910     0.1910     0.8160 C.2   1 <1>   0.0460 
 30 C      -11.8000    -1.8140    -0.5420 C.3   1 <1>  -0.1600 
 31 C      -11.7400    -1.2200     0.8780 C.3   1 <1>   0.0210 
 32 H       -3.1710    -0.3730     1.3400 H     1 <1>   0.1500 
 33 H       -1.1330     2.9440    -0.3930 H     1 <1>   0.1500 
 34 H       -3.3090     3.8580    -1.1840 H     1 <1>   0.1500 
 35 H       -5.4570    -0.8460    -1.1170 H     1 <1>   0.3700 
 36 H       -7.7380    -1.3310     0.7500 H     1 <1>   0.0800 
 37 H       -6.1770     3.0460     1.1310 H     1 <1>   0.0800 
 38 H       -6.5310     4.3870     0.0590 H     1 <1>   0.0800 
 39 H       -6.0040    -3.0780     0.9270 H     1 <1>   0.0800 
 40 H       -6.1180    -3.3560    -0.7890 H     1 <1>   0.0800 
 41 H       -8.8060    -0.7450    -1.1790 H     1 <1>   0.0800 
 42 H       -7.5020    -1.2110    -2.2210 H     1 <1>   0.0800 
 43 H       -8.3420     3.2300    -0.9800 H     1 <1>   0.0800 
 44 H       -7.7670     1.6790    -0.4150 H     1 <1>   0.0800 
 45 H       -8.0850    -3.9440     1.3870 H     1 <1>   0.0800 
 46 H       -8.1300    -3.4390    -2.3020 H     1 <1>   0.0800 
 47 H       -9.6700    -2.6510    -2.2620 H     1 <1>   0.0800 
 48 H       -9.1580     3.8080     1.2180 H     1 <1>   0.0800 
 49 H       -8.2670     2.4970     1.9610 H     1 <1>   0.0800 
 50 H       -7.2710    -5.5230    -1.0700 H     1 <1>   0.0800 
 51 H       -8.3060    -6.0820     0.2290 H     1 <1>   0.0800 
 52 H       -6.6270    -5.7430     0.5410 H     1 <1>   0.0800 
 53 H       -9.1970     0.1000     1.7480 H     1 <1>   0.1500 
 54 H      -11.5900    -3.6760    -1.6150 H     1 <1>   0.0800 
 55 H      -12.4240    -3.8170    -0.1100 H     1 <1>   0.0800 
 56 H      -11.0520    -1.3380    -1.1460 H     1 <1>   0.0800 
 57 H      -12.7500    -1.5650    -0.9810 H     1 <1>   0.0800 
 58 H      -11.0940    -1.7940     1.5150 H     1 <1>   0.0800 
 59 H      -12.7190    -1.2130     1.3230 H     1 <1>   0.0800 
@<TRIPOS>BOND
  1   1   2  1   
  2   2   3  ar  
  3   2   4  ar  
  4   3   5  ar  
  5   3  32  1   
  6   4   6  ar  
  7   4  33  1   
  8   5   7  1   
  9   5   8  ar  
 10   6   8  ar  
 11   6  34  1   
 12   7   9  2   
 13   7  10  am  
 14   8  11  1   
 15  10  12  1   
 16  10  35  1   
 17  11  13  1   
 18  12  14  1   
 19  12  15  1   
 20  12  36  1   
 21  13  16  1   
 22  13  37  1   
 23  13  38  1   
 24  14  17  1   
 25  14  39  1   
 26  14  40  1   
 27  15  18  1   
 28  15  41  1   
 29  15  42  1   
 30  16  19  1   
 31  16  43  1   
 32  16  44  1   
 33  17  20  1   
 34  17  21  1   
 35  17  45  1   
 36  18  20  1   
 37  18  46  1   
 38  18  47  1   
 39  19  22  1   
 40  19  48  1   
 41  19  49  1   
 42  20  23  am  
 43  21  50  1   
 44  21  51  1   
 45  21  52  1   
 46  22  24  1   
 47  22  25  1   
 48  23  26  2   
 49  23  27  1   
 50  24  28  2   
 51  25  29  2   
 52  25  53  1   
 53  27  30  1   
 54  27  54  1   
 55  27  55  1   
 56  28  29  1   
 57  29  31  1   
 58  30  31  1   
 59  30  56  1   
 60  30  57  1   
 61  31  58  1   
 62  31  59  1   
@<TRIPOS>SUBSTRUCTURE
  1 ****  12 GROUP 4 **** **** 0

# MOE 2024.06 (io_trps.svl 2023.06)
