@<TRIPOS>MOLECULE
NONAME
52 55 1 0 0 
SMALL
USER_CHARGES


@<TRIPOS>ATOM
  1 O       -2.5700     1.1180     2.7200 O.2   1 <1>  -0.5700 
  2 C       -2.8000     1.4350     1.5760 C.2   1 <1>   0.5690 
  3 N       -3.4270     0.5620     0.7210 N.am  1 <1>  -0.6600 
  4 C       -2.4020     2.8480     1.1080 C.3   1 <1>   0.1710 
  5 C       -4.0130     0.8600    -0.6080 C.3   1 <1>   0.1400 
  6 C       -3.6590    -0.8610     1.0780 C.3   1 <1>   0.1400 
  7 N       -1.0120     3.0190     0.5840 N.3   1 <1>  -0.8100 
  8 C       -4.9940    -0.2860    -0.8530 C.3   1 <1>   0.2000 
  9 C       -4.3680    -1.4840    -0.1370 C.3   1 <1>  -0.0800 
 10 C       -0.8050     4.4090     0.1390 C.3   1 <1>   0.2530 
 11 C       -0.6770     2.0380    -0.4720 C.3   1 <1>   0.1100 
 12 O       -6.1870     0.0180    -0.2190 O.3   1 <1>  -0.6800 
 13 C       -3.3900    -2.2230    -1.0730 C.3   1 <1>  -0.0170 
 14 C        0.6620     4.8110     0.1470 C.ar  1 <1>  -0.1440 
 15 C        0.8110     2.0110    -0.8420 C.3   1 <1>   0.1200 
 16 C       -2.7790    -3.4490    -0.4160 C.ar  1 <1>   0.1670 
 17 C        1.5730     4.2110    -0.7140 C.ar  1 <1>   0.0820 
 18 C        1.1040     5.8200     0.9900 C.ar  1 <1>  -0.1500 
 19 O        1.2030     3.1910    -1.5120 O.3   1 <1>  -0.3630 
 20 N       -1.5500    -3.3130     0.0550 N.ar  1 <1>  -0.6200 
 21 C       -3.5130    -4.6240    -0.3420 C.ar  1 <1>  -0.1500 
 22 C        2.8900     4.6400    -0.7620 C.ar  1 <1>  -0.1500 
 23 C        2.4240     6.2390     0.9570 C.ar  1 <1>  -0.1500 
 24 C       -1.0320    -4.3880     0.6280 C.ar  1 <1>   0.1600 
 25 C       -2.9610    -5.7370     0.2560 C.ar  1 <1>  -0.1500 
 26 C        3.3170     5.6540     0.0750 C.ar  1 <1>  -0.1500 
 27 C       -1.6830    -5.6040     0.7530 C.ar  1 <1>  -0.1500 
 28 H       -2.5160     3.4930     1.9620 H     1 <1>   0.0800 
 29 H       -3.1020     3.1800     0.3660 H     1 <1>   0.0800 
 30 H       -4.5140     1.8130    -0.6300 H     1 <1>   0.0800 
 31 H       -3.2350     0.8390    -1.3500 H     1 <1>   0.0800 
 32 H       -2.7250    -1.3450     1.3100 H     1 <1>   0.0800 
 33 H       -4.2930    -0.9050     1.9470 H     1 <1>   0.0800 
 34 H       -5.2010    -0.4550    -1.8960 H     1 <1>   0.0800 
 35 H       -5.1250    -2.1810     0.1820 H     1 <1>   0.0800 
 36 H       -1.2050     4.5400    -0.8520 H     1 <1>   0.0800 
 37 H       -1.3370     5.0750     0.7960 H     1 <1>   0.0800 
 38 H       -0.9140     1.0510    -0.1160 H     1 <1>   0.0800 
 39 H       -1.2620     2.2230    -1.3560 H     1 <1>   0.0800 
 40 H       -6.0000     0.2440     0.7150 H     1 <1>   0.4000 
 41 H       -2.5990    -1.5620    -1.3820 H     1 <1>   0.0800 
 42 H       -3.9120    -2.5390    -1.9580 H     1 <1>   0.0800 
 43 H        1.0000     1.1920    -1.5110 H     1 <1>   0.0800 
 44 H        1.4180     1.8840     0.0390 H     1 <1>   0.0800 
 45 H        0.4220     6.2900     1.6760 H     1 <1>   0.1500 
 46 H       -4.5080    -4.6700    -0.7470 H     1 <1>   0.1500 
 47 H        3.5710     4.1710    -1.4480 H     1 <1>   0.1500 
 48 H        2.7550     7.0230     1.6150 H     1 <1>   0.1500 
 49 H       -0.0340    -4.2960     1.0200 H     1 <1>   0.1500 
 50 H       -3.5020    -6.6640     0.3310 H     1 <1>   0.1500 
 51 H        4.3410     5.9850     0.0440 H     1 <1>   0.1500 
 52 H       -1.1930    -6.4320     1.2320 H     1 <1>   0.1500 
@<TRIPOS>BOND
  1   1   2  2   
  2   2   3  am  
  3   2   4  1   
  4   3   5  1   
  5   3   6  1   
  6   4   7  1   
  7   4  28  1   
  8   4  29  1   
  9   5   8  1   
 10   5  30  1   
 11   5  31  1   
 12   6   9  1   
 13   6  32  1   
 14   6  33  1   
 15   7  10  1   
 16   7  11  1   
 17   8   9  1   
 18   8  12  1   
 19   8  34  1   
 20   9  13  1   
 21   9  35  1   
 22  10  14  1   
 23  10  36  1   
 24  10  37  1   
 25  11  15  1   
 26  11  38  1   
 27  11  39  1   
 28  12  40  1   
 29  13  16  1   
 30  13  41  1   
 31  13  42  1   
 32  14  17  ar  
 33  14  18  ar  
 34  15  19  1   
 35  15  43  1   
 36  15  44  1   
 37  16  20  ar  
 38  16  21  ar  
 39  17  19  1   
 40  17  22  ar  
 41  18  23  ar  
 42  18  45  1   
 43  20  24  ar  
 44  21  25  ar  
 45  21  46  1   
 46  22  26  ar  
 47  22  47  1   
 48  23  26  ar  
 49  23  48  1   
 50  24  27  ar  
 51  24  49  1   
 52  25  27  ar  
 53  25  50  1   
 54  26  51  1   
 55  27  52  1   
@<TRIPOS>SUBSTRUCTURE
  1 ****  11 GROUP 4 **** **** 0

# MOE 2024.06 (io_trps.svl 2023.06)
