@<TRIPOS>MOLECULE
NONAME
52 54 1 0 0 
SMALL
USER_CHARGES


@<TRIPOS>ATOM
  1 O       -2.7990     0.4980     2.3680 O.2   1 <1>  -0.5700 
  2 C       -3.4840     0.8690     1.4400 C.2   1 <1>   0.5690 
  3 N       -4.5570     0.1350     1.0080 N.am  1 <1>  -0.6600 
  4 C       -3.0100     2.1210     0.6630 C.3   1 <1>   0.4840 
  5 C       -4.5950    -1.3180     1.3450 C.3   1 <1>   0.3210 
  6 C       -5.4930     0.5380    -0.0910 C.3   1 <1>   0.1400 
  7 N       -1.7660     1.8800    -0.1700 N.4   1 <1>  -0.9590 
  8 C       -2.7520     3.2970     1.6160 C.3   1 <1>  -0.0170 
  9 C       -3.6520    -2.0910     0.4180 C.2   1 <1>   0.0460 
 10 C       -6.5350     1.5640     0.3790 C.3   1 <1>   0.1200 
 11 C       -1.5650     3.0190    -1.1050 C.3   1 <1>   0.4860 
 12 C       -1.7880     0.5480    -0.8410 C.3   1 <1>   0.3430 
 13 C       -2.1070     4.4790     0.9090 C.ar  1 <1>  -0.1440 
 14 N       -3.7340    -1.9760    -0.9290 N.2   1 <1>  -0.5650 
 15 C       -2.6660    -2.9550     0.7620 C.2   1 <1>  -0.3320 
 16 O       -5.9160     2.7620     0.7200 O.3   1 <1>  -0.6800 
 17 C       -1.5430     4.3410    -0.3550 C.ar  1 <1>  -0.1440 
 18 C       -0.4360     0.2540    -1.4800 C.3   1 <1>  -0.2400 
 19 C       -2.0720     5.7080     1.5490 C.ar  1 <1>  -0.1500 
 20 C       -2.8330    -2.7940    -1.3670 C.2   1 <1>   0.0360 
 21 N       -2.1460    -3.4170    -0.3890 N.pl3 1 <1>   0.0330 
 22 C       -2.1620    -3.4110     2.1220 C.3   1 <1>  -0.0600 
 23 C       -0.9520     5.4400    -0.9610 C.ar  1 <1>  -0.1500 
 24 C       -1.4820     6.7980     0.9380 C.ar  1 <1>  -0.1500 
 25 C       -0.9200     6.6640    -0.3180 C.ar  1 <1>  -0.1500 
 26 H       -3.8010     2.4100    -0.0020 H     1 <1>   0.0800 
 27 H       -5.5940    -1.6970     1.2320 H     1 <1>   0.0800 
 28 H       -4.3060    -1.4620     2.3700 H     1 <1>   0.0800 
 29 H       -6.0160    -0.3320    -0.4520 H     1 <1>   0.0800 
 30 H       -4.9440     0.9320    -0.9280 H     1 <1>   0.0800 
 31 H       -0.9890     1.8850     0.5020 H     1 <1>   0.4500 
 32 H       -2.1100     2.9820     2.4200 H     1 <1>   0.0800 
 33 H       -3.6870     3.6000     2.0520 H     1 <1>   0.0800 
 34 H       -7.0660     1.1920     1.2390 H     1 <1>   0.0800 
 35 H       -7.2380     1.7650    -0.4110 H     1 <1>   0.0800 
 36 H       -2.3610     3.0400    -1.8310 H     1 <1>   0.0800 
 37 H       -0.6320     2.9010    -1.6290 H     1 <1>   0.0800 
 38 H       -2.5700     0.5070    -1.5830 H     1 <1>   0.0800 
 39 H       -1.9880    -0.2250    -0.1130 H     1 <1>   0.0800 
 40 H       -6.5840     3.4060     1.0390 H     1 <1>   0.4000 
 41 H       -0.2380     0.9080    -2.3090 H     1 <1>   0.0800 
 42 H       -0.4460    -0.7530    -1.8570 H     1 <1>   0.0800 
 43 H        0.3530     0.3280    -0.7540 H     1 <1>   0.0800 
 44 H       -2.5030     5.8250     2.5300 H     1 <1>   0.1500 
 45 H       -2.6350    -2.9810    -2.4090 H     1 <1>   0.1500 
 46 H       -1.4020    -4.1140    -0.5020 H     1 <1>   0.2700 
 47 H       -2.6750    -2.8990     2.9160 H     1 <1>   0.0800 
 48 H       -1.1110    -3.2040     2.2160 H     1 <1>   0.0800 
 49 H       -2.3200    -4.4680     2.2410 H     1 <1>   0.0800 
 50 H       -0.5090     5.3610    -1.9400 H     1 <1>   0.1500 
 51 H       -1.4580     7.7500     1.4400 H     1 <1>   0.1500 
 52 H       -0.4610     7.5150    -0.7920 H     1 <1>   0.1500 
@<TRIPOS>BOND
  1   1   2  2   
  2   2   3  am  
  3   2   4  1   
  4   3   5  1   
  5   3   6  1   
  6   4   7  1   
  7   4   8  1   
  8   4  26  1   
  9   5   9  1   
 10   5  27  1   
 11   5  28  1   
 12   6  10  1   
 13   6  29  1   
 14   6  30  1   
 15   7  11  1   
 16   7  12  1   
 17   7  31  1   
 18   8  13  1   
 19   8  32  1   
 20   8  33  1   
 21   9  14  1   
 22   9  15  2   
 23  10  16  1   
 24  10  34  1   
 25  10  35  1   
 26  11  17  1   
 27  11  36  1   
 28  11  37  1   
 29  12  18  1   
 30  12  38  1   
 31  12  39  1   
 32  13  17  ar  
 33  13  19  ar  
 34  14  20  2   
 35  15  21  1   
 36  15  22  1   
 37  16  40  1   
 38  17  23  ar  
 39  18  41  1   
 40  18  42  1   
 41  18  43  1   
 42  19  24  ar  
 43  19  44  1   
 44  20  21  1   
 45  20  45  1   
 46  21  46  1   
 47  22  47  1   
 48  22  48  1   
 49  22  49  1   
 50  23  25  ar  
 51  23  50  1   
 52  24  25  ar  
 53  24  51  1   
 54  25  52  1   
@<TRIPOS>SUBSTRUCTURE
  1 ****   4 GROUP 4 **** **** 0

# MOE 2024.06 (io_trps.svl 2023.06)
