@<TRIPOS>MOLECULE
NONAME
40 42 1 0 0 
SMALL
USER_CHARGES


@<TRIPOS>ATOM
  1 O       -0.5120     0.2670     0.8220 O.2   1 <1>  -0.5700 
  2 C       -1.4740     0.8610     0.3620 C.2   1 <1>   0.5440 
  3 N       -2.5020     0.0860    -0.1470 N.am  1 <1>  -0.6600 
  4 C       -1.4930     2.3300     0.4050 C.ar  1 <1>   0.3960 
  5 C       -3.7990     0.5830    -0.6740 C.3   1 <1>   0.1400 
  6 C       -2.5050    -1.3970    -0.0760 C.3   1 <1>   0.1400 
  7 N       -2.0750     3.0430    -0.5800 N.ar  1 <1>  -0.6200 
  8 C       -0.8850     2.9630     1.4940 C.ar  1 <1>  -0.1500 
  9 C       -4.5950    -0.6720    -1.0310 C.3   1 <1>   0.2000 
 10 C       -3.9720    -1.8010    -0.2130 C.3   1 <1>  -0.0800 
 11 C       -2.0340     4.3490    -0.4490 C.ar  1 <1>   0.3920 
 12 C       -0.8600     4.3370     1.6090 C.ar  1 <1>  -0.1500 
 13 O       -5.9360    -0.5340    -0.7130 O.3   1 <1>  -0.6800 
 14 C       -4.1750    -3.1870    -0.8420 C.3   1 <1>   0.0210 
 15 O       -2.6080     5.0070    -1.4370 O.3   1 <1>  -0.5320 
 16 C       -1.4590     5.0470     0.5970 C.ar  1 <1>  -0.1500 
 17 C       -3.4700    -4.2600    -0.0350 C.2   1 <1>   0.1080 
 18 N       -3.8270    -4.5800     1.1690 N.2   1 <1>  -0.7070 
 19 C       -2.3800    -5.0010    -0.4760 C.2   1 <1>  -0.1500 
 20 N       -2.9630    -5.5470     1.5330 N.pl3 1 <1>   0.3000 
 21 C       -2.0760    -5.8190     0.5530 C.2   1 <1>  -0.3320 
 22 C       -0.9760    -6.8580     0.6630 C.3   1 <1>  -0.0600 
 23 H       -4.2970     1.1580     0.0860 H     1 <1>   0.0800 
 24 H       -3.6400     1.1830    -1.5530 H     1 <1>   0.0800 
 25 H       -1.9180    -1.7850    -0.8910 H     1 <1>   0.0800 
 26 H       -2.0910    -1.7450     0.8560 H     1 <1>   0.0800 
 27 H       -0.4250     2.3590     2.2560 H     1 <1>   0.1500 
 28 H       -4.5150    -0.8610    -2.0880 H     1 <1>   0.0800 
 29 H       -4.3900    -1.8020     0.7800 H     1 <1>   0.0800 
 30 H       -0.3940     4.8280     2.4470 H     1 <1>   0.1500 
 31 H       -6.0510    -0.5160     0.2570 H     1 <1>   0.4000 
 32 H       -3.8020    -3.1950    -1.8500 H     1 <1>   0.0800 
 33 H       -5.2260    -3.4160    -0.8730 H     1 <1>   0.0800 
 34 H       -2.9260     4.3650    -2.0940 H     1 <1>   0.4500 
 35 H       -1.4870     6.1210     0.6010 H     1 <1>   0.1500 
 36 H       -1.9000    -4.9190    -1.4350 H     1 <1>   0.1500 
 37 H       -3.0070    -6.0000     2.4540 H     1 <1>   0.2700 
 38 H       -0.4010    -6.8860    -0.2460 H     1 <1>   0.0800 
 39 H       -1.3990    -7.8330     0.8310 H     1 <1>   0.0800 
 40 H       -0.3160    -6.6160     1.4780 H     1 <1>   0.0800 
@<TRIPOS>BOND
  1   1   2  2   
  2   2   3  am  
  3   2   4  1   
  4   3   5  1   
  5   3   6  1   
  6   4   7  ar  
  7   4   8  ar  
  8   5   9  1   
  9   5  23  1   
 10   5  24  1   
 11   6  10  1   
 12   6  25  1   
 13   6  26  1   
 14   7  11  ar  
 15   8  12  ar  
 16   8  27  1   
 17   9  10  1   
 18   9  13  1   
 19   9  28  1   
 20  10  14  1   
 21  10  29  1   
 22  11  15  1   
 23  11  16  ar  
 24  12  16  ar  
 25  12  30  1   
 26  13  31  1   
 27  14  17  1   
 28  14  32  1   
 29  14  33  1   
 30  15  34  1   
 31  16  35  1   
 32  17  18  2   
 33  17  19  1   
 34  18  20  1   
 35  19  21  2   
 36  19  36  1   
 37  20  21  1   
 38  20  37  1   
 39  21  22  1   
 40  22  38  1   
 41  22  39  1   
 42  22  40  1   
@<TRIPOS>SUBSTRUCTURE
  1 ****   3 GROUP 4 **** **** 0

# MOE 2024.06 (io_trps.svl 2023.06)
