@<TRIPOS>MOLECULE
NONAME
42 43 1 0 0 
SMALL
USER_CHARGES


@<TRIPOS>ATOM
  1 S        0.4830    -0.8850     1.3360 S.3   1 <1>  -0.0800 
  2 C       -0.9820    -1.2360     0.4340 C.2   1 <1>  -0.1400 
  3 C        0.3090     0.8350     1.0480 C.2   1 <1>  -0.1100 
  4 C       -1.5270    -0.0940    -0.0360 C.2   1 <1>  -0.1500 
  5 C       -1.3460    -2.7050     0.3510 C.3   1 <1>   0.5230 
  6 C       -0.7920     1.0820     0.3160 C.2   1 <1>  -0.1500 
  7 N       -2.7770    -2.8530    -0.0300 N.4   1 <1>  -0.9590 
  8 C       -3.0790    -4.2690    -0.4310 C.3   1 <1>   0.3430 
  9 C       -3.6750    -2.3660     1.0610 C.3   1 <1>   0.3430 
 10 C       -4.5570    -4.4540    -0.8230 C.3   1 <1>   0.2000 
 11 C       -5.1390    -2.5050     0.6320 C.3   1 <1>  -0.1600 
 12 O       -4.7540    -5.7970    -1.0910 O.3   1 <1>  -0.6800 
 13 C       -5.5320    -3.9650     0.2830 C.3   1 <1>   0.0000 
 14 C       -5.3900    -4.8770     1.5380 C.3   1 <1>   0.1200 
 15 C       -7.0120    -4.0250    -0.1970 C.3   1 <1>  -0.1600 
 16 O       -6.2200    -4.4650     2.5710 O.3   1 <1>  -0.6800 
 17 C       -7.3470    -3.3210    -1.5270 C.3   1 <1>  -0.1600 
 18 C       -8.8450    -3.4300    -1.8270 C.3   1 <1>  -0.2400 
 19 H        1.0590     1.4880     1.4610 H     1 <1>   0.1500 
 20 H       -2.4200     0.0040    -0.6290 H     1 <1>   0.1500 
 21 H       -1.1700    -3.1730     1.3060 H     1 <1>   0.0800 
 22 H       -0.7100    -3.1800    -0.3800 H     1 <1>   0.0800 
 23 H       -1.1210     2.0590     0.0020 H     1 <1>   0.1500 
 24 H       -2.9150    -2.2470    -0.8490 H     1 <1>   0.4500 
 25 H       -2.4640    -4.5520    -1.2700 H     1 <1>   0.0800 
 26 H       -2.8590    -4.9310     0.3890 H     1 <1>   0.0800 
 27 H       -3.5040    -2.9380     1.9590 H     1 <1>   0.0800 
 28 H       -3.4620    -1.3310     1.2810 H     1 <1>   0.0800 
 29 H       -4.7250    -3.9200    -1.7420 H     1 <1>   0.0800 
 30 H       -5.7690    -2.1340     1.4220 H     1 <1>   0.0800 
 31 H       -5.2990    -1.8590    -0.2120 H     1 <1>   0.0800 
 32 H       -5.6770    -5.9630    -1.3800 H     1 <1>   0.4000 
 33 H       -4.3850    -4.9010     1.9180 H     1 <1>   0.0800 
 34 H       -5.6750    -5.8890     1.2990 H     1 <1>   0.0800 
 35 H       -7.3080    -5.0570    -0.2820 H     1 <1>   0.0800 
 36 H       -7.6400    -3.5990     0.5680 H     1 <1>   0.0800 
 37 H       -6.0130    -3.5710     2.8990 H     1 <1>   0.4000 
 38 H       -7.0900    -2.2780    -1.4830 H     1 <1>   0.0800 
 39 H       -6.8130    -3.7710    -2.3440 H     1 <1>   0.0800 
 40 H       -9.4230    -2.9630    -1.0480 H     1 <1>   0.0800 
 41 H       -9.1440    -4.4610    -1.9050 H     1 <1>   0.0800 
 42 H       -9.0720    -2.9390    -2.7570 H     1 <1>   0.0800 
@<TRIPOS>BOND
  1   1   2  1   
  2   1   3  1   
  3   2   4  2   
  4   2   5  1   
  5   3   6  2   
  6   3  19  1   
  7   4   6  1   
  8   4  20  1   
  9   5   7  1   
 10   5  21  1   
 11   5  22  1   
 12   6  23  1   
 13   7   8  1   
 14   7   9  1   
 15   7  24  1   
 16   8  10  1   
 17   8  25  1   
 18   8  26  1   
 19   9  11  1   
 20   9  27  1   
 21   9  28  1   
 22  10  12  1   
 23  10  13  1   
 24  10  29  1   
 25  11  13  1   
 26  11  30  1   
 27  11  31  1   
 28  12  32  1   
 29  13  14  1   
 30  13  15  1   
 31  14  16  1   
 32  14  33  1   
 33  14  34  1   
 34  15  17  1   
 35  15  35  1   
 36  15  36  1   
 37  16  37  1   
 38  17  18  1   
 39  17  38  1   
 40  17  39  1   
 41  18  40  1   
 42  18  41  1   
 43  18  42  1   
@<TRIPOS>SUBSTRUCTURE
  1 ****   9 GROUP 4 **** **** 0

# MOE 2024.06 (io_trps.svl 2023.06)
