@<TRIPOS>MOLECULE
NONAME
51 54 1 0 0 
SMALL
USER_CHARGES


@<TRIPOS>ATOM
  1 O       -0.7610     0.8810     0.9500 O.2   1 <1>  -0.5700 
  2 C       -1.7660     1.3240     0.4270 C.2   1 <1>   0.5440 
  3 N       -2.9890     0.7700     0.7450 N.am  1 <1>  -0.6600 
  4 C       -1.6390     2.4090    -0.5260 C.ar  1 <1>   0.0860 
  5 C       -4.1900     0.8480    -0.1310 C.3   1 <1>   0.1400 
  6 C       -3.1550    -0.1480     1.9070 C.3   1 <1>   0.1400 
  7 C       -0.7280     2.3670    -1.5710 C.ar  1 <1>  -0.1500 
  8 C       -2.4010     3.5660    -0.4590 C.ar  1 <1>  -0.1500 
  9 C       -4.5160    -0.5510    -0.6600 C.3   1 <1>  -0.1600 
 10 C       -3.4760    -1.5550     1.4000 C.3   1 <1>  -0.1600 
 11 C       -0.6440     3.4160    -2.4650 C.ar  1 <1>   0.1600 
 12 C       -2.2410     4.5620    -1.4040 C.ar  1 <1>   0.1600 
 13 C       -4.7050    -1.5670     0.4800 C.3   1 <1>   0.4240 
 14 N       -1.3850     4.5110    -2.4100 N.ar  1 <1>  -0.6200 
 15 O       -5.7750    -1.1240     1.2830 O.3   1 <1>  -0.5600 
 16 C       -4.9530    -2.9870    -0.0730 C.ar  1 <1>  -0.1430 
 17 C       -7.0670    -1.4580     0.8800 C.3   1 <1>   0.1200 
 18 C       -6.1490    -3.6540     0.1570 C.ar  1 <1>  -0.1430 
 19 C       -3.9760    -3.6300    -0.8230 C.ar  1 <1>  -0.1500 
 20 C       -7.2350    -2.9720     0.9650 C.3   1 <1>  -0.0170 
 21 C       -6.3570    -4.9270    -0.3490 C.ar  1 <1>  -0.1500 
 22 C       -4.1640    -4.9040    -1.3300 C.ar  1 <1>   0.0820 
 23 C       -5.3780    -5.5680    -1.1030 C.ar  1 <1>   0.0820 
 24 O       -3.1090    -5.4030    -2.0350 O.3   1 <1>  -0.3620 
 25 O       -5.5860    -6.8090    -1.6350 O.3   1 <1>  -0.3620 
 26 C       -2.7860    -6.7740    -1.9730 C.3   1 <1>   0.0400 
 27 C       -6.8450    -7.4440    -1.5890 C.3   1 <1>   0.0400 
 28 H       -4.0220     1.5070    -0.9640 H     1 <1>   0.0800 
 29 H       -5.0200     1.2280     0.4410 H     1 <1>   0.0800 
 30 H       -3.9570     0.2110     2.5280 H     1 <1>   0.0800 
 31 H       -2.2600    -0.1720     2.5050 H     1 <1>   0.0800 
 32 H       -0.0870     1.5110    -1.6760 H     1 <1>   0.1500 
 33 H       -3.1160     3.6860     0.3340 H     1 <1>   0.1500 
 34 H       -3.7040    -0.8670    -1.2890 H     1 <1>   0.0800 
 35 H       -5.3940    -0.5190    -1.2750 H     1 <1>   0.0800 
 36 H       -3.6510    -2.2120     2.2310 H     1 <1>   0.0800 
 37 H       -2.6130    -1.9220     0.8760 H     1 <1>   0.0800 
 38 H        0.0710     3.3550    -3.2680 H     1 <1>   0.1500 
 39 H       -2.8470     5.4500    -1.3300 H     1 <1>   0.1500 
 40 H       -7.2280    -1.1060    -0.1240 H     1 <1>   0.0800 
 41 H       -7.7570    -0.9650     1.5410 H     1 <1>   0.0800 
 42 H       -3.0380    -3.1470    -1.0270 H     1 <1>   0.1500 
 43 H       -8.2050    -3.2410     0.5900 H     1 <1>   0.0800 
 44 H       -7.1710    -3.2810     1.9930 H     1 <1>   0.0800 
 45 H       -7.2940    -5.4050    -0.1420 H     1 <1>   0.1500 
 46 H       -1.7530    -6.8870    -2.2480 H     1 <1>   0.0800 
 47 H       -3.4080    -7.3090    -2.6670 H     1 <1>   0.0800 
 48 H       -2.9420    -7.1280    -0.9690 H     1 <1>   0.0800 
 49 H       -6.7730    -8.3670    -2.1350 H     1 <1>   0.0800 
 50 H       -7.5760    -6.8030    -2.0500 H     1 <1>   0.0800 
 51 H       -7.0980    -7.6460    -0.5630 H     1 <1>   0.0800 
@<TRIPOS>BOND
  1   1   2  2   
  2   2   3  am  
  3   2   4  1   
  4   3   5  1   
  5   3   6  1   
  6   4   7  ar  
  7   4   8  ar  
  8   5   9  1   
  9   5  28  1   
 10   5  29  1   
 11   6  10  1   
 12   6  30  1   
 13   6  31  1   
 14   7  11  ar  
 15   7  32  1   
 16   8  12  ar  
 17   8  33  1   
 18   9  13  1   
 19   9  34  1   
 20   9  35  1   
 21  10  13  1   
 22  10  36  1   
 23  10  37  1   
 24  11  14  ar  
 25  11  38  1   
 26  12  14  ar  
 27  12  39  1   
 28  13  15  1   
 29  13  16  1   
 30  15  17  1   
 31  16  18  ar  
 32  16  19  ar  
 33  17  20  1   
 34  17  40  1   
 35  17  41  1   
 36  18  20  1   
 37  18  21  ar  
 38  19  22  ar  
 39  19  42  1   
 40  20  43  1   
 41  20  44  1   
 42  21  23  ar  
 43  21  45  1   
 44  22  23  ar  
 45  22  24  1   
 46  23  25  1   
 47  24  26  1   
 48  25  27  1   
 49  26  46  1   
 50  26  47  1   
 51  26  48  1   
 52  27  49  1   
 53  27  50  1   
 54  27  51  1   
@<TRIPOS>SUBSTRUCTURE
  1 ****   9 GROUP 4 **** **** 0

# MOE 2024.06 (io_trps.svl 2023.06)
