@<TRIPOS>MOLECULE
NONAME
41 43 1 0 0 
SMALL
USER_CHARGES


@<TRIPOS>ATOM
  1 CL      -0.7680    -0.1870     1.3970 Cl    1 <1>  -0.1230 
  2 C       -1.3620    -1.7860     0.9870 C.2   1 <1>   0.1230 
  3 C       -0.8990    -2.9840     1.5090 C.2   1 <1>   0.1390 
  4 C       -2.3410    -2.1000     0.1200 C.2   1 <1>  -0.3020 
  5 N       -1.5470    -3.9960     1.0030 N.2   1 <1>  -0.7070 
  6 N       -2.4360    -3.4460     0.1450 N.pl3 1 <1>   0.3140 
  7 C       -3.3570    -4.2840    -0.6370 C.3   1 <1>   0.0960 
  8 C       -3.7430    -5.5060     0.2040 C.3   1 <1>   0.3430 
  9 N       -4.5540    -6.5250    -0.5500 N.4   1 <1>  -0.9590 
 10 C       -5.9220    -6.0140    -0.9030 C.3   1 <1>   0.3430 
 11 C       -4.7670    -7.7130     0.3440 C.3   1 <1>   0.3430 
 12 C       -6.8620    -6.5330     0.1880 C.3   1 <1>   0.2000 
 13 C       -6.2810    -7.9030     0.5190 C.3   1 <1>  -0.0800 
 14 O       -6.7230    -5.7160     1.3040 O.3   1 <1>  -0.6800 
 15 C       -6.8330    -9.0020    -0.4110 C.3   1 <1>  -0.0160 
 16 C       -6.0720   -10.3050    -0.2240 C.ar  1 <1>  -0.1430 
 17 C       -5.2820   -10.8410    -1.2220 C.ar  1 <1>  -0.1500 
 18 C       -6.1280   -11.0180     0.9580 C.ar  1 <1>  -0.1500 
 19 C       -4.5900   -12.0180    -0.9900 C.ar  1 <1>   0.1600 
 20 C       -5.3950   -12.1860     1.0880 C.ar  1 <1>   0.1600 
 21 N       -4.6200   -12.6940     0.1450 N.ar  1 <1>  -0.6200 
 22 H       -0.1080    -3.0660     2.2350 H     1 <1>   0.1500 
 23 H       -2.9460    -1.4540    -0.4880 H     1 <1>   0.1500 
 24 H       -4.2220    -3.6990    -0.8850 H     1 <1>   0.0800 
 25 H       -2.8450    -4.5880    -1.5300 H     1 <1>   0.0800 
 26 H       -4.2960    -5.1740     1.0690 H     1 <1>   0.0800 
 27 H       -2.8360    -5.9740     0.5530 H     1 <1>   0.0800 
 28 H       -4.0420    -6.8210    -1.3920 H     1 <1>   0.4500 
 29 H       -5.9620    -4.9390    -0.9610 H     1 <1>   0.0800 
 30 H       -6.2260    -6.4290    -1.8500 H     1 <1>   0.0800 
 31 H       -4.3080    -8.5980    -0.0680 H     1 <1>   0.0800 
 32 H       -4.3280    -7.5250     1.3110 H     1 <1>   0.0800 
 33 H       -7.8970    -6.5430    -0.1130 H     1 <1>   0.0800 
 34 H       -6.5000    -8.1810     1.5350 H     1 <1>   0.0800 
 35 H       -7.4130    -5.9070     1.9760 H     1 <1>   0.4000 
 36 H       -6.7680    -8.7000    -1.4420 H     1 <1>   0.0800 
 37 H       -7.8730    -9.1740    -0.1920 H     1 <1>   0.0800 
 38 H       -5.1950   -10.3680    -2.1830 H     1 <1>   0.1500 
 39 H       -6.7330   -10.6870     1.7820 H     1 <1>   0.1500 
 40 H       -3.9790   -12.4280    -1.7780 H     1 <1>   0.1500 
 41 H       -5.4480   -12.7320     2.0160 H     1 <1>   0.1500 
@<TRIPOS>BOND
  1   1   2  1   
  2   2   3  1   
  3   2   4  2   
  4   3   5  2   
  5   3  22  1   
  6   4   6  1   
  7   4  23  1   
  8   5   6  1   
  9   6   7  1   
 10   7   8  1   
 11   7  24  1   
 12   7  25  1   
 13   8   9  1   
 14   8  26  1   
 15   8  27  1   
 16   9  10  1   
 17   9  11  1   
 18   9  28  1   
 19  10  12  1   
 20  10  29  1   
 21  10  30  1   
 22  11  13  1   
 23  11  31  1   
 24  11  32  1   
 25  12  13  1   
 26  12  14  1   
 27  12  33  1   
 28  13  15  1   
 29  13  34  1   
 30  14  35  1   
 31  15  16  1   
 32  15  36  1   
 33  15  37  1   
 34  16  17  ar  
 35  16  18  ar  
 36  17  19  ar  
 37  17  38  1   
 38  18  20  ar  
 39  18  39  1   
 40  19  21  ar  
 41  19  40  1   
 42  20  21  ar  
 43  20  41  1   
@<TRIPOS>SUBSTRUCTURE
  1 ****   9 GROUP 4 **** **** 0

# MOE 2024.06 (io_trps.svl 2023.06)
