@<TRIPOS>MOLECULE
NONAME
58 62 1 0 0 
SMALL
USER_CHARGES


@<TRIPOS>ATOM
  1 O       -3.0940     1.3090    -2.4310 O.2   1 <1>  -0.5700 
  2 C       -2.9240     1.0850    -1.2570 C.2   1 <1>   0.6300 
  3 N       -2.9780    -0.1950    -0.7550 N.am  1 <1>  -0.6600 
  4 C       -2.6580     2.2710    -0.3330 C.3   1 <1>  -0.1000 
  5 C       -2.8750    -0.5460     0.6820 C.3   1 <1>   0.1400 
  6 C       -3.1970    -1.3550    -1.6540 C.3   1 <1>   0.1400 
  7 C       -3.7180     2.7840     0.6040 C.3   1 <1>  -0.2000 
  8 C       -3.3040     3.6060    -0.5740 C.3   1 <1>  -0.2000 
  9 C       -4.1990    -1.1840     1.1080 C.3   1 <1>  -0.1600 
 10 C       -4.5270    -2.0070    -1.2780 C.3   1 <1>  -0.1600 
 11 C       -4.5530    -2.3750     0.2110 C.3   1 <1>   0.4230 
 12 N       -5.9040    -2.8400     0.5840 N.4   1 <1>  -0.9060 
 13 C       -6.3210    -4.1570     0.0290 C.3   1 <1>   0.4230 
 14 C       -7.7890    -4.3750     0.3830 C.3   1 <1>  -0.0800 
 15 C       -5.6670    -5.2580     0.8540 C.3   1 <1>   0.1200 
 16 C       -7.7170    -5.0020     1.7880 C.3   1 <1>   0.1200 
 17 C       -8.4950    -5.3050    -0.6280 C.3   1 <1>  -0.0170 
 18 O       -6.3580    -5.1870     2.0550 O.3   1 <1>  -0.5600 
 19 C       -9.9750    -5.4400    -0.2900 C.ar  1 <1>  -0.1440 
 20 C      -10.9140    -4.4170    -0.5700 C.ar  1 <1>   0.0000 
 21 C      -10.4390    -6.5730     0.3140 C.ar  1 <1>  -0.1500 
 22 C      -12.2530    -4.6240    -0.1570 C.ar  1 <1>   0.3100 
 23 C      -10.6100    -3.2070    -1.2370 C.ar  1 <1>  -0.1500 
 24 C      -11.7900    -6.6840     0.6640 C.ar  1 <1>   0.1600 
 25 N      -12.6710    -5.7590     0.4560 N.ar  1 <1>  -0.6200 
 26 C      -13.2010    -3.6160    -0.3890 C.ar  1 <1>  -0.1500 
 27 C      -11.5600    -2.2460    -1.4540 C.ar  1 <1>  -0.1500 
 28 C      -12.8710    -2.4480    -1.0210 C.ar  1 <1>  -0.1500 
 29 H       -1.6330     2.2940    -0.0100 H     1 <1>   0.1000 
 30 H       -2.0590    -1.2360     0.8200 H     1 <1>   0.0800 
 31 H       -2.6750     0.3210     1.2870 H     1 <1>   0.0800 
 32 H       -3.2210    -1.0440    -2.6870 H     1 <1>   0.0800 
 33 H       -2.3820    -2.0500    -1.5410 H     1 <1>   0.0800 
 34 H       -4.7000     2.3450     0.5860 H     1 <1>   0.1000 
 35 H       -3.4300     3.1180     1.5860 H     1 <1>   0.1000 
 36 H       -2.7190     4.4950    -0.4140 H     1 <1>   0.1000 
 37 H       -3.9760     3.7030    -1.4100 H     1 <1>   0.1000 
 38 H       -4.9640    -0.4290     1.0520 H     1 <1>   0.0800 
 39 H       -4.1090    -1.5070     2.1300 H     1 <1>   0.0800 
 40 H       -4.6510    -2.8820    -1.8890 H     1 <1>   0.0800 
 41 H       -5.3130    -1.3100    -1.5100 H     1 <1>   0.0800 
 42 H       -3.8320    -3.1580     0.3890 H     1 <1>   0.0800 
 43 H       -6.5870    -2.1140     0.3430 H     1 <1>   0.4500 
 44 H       -5.9440    -2.9650     1.6080 H     1 <1>   0.4500 
 45 H       -6.1250    -4.2330    -1.0280 H     1 <1>   0.0800 
 46 H       -8.3280    -3.4450     0.4220 H     1 <1>   0.0800 
 47 H       -4.6160    -5.1100     1.0290 H     1 <1>   0.0800 
 48 H       -5.8310    -6.2320     0.4240 H     1 <1>   0.0800 
 49 H       -8.2030    -5.9620     1.8400 H     1 <1>   0.0800 
 50 H       -8.1300    -4.3560     2.5450 H     1 <1>   0.0800 
 51 H       -8.0370    -6.2800    -0.6180 H     1 <1>   0.0800 
 52 H       -8.3950    -4.9260    -1.6300 H     1 <1>   0.0800 
 53 H       -9.7960    -7.4030     0.5450 H     1 <1>   0.1500 
 54 H       -9.6150    -3.0310    -1.5950 H     1 <1>   0.1500 
 55 H      -12.1160    -7.5940     1.1400 H     1 <1>   0.1500 
 56 H      -14.2060    -3.7960    -0.0540 H     1 <1>   0.1500 
 57 H      -11.3180    -1.3270    -1.9630 H     1 <1>   0.1500 
 58 H      -13.6110    -1.6850    -1.1930 H     1 <1>   0.1500 
@<TRIPOS>BOND
  1   1   2  2   
  2   2   3  am  
  3   2   4  1   
  4   3   5  1   
  5   3   6  1   
  6   4   7  1   
  7   4   8  1   
  8   4  29  1   
  9   5   9  1   
 10   5  30  1   
 11   5  31  1   
 12   6  10  1   
 13   6  32  1   
 14   6  33  1   
 15   7   8  1   
 16   7  34  1   
 17   7  35  1   
 18   8  36  1   
 19   8  37  1   
 20   9  11  1   
 21   9  38  1   
 22   9  39  1   
 23  10  11  1   
 24  10  40  1   
 25  10  41  1   
 26  11  12  1   
 27  11  42  1   
 28  12  13  1   
 29  12  43  1   
 30  12  44  1   
 31  13  14  1   
 32  13  15  1   
 33  13  45  1   
 34  14  16  1   
 35  14  17  1   
 36  14  46  1   
 37  15  18  1   
 38  15  47  1   
 39  15  48  1   
 40  16  18  1   
 41  16  49  1   
 42  16  50  1   
 43  17  19  1   
 44  17  51  1   
 45  17  52  1   
 46  19  20  ar  
 47  19  21  ar  
 48  20  22  ar  
 49  20  23  ar  
 50  21  24  ar  
 51  21  53  1   
 52  22  25  ar  
 53  22  26  ar  
 54  23  27  ar  
 55  23  54  1   
 56  24  25  ar  
 57  24  55  1   
 58  26  28  ar  
 59  26  56  1   
 60  27  28  ar  
 61  27  57  1   
 62  28  58  1   
@<TRIPOS>SUBSTRUCTURE
  1 ****  12 GROUP 4 **** **** 0

# MOE 2024.06 (io_trps.svl 2023.06)
