@<TRIPOS>MOLECULE
NONAME
50 52 1 0 0 
SMALL
USER_CHARGES


@<TRIPOS>ATOM
  1 S       -1.3630    -0.7780    -1.5770 S.3   1 <1>  -0.0800 
  2 C       -2.5080    -2.0330    -1.1290 C.2   1 <1>  -0.1400 
  3 C       -1.1800    -1.4530    -3.1870 C.2   1 <1>  -0.1100 
  4 C       -2.7020    -2.8790    -2.1600 C.2   1 <1>  -0.1500 
  5 C       -3.0660    -1.9620     0.2810 C.3   1 <1>   0.3200 
  6 C       -1.9470    -2.5490    -3.3310 C.2   1 <1>  -0.1500 
  7 N       -4.1610    -2.9330     0.4230 N.am  1 <1>  -0.7300 
  8 C       -4.5060    -3.5910     1.5530 C.2   1 <1>   0.5690 
  9 O       -3.9440    -3.3970     2.6040 O.2   1 <1>  -0.5700 
 10 C       -5.6450    -4.6150     1.4770 C.3   1 <1>   0.1710 
 11 N       -6.4980    -4.5070     0.2490 N.3   1 <1>  -0.8100 
 12 C       -7.2240    -5.7710     0.0160 C.3   1 <1>   0.1100 
 13 C       -7.3950    -3.3400     0.3390 C.3   1 <1>   0.1100 
 14 C       -7.9980    -5.8000    -1.3130 C.3   1 <1>   0.1400 
 15 C       -7.8200    -2.8980    -1.0630 C.3   1 <1>  -0.1600 
 16 N       -9.2550    -4.9920    -1.2370 N.am  1 <1>  -0.6600 
 17 C       -9.1230    -3.5390    -1.5610 C.3   1 <1>   0.1400 
 18 C      -10.4950    -5.5140    -0.9630 C.2   1 <1>   0.5690 
 19 O      -11.4900    -4.8290    -0.9670 O.2   1 <1>  -0.5700 
 20 C      -10.6610    -6.9910    -0.6430 C.3   1 <1>  -0.0990 
 21 C      -12.1050    -7.3460    -0.2570 C.3   1 <1>   0.0960 
 22 N      -12.2140    -8.7840     0.0500 N.pl3 1 <1>   0.0480 
 23 C      -12.1360    -9.3930     1.2330 C.2   1 <1>   0.0360 
 24 C      -12.3930    -9.8030    -0.7910 C.2   1 <1>   0.0360 
 25 N      -12.2520   -10.6710     1.1230 N.2   1 <1>  -0.3380 
 26 N      -12.4170   -10.9340    -0.1750 N.2   1 <1>  -0.3380 
 27 H       -0.5090    -0.9520    -3.8610 H     1 <1>   0.1500 
 28 H       -3.3480    -3.7400    -2.1530 H     1 <1>   0.1500 
 29 H       -3.4480    -0.9740     0.4700 H     1 <1>   0.0800 
 30 H       -2.2900    -2.1750     0.9960 H     1 <1>   0.0800 
 31 H       -2.0170    -3.1500    -4.2200 H     1 <1>   0.1500 
 32 H       -4.7210    -3.1270    -0.4110 H     1 <1>   0.3700 
 33 H       -6.2560    -4.5190     2.3570 H     1 <1>   0.0800 
 34 H       -5.1820    -5.5850     1.5050 H     1 <1>   0.0800 
 35 H       -7.8980    -5.9690     0.8330 H     1 <1>   0.0800 
 36 H       -6.5040    -6.5700    -0.0160 H     1 <1>   0.0800 
 37 H       -6.8670    -2.5190     0.7950 H     1 <1>   0.0800 
 38 H       -8.2530    -3.5590     0.9540 H     1 <1>   0.0800 
 39 H       -8.2340    -6.8200    -1.5510 H     1 <1>   0.0800 
 40 H       -7.3680    -5.4340    -2.1050 H     1 <1>   0.0800 
 41 H       -7.0240    -3.0760    -1.7630 H     1 <1>   0.0800 
 42 H       -7.9810    -1.8350    -1.0460 H     1 <1>   0.0800 
 43 H       -9.2000    -3.4100    -2.6260 H     1 <1>   0.0800 
 44 H       -9.9440    -3.0040    -1.1130 H     1 <1>   0.0800 
 45 H      -10.0070    -7.2400     0.1720 H     1 <1>   0.0800 
 46 H      -10.3820    -7.5570    -1.5110 H     1 <1>   0.0800 
 47 H      -12.7740    -7.1120    -1.0670 H     1 <1>   0.0800 
 48 H      -12.4090    -6.7800     0.6060 H     1 <1>   0.0800 
 49 H      -11.9920    -8.8690     2.1600 H     1 <1>   0.1500 
 50 H      -12.5020    -9.6810    -1.8530 H     1 <1>   0.1500 
@<TRIPOS>BOND
  1   1   2  1   
  2   1   3  1   
  3   2   4  2   
  4   2   5  1   
  5   3   6  2   
  6   3  27  1   
  7   4   6  1   
  8   4  28  1   
  9   5   7  1   
 10   5  29  1   
 11   5  30  1   
 12   6  31  1   
 13   7   8  am  
 14   7  32  1   
 15   8   9  2   
 16   8  10  1   
 17  10  11  1   
 18  10  33  1   
 19  10  34  1   
 20  11  12  1   
 21  11  13  1   
 22  12  14  1   
 23  12  35  1   
 24  12  36  1   
 25  13  15  1   
 26  13  37  1   
 27  13  38  1   
 28  14  16  1   
 29  14  39  1   
 30  14  40  1   
 31  15  17  1   
 32  15  41  1   
 33  15  42  1   
 34  16  17  1   
 35  16  18  am  
 36  17  43  1   
 37  17  44  1   
 38  18  19  2   
 39  18  20  1   
 40  20  21  1   
 41  20  45  1   
 42  20  46  1   
 43  21  22  1   
 44  21  47  1   
 45  21  48  1   
 46  22  23  1   
 47  22  24  1   
 48  23  25  2   
 49  23  49  1   
 50  24  26  2   
 51  24  50  1   
 52  25  26  1   
@<TRIPOS>SUBSTRUCTURE
  1 ****  12 GROUP 4 **** **** 0

# MOE 2024.06 (io_trps.svl 2023.06)
