@<TRIPOS>MOLECULE
NONAME
49 50 1 0 0 
SMALL
USER_CHARGES


@<TRIPOS>ATOM
  1 O       -0.3700     0.8600     0.5930 O.2   1 <1>  -0.5700 
  2 C       -0.3320     2.0480     0.4040 C.2   1 <1>   0.5690 
  3 N       -1.2840     2.8600     0.9110 N.am  1 <1>  -0.7300 
  4 C        0.7850     2.6580    -0.4440 C.3   1 <1>   0.1810 
  5 C       -1.3320     4.3250     0.6790 C.3   1 <1>   0.3640 
  6 O        0.9550     4.0360    -0.1950 O.3   1 <1>  -0.5600 
  7 C       -2.7280     4.6980     0.1860 C.ar  1 <1>  -0.1440 
  8 C       -0.2370     4.8080    -0.3110 C.3   1 <1>   0.2610 
  9 C       -3.3140     5.8740     0.6310 C.ar  1 <1>  -0.1500 
 10 C       -3.4260     3.9040    -0.7150 C.ar  1 <1>  -0.1500 
 11 C        0.0670     6.2880    -0.0520 C.2   1 <1>   0.5690 
 12 C       -4.5650     6.2690     0.1820 C.ar  1 <1>   0.0830 
 13 C       -4.6880     4.2760    -1.1470 C.ar  1 <1>  -0.1500 
 14 O       -0.7060     7.1370    -0.4290 O.2   1 <1>  -0.5700 
 15 N        1.2110     6.6180     0.6040 N.am  1 <1>  -0.7300 
 16 O       -5.0390     7.4640     0.6120 O.3   1 <1>  -0.3630 
 17 C       -5.2790     5.4470    -0.7030 C.ar  1 <1>   0.0830 
 18 C        1.6460     7.9960     0.9440 C.3   1 <1>   0.1400 
 19 C       -4.3700     8.6010     0.1100 C.3   1 <1>   0.0400 
 20 O       -6.5260     5.6950    -1.1920 O.3   1 <1>  -0.3630 
 21 C        2.3090     8.6580    -0.2620 C.3   1 <1>   0.1200 
 22 C       -7.4530     6.4720    -0.4670 C.3   1 <1>   0.0400 
 23 O        2.8370     9.8800     0.1450 O.3   1 <1>  -0.5600 
 24 C        3.4140    10.6140    -0.8810 C.3   1 <1>   0.1200 
 25 C        3.9460    11.9070    -0.2760 C.3   1 <1>  -0.2400 
 26 H       -2.0500     2.4470     1.4470 H     1 <1>   0.3700 
 27 H        0.5630     2.5220    -1.4870 H     1 <1>   0.0800 
 28 H        1.7130     2.1650    -0.2180 H     1 <1>   0.0800 
 29 H       -1.1630     4.8070     1.6270 H     1 <1>   0.0800 
 30 H       -0.5950     4.7110    -1.3200 H     1 <1>   0.0800 
 31 H       -2.7940     6.5100     1.3250 H     1 <1>   0.1500 
 32 H       -3.0010     2.9880    -1.0880 H     1 <1>   0.1500 
 33 H       -5.2280     3.6540    -1.8370 H     1 <1>   0.1500 
 34 H        1.8760     5.8610     0.7930 H     1 <1>   0.3700 
 35 H        0.7890     8.5790     1.2390 H     1 <1>   0.0800 
 36 H        2.3410     7.9560     1.7640 H     1 <1>   0.0800 
 37 H       -4.8790     9.4770     0.4690 H     1 <1>   0.0800 
 38 H       -4.3980     8.5710    -0.9650 H     1 <1>   0.0800 
 39 H       -3.3510     8.5990     0.4550 H     1 <1>   0.0800 
 40 H        1.5780     8.8330    -1.0340 H     1 <1>   0.0800 
 41 H        3.1130     8.0460    -0.6330 H     1 <1>   0.0800 
 42 H       -8.4340     6.2790    -0.8600 H     1 <1>   0.0800 
 43 H       -7.2080     7.5110    -0.5940 H     1 <1>   0.0800 
 44 H       -7.4090     6.1940     0.5710 H     1 <1>   0.0800 
 45 H        4.2150    10.0390    -1.3150 H     1 <1>   0.0800 
 46 H        2.6630    10.8230    -1.6240 H     1 <1>   0.0800 
 47 H        4.6830    11.6860     0.4740 H     1 <1>   0.0800 
 48 H        3.1400    12.4650     0.1660 H     1 <1>   0.0800 
 49 H        4.4020    12.5070    -1.0420 H     1 <1>   0.0800 
@<TRIPOS>BOND
  1   1   2  2   
  2   2   3  am  
  3   2   4  1   
  4   3   5  1   
  5   3  26  1   
  6   4   6  1   
  7   4  27  1   
  8   4  28  1   
  9   5   7  1   
 10   5   8  1   
 11   5  29  1   
 12   6   8  1   
 13   7   9  ar  
 14   7  10  ar  
 15   8  11  1   
 16   8  30  1   
 17   9  12  ar  
 18   9  31  1   
 19  10  13  ar  
 20  10  32  1   
 21  11  14  2   
 22  11  15  am  
 23  12  16  1   
 24  12  17  ar  
 25  13  17  ar  
 26  13  33  1   
 27  15  18  1   
 28  15  34  1   
 29  16  19  1   
 30  17  20  1   
 31  18  21  1   
 32  18  35  1   
 33  18  36  1   
 34  19  37  1   
 35  19  38  1   
 36  19  39  1   
 37  20  22  1   
 38  21  23  1   
 39  21  40  1   
 40  21  41  1   
 41  22  42  1   
 42  22  43  1   
 43  22  44  1   
 44  23  24  1   
 45  24  25  1   
 46  24  45  1   
 47  24  46  1   
 48  25  47  1   
 49  25  48  1   
 50  25  49  1   
@<TRIPOS>SUBSTRUCTURE
  1 ****  14 GROUP 4 **** **** 0

# MOE 2024.06 (io_trps.svl 2023.06)
