@<TRIPOS>MOLECULE
NONAME
44 46 1 0 0 
SMALL
USER_CHARGES


@<TRIPOS>ATOM
  1 O        1.1530     1.3800     0.6360 O.3   1 <1>  -0.0190 
  2 N        2.1510     0.6020     0.9290 N.2   1 <1>  -0.4100 
  3 C        1.3810     2.0730    -0.4470 C.2   1 <1>  -0.0400 
  4 C        3.0300     0.7820     0.0100 C.2   1 <1>   0.1080 
  5 C        2.5900     1.7280    -0.9130 C.2   1 <1>  -0.1500 
  6 C        0.3500     3.0740    -0.9300 C.3   1 <1>   0.0200 
  7 C        4.3580     0.0590    -0.0510 C.3   1 <1>  -0.0590 
  8 C       -0.1110     3.9910     0.2220 C.3   1 <1>  -0.0800 
  9 C       -0.9030     5.1910    -0.2920 C.3   1 <1>   0.2000 
 10 C        1.0830     4.6120     0.9660 C.3   1 <1>   0.3430 
 11 O       -1.7060     5.6550     0.7430 O.3   1 <1>  -0.6800 
 12 C        0.1840     6.2340    -0.5470 C.3   1 <1>   0.3430 
 13 N        1.1400     6.0580     0.5870 N.4   1 <1>  -0.9590 
 14 C        2.5360     6.5160     0.3120 C.3   1 <1>   0.3430 
 15 C        2.6490     8.0370     0.1540 C.3   1 <1>   0.0200 
 16 C        4.0710     8.3860    -0.2440 C.2   1 <1>   0.0060 
 17 N        4.9320     7.4890    -0.6050 N.2   1 <1>  -0.5650 
 18 N        4.5620     9.6520    -0.2640 N.pl3 1 <1>   0.0480 
 19 C        6.0440     8.1970    -0.8710 C.2   1 <1>   0.0770 
 20 C        5.8360     9.5150    -0.6680 C.2   1 <1>  -0.3020 
 21 C        3.8960    10.9230     0.0750 C.3   1 <1>   0.0160 
 22 H        3.1310     2.0690    -1.7770 H     1 <1>   0.1500 
 23 H        0.7810     3.6460    -1.7330 H     1 <1>   0.0800 
 24 H       -0.4960     2.5360    -1.3220 H     1 <1>   0.0800 
 25 H        5.1620     0.7700    -0.0950 H     1 <1>   0.0800 
 26 H        4.3910    -0.5690    -0.9220 H     1 <1>   0.0800 
 27 H        4.4830    -0.5540     0.8230 H     1 <1>   0.0800 
 28 H       -0.6970     3.3990     0.9040 H     1 <1>   0.0800 
 29 H       -1.5170     4.9920    -1.1550 H     1 <1>   0.0800 
 30 H        1.9990     4.1090     0.7040 H     1 <1>   0.0800 
 31 H        0.9370     4.5190     2.0310 H     1 <1>   0.0800 
 32 H       -2.4890     5.0780     0.8760 H     1 <1>   0.4000 
 33 H       -0.2300     7.2280    -0.5790 H     1 <1>   0.0800 
 34 H        0.6790     6.0170    -1.4790 H     1 <1>   0.0800 
 35 H        0.7370     6.5750     1.3840 H     1 <1>   0.4500 
 36 H        3.1860     6.2130     1.1170 H     1 <1>   0.0800 
 37 H        2.9010     6.0460    -0.5870 H     1 <1>   0.0800 
 38 H        2.4120     8.5160     1.0850 H     1 <1>   0.0800 
 39 H        1.9880     8.3880    -0.6160 H     1 <1>   0.0800 
 40 H        6.9520     7.7170    -1.2010 H     1 <1>   0.1500 
 41 H        6.5160    10.3390    -0.7900 H     1 <1>   0.1500 
 42 H        4.5130    11.7460    -0.2380 H     1 <1>   0.0800 
 43 H        3.7460    10.9760     1.1370 H     1 <1>   0.0800 
 44 H        2.9500    10.9810    -0.4310 H     1 <1>   0.0800 
@<TRIPOS>BOND
  1   1   2  1   
  2   1   3  1   
  3   2   4  2   
  4   3   5  2   
  5   3   6  1   
  6   4   5  1   
  7   4   7  1   
  8   5  22  1   
  9   6   8  1   
 10   6  23  1   
 11   6  24  1   
 12   7  25  1   
 13   7  26  1   
 14   7  27  1   
 15   8   9  1   
 16   8  10  1   
 17   8  28  1   
 18   9  11  1   
 19   9  12  1   
 20   9  29  1   
 21  10  13  1   
 22  10  30  1   
 23  10  31  1   
 24  11  32  1   
 25  12  13  1   
 26  12  33  1   
 27  12  34  1   
 28  13  14  1   
 29  13  35  1   
 30  14  15  1   
 31  14  36  1   
 32  14  37  1   
 33  15  16  1   
 34  15  38  1   
 35  15  39  1   
 36  16  17  2   
 37  16  18  1   
 38  17  19  1   
 39  18  20  1   
 40  18  21  1   
 41  19  20  2   
 42  19  40  1   
 43  20  41  1   
 44  21  42  1   
 45  21  43  1   
 46  21  44  1   
@<TRIPOS>SUBSTRUCTURE
  1 ****  14 GROUP 4 **** **** 0

# MOE 2024.06 (io_trps.svl 2023.06)
