@<TRIPOS>MOLECULE
NONAME
62 65 1 0 0 
SMALL
USER_CHARGES


@<TRIPOS>ATOM
  1 N       -0.8720     2.2630     1.5580 N.2   1 <1>  -0.3380 
  2 N       -0.4530     1.6200     0.4870 N.2   1 <1>  -0.3380 
  3 C       -1.4270     1.3990     2.3370 C.2   1 <1>   0.0070 
  4 C       -0.7840     0.3880     0.6220 C.2   1 <1>   0.0060 
  5 N       -1.5290     0.1860     1.7380 N.pl3 1 <1>   0.0480 
  6 C       -1.8000     1.7760     3.7780 C.3   1 <1>   0.1000 
  7 C       -0.2770    -0.6240    -0.3960 C.3   1 <1>  -0.0600 
  8 C       -2.4930    -0.9580     2.0610 C.3   1 <1>   0.1760 
  9 C       -2.9300     2.8160     3.8140 C.3   1 <1>  -0.2400 
 10 C       -0.5740     2.3400     4.5090 C.3   1 <1>  -0.2400 
 11 C       -2.9010    -1.7980     0.8140 C.3   1 <1>  -0.1600 
 12 C       -3.8740    -0.4510     2.5750 C.3   1 <1>  -0.1600 
 13 C       -3.8120    -1.0320    -0.2000 C.3   1 <1>   0.4230 
 14 C       -4.7450     0.2370     1.4870 C.3   1 <1>   0.4230 
 15 N       -3.9200     0.3810     0.2570 N.4   1 <1>  -0.9590 
 16 C       -5.2650    -1.5110    -0.1170 C.3   1 <1>  -0.1600 
 17 C       -5.8810    -0.6810     1.0170 C.3   1 <1>  -0.1600 
 18 C       -4.4700     1.3640    -0.7250 C.3   1 <1>   0.3430 
 19 C       -3.8420     2.7400    -0.4610 C.3   1 <1>  -0.1600 
 20 C       -2.5530     2.9270    -1.2770 C.3   1 <1>   0.5660 
 21 N       -1.7120     3.9940    -0.7320 N.4   1 <1>  -0.8530 
 22 C       -2.8290     3.2240    -2.7370 C.ar  1 <1>  -0.1430 
 23 C       -3.5670     4.3320    -3.1410 C.ar  1 <1>  -0.1500 
 24 C       -2.3210     2.3620    -3.7000 C.ar  1 <1>  -0.1500 
 25 C       -3.8000     4.5620    -4.4850 C.ar  1 <1>  -0.1500 
 26 C       -2.5550     2.5960    -5.0430 C.ar  1 <1>  -0.1500 
 27 C       -3.2950     3.6950    -5.4350 C.ar  1 <1>  -0.1500 
 28 H       -2.0810     0.9000     4.3320 H     1 <1>   0.0800 
 29 H        0.5820    -0.2210    -0.9050 H     1 <1>   0.0800 
 30 H       -1.0180    -0.8490    -1.1390 H     1 <1>   0.0800 
 31 H        0.0470    -1.5240     0.0960 H     1 <1>   0.0800 
 32 H       -2.0270    -1.5890     2.8000 H     1 <1>   0.0800 
 33 H       -2.6040     3.7360     3.3610 H     1 <1>   0.0800 
 34 H       -3.2020     3.0250     4.8350 H     1 <1>   0.0800 
 35 H       -3.8030     2.4710     3.2960 H     1 <1>   0.0800 
 36 H       -0.2350     3.2520     4.0490 H     1 <1>   0.0800 
 37 H        0.2330     1.6290     4.4810 H     1 <1>   0.0800 
 38 H       -0.8090     2.5450     5.5380 H     1 <1>   0.0800 
 39 H       -3.4390    -2.6560     1.1780 H     1 <1>   0.0800 
 40 H       -2.0610    -2.2410     0.3240 H     1 <1>   0.0800 
 41 H       -3.8080     0.1840     3.4280 H     1 <1>   0.0800 
 42 H       -4.4020    -1.3080     2.9570 H     1 <1>   0.0800 
 43 H       -3.4250    -1.1100    -1.2040 H     1 <1>   0.0800 
 44 H       -5.1230     1.1840     1.8410 H     1 <1>   0.0800 
 45 H       -2.9840     0.6990     0.5370 H     1 <1>   0.4500 
 46 H       -5.3440    -2.5710     0.0600 H     1 <1>   0.0800 
 47 H       -5.7680    -1.3010    -1.0460 H     1 <1>   0.0800 
 48 H       -6.6970    -0.0870     0.6410 H     1 <1>   0.0800 
 49 H       -6.2720    -1.2980     1.8080 H     1 <1>   0.0800 
 50 H       -5.5430     1.4220    -0.6170 H     1 <1>   0.0800 
 51 H       -4.2590     1.0510    -1.7360 H     1 <1>   0.0800 
 52 H       -3.6500     2.8610     0.5910 H     1 <1>   0.0800 
 53 H       -4.5560     3.4910    -0.7480 H     1 <1>   0.0800 
 54 H       -1.9900     2.0100    -1.2380 H     1 <1>   0.0800 
 55 H       -2.2330     4.8340    -0.4810 H     1 <1>   0.4500 
 56 H       -1.0040     4.2450    -1.4300 H     1 <1>   0.4500 
 57 H       -1.2010     3.6230     0.0930 H     1 <1>   0.4500 
 58 H       -3.9750     5.0330    -2.4330 H     1 <1>   0.1500 
 59 H       -1.7320     1.5000    -3.4310 H     1 <1>   0.1500 
 60 H       -4.3740     5.4190    -4.7990 H     1 <1>   0.1500 
 61 H       -2.1600     1.9270    -5.7900 H     1 <1>   0.1500 
 62 H       -3.4780     3.8760    -6.4820 H     1 <1>   0.1500 
@<TRIPOS>BOND
  1   1   2  1   
  2   1   3  2   
  3   2   4  2   
  4   3   5  1   
  5   3   6  1   
  6   4   5  1   
  7   4   7  1   
  8   5   8  1   
  9   6   9  1   
 10   6  10  1   
 11   6  28  1   
 12   7  29  1   
 13   7  30  1   
 14   7  31  1   
 15   8  11  1   
 16   8  12  1   
 17   8  32  1   
 18   9  33  1   
 19   9  34  1   
 20   9  35  1   
 21  10  36  1   
 22  10  37  1   
 23  10  38  1   
 24  11  13  1   
 25  11  39  1   
 26  11  40  1   
 27  12  14  1   
 28  12  41  1   
 29  12  42  1   
 30  13  15  1   
 31  13  16  1   
 32  13  43  1   
 33  14  15  1   
 34  14  17  1   
 35  14  44  1   
 36  15  18  1   
 37  15  45  1   
 38  16  17  1   
 39  16  46  1   
 40  16  47  1   
 41  17  48  1   
 42  17  49  1   
 43  18  19  1   
 44  18  50  1   
 45  18  51  1   
 46  19  20  1   
 47  19  52  1   
 48  19  53  1   
 49  20  21  1   
 50  20  22  1   
 51  20  54  1   
 52  21  55  1   
 53  21  56  1   
 54  21  57  1   
 55  22  23  ar  
 56  22  24  ar  
 57  23  25  ar  
 58  23  58  1   
 59  24  26  ar  
 60  24  59  1   
 61  25  27  ar  
 62  25  60  1   
 63  26  27  ar  
 64  26  61  1   
 65  27  62  1   
@<TRIPOS>SUBSTRUCTURE
  1 ****  15 GROUP 4 **** **** 0

# MOE 2024.06 (io_trps.svl 2023.06)
