@<TRIPOS>MOLECULE
NONAME
55 57 1 0 0 
SMALL
USER_CHARGES


@<TRIPOS>ATOM
  1 S       -0.0420     0.3000    -0.8070 S.3   1 <1>  -0.0800 
  2 C        1.3380     1.1650    -0.1540 C.2   1 <1>  -0.1400 
  3 C        0.5690    -1.2340    -0.2130 C.2   1 <1>  -0.1400 
  4 C        2.1770     0.3070     0.4640 C.2   1 <1>  -0.1500 
  5 C        1.3250     2.6600    -0.3940 C.3   1 <1>   0.5230 
  6 C        1.7390    -1.0550     0.4260 C.2   1 <1>  -0.1500 
  7 C       -0.2520    -2.4810    -0.4890 C.3   1 <1>   0.0200 
  8 N        2.6430     3.2510    -0.0410 N.4   1 <1>  -0.9590 
  9 C       -1.5530    -2.4800     0.3220 C.3   1 <1>  -0.1600 
 10 C        3.7380     2.7950    -0.9520 C.3   1 <1>   0.3430 
 11 C        2.5930     4.7420     0.1030 C.3   1 <1>   0.3430 
 12 C       -2.3720    -3.7530     0.0760 C.3   1 <1>  -0.1600 
 13 C        5.0840     3.1100    -0.2840 C.3   1 <1>   0.2000 
 14 C        3.9550     5.4070    -0.1730 C.3   1 <1>  -0.1600 
 15 C       -3.6680    -3.7390     0.8910 C.3   1 <1>  -0.2400 
 16 O        5.2670     2.2080     0.7560 O.3   1 <1>  -0.6800 
 17 C        5.1090     4.5340     0.3310 C.3   1 <1>   0.2200 
 18 N        6.4130     5.1930     0.0950 N.am  1 <1>  -0.7300 
 19 C        7.5890     4.7590     0.6490 C.2   1 <1>   0.5440 
 20 O        7.5640     3.7160     1.2750 O.2   1 <1>  -0.5700 
 21 C        8.8250     5.5020     0.4700 C.ar  1 <1>   0.0860 
 22 C        8.8380     6.8870     0.2910 C.ar  1 <1>  -0.1500 
 23 C       10.0570     4.8460     0.4700 C.ar  1 <1>  -0.1500 
 24 C       10.0210     7.5800     0.1040 C.ar  1 <1>  -0.1500 
 25 C       11.2430     5.5330     0.2850 C.ar  1 <1>  -0.1500 
 26 C       11.2260     6.9020     0.0980 C.ar  1 <1>  -0.1500 
 27 H        3.1030     0.5460     0.9610 H     1 <1>   0.1500 
 28 H        0.5470     3.0980     0.2090 H     1 <1>   0.0800 
 29 H        1.1010     2.8540    -1.4310 H     1 <1>   0.0800 
 30 H        2.3230    -1.8350     0.8840 H     1 <1>   0.1500 
 31 H       -0.4730    -2.5340    -1.5410 H     1 <1>   0.0800 
 32 H        0.3310    -3.3470    -0.2280 H     1 <1>   0.0800 
 33 H        2.9010     2.8380     0.8710 H     1 <1>   0.4500 
 34 H       -1.3130    -2.4030     1.3690 H     1 <1>   0.0800 
 35 H       -2.1410    -1.6200     0.0520 H     1 <1>   0.0800 
 36 H        3.6790     1.7340    -1.1350 H     1 <1>   0.0800 
 37 H        3.6690     3.3080    -1.8960 H     1 <1>   0.0800 
 38 H        1.8650     5.1560    -0.5780 H     1 <1>   0.0800 
 39 H        2.2770     4.9850     1.1060 H     1 <1>   0.0800 
 40 H       -2.6140    -3.8320    -0.9710 H     1 <1>   0.0800 
 41 H       -1.7920    -4.6180     0.3510 H     1 <1>   0.0800 
 42 H        5.8860     2.9720    -0.9890 H     1 <1>   0.0800 
 43 H        3.9780     6.3630     0.3200 H     1 <1>   0.0800 
 44 H        4.0580     5.5770    -1.2300 H     1 <1>   0.0800 
 45 H       -4.2750    -2.8940     0.6180 H     1 <1>   0.0800 
 46 H       -3.4510    -3.6840     1.9430 H     1 <1>   0.0800 
 47 H       -4.2290    -4.6370     0.7040 H     1 <1>   0.0800 
 48 H        6.1520     2.4000     1.1690 H     1 <1>   0.4000 
 49 H        4.9880     4.4420     1.3990 H     1 <1>   0.0800 
 50 H        6.4230     6.0370    -0.4810 H     1 <1>   0.3700 
 51 H        7.9160     7.4390     0.3060 H     1 <1>   0.1500 
 52 H       10.0820     3.7800     0.6190 H     1 <1>   0.1500 
 53 H       10.0090     8.6480    -0.0340 H     1 <1>   0.1500 
 54 H       12.1800     5.0020     0.2870 H     1 <1>   0.1500 
 55 H       12.1480     7.4390    -0.0470 H     1 <1>   0.1500 
@<TRIPOS>BOND
  1   1   2  1   
  2   1   3  1   
  3   2   4  2   
  4   2   5  1   
  5   3   6  2   
  6   3   7  1   
  7   4   6  1   
  8   4  27  1   
  9   5   8  1   
 10   5  28  1   
 11   5  29  1   
 12   6  30  1   
 13   7   9  1   
 14   7  31  1   
 15   7  32  1   
 16   8  10  1   
 17   8  11  1   
 18   8  33  1   
 19   9  12  1   
 20   9  34  1   
 21   9  35  1   
 22  10  13  1   
 23  10  36  1   
 24  10  37  1   
 25  11  14  1   
 26  11  38  1   
 27  11  39  1   
 28  12  15  1   
 29  12  40  1   
 30  12  41  1   
 31  13  16  1   
 32  13  17  1   
 33  13  42  1   
 34  14  17  1   
 35  14  43  1   
 36  14  44  1   
 37  15  45  1   
 38  15  46  1   
 39  15  47  1   
 40  16  48  1   
 41  17  18  1   
 42  17  49  1   
 43  18  19  am  
 44  18  50  1   
 45  19  20  2   
 46  19  21  1   
 47  21  22  ar  
 48  21  23  ar  
 49  22  24  ar  
 50  22  51  1   
 51  23  25  ar  
 52  23  52  1   
 53  24  26  ar  
 54  24  53  1   
 55  25  26  ar  
 56  25  54  1   
 57  26  55  1   
@<TRIPOS>SUBSTRUCTURE
  1 ****  13 GROUP 4 **** **** 0

# MOE 2024.06 (io_trps.svl 2023.06)
