@<TRIPOS>MOLECULE
NONAME
41 42 1 0 0 
SMALL
USER_CHARGES


@<TRIPOS>ATOM
  1 S        0.4200    -0.2980    -0.3880 S.o2  1 <1>   1.3330 
  2 O       -0.6770    -0.4250    -1.3210 O.2   1 <1>  -0.6500 
  3 O        0.7420    -1.4050     0.4850 O.2   1 <1>  -0.6500 
  4 N        0.1080     1.0580     0.5850 N.am  1 <1>  -0.8490 
  5 C        1.9050     0.1500    -1.2870 C.3   1 <1>  -0.0550 
  6 C       -0.3810     2.2180    -0.1690 C.3   1 <1>   0.1160 
  7 C       -0.8200     0.7420     1.6730 C.3   1 <1>   0.1160 
  8 C        3.0900     0.5350    -0.3830 C.3   1 <1>  -0.0800 
  9 C        4.2360     1.1480    -1.1830 C.3   1 <1>   0.2200 
 10 C        3.7340    -0.6480     0.3420 C.3   1 <1>   0.1200 
 11 N        4.4310     2.5510    -0.7620 N.am  1 <1>  -0.7300 
 12 C        5.4400     0.2780    -0.8230 C.3   1 <1>   0.1200 
 13 O        5.0960    -0.3710     0.3570 O.3   1 <1>  -0.5600 
 14 C        3.6500     3.6050    -1.1420 C.2   1 <1>   0.7160 
 15 O        2.7730     3.4050    -1.9680 O.2   1 <1>  -0.5700 
 16 C        3.8620     4.9140    -0.5410 C.2   1 <1>   0.2030 
 17 N        4.7220     5.1890     0.4260 N.2   1 <1>  -0.7070 
 18 C        3.1700     6.0720    -0.9120 C.2   1 <1>  -0.1500 
 19 N        4.5890     6.5140     0.6770 N.pl3 1 <1>   0.3140 
 20 C        3.6490     7.0580    -0.1300 C.2   1 <1>  -0.3020 
 21 C        5.3980     7.2370     1.7170 C.3   1 <1>   0.8560 
 22 F        4.5950     7.8640     2.5750 F     1 <1>  -0.3400 
 23 F        6.1180     8.2040     1.1510 F     1 <1>  -0.3400 
 24 H        2.1910    -0.6640    -1.9240 H     1 <1>   0.0800 
 25 H        1.6760     0.9850    -1.9200 H     1 <1>   0.0800 
 26 H       -0.5170     3.0570     0.4920 H     1 <1>   0.0800 
 27 H       -1.3210     1.9910    -0.6450 H     1 <1>   0.0800 
 28 H        0.3320     2.5020    -0.9240 H     1 <1>   0.0800 
 29 H       -0.9770     1.6080     2.2930 H     1 <1>   0.0800 
 30 H       -0.4120    -0.0420     2.2890 H     1 <1>   0.0800 
 31 H       -1.7660     0.4130     1.2750 H     1 <1>   0.0800 
 32 H        2.7520     1.2320     0.3650 H     1 <1>   0.0800 
 33 H        4.0630     1.1160    -2.2460 H     1 <1>   0.0800 
 34 H        3.5880    -1.5730    -0.1890 H     1 <1>   0.0800 
 35 H        3.3810    -0.7500     1.3550 H     1 <1>   0.0800 
 36 H        5.0380     2.7080     0.0470 H     1 <1>   0.3700 
 37 H        6.3400     0.8470    -0.6720 H     1 <1>   0.0800 
 38 H        5.6010    -0.4750    -1.5740 H     1 <1>   0.0800 
 39 H        2.4140     6.1210    -1.6770 H     1 <1>   0.1500 
 40 H        3.3850     8.1010    -0.0980 H     1 <1>   0.1500 
 41 H        6.0540     6.5850     2.2630 H     1 <1>   0.0800 
@<TRIPOS>BOND
  1   1   2  2   
  2   1   3  2   
  3   1   4  am  
  4   1   5  1   
  5   4   6  1   
  6   4   7  1   
  7   5   8  1   
  8   5  24  1   
  9   5  25  1   
 10   6  26  1   
 11   6  27  1   
 12   6  28  1   
 13   7  29  1   
 14   7  30  1   
 15   7  31  1   
 16   8   9  1   
 17   8  10  1   
 18   8  32  1   
 19   9  11  1   
 20   9  12  1   
 21   9  33  1   
 22  10  13  1   
 23  10  34  1   
 24  10  35  1   
 25  11  14  am  
 26  11  36  1   
 27  12  13  1   
 28  12  37  1   
 29  12  38  1   
 30  14  15  2   
 31  14  16  1   
 32  16  17  2   
 33  16  18  1   
 34  17  19  1   
 35  18  20  2   
 36  18  39  1   
 37  19  20  1   
 38  19  21  1   
 39  20  40  1   
 40  21  22  1   
 41  21  23  1   
 42  21  41  1   
@<TRIPOS>SUBSTRUCTURE
  1 ****  14 GROUP 4 **** **** 0

# MOE 2024.06 (io_trps.svl 2023.06)
