@<TRIPOS>MOLECULE
NONAME
46 47 1 0 0 
SMALL
USER_CHARGES


@<TRIPOS>ATOM
  1 S        0.0670    -0.0980     0.8920 S.o2  1 <1>   1.3330 
  2 O       -0.7720    -1.2370     1.1670 O.2   1 <1>  -0.6500 
  3 O        0.9270     0.4560     1.9150 O.2   1 <1>  -0.6500 
  4 N        1.0450    -0.4530    -0.4490 N.am  1 <1>  -0.8490 
  5 C       -0.9370     1.2690     0.3020 C.3   1 <1>  -0.0550 
  6 C        2.2610    -1.1760    -0.0510 C.3   1 <1>   0.1160 
  7 C        0.3440    -1.2470    -1.4700 C.3   1 <1>   0.1160 
  8 C       -0.1020     2.4580    -0.2350 C.3   1 <1>  -0.0800 
  9 C       -0.9130     3.6590    -0.7180 C.3   1 <1>   0.2000 
 10 C        0.9000     3.0430     0.7720 C.3   1 <1>   0.3430 
 11 O       -1.9590     3.9160     0.1620 O.3   1 <1>  -0.6800 
 12 C        0.0970     4.8050    -0.6660 C.3   1 <1>   0.3430 
 13 N        0.9620     4.5160     0.5240 N.4   1 <1>  -0.9590 
 14 C        2.3540     5.0130     0.3500 C.3   1 <1>   0.5230 
 15 C        2.3490     6.5230     0.2350 C.2   1 <1>  -0.1400 
 16 S        3.7730     7.2140    -0.5220 S.3   1 <1>  -0.0800 
 17 C        1.4870     7.4990     0.5870 C.2   1 <1>  -0.1500 
 18 C        3.1450     8.8430    -0.3450 C.2   1 <1>  -0.1400 
 19 C        1.9410     8.8140     0.2550 C.2   1 <1>  -0.1500 
 20 C        4.0230     9.9670    -0.8710 C.3   1 <1>   0.0200 
 21 C        3.3830    11.3430    -0.6720 C.3   1 <1>  -0.2400 
 22 H       -1.5850     0.9180    -0.4780 H     1 <1>   0.0800 
 23 H       -1.5640     1.5950     1.1090 H     1 <1>   0.0800 
 24 H        2.8720    -1.3860    -0.9130 H     1 <1>   0.0800 
 25 H        2.0040    -2.1060     0.4320 H     1 <1>   0.0800 
 26 H        2.8410    -0.5830     0.6360 H     1 <1>   0.0800 
 27 H        0.9820    -1.4010    -2.3230 H     1 <1>   0.0800 
 28 H       -0.5440    -0.7380    -1.8000 H     1 <1>   0.0800 
 29 H        0.0600    -2.2100    -1.0730 H     1 <1>   0.0800 
 30 H        0.4740     2.1040    -1.0730 H     1 <1>   0.0800 
 31 H       -1.3290     3.5240    -1.7030 H     1 <1>   0.0800 
 32 H        1.8650     2.5750     0.6480 H     1 <1>   0.0800 
 33 H        0.5630     2.8570     1.7810 H     1 <1>   0.0800 
 34 H       -1.6810     3.9650     1.0960 H     1 <1>   0.4000 
 35 H       -0.3950     5.7620    -0.5940 H     1 <1>   0.0800 
 36 H        0.6950     4.7840    -1.5620 H     1 <1>   0.0800 
 37 H        0.5760     5.0140     1.3360 H     1 <1>   0.4500 
 38 H        2.9660     4.7240     1.1890 H     1 <1>   0.0800 
 39 H        2.7830     4.5900    -0.5440 H     1 <1>   0.0800 
 40 H        0.5360     7.3800     1.0760 H     1 <1>   0.1500 
 41 H        1.3390     9.6780     0.4850 H     1 <1>   0.1500 
 42 H        4.9700     9.9390    -0.3610 H     1 <1>   0.0800 
 43 H        4.2050     9.8080    -1.9200 H     1 <1>   0.0800 
 44 H        3.2150    11.5290     0.3740 H     1 <1>   0.0800 
 45 H        2.4430    11.3970    -1.1930 H     1 <1>   0.0800 
 46 H        4.0320    12.1090    -1.0570 H     1 <1>   0.0800 
@<TRIPOS>BOND
  1   1   2  2   
  2   1   3  2   
  3   1   4  am  
  4   1   5  1   
  5   4   6  1   
  6   4   7  1   
  7   5   8  1   
  8   5  22  1   
  9   5  23  1   
 10   6  24  1   
 11   6  25  1   
 12   6  26  1   
 13   7  27  1   
 14   7  28  1   
 15   7  29  1   
 16   8   9  1   
 17   8  10  1   
 18   8  30  1   
 19   9  11  1   
 20   9  12  1   
 21   9  31  1   
 22  10  13  1   
 23  10  32  1   
 24  10  33  1   
 25  11  34  1   
 26  12  13  1   
 27  12  35  1   
 28  12  36  1   
 29  13  14  1   
 30  13  37  1   
 31  14  15  1   
 32  14  38  1   
 33  14  39  1   
 34  15  16  1   
 35  15  17  2   
 36  16  18  1   
 37  17  19  1   
 38  17  40  1   
 39  18  19  2   
 40  18  20  1   
 41  19  41  1   
 42  20  21  1   
 43  20  42  1   
 44  20  43  1   
 45  21  44  1   
 46  21  45  1   
 47  21  46  1   
@<TRIPOS>SUBSTRUCTURE
  1 ****  13 GROUP 4 **** **** 0

# MOE 2024.06 (io_trps.svl 2023.06)
