@<TRIPOS>MOLECULE
NONAME
44 44 1 0 0 
SMALL
USER_CHARGES


@<TRIPOS>ATOM
  1 O        1.8480    -0.4380     0.9040 O.3   1 <1>  -0.6800 
  2 C        1.2210    -0.4720    -0.3410 C.3   1 <1>   0.2000 
  3 C        1.0470    -1.9450    -0.7690 C.3   1 <1>   0.3430 
  4 C        2.0570     0.3510    -1.3400 C.3   1 <1>   0.2090 
  5 N        0.7120    -2.7970     0.4180 N.4   1 <1>  -0.9590 
  6 N        2.2290     1.7640    -0.8730 N.pl3 1 <1>  -0.8690 
  7 C        1.1530    -4.2130     0.2500 C.3   1 <1>   0.2630 
  8 C       -0.7270    -2.7040     0.8090 C.3   1 <1>   0.2630 
  9 C        3.2110     2.2700    -0.1090 C.ar  1 <1>   0.4100 
 10 N        4.0410     1.3860     0.4570 N.ar  1 <1>  -0.6200 
 11 C        3.3580     3.6540     0.1030 C.ar  1 <1>  -0.1440 
 12 C        5.0130     1.8360     1.1930 C.ar  1 <1>   0.5280 
 13 C        4.3940     4.0720     0.8930 C.ar  1 <1>   0.2110 
 14 C        2.3670     4.6240    -0.5560 C.3   1 <1>  -0.0160 
 15 N        5.2170     3.1470     1.4290 N.ar  1 <1>  -0.1790 
 16 C        5.9610     0.8360     1.8240 C.3   1 <1>  -0.0970 
 17 C        2.6140     6.1140    -0.2710 C.3   1 <1>  -0.1600 
 18 C        1.5720     6.9890    -0.9740 C.3   1 <1>  -0.2400 
 19 H        2.4260     0.3680     0.9130 H     1 <1>   0.4000 
 20 H        0.2540    -0.0110    -0.2330 H     1 <1>   0.0800 
 21 H        1.9800    -2.2800    -1.1920 H     1 <1>   0.0800 
 22 H        0.2880    -2.0310    -1.5290 H     1 <1>   0.0800 
 23 H        1.5700     0.3610    -2.3010 H     1 <1>   0.0800 
 24 H        3.0230    -0.1080    -1.4710 H     1 <1>   0.0800 
 25 H        1.2660    -2.3530     1.1810 H     1 <1>   0.4500 
 26 H        1.5540     2.4150    -1.2910 H     1 <1>   0.4000 
 27 H        0.6140    -4.6820    -0.5570 H     1 <1>   0.0800 
 28 H        0.9720    -4.7700     1.1550 H     1 <1>   0.0800 
 29 H        2.2080    -4.2530     0.0310 H     1 <1>   0.0800 
 30 H       -1.3560    -3.0950     0.0270 H     1 <1>   0.0800 
 31 H       -0.9970    -1.6770     0.9940 H     1 <1>   0.0800 
 32 H       -0.9040    -3.2690     1.7100 H     1 <1>   0.0800 
 33 H        4.5870     5.1100     1.1070 H     1 <1>   0.1500 
 34 H        1.3730     4.3770    -0.2230 H     1 <1>   0.0800 
 35 H        2.3990     4.4750    -1.6220 H     1 <1>   0.0800 
 36 H        6.0020     3.4260     2.0210 H     1 <1>   0.4570 
 37 H        5.6780    -0.1650     1.5510 H     1 <1>   0.0800 
 38 H        5.9310     0.9130     2.8950 H     1 <1>   0.0800 
 39 H        6.9660     1.0050     1.4800 H     1 <1>   0.0800 
 40 H        3.5910     6.4000    -0.6230 H     1 <1>   0.0800 
 41 H        2.5570     6.3020     0.7880 H     1 <1>   0.0800 
 42 H        1.6120     6.8490    -2.0400 H     1 <1>   0.0800 
 43 H        1.7610     8.0280    -0.7640 H     1 <1>   0.0800 
 44 H        0.5790     6.7520    -0.6310 H     1 <1>   0.0800 
@<TRIPOS>BOND
  1   1   2  1   
  2   1  19  1   
  3   2   3  1   
  4   2   4  1   
  5   2  20  1   
  6   3   5  1   
  7   3  21  1   
  8   3  22  1   
  9   4   6  1   
 10   4  23  1   
 11   4  24  1   
 12   5   7  1   
 13   5   8  1   
 14   5  25  1   
 15   6   9  1   
 16   6  26  1   
 17   7  27  1   
 18   7  28  1   
 19   7  29  1   
 20   8  30  1   
 21   8  31  1   
 22   8  32  1   
 23   9  10  ar  
 24   9  11  ar  
 25  10  12  ar  
 26  11  13  ar  
 27  11  14  1   
 28  12  15  ar  
 29  12  16  1   
 30  13  15  ar  
 31  13  33  1   
 32  14  17  1   
 33  14  34  1   
 34  14  35  1   
 35  15  36  1   
 36  16  37  1   
 37  16  38  1   
 38  16  39  1   
 39  17  18  1   
 40  17  40  1   
 41  17  41  1   
 42  18  42  1   
 43  18  43  1   
 44  18  44  1   
@<TRIPOS>SUBSTRUCTURE
  1 ****   9 GROUP 4 **** **** 0

# MOE 2024.06 (io_trps.svl 2023.06)
