@<TRIPOS>MOLECULE
NONAME
51 55 1 0 0 
SMALL
USER_CHARGES


@<TRIPOS>ATOM
  1 O       -1.6360     0.3750     2.7430 O.2   1 <1>  -0.5700 
  2 C       -1.7870     0.8890     1.6500 C.2   1 <1>   0.5440 
  3 N       -2.2550     0.1010     0.6240 N.am  1 <1>  -0.6600 
  4 C       -1.5370     2.3040     1.4810 C.ar  1 <1>   0.0860 
  5 C       -2.6730     0.5760    -0.7170 C.3   1 <1>   0.1400 
  6 C       -2.5140    -1.3520     0.7660 C.3   1 <1>   0.1400 
  7 C       -0.5820     2.8030     0.5890 C.ar  1 <1>   0.0820 
  8 C       -2.2730     3.2250     2.2300 C.ar  1 <1>  -0.1500 
  9 C       -3.6200    -0.5120    -1.2150 C.3   1 <1>   0.2000 
 10 C       -3.0470    -1.7980    -0.6030 C.3   1 <1>  -0.0800 
 11 O        0.1570     1.9410    -0.1570 O.3   1 <1>  -0.3630 
 12 C       -0.3840     4.1820     0.4670 C.ar  1 <1>   0.0820 
 13 C       -2.0870     4.5880     2.0960 C.ar  1 <1>  -0.1500 
 14 O       -4.8760    -0.2620    -0.6820 O.3   1 <1>  -0.6800 
 15 C       -4.0420    -2.9770    -0.5410 C.3   1 <1>  -0.0170 
 16 C        0.9440     2.4620    -1.2120 C.3   1 <1>   0.1200 
 17 O        0.5590     4.6860    -0.3680 O.3   1 <1>  -0.3630 
 18 C       -1.1400     5.0690     1.2080 C.ar  1 <1>  -0.1500 
 19 C       -3.4820    -4.3340    -0.0950 C.ar  1 <1>  -0.1430 
 20 C        1.5690     3.7980    -0.7990 C.3   1 <1>   0.1200 
 21 C       -4.3700    -5.4150     0.1350 C.ar  1 <1>   0.0000 
 22 C       -2.1500    -4.5800     0.0890 C.ar  1 <1>  -0.1500 
 23 C       -3.8200    -6.6510     0.5550 C.ar  1 <1>   0.3100 
 24 C       -5.7740    -5.3440    -0.0340 C.ar  1 <1>  -0.1500 
 25 C       -1.7100    -5.8430     0.5050 C.ar  1 <1>   0.1600 
 26 N       -2.4910    -6.8480     0.7360 N.ar  1 <1>  -0.6200 
 27 C       -4.6810    -7.7350     0.7960 C.ar  1 <1>  -0.1500 
 28 C       -6.5850    -6.4190     0.2070 C.ar  1 <1>  -0.1500 
 29 C       -6.0350    -7.6310     0.6290 C.ar  1 <1>  -0.1500 
 30 H       -3.1510     1.5400    -0.6760 H     1 <1>   0.0800 
 31 H       -1.8070     0.6270    -1.3540 H     1 <1>   0.0800 
 32 H       -1.6080    -1.8650     1.0390 H     1 <1>   0.0800 
 33 H       -3.2500    -1.5020     1.5380 H     1 <1>   0.0800 
 34 H       -3.0010     2.8520     2.9310 H     1 <1>   0.1500 
 35 H       -3.7020    -0.5460    -2.2880 H     1 <1>   0.0800 
 36 H       -2.2080    -2.0830    -1.2120 H     1 <1>   0.0800 
 37 H       -2.6720     5.2760     2.6820 H     1 <1>   0.1500 
 38 H       -4.7730    -0.0760     0.2740 H     1 <1>   0.4000 
 39 H       -4.4760    -3.1020    -1.5180 H     1 <1>   0.0800 
 40 H       -4.8370    -2.7070     0.1320 H     1 <1>   0.0800 
 41 H        1.7050     1.7400    -1.4460 H     1 <1>   0.0800 
 42 H        0.3080     2.5970    -2.0690 H     1 <1>   0.0800 
 43 H       -0.9810     6.1260     1.0950 H     1 <1>   0.1500 
 44 H        2.0830     4.2540    -1.6260 H     1 <1>   0.0800 
 45 H        2.2600     3.6550     0.0130 H     1 <1>   0.0800 
 46 H       -1.3910    -3.8400    -0.0720 H     1 <1>   0.1500 
 47 H       -6.2240    -4.4260    -0.3620 H     1 <1>   0.1500 
 48 H       -0.6520    -5.9860     0.6410 H     1 <1>   0.1500 
 49 H       -4.2340    -8.6570     1.1170 H     1 <1>   0.1500 
 50 H       -7.6510    -6.3470     0.0750 H     1 <1>   0.1500 
 51 H       -6.6820    -8.4710     0.8160 H     1 <1>   0.1500 
@<TRIPOS>BOND
  1   1   2  2   
  2   2   3  am  
  3   2   4  1   
  4   3   5  1   
  5   3   6  1   
  6   4   7  ar  
  7   4   8  ar  
  8   5   9  1   
  9   5  30  1   
 10   5  31  1   
 11   6  10  1   
 12   6  32  1   
 13   6  33  1   
 14   7  11  1   
 15   7  12  ar  
 16   8  13  ar  
 17   8  34  1   
 18   9  10  1   
 19   9  14  1   
 20   9  35  1   
 21  10  15  1   
 22  10  36  1   
 23  11  16  1   
 24  12  17  1   
 25  12  18  ar  
 26  13  18  ar  
 27  13  37  1   
 28  14  38  1   
 29  15  19  1   
 30  15  39  1   
 31  15  40  1   
 32  16  20  1   
 33  16  41  1   
 34  16  42  1   
 35  17  20  1   
 36  18  43  1   
 37  19  21  ar  
 38  19  22  ar  
 39  20  44  1   
 40  20  45  1   
 41  21  23  ar  
 42  21  24  ar  
 43  22  25  ar  
 44  22  46  1   
 45  23  26  ar  
 46  23  27  ar  
 47  24  28  ar  
 48  24  47  1   
 49  25  26  ar  
 50  25  48  1   
 51  27  29  ar  
 52  27  49  1   
 53  28  29  ar  
 54  28  50  1   
 55  29  51  1   
@<TRIPOS>SUBSTRUCTURE
  1 ****   6 GROUP 4 **** **** 0

# MOE 2024.06 (io_trps.svl 2023.06)
