@<TRIPOS>MOLECULE
NONAME
49 52 1 0 0 
SMALL
USER_CHARGES


@<TRIPOS>ATOM
  1 O        0.5080     0.3020    -0.6310 O.2   1 <1>  -0.5700 
  2 C        1.6160    -0.0080    -0.2010 C.2   1 <1>   0.6900 
  3 N        2.6290     0.8410     0.0470 N.am  1 <1>  -0.4200 
  4 N        2.0610    -1.2520     0.1250 N.am  1 <1>  -0.2980 
  5 C        3.6470     0.0560     0.5370 C.2   1 <1>   0.4490 
  6 C        2.5860     2.3170     0.0610 C.3   1 <1>   0.1400 
  7 N        3.3520    -1.1850     0.5940 N.2   1 <1>  -0.5120 
  8 C        1.3190    -2.5230     0.0380 C.3   1 <1>   0.0600 
  9 C        4.9730     0.6810     0.9320 C.3   1 <1>  -0.0990 
 10 C        4.0140     2.8920     0.1070 C.3   1 <1>  -0.0190 
 11 C        4.8510     2.1940     1.2020 C.3   1 <1>  -0.1600 
 12 C        3.9680     4.3990     0.3260 C.2   1 <1>   0.5690 
 13 O        3.2190     4.8380     1.1650 O.2   1 <1>  -0.5700 
 14 N        4.7970     5.1850    -0.4260 N.am  1 <1>  -0.4940 
 15 C        4.8950     6.5980    -0.4390 C.2   1 <1>  -0.0880 
 16 N        6.0610     7.3020    -0.3900 N.pl3 1 <1>   0.3140 
 17 C        3.8990     7.5160    -0.5100 C.2   1 <1>  -0.1810 
 18 N        5.8310     8.6380    -0.4440 N.2   1 <1>  -0.7070 
 19 C        7.4320     6.7340    -0.2370 C.3   1 <1>   0.1760 
 20 C        4.5410     8.7480    -0.5070 C.2   1 <1>   0.1390 
 21 C        2.3980     7.3080    -0.5800 C.3   1 <1>  -0.0590 
 22 C        8.1720     7.2540     0.9960 C.3   1 <1>  -0.1600 
 23 C        8.3640     7.0830    -1.3980 C.3   1 <1>  -0.1600 
 24 C        9.6510     6.9970     0.6980 C.3   1 <1>  -0.1600 
 25 C        9.7810     6.9440    -0.8310 C.3   1 <1>  -0.1600 
 26 H        2.0310     2.6270     0.9310 H     1 <1>   0.0800 
 27 H        2.0650     2.6680    -0.8130 H     1 <1>   0.0800 
 28 H        0.3330    -2.3440    -0.3520 H     1 <1>   0.0800 
 29 H        1.2440    -2.9570     1.0180 H     1 <1>   0.0800 
 30 H        1.8460    -3.1970    -0.6120 H     1 <1>   0.0800 
 31 H        5.6640     0.5140     0.1260 H     1 <1>   0.0800 
 32 H        5.3530     0.1790     1.8030 H     1 <1>   0.0800 
 33 H        4.4690     2.7070    -0.8490 H     1 <1>   0.0800 
 34 H        5.8340     2.6290     1.2560 H     1 <1>   0.0800 
 35 H        4.3740     2.3460     2.1560 H     1 <1>   0.0800 
 36 H        5.4220     4.6970    -1.0670 H     1 <1>   0.3700 
 37 H        7.3620     5.6650    -0.1600 H     1 <1>   0.0800 
 38 H        4.0340     9.6970    -0.5540 H     1 <1>   0.1500 
 39 H        2.1720     6.3380    -0.9820 H     1 <1>   0.0800 
 40 H        1.9470     8.0560    -1.2070 H     1 <1>   0.0800 
 41 H        1.9790     7.3770     0.4080 H     1 <1>   0.0800 
 42 H        7.8500     6.7610     1.8960 H     1 <1>   0.0800 
 43 H        8.0150     8.3160     1.0930 H     1 <1>   0.0800 
 44 H        8.2060     8.1090    -1.6890 H     1 <1>   0.0800 
 45 H        8.2070     6.4420    -2.2470 H     1 <1>   0.0800 
 46 H        9.9500     6.0520     1.1180 H     1 <1>   0.0800 
 47 H       10.2670     7.7730     1.1190 H     1 <1>   0.0800 
 48 H       10.4100     7.7400    -1.1930 H     1 <1>   0.0800 
 49 H       10.2120     6.0020    -1.1270 H     1 <1>   0.0800 
@<TRIPOS>BOND
  1   1   2  2   
  2   2   3  am  
  3   2   4  am  
  4   3   5  1   
  5   3   6  1   
  6   4   7  1   
  7   4   8  1   
  8   5   7  2   
  9   5   9  1   
 10   6  10  1   
 11   6  26  1   
 12   6  27  1   
 13   8  28  1   
 14   8  29  1   
 15   8  30  1   
 16   9  11  1   
 17   9  31  1   
 18   9  32  1   
 19  10  11  1   
 20  10  12  1   
 21  10  33  1   
 22  11  34  1   
 23  11  35  1   
 24  12  13  2   
 25  12  14  am  
 26  14  15  1   
 27  14  36  1   
 28  15  16  1   
 29  15  17  2   
 30  16  18  1   
 31  16  19  1   
 32  17  20  1   
 33  17  21  1   
 34  18  20  2   
 35  19  22  1   
 36  19  23  1   
 37  19  37  1   
 38  20  38  1   
 39  21  39  1   
 40  21  40  1   
 41  21  41  1   
 42  22  24  1   
 43  22  42  1   
 44  22  43  1   
 45  23  25  1   
 46  23  44  1   
 47  23  45  1   
 48  24  25  1   
 49  24  46  1   
 50  24  47  1   
 51  25  48  1   
 52  25  49  1   
@<TRIPOS>SUBSTRUCTURE
  1 ****  12 GROUP 4 **** **** 0

# MOE 2024.06 (io_trps.svl 2023.06)
