@<TRIPOS>MOLECULE
NONAME
48 49 1 0 0 
SMALL
USER_CHARGES


@<TRIPOS>ATOM
  1 S        0.7990     0.1960     0.9780 S.o2  1 <1>   1.3330 
  2 O        1.1430    -1.1500     1.3820 O.2   1 <1>  -0.6500 
  3 O        0.6730     1.2320     1.9780 O.2   1 <1>  -0.6500 
  4 N       -0.6550     0.1170     0.1050 N.am  1 <1>  -0.8490 
  5 C        1.9790     0.7510    -0.2500 C.3   1 <1>  -0.0550 
  6 C       -1.8270     0.3230     0.9610 C.3   1 <1>   0.1160 
  7 C       -0.8090    -1.1210    -0.6650 C.3   1 <1>   0.1160 
  8 C        3.3780     1.0290     0.3270 C.3   1 <1>  -0.0800 
  9 C        4.3640     1.4760    -0.7430 C.3   1 <1>   0.2200 
 10 C        4.0710    -0.1840     0.9390 C.3   1 <1>   0.1200 
 11 N        4.4850     2.9480    -0.7350 N.am  1 <1>  -0.7300 
 12 C        5.6710     0.7740    -0.3670 C.3   1 <1>   0.1200 
 13 O        5.4280     0.0920     0.8230 O.3   1 <1>  -0.5600 
 14 C        3.8210     3.7870    -1.5700 C.2   1 <1>   0.5690 
 15 O        3.0550     3.3660    -2.4040 O.2   1 <1>  -0.5700 
 16 C        4.0250     5.2930    -1.4540 C.3   1 <1>   0.1810 
 17 O        5.0300     5.6100    -0.4980 O.3   1 <1>  -0.3630 
 18 C        5.3820     6.8960    -0.2530 C.ar  1 <1>   0.0820 
 19 C        6.3920     7.1010     0.6750 C.ar  1 <1>  -0.1500 
 20 C        4.7920     7.9930    -0.8750 C.ar  1 <1>  -0.1500 
 21 C        6.8180     8.3810     0.9890 C.ar  1 <1>  -0.1440 
 22 C        5.2160     9.2730    -0.5640 C.ar  1 <1>  -0.1500 
 23 C        6.2250     9.4660     0.3640 C.ar  1 <1>  -0.1500 
 24 C        7.9250     8.6020     2.0040 C.3   1 <1>  -0.0970 
 25 H        2.0540     0.0170    -1.0280 H     1 <1>   0.0800 
 26 H        1.6120     1.6580    -0.6940 H     1 <1>   0.0800 
 27 H       -2.7290     0.2850     0.3740 H     1 <1>   0.0800 
 28 H       -1.7740     1.2910     1.4310 H     1 <1>   0.0800 
 29 H       -1.8690    -0.4330     1.7280 H     1 <1>   0.0800 
 30 H       -1.7030    -1.0740    -1.2640 H     1 <1>   0.0800 
 31 H       -0.8730    -1.9710    -0.0050 H     1 <1>   0.0800 
 32 H        0.0320    -1.2560    -1.3230 H     1 <1>   0.0800 
 33 H        3.3030     1.7790     1.0970 H     1 <1>   0.0800 
 34 H        4.0600     1.1420    -1.7220 H     1 <1>   0.0800 
 35 H        3.8650    -1.0860     0.3880 H     1 <1>   0.0800 
 36 H        3.8240    -0.3230     1.9780 H     1 <1>   0.0800 
 37 H        5.0760     3.3580    -0.0050 H     1 <1>   0.3700 
 38 H        6.4830     1.4630    -0.2120 H     1 <1>   0.0800 
 39 H        5.9400     0.0480    -1.1140 H     1 <1>   0.0800 
 40 H        3.1050     5.7520    -1.1430 H     1 <1>   0.0800 
 41 H        4.3290     5.6830    -2.4070 H     1 <1>   0.0800 
 42 H        6.8430     6.2480     1.1470 H     1 <1>   0.1500 
 43 H        4.0070     7.8780    -1.5980 H     1 <1>   0.1500 
 44 H        4.7620    10.1230    -1.0430 H     1 <1>   0.1500 
 45 H        6.5480    10.4650     0.5980 H     1 <1>   0.1500 
 46 H        7.6590     9.4020     2.6720 H     1 <1>   0.0800 
 47 H        8.8370     8.8610     1.4970 H     1 <1>   0.0800 
 48 H        8.0930     7.7140     2.5860 H     1 <1>   0.0800 
@<TRIPOS>BOND
  1   1   2  2   
  2   1   3  2   
  3   1   4  am  
  4   1   5  1   
  5   4   6  1   
  6   4   7  1   
  7   5   8  1   
  8   5  25  1   
  9   5  26  1   
 10   6  27  1   
 11   6  28  1   
 12   6  29  1   
 13   7  30  1   
 14   7  31  1   
 15   7  32  1   
 16   8   9  1   
 17   8  10  1   
 18   8  33  1   
 19   9  11  1   
 20   9  12  1   
 21   9  34  1   
 22  10  13  1   
 23  10  35  1   
 24  10  36  1   
 25  11  14  am  
 26  11  37  1   
 27  12  13  1   
 28  12  38  1   
 29  12  39  1   
 30  14  15  2   
 31  14  16  1   
 32  16  17  1   
 33  16  40  1   
 34  16  41  1   
 35  17  18  1   
 36  18  19  ar  
 37  18  20  ar  
 38  19  21  ar  
 39  19  42  1   
 40  20  22  ar  
 41  20  43  1   
 42  21  23  ar  
 43  21  24  1   
 44  22  23  ar  
 45  22  44  1   
 46  23  45  1   
 47  24  46  1   
 48  24  47  1   
 49  24  48  1   
@<TRIPOS>SUBSTRUCTURE
  1 ****  11 GROUP 4 **** **** 0

# MOE 2024.06 (io_trps.svl 2023.06)
