@<TRIPOS>MOLECULE
NONAME
40 42 1 0 0 
SMALL
USER_CHARGES


@<TRIPOS>ATOM
  1 F       -1.0590    -0.2870    -0.0320 F     1 <1>  -0.1900 
  2 C       -2.2230    -0.8150    -0.3430 C.ar  1 <1>   0.1900 
  3 C       -3.3960    -0.5490     0.3530 C.ar  1 <1>   0.3920 
  4 C       -2.2780    -1.6750    -1.4060 C.ar  1 <1>   0.1600 
  5 O       -3.5140     0.2720     1.4230 O.3   1 <1>  -0.3630 
  6 N       -4.5260    -1.1130    -0.0090 N.ar  1 <1>  -0.6200 
  7 N       -3.4050    -2.2450    -1.7740 N.ar  1 <1>  -0.6200 
  8 C       -2.4700     1.0630     1.9460 C.3   1 <1>   0.0400 
  9 C       -4.4870    -1.9320    -1.0590 C.ar  1 <1>   0.7200 
 10 N       -5.6740    -2.5170    -1.4440 N.pl3 1 <1>  -0.8380 
 11 C       -6.9510    -2.2760    -0.6980 C.3   1 <1>   0.2090 
 12 C       -5.7020    -3.8710    -2.0850 C.3   1 <1>   0.2090 
 13 C       -7.1490    -3.3360     0.4030 C.3   1 <1>   0.2090 
 14 C       -5.9040    -4.9800    -1.0300 C.3   1 <1>   0.2090 
 15 N       -7.0810    -4.7350    -0.1300 N.pl3 1 <1>  -0.8380 
 16 C       -8.2850    -5.3230    -0.4680 C.ar  1 <1>   0.4100 
 17 N       -8.7000    -5.1270    -1.7150 N.ar  1 <1>  -0.6200 
 18 C       -9.0030    -6.0650     0.4800 C.ar  1 <1>  -0.1430 
 19 C       -9.8590    -5.6760    -2.0320 C.ar  1 <1>   0.1600 
 20 C      -10.2100    -6.6250     0.1230 C.ar  1 <1>  -0.1500 
 21 C       -8.4670    -6.2640     1.8920 C.3   1 <1>  -0.0970 
 22 C      -10.6420    -6.4200    -1.1710 C.ar  1 <1>  -0.1500 
 23 H       -1.3850    -1.8990    -1.9620 H     1 <1>   0.1500 
 24 H       -2.8680     1.6450     2.7580 H     1 <1>   0.0800 
 25 H       -2.1050     1.7180     1.1750 H     1 <1>   0.0800 
 26 H       -1.6890     0.4200     2.3110 H     1 <1>   0.0800 
 27 H       -7.7760    -2.3360    -1.3870 H     1 <1>   0.0800 
 28 H       -6.9650    -1.2920    -0.2650 H     1 <1>   0.0800 
 29 H       -4.7990    -4.0620    -2.6350 H     1 <1>   0.0800 
 30 H       -6.5160    -3.9080    -2.7870 H     1 <1>   0.0800 
 31 H       -8.1030    -3.1770     0.8720 H     1 <1>   0.0800 
 32 H       -6.3860    -3.2060     1.1510 H     1 <1>   0.0800 
 33 H       -5.0160    -5.0500    -0.4280 H     1 <1>   0.0800 
 34 H       -6.0320    -5.9220    -1.5350 H     1 <1>   0.0800 
 35 H      -10.2050    -5.5230    -3.0400 H     1 <1>   0.1500 
 36 H      -10.7970    -7.2010     0.8160 H     1 <1>   0.1500 
 37 H       -7.4650    -6.6540     1.8470 H     1 <1>   0.0800 
 38 H       -9.0770    -6.9520     2.4470 H     1 <1>   0.0800 
 39 H       -8.4450    -5.3230     2.4090 H     1 <1>   0.0800 
 40 H      -11.5760    -6.8340    -1.5060 H     1 <1>   0.1500 
@<TRIPOS>BOND
  1   1   2  1   
  2   2   3  ar  
  3   2   4  ar  
  4   3   5  1   
  5   3   6  ar  
  6   4   7  ar  
  7   4  23  1   
  8   5   8  1   
  9   6   9  ar  
 10   7   9  ar  
 11   8  24  1   
 12   8  25  1   
 13   8  26  1   
 14   9  10  1   
 15  10  11  1   
 16  10  12  1   
 17  11  13  1   
 18  11  27  1   
 19  11  28  1   
 20  12  14  1   
 21  12  29  1   
 22  12  30  1   
 23  13  15  1   
 24  13  31  1   
 25  13  32  1   
 26  14  15  1   
 27  14  33  1   
 28  14  34  1   
 29  15  16  1   
 30  16  17  ar  
 31  16  18  ar  
 32  17  19  ar  
 33  18  20  ar  
 34  18  21  1   
 35  19  22  ar  
 36  19  35  1   
 37  20  22  ar  
 38  20  36  1   
 39  21  37  1   
 40  21  38  1   
 41  21  39  1   
 42  22  40  1   
@<TRIPOS>SUBSTRUCTURE
  1 ****  10 GROUP 4 **** **** 0

# MOE 2024.06 (io_trps.svl 2023.06)
