@<TRIPOS>MOLECULE
NONAME
48 50 1 0 0 
SMALL
USER_CHARGES


@<TRIPOS>ATOM
  1 O       -0.0860    -0.0880     0.4360 O.2   1 <1>  -0.5700 
  2 C        0.9950    -0.5480     0.1230 C.2   1 <1>   0.7150 
  3 N        2.0480     0.2810    -0.1550 N.am  1 <1>  -0.4940 
  4 C        1.2320    -1.9690     0.0600 C.2   1 <1>  -0.2370 
  5 C        2.1110     1.6930    -0.2380 C.2   1 <1>  -0.0880 
  6 N        0.4460    -2.9260     0.6790 N.pl3 1 <1>   0.0480 
  7 C        2.2380    -2.6230    -0.5960 C.2   1 <1>  -0.1500 
  8 N        3.1300     2.4430     0.2610 N.pl3 1 <1>   0.3140 
  9 C        1.2420     2.5680    -0.8020 C.2   1 <1>  -0.1810 
 10 C        0.9730    -4.1670     0.4090 C.ar  1 <1>  -0.1520 
 11 C       -0.7490    -2.6790     1.5150 C.3   1 <1>   0.0160 
 12 C        2.0980    -4.0020    -0.3880 C.ar  1 <1>   0.0000 
 13 N        2.9410     3.7610     0.0320 N.2   1 <1>  -0.7070 
 14 C        4.3020     1.9620     1.0180 C.3   1 <1>   0.0960 
 15 C        1.8090     3.8210    -0.5980 C.2   1 <1>   0.1390 
 16 C       -0.0690     2.3010    -1.5160 C.3   1 <1>  -0.0590 
 17 C        0.5680    -5.4520     0.7890 C.ar  1 <1>  -0.1500 
 18 C        2.8320    -5.1170    -0.8100 C.ar  1 <1>  -0.1500 
 19 C        5.4050     1.4670     0.0700 C.3   1 <1>  -0.1600 
 20 C        1.2970    -6.5400     0.3690 C.ar  1 <1>  -0.1500 
 21 C        2.4350    -6.3790    -0.4330 C.ar  1 <1>  -0.1430 
 22 C        6.6030     0.9170     0.8530 C.3   1 <1>  -0.1600 
 23 C        3.2060    -7.6100    -0.8720 C.3   1 <1>  -0.0970 
 24 C        7.6950     0.4170    -0.0960 C.3   1 <1>  -0.2400 
 25 H        2.9260    -0.2200    -0.2660 H     1 <1>   0.3700 
 26 H        3.0260    -2.2040    -1.1970 H     1 <1>   0.1500 
 27 H       -0.5190    -1.9340     2.2540 H     1 <1>   0.0800 
 28 H       -1.0530    -3.5820     2.0080 H     1 <1>   0.0800 
 29 H       -1.5480    -2.3240     0.8900 H     1 <1>   0.0800 
 30 H        3.9830     1.1730     1.6730 H     1 <1>   0.0800 
 31 H        4.6700     2.7750     1.6170 H     1 <1>   0.0800 
 32 H        1.3670     4.7470    -0.9250 H     1 <1>   0.1500 
 33 H       -0.0750     1.3070    -1.9260 H     1 <1>   0.0800 
 34 H       -0.2080     3.0040    -2.3170 H     1 <1>   0.0800 
 35 H       -0.8850     2.3910    -0.8210 H     1 <1>   0.0800 
 36 H       -0.3040    -5.5890     1.4020 H     1 <1>   0.1500 
 37 H        3.6980    -4.9610    -1.4260 H     1 <1>   0.1500 
 38 H        5.7280     2.2900    -0.5460 H     1 <1>   0.0800 
 39 H        5.0140     0.6970    -0.5700 H     1 <1>   0.0800 
 40 H        0.9950    -7.5320     0.6560 H     1 <1>   0.1500 
 41 H        6.2860     0.1040     1.4850 H     1 <1>   0.0800 
 42 H        7.0110     1.6900     1.4830 H     1 <1>   0.0800 
 43 H        4.0550    -7.3370    -1.4730 H     1 <1>   0.0800 
 44 H        2.5680    -8.2530    -1.4520 H     1 <1>   0.0800 
 45 H        3.5550    -8.1490    -0.0100 H     1 <1>   0.0800 
 46 H        7.3210    -0.3760    -0.7200 H     1 <1>   0.0800 
 47 H        8.5300     0.0400     0.4690 H     1 <1>   0.0800 
 48 H        8.0440     1.2180    -0.7240 H     1 <1>   0.0800 
@<TRIPOS>BOND
  1   1   2  2   
  2   2   3  am  
  3   2   4  1   
  4   3   5  1   
  5   3  25  1   
  6   4   6  1   
  7   4   7  2   
  8   5   8  1   
  9   5   9  2   
 10   6  10  1   
 11   6  11  1   
 12   7  12  1   
 13   7  26  1   
 14   8  13  1   
 15   8  14  1   
 16   9  15  1   
 17   9  16  1   
 18  10  12  ar  
 19  10  17  ar  
 20  11  27  1   
 21  11  28  1   
 22  11  29  1   
 23  12  18  ar  
 24  13  15  2   
 25  14  19  1   
 26  14  30  1   
 27  14  31  1   
 28  15  32  1   
 29  16  33  1   
 30  16  34  1   
 31  16  35  1   
 32  17  20  ar  
 33  17  36  1   
 34  18  21  ar  
 35  18  37  1   
 36  19  22  1   
 37  19  38  1   
 38  19  39  1   
 39  20  21  ar  
 40  20  40  1   
 41  21  23  1   
 42  22  24  1   
 43  22  41  1   
 44  22  42  1   
 45  23  43  1   
 46  23  44  1   
 47  23  45  1   
 48  24  46  1   
 49  24  47  1   
 50  24  48  1   
@<TRIPOS>SUBSTRUCTURE
  1 ****   4 GROUP 4 **** **** 0

# MOE 2024.06 (io_trps.svl 2023.06)
