@<TRIPOS>MOLECULE
NONAME
59 63 1 0 0 
SMALL
USER_CHARGES


@<TRIPOS>ATOM
  1 F        0.5250    -1.3000     1.4060 F     1 <1>  -0.1900 
  2 C        0.7310    -1.3540     0.1100 C.ar  1 <1>   0.1900 
  3 C        0.0830    -2.3340    -0.6510 C.ar  1 <1>   0.1000 
  4 C        1.5910    -0.4250    -0.4400 C.ar  1 <1>  -0.1500 
  5 N       -0.7960    -3.2930    -0.1280 N.pl3 1 <1>  -0.8380 
  6 C        0.3410    -2.3410    -2.0160 C.ar  1 <1>  -0.1500 
  7 C        1.8270    -0.4580    -1.8050 C.ar  1 <1>  -0.1500 
  8 C       -2.0730    -2.7540     0.3850 C.3   1 <1>   0.2090 
  9 C       -0.1650    -4.3000     0.7540 C.3   1 <1>   0.2090 
 10 C        1.2010    -1.4160    -2.5880 C.ar  1 <1>  -0.1500 
 11 C       -3.0670    -3.9090     0.4530 C.3   1 <1>  -0.1600 
 12 C       -1.1040    -5.4990     0.8220 C.3   1 <1>  -0.1600 
 13 C       -2.4890    -5.0480     1.3000 C.3   1 <1>   0.4230 
 14 N       -3.4500    -6.1810     1.3410 N.4   1 <1>  -0.9060 
 15 C       -3.6940    -6.9240     0.0690 C.3   1 <1>   0.4230 
 16 C       -5.1240    -7.4540     0.0930 C.3   1 <1>  -0.0800 
 17 C       -2.9140    -8.2340     0.1140 C.3   1 <1>   0.1200 
 18 C       -4.9870    -8.7850     0.8550 C.3   1 <1>   0.1200 
 19 C       -5.6830    -7.6600    -1.3310 C.3   1 <1>  -0.0170 
 20 O       -3.6160    -8.9760     1.0530 O.3   1 <1>  -0.5600 
 21 C       -7.1370    -8.1160    -1.2770 C.ar  1 <1>  -0.1430 
 22 C       -8.2020    -7.2280    -0.9880 C.ar  1 <1>   0.0000 
 23 C       -7.4520    -9.4260    -1.5000 C.ar  1 <1>  -0.1500 
 24 C       -9.5070    -7.7730    -0.9020 C.ar  1 <1>   0.3100 
 25 C       -8.0540    -5.8350    -0.7860 C.ar  1 <1>  -0.1500 
 26 C       -8.7810    -9.8580    -1.4100 C.ar  1 <1>   0.1600 
 27 N       -9.7760    -9.0850    -1.1150 N.ar  1 <1>  -0.6200 
 28 C      -10.5790    -6.9250    -0.5850 C.ar  1 <1>  -0.1500 
 29 C       -9.1230    -5.0350    -0.4850 C.ar  1 <1>  -0.1500 
 30 C      -10.4010    -5.5850    -0.3770 C.ar  1 <1>  -0.1500 
 31 H        2.0660     0.3090     0.1860 H     1 <1>   0.1500 
 32 H       -0.1400    -3.0790    -2.6300 H     1 <1>   0.1500 
 33 H        2.4940     0.2560    -2.2560 H     1 <1>   0.1500 
 34 H       -1.9220    -2.3160     1.3590 H     1 <1>   0.0800 
 35 H       -2.4350    -1.9870    -0.2800 H     1 <1>   0.0800 
 36 H        0.7880    -4.5940     0.3440 H     1 <1>   0.0800 
 37 H        0.0010    -3.8800     1.7330 H     1 <1>   0.0800 
 38 H        1.3840    -1.4420    -3.6480 H     1 <1>   0.1500 
 39 H       -3.2580    -4.2290    -0.5550 H     1 <1>   0.0800 
 40 H       -3.9820    -3.5470     0.8840 H     1 <1>   0.0800 
 41 H       -0.6890    -6.2210     1.5020 H     1 <1>   0.0800 
 42 H       -1.1470    -5.9230    -0.1640 H     1 <1>   0.0800 
 43 H       -2.3700    -4.6690     2.3030 H     1 <1>   0.0800 
 44 H       -4.3440    -5.8400     1.7020 H     1 <1>   0.4500 
 45 H       -3.1350    -6.8960     2.0140 H     1 <1>   0.4500 
 46 H       -3.4760    -6.3250    -0.8000 H     1 <1>   0.0800 
 47 H       -5.7840    -6.7900     0.6220 H     1 <1>   0.0800 
 48 H       -1.8920    -8.1280     0.4280 H     1 <1>   0.0800 
 49 H       -2.9520    -8.7540    -0.8280 H     1 <1>   0.0800 
 50 H       -5.3670    -9.6260     0.2990 H     1 <1>   0.0800 
 51 H       -5.4670    -8.7530     1.8190 H     1 <1>   0.0800 
 52 H       -5.0990    -8.3970    -1.8570 H     1 <1>   0.0800 
 53 H       -5.6200    -6.7500    -1.9020 H     1 <1>   0.0800 
 54 H       -6.7060   -10.1600    -1.7430 H     1 <1>   0.1500 
 55 H       -7.0870    -5.3830    -0.8780 H     1 <1>   0.1500 
 56 H       -8.9870   -10.8990    -1.5920 H     1 <1>   0.1500 
 57 H      -11.5550    -7.3690    -0.5140 H     1 <1>   0.1500 
 58 H       -9.0010    -3.9750    -0.3330 H     1 <1>   0.1500 
 59 H      -11.2350    -4.9470    -0.1370 H     1 <1>   0.1500 
@<TRIPOS>BOND
  1   1   2  1   
  2   2   3  ar  
  3   2   4  ar  
  4   3   5  1   
  5   3   6  ar  
  6   4   7  ar  
  7   4  31  1   
  8   5   8  1   
  9   5   9  1   
 10   6  10  ar  
 11   6  32  1   
 12   7  10  ar  
 13   7  33  1   
 14   8  11  1   
 15   8  34  1   
 16   8  35  1   
 17   9  12  1   
 18   9  36  1   
 19   9  37  1   
 20  10  38  1   
 21  11  13  1   
 22  11  39  1   
 23  11  40  1   
 24  12  13  1   
 25  12  41  1   
 26  12  42  1   
 27  13  14  1   
 28  13  43  1   
 29  14  15  1   
 30  14  44  1   
 31  14  45  1   
 32  15  16  1   
 33  15  17  1   
 34  15  46  1   
 35  16  18  1   
 36  16  19  1   
 37  16  47  1   
 38  17  20  1   
 39  17  48  1   
 40  17  49  1   
 41  18  20  1   
 42  18  50  1   
 43  18  51  1   
 44  19  21  1   
 45  19  52  1   
 46  19  53  1   
 47  21  22  ar  
 48  21  23  ar  
 49  22  24  ar  
 50  22  25  ar  
 51  23  26  ar  
 52  23  54  1   
 53  24  27  ar  
 54  24  28  ar  
 55  25  29  ar  
 56  25  55  1   
 57  26  27  ar  
 58  26  56  1   
 59  28  30  ar  
 60  28  57  1   
 61  29  30  ar  
 62  29  58  1   
 63  30  59  1   
@<TRIPOS>SUBSTRUCTURE
  1 ****  15 GROUP 4 **** **** 0

# MOE 2024.06 (io_trps.svl 2023.06)
