@<TRIPOS>MOLECULE
NONAME
50 53 1 0 0 
SMALL
USER_CHARGES


@<TRIPOS>ATOM
  1 O       -1.1220    -1.0560     1.8110 O.2   1 <1>  -0.5700 
  2 C       -2.1430    -1.4630     1.3010 C.2   1 <1>   0.6900 
  3 N       -3.1940    -0.6470     0.9560 N.am  1 <1>  -0.4770 
  4 N       -2.2580    -2.7830     1.0650 N.am  1 <1>  -0.4900 
  5 C       -4.3370    -1.1650     0.3290 C.ar  1 <1>   0.4270 
  6 C       -3.0950     0.8230     1.2340 C.3   1 <1>   0.0600 
  7 C       -3.3500    -3.3680     0.5210 C.2   1 <1>   0.5440 
  8 N       -5.2640    -0.2690    -0.0010 N.ar  1 <1>  -0.6200 
  9 C       -4.4540    -2.5480     0.0770 C.ar  1 <1>   0.0860 
 10 O       -3.3170    -4.5770     0.4700 O.2   1 <1>  -0.5700 
 11 C       -6.3350    -0.7090    -0.6130 C.ar  1 <1>   0.1660 
 12 C       -5.6080    -3.0090    -0.5850 C.ar  1 <1>   0.0860 
 13 C       -6.5380    -2.0360    -0.9170 C.ar  1 <1>  -0.1500 
 14 C       -7.3680     0.3340    -0.9860 C.3   1 <1>  -0.0960 
 15 C       -5.9360    -4.3700    -0.9770 C.2   1 <1>   0.5440 
 16 O       -6.4350    -4.5700    -2.0670 O.2   1 <1>  -0.5700 
 17 N       -5.7810    -5.4380    -0.1470 N.am  1 <1>  -0.7300 
 18 C       -6.0750    -6.8430    -0.5160 C.3   1 <1>   0.2200 
 19 C       -7.3250    -7.3240     0.2030 C.3   1 <1>  -0.0800 
 20 C       -4.9820    -7.8110    -0.0510 C.3   1 <1>   0.1200 
 21 C       -6.9590    -8.7510     0.5910 C.3   1 <1>   0.1200 
 22 C       -8.5910    -7.2080    -0.6590 C.3   1 <1>  -0.0170 
 23 O       -5.5890    -8.7190     0.8200 O.3   1 <1>  -0.5600 
 24 C       -9.8010    -7.7760     0.0650 C.ar  1 <1>  -0.1440 
 25 C      -10.3520    -8.9970    -0.2700 C.ar  1 <1>  -0.1500 
 26 C      -10.4090    -7.0970     1.1010 C.ar  1 <1>  -0.1500 
 27 C      -11.4510    -9.4670     0.4300 C.ar  1 <1>   0.1600 
 28 C      -11.5050    -7.6570     1.7370 C.ar  1 <1>   0.1600 
 29 N      -12.0400    -8.8270     1.4270 N.ar  1 <1>  -0.6200 
 30 H       -1.4830    -3.3720     1.3540 H     1 <1>   0.3700 
 31 H       -3.9360     1.1350     1.8290 H     1 <1>   0.0800 
 32 H       -3.1050     1.3650     0.3050 H     1 <1>   0.0800 
 33 H       -2.1930     1.0670     1.7660 H     1 <1>   0.0800 
 34 H       -7.4400    -2.3270    -1.4290 H     1 <1>   0.1500 
 35 H       -8.2050    -0.1080    -1.4940 H     1 <1>   0.0800 
 36 H       -6.9200     1.0690    -1.6310 H     1 <1>   0.0800 
 37 H       -7.7210     0.8250    -0.0980 H     1 <1>   0.0800 
 38 H       -5.0620    -5.3560     0.5830 H     1 <1>   0.3700 
 39 H       -6.1800    -6.9350    -1.5840 H     1 <1>   0.0800 
 40 H       -7.4570    -6.7690     1.1150 H     1 <1>   0.0800 
 41 H       -4.1850    -7.3130     0.4730 H     1 <1>   0.0800 
 42 H       -4.5860    -8.3640    -0.8830 H     1 <1>   0.0800 
 43 H       -7.1460    -9.4420    -0.2140 H     1 <1>   0.0800 
 44 H       -7.4630    -9.0780     1.4840 H     1 <1>   0.0800 
 45 H       -8.4490    -7.7260    -1.5920 H     1 <1>   0.0800 
 46 H       -8.7680    -6.1720    -0.8910 H     1 <1>   0.0800 
 47 H       -9.9390    -9.5870    -1.0670 H     1 <1>   0.1500 
 48 H      -10.0400    -6.1400     1.4200 H     1 <1>   0.1500 
 49 H      -11.8680   -10.4200     0.1550 H     1 <1>   0.1500 
 50 H      -11.9660    -7.1130     2.5440 H     1 <1>   0.1500 
@<TRIPOS>BOND
  1   1   2  2   
  2   2   3  am  
  3   2   4  am  
  4   3   5  1   
  5   3   6  1   
  6   4   7  am  
  7   4  30  1   
  8   5   8  ar  
  9   5   9  ar  
 10   6  31  1   
 11   6  32  1   
 12   6  33  1   
 13   7   9  1   
 14   7  10  2   
 15   8  11  ar  
 16   9  12  ar  
 17  11  13  ar  
 18  11  14  1   
 19  12  13  ar  
 20  12  15  1   
 21  13  34  1   
 22  14  35  1   
 23  14  36  1   
 24  14  37  1   
 25  15  16  2   
 26  15  17  am  
 27  17  18  1   
 28  17  38  1   
 29  18  19  1   
 30  18  20  1   
 31  18  39  1   
 32  19  21  1   
 33  19  22  1   
 34  19  40  1   
 35  20  23  1   
 36  20  41  1   
 37  20  42  1   
 38  21  23  1   
 39  21  43  1   
 40  21  44  1   
 41  22  24  1   
 42  22  45  1   
 43  22  46  1   
 44  24  25  ar  
 45  24  26  ar  
 46  25  27  ar  
 47  25  47  1   
 48  26  28  ar  
 49  26  48  1   
 50  27  29  ar  
 51  27  49  1   
 52  28  29  ar  
 53  28  50  1   
@<TRIPOS>SUBSTRUCTURE
  1 ****  17 GROUP 4 **** **** 0

# MOE 2024.06 (io_trps.svl 2023.06)
