@<TRIPOS>MOLECULE
NONAME
47 49 1 0 0 
SMALL
USER_CHARGES


@<TRIPOS>ATOM
  1 O       -0.0120    -2.9760     1.8320 O.2   1 <1>  -0.5700 
  2 C       -0.2600    -2.8520     0.6480 C.2   1 <1>   0.5440 
  3 N        0.7740    -2.5850    -0.2080 N.am  1 <1>  -0.7300 
  4 C       -1.6160    -2.9940     0.1660 C.ar  1 <1>   0.0860 
  5 C        2.1900    -2.4330     0.1810 C.3   1 <1>   0.1400 
  6 C       -2.5850    -3.6140     0.9570 C.ar  1 <1>   0.1600 
  7 C       -2.0350    -2.5340    -1.0820 C.ar  1 <1>  -0.1500 
  8 C        3.0540    -3.1820    -0.8270 C.3   1 <1>  -0.2400 
  9 N       -3.8500    -3.8180     0.6300 N.ar  1 <1>  -0.6200 
 10 C       -3.3460    -2.7350    -1.4400 C.ar  1 <1>  -0.1500 
 11 C       -4.2160    -3.3780    -0.5690 C.ar  1 <1>   0.4100 
 12 N       -5.5230    -3.5800    -0.9270 N.pl3 1 <1>  -0.8380 
 13 C       -6.0000    -4.9990    -0.9490 C.3   1 <1>   0.2090 
 14 C       -6.5400    -2.7790    -0.1950 C.3   1 <1>   0.2090 
 15 C       -6.9930    -5.1350     0.2150 C.3   1 <1>   0.4240 
 16 C       -7.6520    -3.7560     0.1800 C.3   1 <1>  -0.1600 
 17 O       -6.2720    -5.1790     1.3960 O.3   1 <1>  -0.6800 
 18 C       -7.9350    -6.3630     0.1440 C.ar  1 <1>  -0.1440 
 19 C       -7.4620    -7.6760     0.0000 C.ar  1 <1>  -0.1430 
 20 C       -9.3150    -6.1780     0.2260 C.ar  1 <1>  -0.1500 
 21 C       -8.3600    -8.7300    -0.0960 C.ar  1 <1>  -0.1500 
 22 C       -5.9840    -8.0510    -0.0430 C.3   1 <1>  -0.0970 
 23 C      -10.2000    -7.2360     0.1350 C.ar  1 <1>  -0.1500 
 24 C       -9.7220    -8.5170    -0.0330 C.ar  1 <1>  -0.1500 
 25 H        0.5970    -2.5330    -1.2110 H     1 <1>   0.3700 
 26 H        2.3490    -2.8320     1.1700 H     1 <1>   0.0800 
 27 H        2.4480    -1.3870     0.1900 H     1 <1>   0.0800 
 28 H       -2.2800    -3.9670     1.9290 H     1 <1>   0.1500 
 29 H       -1.3590    -2.0290    -1.7470 H     1 <1>   0.1500 
 30 H        2.7970    -4.2260    -0.8310 H     1 <1>   0.0800 
 31 H        4.0890    -3.0890    -0.5510 H     1 <1>   0.0800 
 32 H        2.9270    -2.7720    -1.8130 H     1 <1>   0.0800 
 33 H       -3.7260    -2.4040    -2.3880 H     1 <1>   0.1500 
 34 H       -5.1770    -5.6820    -0.8540 H     1 <1>   0.0800 
 35 H       -6.5070    -5.1850    -1.8790 H     1 <1>   0.0800 
 36 H       -6.9120    -1.9840    -0.8180 H     1 <1>   0.0800 
 37 H       -6.1060    -2.3550     0.6960 H     1 <1>   0.0800 
 38 H       -8.3850    -3.7230    -0.6050 H     1 <1>   0.0800 
 39 H       -8.1220    -3.5020     1.1120 H     1 <1>   0.0800 
 40 H       -5.4560    -4.6350     1.2510 H     1 <1>   0.4000 
 41 H       -9.7420    -5.2040     0.3710 H     1 <1>   0.1500 
 42 H       -8.0010    -9.7370    -0.2160 H     1 <1>   0.1500 
 43 H       -5.4150    -7.4710     0.6590 H     1 <1>   0.0800 
 44 H       -5.5930    -7.9060    -1.0330 H     1 <1>   0.0800 
 45 H       -5.8480    -9.0840     0.2210 H     1 <1>   0.0800 
 46 H      -11.2590    -7.0600     0.1970 H     1 <1>   0.1500 
 47 H      -10.4040    -9.3460    -0.1080 H     1 <1>   0.1500 
@<TRIPOS>BOND
  1   1   2  2   
  2   2   3  am  
  3   2   4  1   
  4   3   5  1   
  5   3  25  1   
  6   4   6  ar  
  7   4   7  ar  
  8   5   8  1   
  9   5  26  1   
 10   5  27  1   
 11   6   9  ar  
 12   6  28  1   
 13   7  10  ar  
 14   7  29  1   
 15   8  30  1   
 16   8  31  1   
 17   8  32  1   
 18   9  11  ar  
 19  10  11  ar  
 20  10  33  1   
 21  11  12  1   
 22  12  13  1   
 23  12  14  1   
 24  13  15  1   
 25  13  34  1   
 26  13  35  1   
 27  14  16  1   
 28  14  36  1   
 29  14  37  1   
 30  15  16  1   
 31  15  17  1   
 32  15  18  1   
 33  16  38  1   
 34  16  39  1   
 35  17  40  1   
 36  18  19  ar  
 37  18  20  ar  
 38  19  21  ar  
 39  19  22  1   
 40  20  23  ar  
 41  20  41  1   
 42  21  24  ar  
 43  21  42  1   
 44  22  43  1   
 45  22  44  1   
 46  22  45  1   
 47  23  24  ar  
 48  23  46  1   
 49  24  47  1   
@<TRIPOS>SUBSTRUCTURE
  1 ****   9 GROUP 4 **** **** 0

# MOE 2024.06 (io_trps.svl 2023.06)
