@<TRIPOS>MOLECULE
NONAME
47 49 1 0 0 
SMALL
USER_CHARGES


@<TRIPOS>ATOM
  1 O       -0.7190     0.3980     1.6090 O.2   1 <1>  -0.5700 
  2 C       -1.6190     1.0000     1.0560 C.2   1 <1>   0.5440 
  3 N       -2.7340     0.3080     0.6530 N.am  1 <1>  -0.6600 
  4 C       -1.5110     2.4230     0.8180 C.ar  1 <1>   0.0860 
  5 C       -3.7660     0.8230    -0.2830 C.3   1 <1>   0.1400 
  6 C       -2.9340    -1.1390     0.8850 C.3   1 <1>   0.1400 
  7 C       -0.5900     2.9630    -0.0850 C.ar  1 <1>   0.1660 
  8 C       -2.3470     3.3090     1.4820 C.ar  1 <1>  -0.1500 
  9 C       -4.6820    -0.3710    -0.5900 C.3   1 <1>   0.2000 
 10 C       -3.8130    -1.5960    -0.2800 C.3   1 <1>  -0.0800 
 11 N       -0.4730     4.2520    -0.3630 N.ar  1 <1>  -0.6200 
 12 C        0.3700     2.0540    -0.8350 C.3   1 <1>  -0.0970 
 13 C       -2.2250     4.6520     1.2050 C.ar  1 <1>  -0.1500 
 14 O       -5.7780    -0.3630     0.2810 O.3   1 <1>  -0.5600 
 15 C       -4.6030    -2.8850     0.0130 C.3   1 <1>   0.0200 
 16 C       -1.2830     5.0720     0.2820 C.ar  1 <1>   0.1670 
 17 C       -6.8640     0.4020    -0.1370 C.3   1 <1>   0.0400 
 18 C       -3.7190    -4.1150     0.1390 C.2   1 <1>  -0.0400 
 19 C       -1.1290     6.5420    -0.0410 C.3   1 <1>  -0.0970 
 20 O       -4.2730    -5.2540     0.4600 O.3   1 <1>  -0.0190 
 21 C       -2.4030    -4.3330    -0.0150 C.2   1 <1>  -0.1500 
 22 N       -3.4020    -6.2190     0.5300 N.2   1 <1>  -0.4100 
 23 C       -2.2650    -5.6920     0.2500 C.2   1 <1>   0.1080 
 24 C       -0.9590    -6.4540     0.2160 C.3   1 <1>  -0.0590 
 25 H       -4.3130     1.6370     0.1570 H     1 <1>   0.0800 
 26 H       -3.2830     1.1550    -1.1850 H     1 <1>   0.0800 
 27 H       -1.9950    -1.6620     0.9160 H     1 <1>   0.0800 
 28 H       -3.4490    -1.2690     1.8220 H     1 <1>   0.0800 
 29 H       -3.0670     2.9460     2.1960 H     1 <1>   0.1500 
 30 H       -5.0350    -0.3760    -1.6070 H     1 <1>   0.0800 
 31 H       -3.1730    -1.7660    -1.1280 H     1 <1>   0.0800 
 32 H       -0.1540     1.2210    -1.2640 H     1 <1>   0.0800 
 33 H        1.1190     1.6870    -0.1570 H     1 <1>   0.0800 
 34 H        0.8600     2.5940    -1.6260 H     1 <1>   0.0800 
 35 H       -2.8560     5.3660     1.7040 H     1 <1>   0.1500 
 36 H       -5.3090    -3.0570    -0.7790 H     1 <1>   0.0800 
 37 H       -5.1620    -2.7700     0.9260 H     1 <1>   0.0800 
 38 H       -7.6250     0.3410     0.6210 H     1 <1>   0.0800 
 39 H       -7.2440     0.0040    -1.0620 H     1 <1>   0.0800 
 40 H       -6.5600     1.4270    -0.2600 H     1 <1>   0.0800 
 41 H       -1.8200     7.1400     0.5230 H     1 <1>   0.0800 
 42 H       -1.3050     6.6990    -1.0890 H     1 <1>   0.0800 
 43 H       -0.1270     6.8560     0.1910 H     1 <1>   0.0800 
 44 H       -1.6090    -3.6590    -0.2790 H     1 <1>   0.1500 
 45 H       -0.5240    -6.3890    -0.7640 H     1 <1>   0.0800 
 46 H       -1.1320    -7.4880     0.4530 H     1 <1>   0.0800 
 47 H       -0.2780    -6.0400     0.9360 H     1 <1>   0.0800 
@<TRIPOS>BOND
  1   1   2  2   
  2   2   3  am  
  3   2   4  1   
  4   3   5  1   
  5   3   6  1   
  6   4   7  ar  
  7   4   8  ar  
  8   5   9  1   
  9   5  25  1   
 10   5  26  1   
 11   6  10  1   
 12   6  27  1   
 13   6  28  1   
 14   7  11  ar  
 15   7  12  1   
 16   8  13  ar  
 17   8  29  1   
 18   9  10  1   
 19   9  14  1   
 20   9  30  1   
 21  10  15  1   
 22  10  31  1   
 23  11  16  ar  
 24  12  32  1   
 25  12  33  1   
 26  12  34  1   
 27  13  16  ar  
 28  13  35  1   
 29  14  17  1   
 30  15  18  1   
 31  15  36  1   
 32  15  37  1   
 33  16  19  1   
 34  17  38  1   
 35  17  39  1   
 36  17  40  1   
 37  18  20  1   
 38  18  21  2   
 39  19  41  1   
 40  19  42  1   
 41  19  43  1   
 42  20  22  1   
 43  21  23  1   
 44  21  44  1   
 45  22  23  2   
 46  23  24  1   
 47  24  45  1   
 48  24  46  1   
 49  24  47  1   
@<TRIPOS>SUBSTRUCTURE
  1 ****   3 GROUP 4 **** **** 0

# MOE 2024.06 (io_trps.svl 2023.06)
