@<TRIPOS>MOLECULE
NONAME
47 49 1 0 0 
SMALL
USER_CHARGES


@<TRIPOS>ATOM
  1 O       -2.3050    -0.2630    -2.8150 O.2   1 <1>  -0.5700 
  2 C       -2.3270    -0.7650    -1.7250 C.2   1 <1>   0.5690 
  3 N       -2.0820    -0.0230    -0.6320 N.am  1 <1>  -0.7300 
  4 C       -2.6730    -2.2220    -1.5820 C.3   1 <1>  -0.0190 
  5 C       -2.0810    -0.5160     0.7650 C.3   1 <1>   0.2200 
  6 C       -1.5150    -3.0250    -0.9450 C.3   1 <1>   0.1200 
  7 C       -4.0440    -2.3320    -0.9020 C.3   1 <1>   0.3430 
  8 C       -1.0160    -1.6280     0.9420 C.3   1 <1>   0.1200 
  9 C       -3.5130    -0.9490     1.1910 C.3   1 <1>   0.3430 
 10 O       -1.4350    -2.8760     0.4490 O.3   1 <1>  -0.5600 
 11 N       -3.9890    -2.2500     0.5980 N.4   1 <1>  -0.9590 
 12 C       -5.2210    -2.7710     1.2460 C.3   1 <1>   0.4860 
 13 C       -5.4150    -4.2110     0.8070 C.ar  1 <1>  -0.1430 
 14 C       -6.4970    -4.5980     0.0210 C.ar  1 <1>  -0.1430 
 15 C       -4.4690    -5.1540     1.1860 C.ar  1 <1>  -0.1500 
 16 C       -6.6020    -5.9190    -0.3830 C.ar  1 <1>  -0.1500 
 17 C       -7.5790    -3.6140    -0.4080 C.3   1 <1>  -0.0970 
 18 C       -4.5730    -6.4710     0.7790 C.ar  1 <1>  -0.1430 
 19 C       -5.6460    -6.8600    -0.0140 C.ar  1 <1>   0.0820 
 20 C       -3.5190    -7.4850     1.2030 C.3   1 <1>  -0.0970 
 21 O       -5.7060    -8.1640    -0.3940 O.3   1 <1>  -0.3620 
 22 C       -6.8130    -8.6890    -1.0930 C.3   1 <1>   0.0400 
 23 H       -1.7990     0.9490    -0.8030 H     1 <1>   0.3700 
 24 H       -2.7920    -2.5940    -2.5830 H     1 <1>   0.0800 
 25 H       -1.7900     0.3140     1.3870 H     1 <1>   0.0800 
 26 H       -0.5690    -2.7440    -1.3790 H     1 <1>   0.0800 
 27 H       -1.6660    -4.0740    -1.1350 H     1 <1>   0.0800 
 28 H       -4.4620    -3.2850    -1.1820 H     1 <1>   0.0800 
 29 H       -4.6970    -1.5660    -1.2890 H     1 <1>   0.0800 
 30 H       -0.8200    -1.7650     1.9910 H     1 <1>   0.0800 
 31 H       -0.0890    -1.3550     0.4670 H     1 <1>   0.0800 
 32 H       -4.2010    -0.1600     0.9380 H     1 <1>   0.0800 
 33 H       -3.5130    -1.0470     2.2640 H     1 <1>   0.0800 
 34 H       -3.2350    -2.9280     0.8280 H     1 <1>   0.4500 
 35 H       -5.1190    -2.7430     2.3190 H     1 <1>   0.0800 
 36 H       -6.0710    -2.1710     0.9680 H     1 <1>   0.0800 
 37 H       -3.6350    -4.8720     1.8060 H     1 <1>   0.1500 
 38 H       -7.4370    -6.2120    -0.9910 H     1 <1>   0.1500 
 39 H       -8.3290    -4.1040    -1.0040 H     1 <1>   0.0800 
 40 H       -7.1590    -2.8190    -0.9970 H     1 <1>   0.0800 
 41 H       -8.0680    -3.1990     0.4550 H     1 <1>   0.0800 
 42 H       -2.7510    -7.0310     1.8030 H     1 <1>   0.0800 
 43 H       -3.0610    -7.9210     0.3330 H     1 <1>   0.0800 
 44 H       -3.9810    -8.2700     1.7750 H     1 <1>   0.0800 
 45 H       -6.6510    -9.7430    -1.2300 H     1 <1>   0.0800 
 46 H       -6.8850    -8.2040    -2.0500 H     1 <1>   0.0800 
 47 H       -7.7020    -8.5300    -0.5090 H     1 <1>   0.0800 
@<TRIPOS>BOND
  1   1   2  2   
  2   2   3  am  
  3   2   4  1   
  4   3   5  1   
  5   3  23  1   
  6   4   6  1   
  7   4   7  1   
  8   4  24  1   
  9   5   8  1   
 10   5   9  1   
 11   5  25  1   
 12   6  10  1   
 13   6  26  1   
 14   6  27  1   
 15   7  11  1   
 16   7  28  1   
 17   7  29  1   
 18   8  10  1   
 19   8  30  1   
 20   8  31  1   
 21   9  11  1   
 22   9  32  1   
 23   9  33  1   
 24  11  12  1   
 25  11  34  1   
 26  12  13  1   
 27  12  35  1   
 28  12  36  1   
 29  13  14  ar  
 30  13  15  ar  
 31  14  16  ar  
 32  14  17  1   
 33  15  18  ar  
 34  15  37  1   
 35  16  19  ar  
 36  16  38  1   
 37  17  39  1   
 38  17  40  1   
 39  17  41  1   
 40  18  19  ar  
 41  18  20  1   
 42  19  21  1   
 43  20  42  1   
 44  20  43  1   
 45  20  44  1   
 46  21  22  1   
 47  22  45  1   
 48  22  46  1   
 49  22  47  1   
@<TRIPOS>SUBSTRUCTURE
  1 ****   7 GROUP 4 **** **** 0

# MOE 2024.06 (io_trps.svl 2023.06)
