@<TRIPOS>MOLECULE
NONAME
46 48 1 0 0 
SMALL
USER_CHARGES


@<TRIPOS>ATOM
  1 O       -0.0460    -0.7160    -0.5260 O.2   1 <1>  -0.5700 
  2 C        0.0930    -1.6230     0.2670 C.2   1 <1>   0.5690 
  3 N        1.0970    -1.6300     1.2060 N.am  1 <1>  -0.6600 
  4 C       -0.9350    -2.7660     0.1690 C.3   1 <1>   0.4040 
  5 C        2.0660    -0.4980     1.3100 C.3   1 <1>   0.0600 
  6 C        1.3590    -2.7200     2.1910 C.3   1 <1>   0.0600 
  7 N       -2.1770    -2.3600    -0.5900 N.4   1 <1>  -0.9590 
  8 C       -3.0230    -1.4220     0.2240 C.3   1 <1>   0.3430 
  9 C       -2.9600    -3.5080    -1.1190 C.3   1 <1>   0.3430 
 10 C       -4.1810    -0.8420    -0.6040 C.3   1 <1>   0.1430 
 11 C       -4.0990    -2.9860    -2.0000 C.3   1 <1>  -0.1600 
 12 C       -5.0620    -0.0280     0.3130 C.ar  1 <1>   0.1670 
 13 C       -4.9970    -1.9790    -1.2570 C.3   1 <1>  -0.1600 
 14 C       -3.7070     0.2130    -1.6410 C.3   1 <1>  -0.1600 
 15 N       -5.5010    -0.4390     1.4800 N.ar  1 <1>  -0.6200 
 16 C       -5.3430     1.1980    -0.2070 C.ar  1 <1>  -0.1430 
 17 C       -4.6910     1.3960    -1.5530 C.3   1 <1>  -0.0170 
 18 C       -6.2650     0.4450     2.1110 C.ar  1 <1>   0.4770 
 19 C       -6.1380     2.0350     0.5340 C.ar  1 <1>   0.1600 
 20 N       -6.6080     1.6610     1.7060 N.ar  1 <1>  -0.6200 
 21 C       -6.8090     0.0260     3.4550 C.3   1 <1>  -0.0970 
 22 H       -1.2010    -3.0860     1.1610 H     1 <1>   0.0800 
 23 H       -0.4570    -3.5860    -0.3370 H     1 <1>   0.0800 
 24 H        1.8250     0.2890     0.6150 H     1 <1>   0.0800 
 25 H        3.0610    -0.8470     1.0940 H     1 <1>   0.0800 
 26 H        2.0460    -0.0880     2.3050 H     1 <1>   0.0800 
 27 H        0.7280    -3.5740     2.0230 H     1 <1>   0.0800 
 28 H        1.1900    -2.3540     3.1890 H     1 <1>   0.0800 
 29 H        2.3850    -3.0380     2.1120 H     1 <1>   0.0800 
 30 H       -1.8180    -1.7960    -1.3810 H     1 <1>   0.4500 
 31 H       -2.4240    -0.6080     0.5990 H     1 <1>   0.0800 
 32 H       -3.4370    -1.9470     1.0700 H     1 <1>   0.0800 
 33 H       -3.3710    -4.0780    -0.3010 H     1 <1>   0.0800 
 34 H       -2.3240    -4.1570    -1.7020 H     1 <1>   0.0800 
 35 H       -4.6990    -3.8200    -2.3220 H     1 <1>   0.0800 
 36 H       -3.6860    -2.5360    -2.8860 H     1 <1>   0.0800 
 37 H       -5.7300    -1.5670    -1.9300 H     1 <1>   0.0800 
 38 H       -5.5370    -2.5040    -0.4850 H     1 <1>   0.0800 
 39 H       -3.6580    -0.1730    -2.6430 H     1 <1>   0.0800 
 40 H       -2.7290     0.5750    -1.3690 H     1 <1>   0.0800 
 41 H       -5.4370     1.3330    -2.3280 H     1 <1>   0.0800 
 42 H       -4.1820     2.3430    -1.6140 H     1 <1>   0.0800 
 43 H       -6.3930     3.0170     0.1710 H     1 <1>   0.1500 
 44 H       -6.7190    -1.0360     3.5850 H     1 <1>   0.0800 
 45 H       -7.8460     0.2980     3.5260 H     1 <1>   0.0800 
 46 H       -6.2620     0.5250     4.2310 H     1 <1>   0.0800 
@<TRIPOS>BOND
  1   1   2  2   
  2   2   3  am  
  3   2   4  1   
  4   3   5  1   
  5   3   6  1   
  6   4   7  1   
  7   4  22  1   
  8   4  23  1   
  9   5  24  1   
 10   5  25  1   
 11   5  26  1   
 12   6  27  1   
 13   6  28  1   
 14   6  29  1   
 15   7   8  1   
 16   7   9  1   
 17   7  30  1   
 18   8  10  1   
 19   8  31  1   
 20   8  32  1   
 21   9  11  1   
 22   9  33  1   
 23   9  34  1   
 24  10  12  1   
 25  10  13  1   
 26  10  14  1   
 27  11  13  1   
 28  11  35  1   
 29  11  36  1   
 30  12  15  ar  
 31  12  16  ar  
 32  13  37  1   
 33  13  38  1   
 34  14  17  1   
 35  14  39  1   
 36  14  40  1   
 37  15  18  ar  
 38  16  17  1   
 39  16  19  ar  
 40  17  41  1   
 41  17  42  1   
 42  18  20  ar  
 43  18  21  1   
 44  19  20  ar  
 45  19  43  1   
 46  21  44  1   
 47  21  45  1   
 48  21  46  1   
@<TRIPOS>SUBSTRUCTURE
  1 ****   8 GROUP 4 **** **** 0

# MOE 2024.06 (io_trps.svl 2023.06)
