@<TRIPOS>MOLECULE
NONAME
42 44 1 0 0 
SMALL
USER_CHARGES


@<TRIPOS>ATOM
  1 CL      -1.9820    -0.2610     1.7990 Cl    1 <1>  -0.1240 
  2 C       -2.5620    -1.2430     0.4790 C.2   1 <1>   0.2640 
  3 O       -3.2980    -2.2960     0.7660 O.3   1 <1>  -0.2800 
  4 C       -2.3810    -1.0950    -0.8480 C.2   1 <1>  -0.1500 
  5 C       -3.6110    -2.8630    -0.3880 C.2   1 <1>  -0.0400 
  6 C       -3.0780    -2.1690    -1.4230 C.2   1 <1>  -0.1500 
  7 C       -4.4750    -4.1100    -0.3550 C.3   1 <1>   0.5230 
  8 N       -5.6390    -3.8400     0.5320 N.4   1 <1>  -0.9590 
  9 C       -6.2480    -5.1360     1.0020 C.3   1 <1>   0.3430 
 10 C       -6.5710    -2.8660    -0.1290 C.3   1 <1>   0.3430 
 11 C       -7.5120    -4.9830     1.8750 C.3   1 <1>   0.1400 
 12 C       -7.4520    -2.1670     0.9100 C.3   1 <1>  -0.1600 
 13 N       -8.6150    -4.3730     1.0830 N.am  1 <1>  -0.6600 
 14 C       -8.7680    -2.9000     1.2050 C.3   1 <1>   0.1400 
 15 C       -9.1130    -5.0400    -0.0180 C.2   1 <1>   0.7150 
 16 O       -9.2110    -4.4180    -1.0590 O.2   1 <1>  -0.5700 
 17 C       -9.3840    -6.4530     0.0410 C.2   1 <1>  -0.0450 
 18 S       -9.0230    -7.4400    -1.3780 S.3   1 <1>  -0.0800 
 19 C       -9.8690    -7.2610     1.0180 C.2   1 <1>  -0.1500 
 20 C       -9.5420    -8.9090    -0.5820 C.2   1 <1>  -0.1400 
 21 C       -9.9570    -8.6400     0.6690 C.2   1 <1>  -0.1500 
 22 C       -9.4640   -10.1970    -1.3740 C.3   1 <1>  -0.0600 
 23 H       -1.8300    -0.3320    -1.3690 H     1 <1>   0.1500 
 24 H       -3.1420    -2.3560    -2.4830 H     1 <1>   0.1500 
 25 H       -3.8890    -4.9220     0.0430 H     1 <1>   0.0800 
 26 H       -4.8030    -4.3720    -1.3480 H     1 <1>   0.0800 
 27 H       -5.2290    -3.3450     1.3380 H     1 <1>   0.4500 
 28 H       -5.5130    -5.6820     1.5710 H     1 <1>   0.0800 
 29 H       -6.5070    -5.7410     0.1480 H     1 <1>   0.0800 
 30 H       -7.1790    -3.3570    -0.8720 H     1 <1>   0.0800 
 31 H       -5.9910    -2.1080    -0.6300 H     1 <1>   0.0800 
 32 H       -7.2970    -4.3840     2.7440 H     1 <1>   0.0800 
 33 H       -7.8170    -5.9540     2.2230 H     1 <1>   0.0800 
 34 H       -7.7140    -1.1960     0.5280 H     1 <1>   0.0800 
 35 H       -6.9050    -1.9980     1.8200 H     1 <1>   0.0800 
 36 H       -9.5230    -2.5640     0.5120 H     1 <1>   0.0800 
 37 H       -9.1150    -2.6540     2.1950 H     1 <1>   0.0800 
 38 H      -10.1830    -6.9250     1.9920 H     1 <1>   0.1500 
 39 H      -10.3320    -9.3680     1.3680 H     1 <1>   0.1500 
 40 H       -8.4480   -10.3870    -1.6700 H     1 <1>   0.0800 
 41 H      -10.0760   -10.1220    -2.2540 H     1 <1>   0.0800 
 42 H       -9.8130   -11.0210    -0.7780 H     1 <1>   0.0800 
@<TRIPOS>BOND
  1   1   2  1   
  2   2   3  1   
  3   2   4  2   
  4   3   5  1   
  5   4   6  1   
  6   4  23  1   
  7   5   6  2   
  8   5   7  1   
  9   6  24  1   
 10   7   8  1   
 11   7  25  1   
 12   7  26  1   
 13   8   9  1   
 14   8  10  1   
 15   8  27  1   
 16   9  11  1   
 17   9  28  1   
 18   9  29  1   
 19  10  12  1   
 20  10  30  1   
 21  10  31  1   
 22  11  13  1   
 23  11  32  1   
 24  11  33  1   
 25  12  14  1   
 26  12  34  1   
 27  12  35  1   
 28  13  14  1   
 29  13  15  am  
 30  14  36  1   
 31  14  37  1   
 32  15  16  2   
 33  15  17  1   
 34  17  18  1   
 35  17  19  2   
 36  18  20  1   
 37  19  21  1   
 38  19  38  1   
 39  20  21  2   
 40  20  22  1   
 41  21  39  1   
 42  22  40  1   
 43  22  41  1   
 44  22  42  1   
@<TRIPOS>SUBSTRUCTURE
  1 ****   9 GROUP 4 **** **** 0

# MOE 2024.06 (io_trps.svl 2023.06)
