@<TRIPOS>MOLECULE
NONAME
49 51 1 0 0 
SMALL
USER_CHARGES


@<TRIPOS>ATOM
  1 O        1.3120    -3.1940    -0.5070 O.3   1 <1>  -0.3630 
  2 C        0.0010    -3.2380    -0.7320 C.ar  1 <1>   0.3920 
  3 C        2.2450    -2.7130    -1.4550 C.3   1 <1>   0.0400 
  4 N       -0.4700    -2.8260    -1.9070 N.ar  1 <1>  -0.6200 
  5 C       -0.8040    -3.7200     0.2780 C.ar  1 <1>  -0.1500 
  6 C       -1.7690    -2.9020    -2.0660 C.ar  1 <1>   0.7710 
  7 C       -2.1630    -3.7800     0.0750 C.ar  1 <1>   0.4610 
  8 N       -2.6060    -3.3630    -1.1190 N.ar  1 <1>  -0.1790 
  9 N       -2.2500    -2.5090    -3.2450 N.pl3 1 <1>  -0.9000 
 10 N       -3.0500    -4.2750     0.9810 N.pl3 1 <1>  -0.8380 
 11 C       -2.9440    -5.6720     1.4880 C.3   1 <1>   0.2090 
 12 C       -4.3670    -3.6380     1.2750 C.3   1 <1>   0.2090 
 13 C       -4.2910    -6.4070     1.2250 C.3   1 <1>   0.4230 
 14 C       -5.5250    -4.5690     0.8410 C.3   1 <1>  -0.1600 
 15 N       -4.2490    -7.9110     1.4090 N.4   1 <1>  -0.9590 
 16 C       -5.0490    -5.8150    -0.0770 C.3   1 <1>   0.0000 
 17 C       -3.2860    -8.5860     0.5140 C.3   1 <1>   0.3430 
 18 C       -4.0330    -8.3280     2.8320 C.3   1 <1>   0.2630 
 19 C       -4.5430    -6.9970    -1.0560 C.3   1 <1>  -0.1600 
 20 C       -5.8770    -5.2050    -1.3110 C.3   1 <1>   0.1200 
 21 C       -3.2720    -7.8420    -0.8080 C.3   1 <1>  -0.1600 
 22 O       -5.1910    -4.1260    -1.8930 O.3   1 <1>  -0.6800 
 23 H        3.2290    -2.7810    -1.0270 H     1 <1>   0.0800 
 24 H        2.0140    -1.6870    -1.6840 H     1 <1>   0.0800 
 25 H        2.1870    -3.3180    -2.3430 H     1 <1>   0.0800 
 26 H       -0.3680    -4.0310     1.2080 H     1 <1>   0.1500 
 27 H       -3.5900    -3.5050    -1.3560 H     1 <1>   0.4570 
 28 H       -3.2260    -2.4710    -3.5410 H     1 <1>   0.4000 
 29 H       -1.5840    -2.1630    -3.9430 H     1 <1>   0.4000 
 30 H       -2.1210    -6.1650     1.0060 H     1 <1>   0.0800 
 31 H       -2.7490    -5.6450     2.5470 H     1 <1>   0.0800 
 32 H       -4.4370    -3.4260     2.3300 H     1 <1>   0.0800 
 33 H       -4.4410    -2.6940     0.7580 H     1 <1>   0.0800 
 34 H       -4.8650    -6.1250     2.0870 H     1 <1>   0.0800 
 35 H       -6.0800    -4.8900     1.7090 H     1 <1>   0.0800 
 36 H       -6.2310    -3.8540     0.4500 H     1 <1>   0.0800 
 37 H       -5.1810    -8.2500     1.1270 H     1 <1>   0.4500 
 38 H       -2.2950    -8.5860     0.9410 H     1 <1>   0.0800 
 39 H       -3.5900    -9.6100     0.3580 H     1 <1>   0.0800 
 40 H       -3.0590    -8.0180     3.1740 H     1 <1>   0.0800 
 41 H       -4.1000    -9.4010     2.9220 H     1 <1>   0.0800 
 42 H       -4.7810    -7.8880     3.4720 H     1 <1>   0.0800 
 43 H       -5.3560    -7.6960    -1.1860 H     1 <1>   0.0800 
 44 H       -4.2930    -6.6230    -2.0410 H     1 <1>   0.0800 
 45 H       -6.8690    -4.8780    -1.0410 H     1 <1>   0.0800 
 46 H       -6.1250    -5.8800    -2.1190 H     1 <1>   0.0800 
 47 H       -2.3980    -7.2190    -0.8660 H     1 <1>   0.0800 
 48 H       -3.1660    -8.5690    -1.5960 H     1 <1>   0.0800 
 49 H       -5.7560    -3.7640    -2.6170 H     1 <1>   0.4000 
@<TRIPOS>BOND
  1   1   2  1   
  2   1   3  1   
  3   2   4  ar  
  4   2   5  ar  
  5   3  23  1   
  6   3  24  1   
  7   3  25  1   
  8   4   6  ar  
  9   5   7  ar  
 10   5  26  1   
 11   6   8  ar  
 12   6   9  1   
 13   7   8  ar  
 14   7  10  1   
 15   8  27  1   
 16   9  28  1   
 17   9  29  1   
 18  10  11  1   
 19  10  12  1   
 20  11  13  1   
 21  11  30  1   
 22  11  31  1   
 23  12  14  1   
 24  12  32  1   
 25  12  33  1   
 26  13  15  1   
 27  13  16  1   
 28  13  34  1   
 29  14  16  1   
 30  14  35  1   
 31  14  36  1   
 32  15  17  1   
 33  15  18  1   
 34  15  37  1   
 35  16  19  1   
 36  16  20  1   
 37  17  21  1   
 38  17  38  1   
 39  17  39  1   
 40  18  40  1   
 41  18  41  1   
 42  18  42  1   
 43  19  21  1   
 44  19  43  1   
 45  19  44  1   
 46  20  22  1   
 47  20  45  1   
 48  20  46  1   
 49  21  47  1   
 50  21  48  1   
 51  22  49  1   
@<TRIPOS>SUBSTRUCTURE
  1 ****   7 GROUP 4 **** **** 0

# MOE 2024.06 (io_trps.svl 2023.06)
