@<TRIPOS>MOLECULE
NONAME
50 52 1 0 0 
SMALL
USER_CHARGES


@<TRIPOS>ATOM
  1 O        1.9810    -0.7340    -2.8150 O.2   1 <1>  -0.5700 
  2 C        2.3790    -1.1710    -1.7590 C.2   1 <1>   0.5690 
  3 N        3.2180    -0.4370    -0.9500 N.am  1 <1>  -0.6600 
  4 C        1.9280    -2.5810    -1.4060 C.3   1 <1>   0.0810 
  5 C        3.7980    -0.8970     0.3500 C.3   1 <1>   0.1400 
  6 C        3.5700     0.9660    -1.3070 C.3   1 <1>   0.1400 
  7 C        0.8070    -2.5920    -0.3810 C.2   1 <1>  -0.0400 
  8 C        5.3350    -0.8480     0.3730 C.3   1 <1>   0.1100 
  9 C        4.9820     0.9980    -1.8970 C.3   1 <1>  -0.1600 
 10 O        1.0610    -2.3760     0.8820 O.3   1 <1>  -0.0190 
 11 C       -0.5110    -2.8030    -0.5040 C.2   1 <1>  -0.1500 
 12 N        5.8340     0.5420     0.4490 N.3   1 <1>  -0.8100 
 13 C        6.1050     1.1600    -0.8630 C.3   1 <1>   0.1100 
 14 N       -0.0140    -2.4320     1.6100 N.2   1 <1>  -0.4100 
 15 C       -0.9800    -2.6860     0.8010 C.2   1 <1>   0.1080 
 16 C        6.9760     0.6610     1.4060 C.3   1 <1>   0.1710 
 17 C       -2.4250    -2.8340     1.2200 C.3   1 <1>  -0.0590 
 18 C        7.4350     2.0830     1.7580 C.2   1 <1>   0.5690 
 19 O        7.0960     2.5610     2.8170 O.2   1 <1>  -0.5700 
 20 N        8.2490     2.7300     0.8810 N.am  1 <1>  -0.4930 
 21 C        8.7900     4.0080     0.9220 C.2   1 <1>   0.3520 
 22 N        9.5050     4.4110    -0.0780 N.2   1 <1>  -0.7070 
 23 C        8.6760     4.9730     1.9180 C.2   1 <1>  -0.1500 
 24 N        9.8770     5.6640     0.2550 N.pl3 1 <1>   0.3140 
 25 C        9.3860     6.0230     1.4570 C.2   1 <1>  -0.3020 
 26 C       10.7140     6.4760    -0.6350 C.3   1 <1>   0.0160 
 27 H        2.7580    -3.1640    -1.0600 H     1 <1>   0.0800 
 28 H        1.5670    -3.0470    -2.3050 H     1 <1>   0.0800 
 29 H        3.5020    -1.9060     0.5570 H     1 <1>   0.0800 
 30 H        3.4140    -0.2830     1.1460 H     1 <1>   0.0800 
 31 H        3.5050     1.5990    -0.4380 H     1 <1>   0.0800 
 32 H        2.8730     1.3430    -2.0350 H     1 <1>   0.0800 
 33 H        5.7400    -1.3560    -0.4860 H     1 <1>   0.0800 
 34 H        5.6500    -1.3900     1.2480 H     1 <1>   0.0800 
 35 H        5.0450     1.8310    -2.5720 H     1 <1>   0.0800 
 36 H        5.1450     0.1140    -2.4870 H     1 <1>   0.0800 
 37 H       -1.0970    -3.0110    -1.3810 H     1 <1>   0.1500 
 38 H        6.2390     2.2170    -0.7100 H     1 <1>   0.0800 
 39 H        7.0180     0.7630    -1.2750 H     1 <1>   0.0800 
 40 H        7.8190     0.1140     1.0230 H     1 <1>   0.0800 
 41 H        6.6900     0.1990     2.3350 H     1 <1>   0.0800 
 42 H       -3.0290    -2.1090     0.7070 H     1 <1>   0.0800 
 43 H       -2.5180    -2.6770     2.2800 H     1 <1>   0.0800 
 44 H       -2.7750    -3.8210     0.9820 H     1 <1>   0.0800 
 45 H        8.4930     2.2610     0.0160 H     1 <1>   0.3700 
 46 H        8.1310     4.8670     2.8390 H     1 <1>   0.1500 
 47 H        9.5620     6.9820     1.9090 H     1 <1>   0.1500 
 48 H       11.6240     5.9430    -0.8380 H     1 <1>   0.0800 
 49 H       10.9380     7.4150    -0.1640 H     1 <1>   0.0800 
 50 H       10.1830     6.6450    -1.5530 H     1 <1>   0.0800 
@<TRIPOS>BOND
  1   1   2  2   
  2   2   3  am  
  3   2   4  1   
  4   3   5  1   
  5   3   6  1   
  6   4   7  1   
  7   4  27  1   
  8   4  28  1   
  9   5   8  1   
 10   5  29  1   
 11   5  30  1   
 12   6   9  1   
 13   6  31  1   
 14   6  32  1   
 15   7  10  1   
 16   7  11  2   
 17   8  12  1   
 18   8  33  1   
 19   8  34  1   
 20   9  13  1   
 21   9  35  1   
 22   9  36  1   
 23  10  14  1   
 24  11  15  1   
 25  11  37  1   
 26  12  13  1   
 27  12  16  1   
 28  13  38  1   
 29  13  39  1   
 30  14  15  2   
 31  15  17  1   
 32  16  18  1   
 33  16  40  1   
 34  16  41  1   
 35  17  42  1   
 36  17  43  1   
 37  17  44  1   
 38  18  19  2   
 39  18  20  am  
 40  20  21  1   
 41  20  45  1   
 42  21  22  2   
 43  21  23  1   
 44  22  24  1   
 45  23  25  2   
 46  23  46  1   
 47  24  25  1   
 48  24  26  1   
 49  25  47  1   
 50  26  48  1   
 51  26  49  1   
 52  26  50  1   
@<TRIPOS>SUBSTRUCTURE
  1 ****  12 GROUP 4 **** **** 0

# MOE 2024.06 (io_trps.svl 2023.06)
