@<TRIPOS>MOLECULE
NONAME
43 44 1 0 0 
SMALL
USER_CHARGES


@<TRIPOS>ATOM
  1 S       -0.2540     0.0280     0.1430 S.o2  1 <1>   1.3330 
  2 O       -0.4300    -0.3910     1.5150 O.2   1 <1>  -0.6500 
  3 O       -0.9520     1.1970    -0.3410 O.2   1 <1>  -0.6500 
  4 N       -0.6590    -1.2850    -0.8550 N.am  1 <1>  -0.8490 
  5 C        1.4910     0.2560    -0.2060 C.3   1 <1>  -0.0550 
  6 C       -2.0570    -1.2380    -1.2960 C.3   1 <1>   0.1160 
  7 C       -0.3730    -2.5890    -0.2460 C.3   1 <1>   0.1160 
  8 C        2.1220     1.4520     0.5380 C.3   1 <1>  -0.0800 
  9 C        3.5250     1.7350     0.0290 C.3   1 <1>   0.2200 
 10 C        2.3770     1.1350     2.0170 C.3   1 <1>   0.1200 
 11 N        3.8850     3.1370     0.3430 N.am  1 <1>  -0.7300 
 12 C        4.3620     0.7950     0.8880 C.3   1 <1>   0.1200 
 13 O        3.7030     0.7020     2.1160 O.3   1 <1>  -0.5600 
 14 C        4.3300     4.0640    -0.5450 C.2   1 <1>   0.7150 
 15 O        4.4080     3.7530    -1.7180 O.2   1 <1>  -0.5700 
 16 C        4.7030     5.3710    -0.0650 C.2   1 <1>  -0.2370 
 17 N        5.3280     6.3390    -0.8170 N.pl3 1 <1>   0.0480 
 18 C        4.5170     5.8960     1.1900 C.2   1 <1>  -0.1500 
 19 C        5.5180     7.4240    -0.0320 C.2   1 <1>  -0.3020 
 20 C        5.7440     6.2570    -2.2330 C.3   1 <1>   0.0160 
 21 C        5.0300     7.1950     1.2220 C.2   1 <1>   0.0190 
 22 C        5.0240     8.0750     2.3560 C.1   1 <1>   0.5380 
 23 N        5.0140     8.7660     3.2640 N.1   1 <1>  -0.5570 
 24 H        2.0240    -0.6420     0.0380 H     1 <1>   0.0800 
 25 H        1.5940     0.4200    -1.2610 H     1 <1>   0.0800 
 26 H       -2.2740    -2.0750    -1.9370 H     1 <1>   0.0800 
 27 H       -2.2380    -0.3340    -1.8530 H     1 <1>   0.0800 
 28 H       -2.7190    -1.2600    -0.4460 H     1 <1>   0.0800 
 29 H       -0.5600    -3.3770    -0.9560 H     1 <1>   0.0800 
 30 H       -0.9930    -2.7450     0.6220 H     1 <1>   0.0800 
 31 H        0.6590    -2.6410     0.0550 H     1 <1>   0.0800 
 32 H        1.4840     2.3120     0.4220 H     1 <1>   0.0800 
 33 H        3.6450     1.5380    -1.0230 H     1 <1>   0.0800 
 34 H        1.7340     0.3700     2.4140 H     1 <1>   0.0800 
 35 H        2.2810     2.0220     2.6180 H     1 <1>   0.0800 
 36 H        3.9420     3.3510     1.3370 H     1 <1>   0.3700 
 37 H        5.3650     1.1540     1.0410 H     1 <1>   0.0800 
 38 H        4.3910    -0.1900     0.4580 H     1 <1>   0.0800 
 39 H        4.0520     5.4170     2.0340 H     1 <1>   0.1500 
 40 H        5.9920     8.3200    -0.3910 H     1 <1>   0.1500 
 41 H        6.2520     7.1600    -2.5180 H     1 <1>   0.0800 
 42 H        4.8750     6.1250    -2.8510 H     1 <1>   0.0800 
 43 H        6.4040     5.4190    -2.3630 H     1 <1>   0.0800 
@<TRIPOS>BOND
  1   1   2  2   
  2   1   3  2   
  3   1   4  am  
  4   1   5  1   
  5   4   6  1   
  6   4   7  1   
  7   5   8  1   
  8   5  24  1   
  9   5  25  1   
 10   6  26  1   
 11   6  27  1   
 12   6  28  1   
 13   7  29  1   
 14   7  30  1   
 15   7  31  1   
 16   8   9  1   
 17   8  10  1   
 18   8  32  1   
 19   9  11  1   
 20   9  12  1   
 21   9  33  1   
 22  10  13  1   
 23  10  34  1   
 24  10  35  1   
 25  11  14  am  
 26  11  36  1   
 27  12  13  1   
 28  12  37  1   
 29  12  38  1   
 30  14  15  2   
 31  14  16  1   
 32  16  17  1   
 33  16  18  2   
 34  17  19  1   
 35  17  20  1   
 36  18  21  1   
 37  18  39  1   
 38  19  21  2   
 39  19  40  1   
 40  20  41  1   
 41  20  42  1   
 42  20  43  1   
 43  21  22  1   
 44  22  23  3   
@<TRIPOS>SUBSTRUCTURE
  1 ****  11 GROUP 4 **** **** 0

# MOE 2024.06 (io_trps.svl 2023.06)
