@<TRIPOS>MOLECULE
NONAME
49 52 1 0 0 
SMALL
USER_CHARGES


@<TRIPOS>ATOM
  1 O        1.6570    -0.4480     0.2010 O.2   1 <1>  -0.5700 
  2 C        2.2920    -1.0970    -0.6080 C.2   1 <1>   0.7150 
  3 N        3.2680    -0.4830    -1.3440 N.am  1 <1>  -0.4940 
  4 C        2.0130    -2.5020    -0.8130 C.2   1 <1>   0.0550 
  5 C        3.6500     0.8600    -1.4080 C.2   1 <1>   0.2500 
  6 O        1.1270    -3.1280    -0.0450 O.3   1 <1>  -0.2800 
  7 C        2.5020    -3.4080    -1.7080 C.2   1 <1>  -0.1500 
  8 N        4.0760     1.3560    -2.5260 N.2   1 <1>  -0.3380 
  9 N        3.6670     1.7780    -0.4130 N.pl3 1 <1>   0.3340 
 10 C        1.0280    -4.3840    -0.4150 C.2   1 <1>  -0.0400 
 11 C        1.8630    -4.6220    -1.4500 C.2   1 <1>  -0.1500 
 12 N        4.3710     2.6360    -2.3140 N.2   1 <1>  -0.3380 
 13 C        4.1300     2.8870    -1.0610 C.2   1 <1>   0.3120 
 14 C        3.4580     1.8340     0.9610 C.2   1 <1>  -0.1810 
 15 C        0.0620    -5.3010     0.3200 C.3   1 <1>   0.5230 
 16 N        4.3220     4.0980    -0.4310 N.2   1 <1>  -0.5760 
 17 C        3.6610     3.0190     1.5870 C.2   1 <1>  -0.1360 
 18 N       -1.3270    -4.7710     0.2020 N.4   1 <1>  -0.9590 
 19 C        4.0910     4.1490     0.8340 C.2   1 <1>   0.3750 
 20 C       -1.5720    -3.6480     1.1580 C.3   1 <1>   0.3430 
 21 C       -2.3440    -5.8510     0.3400 C.3   1 <1>   0.3430 
 22 C        4.2870     5.4610     1.5620 C.3   1 <1>  -0.1790 
 23 C       -2.9530    -3.0450     0.9000 C.3   1 <1>  -0.1600 
 24 C       -3.7370    -5.2850     0.0640 C.3   1 <1>  -0.1600 
 25 C       -4.0620    -4.1030     0.9880 C.3   1 <1>  -0.0800 
 26 C       -5.4200    -3.4920     0.6270 C.3   1 <1>  -0.2400 
 27 H        3.6230    -1.0200    -2.1320 H     1 <1>   0.3700 
 28 H        3.2380    -3.2590    -2.4810 H     1 <1>   0.1500 
 29 H        2.0350    -5.5380    -1.9930 H     1 <1>   0.1500 
 30 H        3.1460     0.9370     1.4610 H     1 <1>   0.1500 
 31 H        0.3470    -5.3750     1.3570 H     1 <1>   0.0800 
 32 H        0.1200    -6.2820    -0.1210 H     1 <1>   0.0800 
 33 H        3.5110     3.1390     2.6450 H     1 <1>   0.1500 
 34 H       -1.4050    -4.3710    -0.7420 H     1 <1>   0.4500 
 35 H       -0.8270    -2.8790     1.0400 H     1 <1>   0.0800 
 36 H       -1.5230    -4.0120     2.1720 H     1 <1>   0.0800 
 37 H       -2.3140    -6.2560     1.3390 H     1 <1>   0.0800 
 38 H       -2.1390    -6.6480    -0.3570 H     1 <1>   0.0800 
 39 H        3.3640     5.7700     2.0160 H     1 <1>   0.0800 
 40 H        4.6040     6.2230     0.8720 H     1 <1>   0.0800 
 41 H        5.0390     5.3500     2.3210 H     1 <1>   0.0800 
 42 H       -2.9570    -2.5770    -0.0690 H     1 <1>   0.0800 
 43 H       -3.1340    -2.2740     1.6290 H     1 <1>   0.0800 
 44 H       -4.4650    -6.0640     0.2130 H     1 <1>   0.0800 
 45 H       -3.7990    -4.9800    -0.9670 H     1 <1>   0.0800 
 46 H       -4.1160    -4.4620     2.0040 H     1 <1>   0.0800 
 47 H       -5.4180    -3.1140    -0.3810 H     1 <1>   0.0800 
 48 H       -5.6550    -2.6800     1.2940 H     1 <1>   0.0800 
 49 H       -6.1990    -4.2300     0.7130 H     1 <1>   0.0800 
@<TRIPOS>BOND
  1   1   2  2   
  2   2   3  am  
  3   2   4  1   
  4   3   5  1   
  5   3  27  1   
  6   4   6  1   
  7   4   7  2   
  8   5   8  2   
  9   5   9  1   
 10   6  10  1   
 11   7  11  1   
 12   7  28  1   
 13   8  12  1   
 14   9  13  1   
 15   9  14  1   
 16  10  11  2   
 17  10  15  1   
 18  11  29  1   
 19  12  13  2   
 20  13  16  1   
 21  14  17  2   
 22  14  30  1   
 23  15  18  1   
 24  15  31  1   
 25  15  32  1   
 26  16  19  2   
 27  17  19  1   
 28  17  33  1   
 29  18  20  1   
 30  18  21  1   
 31  18  34  1   
 32  19  22  1   
 33  20  23  1   
 34  20  35  1   
 35  20  36  1   
 36  21  24  1   
 37  21  37  1   
 38  21  38  1   
 39  22  39  1   
 40  22  40  1   
 41  22  41  1   
 42  23  25  1   
 43  23  42  1   
 44  23  43  1   
 45  24  25  1   
 46  24  44  1   
 47  24  45  1   
 48  25  26  1   
 49  25  46  1   
 50  26  47  1   
 51  26  48  1   
 52  26  49  1   
@<TRIPOS>SUBSTRUCTURE
  1 ****   1 GROUP 4 **** **** 0

# MOE 2024.06 (io_trps.svl 2023.06)
