@<TRIPOS>MOLECULE
NONAME
51 54 1 0 0 
SMALL
USER_CHARGES


@<TRIPOS>ATOM
  1 O       -0.2200     0.6520    -1.6130 O.3   1 <1>  -0.5600 
  2 C        0.9460     0.7830    -0.8760 C.3   1 <1>   0.2000 
  3 C       -0.4770    -0.6340    -2.1250 C.3   1 <1>   0.2640 
  4 C        0.5590     0.9350     0.5960 C.3   1 <1>  -0.1600 
  5 C        1.6590     2.0330    -1.3820 C.3   1 <1>  -0.1600 
  6 C       -0.7100    -1.6570    -1.0140 C.ar  1 <1>   0.1660 
  7 C        1.7770     1.2880     1.4370 C.3   1 <1>   0.3430 
  8 C        2.8500     2.3770    -0.4950 C.3   1 <1>   0.3430 
  9 N        0.3440    -2.3510    -0.5950 N.ar  1 <1>  -0.6200 
 10 C       -1.9900    -1.8120    -0.5020 C.ar  1 <1>  -0.1500 
 11 N        2.3950     2.5520     0.9210 N.4   1 <1>  -0.9590 
 12 C        0.1010    -3.2470     0.3510 C.ar  1 <1>   0.1600 
 13 C       -2.2230    -2.7380     0.4910 C.ar  1 <1>  -0.1500 
 14 C        3.4800     3.0240     1.8530 C.3   1 <1>   0.5110 
 15 C       -1.1400    -3.4740     0.9200 C.ar  1 <1>  -0.1500 
 16 C        3.9960     4.4390     1.5340 C.2   1 <1>   0.1820 
 17 N        4.9240     4.7580     0.5620 N.pl3 1 <1>  -0.7000 
 18 C        3.6540     5.5910     2.1490 C.2   1 <1>   0.2000 
 19 C        5.1360     6.0900     0.5960 C.cat 1 <1>   0.7910 
 20 N        4.3540     6.6230     1.5630 N.pl3 1 <1>  -0.6290 
 21 C        5.9960     6.9010    -0.1780 C.2   1 <1>  -0.1290 
 22 C        4.3800     7.9780     1.8130 C.2   1 <1>   0.2290 
 23 C        6.0210     8.2490     0.0680 C.2   1 <1>  -0.1500 
 24 C        6.8800     6.2960    -1.2640 C.3   1 <1>  -0.1020 
 25 C        5.1980     8.7860     1.0790 C.2   1 <1>  -0.1500 
 26 H        1.5780    -0.0800    -1.0200 H     1 <1>   0.0800 
 27 H        0.3480    -0.9340    -2.7470 H     1 <1>   0.0800 
 28 H       -1.3550    -0.5620    -2.7420 H     1 <1>   0.0800 
 29 H        0.1520     0.0080     0.9590 H     1 <1>   0.0800 
 30 H       -0.1960     1.6930     0.7050 H     1 <1>   0.0800 
 31 H        0.9740     2.8630    -1.4090 H     1 <1>   0.0800 
 32 H        2.0050     1.8550    -2.3850 H     1 <1>   0.0800 
 33 H        2.4890     0.4780     1.3900 H     1 <1>   0.0800 
 34 H        1.4690     1.4110     2.4640 H     1 <1>   0.0800 
 35 H        3.3020     3.2850    -0.8590 H     1 <1>   0.0800 
 36 H        3.5780     1.5820    -0.5530 H     1 <1>   0.0800 
 37 H       -2.7990    -1.2110    -0.8780 H     1 <1>   0.1500 
 38 H        1.6360     3.2480     0.9010 H     1 <1>   0.4500 
 39 H        0.9360    -3.8360     0.6920 H     1 <1>   0.1500 
 40 H       -3.2050    -2.8830     0.9090 H     1 <1>   0.1500 
 41 H        4.3070     2.3330     1.8310 H     1 <1>   0.0800 
 42 H        3.0920     3.0300     2.8590 H     1 <1>   0.0800 
 43 H       -1.2560    -4.2200     1.6850 H     1 <1>   0.1500 
 44 H        5.4700     4.1540    -0.0580 H     1 <1>   0.4500 
 45 H        2.9660     5.7610     2.9650 H     1 <1>   0.1500 
 46 H        3.7460     8.3730     2.5940 H     1 <1>   0.1500 
 47 H        6.6560     8.9210    -0.4900 H     1 <1>   0.1500 
 48 H        7.5640     5.5810    -0.8400 H     1 <1>   0.0800 
 49 H        7.4620     7.0600    -1.7500 H     1 <1>   0.0800 
 50 H        6.2800     5.8110    -2.0140 H     1 <1>   0.0800 
 51 H        5.2310     9.8480     1.2610 H     1 <1>   0.1500 
@<TRIPOS>BOND
  1   1   2  1   
  2   1   3  1   
  3   2   4  1   
  4   2   5  1   
  5   2  26  1   
  6   3   6  1   
  7   3  27  1   
  8   3  28  1   
  9   4   7  1   
 10   4  29  1   
 11   4  30  1   
 12   5   8  1   
 13   5  31  1   
 14   5  32  1   
 15   6   9  ar  
 16   6  10  ar  
 17   7  11  1   
 18   7  33  1   
 19   7  34  1   
 20   8  11  1   
 21   8  35  1   
 22   8  36  1   
 23   9  12  ar  
 24  10  13  ar  
 25  10  37  1   
 26  11  14  1   
 27  11  38  1   
 28  12  15  ar  
 29  12  39  1   
 30  13  15  ar  
 31  13  40  1   
 32  14  16  1   
 33  14  41  1   
 34  14  42  1   
 35  15  43  1   
 36  16  17  1   
 37  16  18  2   
 38  17  19  ar  
 39  17  44  1   
 40  18  20  1   
 41  18  45  1   
 42  19  20  ar  
 43  19  21  1   
 44  20  22  1   
 45  21  23  2   
 46  21  24  1   
 47  22  25  2   
 48  22  46  1   
 49  23  25  1   
 50  23  47  1   
 51  24  48  1   
 52  24  49  1   
 53  24  50  1   
 54  25  51  1   
@<TRIPOS>SUBSTRUCTURE
  1 ****  11 GROUP 4 **** **** 0

# MOE 2024.06 (io_trps.svl 2023.06)
