@<TRIPOS>MOLECULE
NONAME
50 52 1 0 0 
SMALL
USER_CHARGES


@<TRIPOS>ATOM
  1 CL       1.6100     0.8480    -2.8770 Cl    1 <1>  -0.1770 
  2 C        2.0550    -0.3690    -1.7110 C.ar  1 <1>   0.1770 
  3 C        2.8310    -0.0080    -0.6280 C.ar  1 <1>  -0.1500 
  4 C        1.6210    -1.6670    -1.8920 C.ar  1 <1>  -0.1500 
  5 C        3.1830    -0.9860     0.2940 C.ar  1 <1>   0.0830 
  6 C        1.9550    -2.6620    -0.9730 C.ar  1 <1>   0.0860 
  7 O        3.9410    -0.7460     1.3910 O.3   1 <1>  -0.3630 
  8 C        2.7520    -2.2890     0.1100 C.ar  1 <1>  -0.1500 
  9 C        1.4900    -4.0290    -1.1450 C.2   1 <1>   0.5440 
 10 C        4.5100     0.5240     1.6280 C.3   1 <1>   0.0400 
 11 O        1.1390    -4.4390    -2.2350 O.2   1 <1>  -0.5700 
 12 N        1.3580    -4.8970    -0.0870 N.am  1 <1>  -0.6600 
 13 C        0.4750    -4.5480     1.0650 C.3   1 <1>   0.1400 
 14 C        1.4660    -6.3640    -0.3330 C.3   1 <1>   0.1400 
 15 C       -0.9300    -5.1850     0.9130 C.3   1 <1>   0.4230 
 16 C        0.0660    -6.9650    -0.5450 C.3   1 <1>   0.3430 
 17 N       -0.8590    -6.6770     0.6200 N.4   1 <1>  -0.9590 
 18 C       -1.7580    -4.4500    -0.1680 C.3   1 <1>   0.1200 
 19 C       -2.2540    -7.2100     0.4170 C.3   1 <1>   0.4230 
 20 O       -3.0300    -5.0230    -0.2710 O.3   1 <1>  -0.5600 
 21 C       -3.0350    -6.3760    -0.6290 C.3   1 <1>   0.1200 
 22 C       -2.2190    -8.7100     0.0810 C.3   1 <1>  -0.1600 
 23 C       -3.5930    -9.3790     0.2450 C.3   1 <1>  -0.1600 
 24 C       -3.5000   -10.8850    -0.0180 C.3   1 <1>  -0.2400 
 25 H        3.1390     1.0150    -0.5300 H     1 <1>   0.1500 
 26 H        1.0220    -1.9060    -2.7540 H     1 <1>   0.1500 
 27 H        3.0570    -3.0260     0.8310 H     1 <1>   0.1500 
 28 H        5.0930     0.4660     2.5300 H     1 <1>   0.0800 
 29 H        3.7210     1.2450     1.7500 H     1 <1>   0.0800 
 30 H        5.1450     0.7840     0.8000 H     1 <1>   0.0800 
 31 H        0.9320    -4.8950     1.9760 H     1 <1>   0.0800 
 32 H        0.3750    -3.4790     1.1450 H     1 <1>   0.0800 
 33 H        2.0660    -6.5420    -1.2100 H     1 <1>   0.0800 
 34 H        1.9560    -6.8380     0.4990 H     1 <1>   0.0800 
 35 H       -1.4500    -5.0400     1.8450 H     1 <1>   0.0800 
 36 H        0.1640    -8.0280    -0.6860 H     1 <1>   0.0800 
 37 H       -0.3420    -6.5470    -1.4510 H     1 <1>   0.0800 
 38 H       -0.4700    -7.1380     1.4490 H     1 <1>   0.4500 
 39 H       -1.2830    -4.4900    -1.1330 H     1 <1>   0.0800 
 40 H       -1.8910    -3.4170     0.1020 H     1 <1>   0.0800 
 41 H       -2.7870    -7.1080     1.3490 H     1 <1>   0.0800 
 42 H       -4.0630    -6.6900    -0.6670 H     1 <1>   0.0800 
 43 H       -2.6110    -6.4780    -1.6130 H     1 <1>   0.0800 
 44 H       -1.8870    -8.8580    -0.9320 H     1 <1>   0.0800 
 45 H       -1.5300    -9.2040     0.7450 H     1 <1>   0.0800 
 46 H       -3.9640    -9.2240     1.2450 H     1 <1>   0.0800 
 47 H       -4.3050    -8.9580    -0.4440 H     1 <1>   0.0800 
 48 H       -2.8230   -11.3540     0.6760 H     1 <1>   0.0800 
 49 H       -3.1580   -11.0780    -1.0200 H     1 <1>   0.0800 
 50 H       -4.4690   -11.3380     0.1000 H     1 <1>   0.0800 
@<TRIPOS>BOND
  1   1   2  1   
  2   2   3  ar  
  3   2   4  ar  
  4   3   5  ar  
  5   3  25  1   
  6   4   6  ar  
  7   4  26  1   
  8   5   7  1   
  9   5   8  ar  
 10   6   8  ar  
 11   6   9  1   
 12   7  10  1   
 13   8  27  1   
 14   9  11  2   
 15   9  12  am  
 16  10  28  1   
 17  10  29  1   
 18  10  30  1   
 19  12  13  1   
 20  12  14  1   
 21  13  15  1   
 22  13  31  1   
 23  13  32  1   
 24  14  16  1   
 25  14  33  1   
 26  14  34  1   
 27  15  17  1   
 28  15  18  1   
 29  15  35  1   
 30  16  17  1   
 31  16  36  1   
 32  16  37  1   
 33  17  19  1   
 34  17  38  1   
 35  18  20  1   
 36  18  39  1   
 37  18  40  1   
 38  19  21  1   
 39  19  22  1   
 40  19  41  1   
 41  20  21  1   
 42  21  42  1   
 43  21  43  1   
 44  22  23  1   
 45  22  44  1   
 46  22  45  1   
 47  23  24  1   
 48  23  46  1   
 49  23  47  1   
 50  24  48  1   
 51  24  49  1   
 52  24  50  1   
@<TRIPOS>SUBSTRUCTURE
  1 ****  12 GROUP 4 **** **** 0

# MOE 2024.06 (io_trps.svl 2023.06)
