@<TRIPOS>MOLECULE
NONAME
48 50 1 0 0 
SMALL
USER_CHARGES


@<TRIPOS>ATOM
  1 O       -0.4190     0.1470     1.5770 O.2   1 <1>  -0.5700 
  2 C       -1.2090     0.8160     0.9560 C.2   1 <1>   0.5690 
  3 N       -2.2680     0.2480     0.3030 N.am  1 <1>  -0.6600 
  4 C       -0.9860     2.3110     0.9000 C.3   1 <1>  -0.0990 
  5 C       -3.3360     0.9460    -0.4630 C.3   1 <1>   0.1400 
  6 C       -2.4820    -1.2190     0.2620 C.3   1 <1>   0.1400 
  7 C       -0.2730     2.7030    -0.3980 C.3   1 <1>   0.0210 
  8 C       -4.4560    -0.0880    -0.5680 C.3   1 <1>   0.2000 
  9 C       -3.7080    -1.4230    -0.6370 C.3   1 <1>  -0.0800 
 10 C       -0.3020     4.2060    -0.5760 C.2   1 <1>   0.1080 
 11 O       -5.2010    -0.0350     0.6010 O.3   1 <1>  -0.6800 
 12 C       -4.5430    -2.6660    -0.2790 C.3   1 <1>  -0.0160 
 13 N       -1.3340     4.8070    -1.0810 N.2   1 <1>  -0.7070 
 14 C        0.7150     5.0950    -0.2310 C.2   1 <1>  -0.1810 
 15 C       -3.7320    -3.9390    -0.4680 C.ar  1 <1>  -0.1440 
 16 N       -0.9990     6.1090    -1.0780 N.pl3 1 <1>   0.3000 
 17 C        0.2340     6.3130    -0.5690 C.2   1 <1>  -0.3320 
 18 C        2.0510     4.7260     0.3890 C.3   1 <1>  -0.0590 
 19 C       -3.6050    -4.5420    -1.7030 C.ar  1 <1>  -0.1500 
 20 C       -3.0790    -4.5550     0.5800 C.ar  1 <1>  -0.1500 
 21 C        0.8540     7.6950    -0.4520 C.3   1 <1>  -0.0600 
 22 C       -2.8510    -5.6970    -1.8270 C.ar  1 <1>   0.1600 
 23 C       -2.3490    -5.7090     0.3490 C.ar  1 <1>   0.1600 
 24 N       -2.2180    -6.2950    -0.8310 N.ar  1 <1>  -0.6200 
 25 H       -1.9240     2.8260     0.9760 H     1 <1>   0.0800 
 26 H       -0.3860     2.6110     1.7390 H     1 <1>   0.0800 
 27 H       -3.6750     1.8440     0.0240 H     1 <1>   0.0800 
 28 H       -2.9650     1.1860    -1.4440 H     1 <1>   0.0800 
 29 H       -1.6140    -1.7210    -0.1320 H     1 <1>   0.0800 
 30 H       -2.6710    -1.5710     1.2620 H     1 <1>   0.0800 
 31 H       -0.7670     2.2570    -1.2410 H     1 <1>   0.0800 
 32 H        0.7400     2.3450    -0.3830 H     1 <1>   0.0800 
 33 H       -5.1140     0.0820    -1.4030 H     1 <1>   0.0800 
 34 H       -3.3460    -1.5400    -1.6440 H     1 <1>   0.0800 
 35 H       -4.5840    -0.0120     1.3610 H     1 <1>   0.4000 
 36 H       -5.4150    -2.7030    -0.9080 H     1 <1>   0.0800 
 37 H       -4.8850    -2.6090     0.7390 H     1 <1>   0.0800 
 38 H       -1.6320     6.8360    -1.4300 H     1 <1>   0.2700 
 39 H        1.8920     4.1470     1.2800 H     1 <1>   0.0800 
 40 H        2.6110     5.6040     0.6490 H     1 <1>   0.0800 
 41 H        2.6270     4.1450    -0.3080 H     1 <1>   0.0800 
 42 H       -4.0850    -4.1270    -2.5700 H     1 <1>   0.1500 
 43 H       -3.1300    -4.1520     1.5750 H     1 <1>   0.1500 
 44 H        1.8460     7.6380    -0.0430 H     1 <1>   0.0800 
 45 H        0.2560     8.3140     0.1940 H     1 <1>   0.0800 
 46 H        0.9130     8.1560    -1.4210 H     1 <1>   0.0800 
 47 H       -2.7630    -6.1540    -2.7980 H     1 <1>   0.1500 
 48 H       -1.8450    -6.1750     1.1790 H     1 <1>   0.1500 
@<TRIPOS>BOND
  1   1   2  2   
  2   2   3  am  
  3   2   4  1   
  4   3   5  1   
  5   3   6  1   
  6   4   7  1   
  7   4  25  1   
  8   4  26  1   
  9   5   8  1   
 10   5  27  1   
 11   5  28  1   
 12   6   9  1   
 13   6  29  1   
 14   6  30  1   
 15   7  10  1   
 16   7  31  1   
 17   7  32  1   
 18   8   9  1   
 19   8  11  1   
 20   8  33  1   
 21   9  12  1   
 22   9  34  1   
 23  10  13  2   
 24  10  14  1   
 25  11  35  1   
 26  12  15  1   
 27  12  36  1   
 28  12  37  1   
 29  13  16  1   
 30  14  17  2   
 31  14  18  1   
 32  15  19  ar  
 33  15  20  ar  
 34  16  17  1   
 35  16  38  1   
 36  17  21  1   
 37  18  39  1   
 38  18  40  1   
 39  18  41  1   
 40  19  22  ar  
 41  19  42  1   
 42  20  23  ar  
 43  20  43  1   
 44  21  44  1   
 45  21  45  1   
 46  21  46  1   
 47  22  24  ar  
 48  22  47  1   
 49  23  24  ar  
 50  23  48  1   
@<TRIPOS>SUBSTRUCTURE
  1 ****   3 GROUP 4 **** **** 0

# MOE 2024.06 (io_trps.svl 2023.06)
