@<TRIPOS>MOLECULE
NONAME
49 50 1 0 0 
SMALL
USER_CHARGES


@<TRIPOS>ATOM
  1 O        0.5270     0.9010     2.3830 O.2   1 <1>  -0.5700 
  2 C        1.1610     0.2990     1.5430 C.2   1 <1>   0.5690 
  3 N        1.5470     0.9150     0.3750 N.am  1 <1>  -0.6600 
  4 C        1.5300    -1.1530     1.8710 C.3   1 <1>   0.1810 
  5 C        2.3780     0.2430    -0.6620 C.3   1 <1>   0.3210 
  6 C        1.0600     2.2740     0.0270 C.3   1 <1>   0.1400 
  7 O        1.0990    -2.0660     0.8890 O.3   1 <1>  -0.5600 
  8 C        3.7440    -0.1880    -0.1380 C.2   1 <1>  -0.1810 
  9 C       -0.1550     2.1590    -0.8900 C.3   1 <1>  -0.2400 
 10 C        1.3520    -3.3970     1.2220 C.3   1 <1>   0.1200 
 11 C        4.6140     0.5310     0.6810 C.2   1 <1>   0.1080 
 12 C        4.3920    -1.3550    -0.3720 C.2   1 <1>  -0.3320 
 13 C        0.8460    -4.3310     0.1120 C.3   1 <1>   0.2000 
 14 N        5.6960    -0.1280     0.9450 N.2   1 <1>  -0.7070 
 15 C        4.3970     1.9210     1.2370 C.3   1 <1>  -0.0590 
 16 N        5.5650    -1.2900     0.2940 N.pl3 1 <1>   0.3140 
 17 C        3.9680    -2.5520    -1.2120 C.3   1 <1>  -0.0600 
 18 O       -0.5420    -4.3920     0.1060 O.3   1 <1>  -0.5600 
 19 C        1.2740    -5.7810     0.2900 C.3   1 <1>  -0.1600 
 20 C        6.6240    -2.3050     0.3430 C.3   1 <1>   0.0160 
 21 C       -0.9720    -5.5490    -0.5340 C.3   1 <1>   0.1200 
 22 C        0.1800    -6.5480    -0.4360 C.3   1 <1>  -0.1600 
 23 H        1.0630    -1.4190     2.8020 H     1 <1>   0.0800 
 24 H        2.5960    -1.2370     1.9790 H     1 <1>   0.0800 
 25 H        2.5320     0.9110    -1.4910 H     1 <1>   0.0800 
 26 H        1.8360    -0.6080    -1.0330 H     1 <1>   0.0800 
 27 H        1.8420     2.8310    -0.4590 H     1 <1>   0.0800 
 28 H        0.7850     2.8070     0.9220 H     1 <1>   0.0800 
 29 H        0.1030     1.6650    -1.8090 H     1 <1>   0.0800 
 30 H       -0.5290     3.1390    -1.1200 H     1 <1>   0.0800 
 31 H       -0.9340     1.6060    -0.3940 H     1 <1>   0.0800 
 32 H        0.8570    -3.6310     2.1480 H     1 <1>   0.0800 
 33 H        2.4150    -3.5130     1.3400 H     1 <1>   0.0800 
 34 H        1.1630    -3.9690    -0.8500 H     1 <1>   0.0800 
 35 H        4.0730     2.5820     0.4570 H     1 <1>   0.0800 
 36 H        5.3160     2.2970     1.6500 H     1 <1>   0.0800 
 37 H        3.6560     1.8920     2.0140 H     1 <1>   0.0800 
 38 H        2.9820    -2.4110    -1.6140 H     1 <1>   0.0800 
 39 H        3.9640    -3.4430    -0.6120 H     1 <1>   0.0800 
 40 H        4.6520    -2.6860    -2.0320 H     1 <1>   0.0800 
 41 H        1.2690    -6.0350     1.3350 H     1 <1>   0.0800 
 42 H        2.2510    -5.9650    -0.1200 H     1 <1>   0.0800 
 43 H        6.2270    -3.2090     0.7630 H     1 <1>   0.0800 
 44 H        7.4270    -1.9440     0.9600 H     1 <1>   0.0800 
 45 H        6.9870    -2.4840    -0.6510 H     1 <1>   0.0800 
 46 H       -1.1950    -5.3040    -1.5590 H     1 <1>   0.0800 
 47 H       -1.8600    -5.9010    -0.0370 H     1 <1>   0.0800 
 48 H       -0.1150    -7.4300     0.1050 H     1 <1>   0.0800 
 49 H        0.4940    -6.8310    -1.4250 H     1 <1>   0.0800 
@<TRIPOS>BOND
  1   1   2  2   
  2   2   3  am  
  3   2   4  1   
  4   3   5  1   
  5   3   6  1   
  6   4   7  1   
  7   4  23  1   
  8   4  24  1   
  9   5   8  1   
 10   5  25  1   
 11   5  26  1   
 12   6   9  1   
 13   6  27  1   
 14   6  28  1   
 15   7  10  1   
 16   8  11  1   
 17   8  12  2   
 18   9  29  1   
 19   9  30  1   
 20   9  31  1   
 21  10  13  1   
 22  10  32  1   
 23  10  33  1   
 24  11  14  2   
 25  11  15  1   
 26  12  16  1   
 27  12  17  1   
 28  13  18  1   
 29  13  19  1   
 30  13  34  1   
 31  14  16  1   
 32  15  35  1   
 33  15  36  1   
 34  15  37  1   
 35  16  20  1   
 36  17  38  1   
 37  17  39  1   
 38  17  40  1   
 39  18  21  1   
 40  19  22  1   
 41  19  41  1   
 42  19  42  1   
 43  20  43  1   
 44  20  44  1   
 45  20  45  1   
 46  21  22  1   
 47  21  46  1   
 48  21  47  1   
 49  22  48  1   
 50  22  49  1   
@<TRIPOS>SUBSTRUCTURE
  1 ****   7 GROUP 4 **** **** 0

# MOE 2024.06 (io_trps.svl 2023.06)
