@<TRIPOS>MOLECULE
NONAME
56 59 1 0 0 
SMALL
USER_CHARGES


@<TRIPOS>ATOM
  1 S       -1.1070     0.5640     1.9790 S.3   1 <1>  -0.4600 
  2 C        0.6010     0.1900     1.5020 C.3   1 <1>   0.1500 
  3 C       -1.9950     0.7050     0.4120 C.3   1 <1>   0.0700 
  4 C        1.2910    -0.3730     2.7410 C.3   1 <1>  -0.2400 
  5 C        1.2510     1.4870     1.0210 C.3   1 <1>  -0.2400 
  6 C       -3.4580     0.9790     0.7720 C.3   1 <1>   0.3430 
  7 N       -4.3260     1.1700    -0.4350 N.4   1 <1>  -0.9590 
  8 C       -5.6720     1.6850     0.0000 C.3   1 <1>   0.3430 
  9 C       -4.4760    -0.0920    -1.2230 C.3   1 <1>   0.3430 
 10 C       -6.6000     1.9820    -1.1930 C.3   1 <1>   0.1430 
 11 C       -5.3330     0.1660    -2.4650 C.3   1 <1>  -0.1600 
 12 C       -7.9610     2.3600    -0.6570 C.ar  1 <1>   0.1670 
 13 C       -6.7140     0.7430    -2.1040 C.3   1 <1>  -0.1600 
 14 C       -6.1900     3.2530    -1.9860 C.3   1 <1>  -0.1600 
 15 N       -8.5960     1.7020     0.2790 N.ar  1 <1>  -0.6200 
 16 C       -8.4480     3.4820    -1.2500 C.ar  1 <1>  -0.1440 
 17 C       -7.4910     4.0280    -2.2790 C.3   1 <1>  -0.0170 
 18 C       -9.7930     2.2010     0.6250 C.ar  1 <1>   0.6200 
 19 C       -9.6760     3.9310    -0.8400 C.ar  1 <1>   0.1600 
 20 N      -10.3490     3.2990     0.0950 N.ar  1 <1>  -0.6200 
 21 C      -10.5380     1.5010     1.6600 C.ar  1 <1>   0.0000 
 22 C      -10.4620     0.1120     1.8060 C.ar  1 <1>  -0.1500 
 23 C      -11.3650     2.1850     2.5550 C.ar  1 <1>  -0.1500 
 24 C      -11.1650    -0.5550     2.7920 C.ar  1 <1>  -0.1500 
 25 C      -12.0710     1.5240     3.5440 C.ar  1 <1>  -0.1500 
 26 C      -11.9720     0.1500     3.6650 C.ar  1 <1>  -0.1500 
 27 H        0.5690    -0.5480     0.7180 H     1 <1>   0.0800 
 28 H       -1.8640    -0.2280    -0.1060 H     1 <1>   0.0800 
 29 H       -1.5550     1.5210    -0.1310 H     1 <1>   0.0800 
 30 H        1.2770     0.3470     3.5400 H     1 <1>   0.0800 
 31 H        2.3130    -0.6190     2.5170 H     1 <1>   0.0800 
 32 H        0.7900    -1.2660     3.0700 H     1 <1>   0.0800 
 33 H        1.2050     2.2360     1.7910 H     1 <1>   0.0800 
 34 H        0.7590     1.8570     0.1410 H     1 <1>   0.0800 
 35 H        2.2840     1.3100     0.7790 H     1 <1>   0.0800 
 36 H       -3.4900     1.8680     1.3810 H     1 <1>   0.0800 
 37 H       -3.8320     0.1600     1.3660 H     1 <1>   0.0800 
 38 H       -3.8990     1.8820    -1.0410 H     1 <1>   0.4500 
 39 H       -5.5580     2.5840     0.5840 H     1 <1>   0.0800 
 40 H       -6.1530     0.9490     0.6250 H     1 <1>   0.0800 
 41 H       -4.9490    -0.8470    -0.6140 H     1 <1>   0.0800 
 42 H       -3.5100    -0.4610    -1.5280 H     1 <1>   0.0800 
 43 H       -5.4700    -0.7640    -2.9900 H     1 <1>   0.0800 
 44 H       -4.8090     0.8290    -3.1310 H     1 <1>   0.0800 
 45 H       -7.2600     0.9880    -3.0000 H     1 <1>   0.0800 
 46 H       -7.2790    -0.0160    -1.5880 H     1 <1>   0.0800 
 47 H       -5.6610     3.0330    -2.8960 H     1 <1>   0.0800 
 48 H       -5.5670     3.8790    -1.3710 H     1 <1>   0.0800 
 49 H       -7.8580     3.8040    -3.2670 H     1 <1>   0.0800 
 50 H       -7.3560     5.0910    -2.1740 H     1 <1>   0.0800 
 51 H      -10.1130     4.8140    -1.2780 H     1 <1>   0.1500 
 52 H       -9.8430    -0.4540     1.1330 H     1 <1>   0.1500 
 53 H      -11.4570     3.2540     2.4740 H     1 <1>   0.1500 
 54 H      -11.0870    -1.6250     2.8810 H     1 <1>   0.1500 
 55 H      -12.7000     2.0790     4.2190 H     1 <1>   0.1500 
 56 H      -12.5210    -0.3660     4.4340 H     1 <1>   0.1500 
@<TRIPOS>BOND
  1   1   2  1   
  2   1   3  1   
  3   2   4  1   
  4   2   5  1   
  5   2  27  1   
  6   3   6  1   
  7   3  28  1   
  8   3  29  1   
  9   4  30  1   
 10   4  31  1   
 11   4  32  1   
 12   5  33  1   
 13   5  34  1   
 14   5  35  1   
 15   6   7  1   
 16   6  36  1   
 17   6  37  1   
 18   7   8  1   
 19   7   9  1   
 20   7  38  1   
 21   8  10  1   
 22   8  39  1   
 23   8  40  1   
 24   9  11  1   
 25   9  41  1   
 26   9  42  1   
 27  10  12  1   
 28  10  13  1   
 29  10  14  1   
 30  11  13  1   
 31  11  43  1   
 32  11  44  1   
 33  12  15  ar  
 34  12  16  ar  
 35  13  45  1   
 36  13  46  1   
 37  14  17  1   
 38  14  47  1   
 39  14  48  1   
 40  15  18  ar  
 41  16  17  1   
 42  16  19  ar  
 43  17  49  1   
 44  17  50  1   
 45  18  20  ar  
 46  18  21  1   
 47  19  20  ar  
 48  19  51  1   
 49  21  22  ar  
 50  21  23  ar  
 51  22  24  ar  
 52  22  52  1   
 53  23  25  ar  
 54  23  53  1   
 55  24  26  ar  
 56  24  54  1   
 57  25  26  ar  
 58  25  55  1   
 59  26  56  1   
@<TRIPOS>SUBSTRUCTURE
  1 ****   8 GROUP 4 **** **** 0

# MOE 2024.06 (io_trps.svl 2023.06)
