@<TRIPOS>MOLECULE
NONAME
53 55 1 0 0 
SMALL
USER_CHARGES


@<TRIPOS>ATOM
  1 O       -0.6180     0.7360     0.0750 O.2   1 <1>  -0.5700 
  2 C       -0.4310     1.9130     0.2520 C.2   1 <1>   0.5690 
  3 N       -1.4500     2.7290     0.5930 N.am  1 <1>  -0.7300 
  4 C        0.9650     2.5070     0.0490 C.3   1 <1>   0.1810 
  5 C       -1.2990     4.1870     0.8200 C.3   1 <1>   0.3640 
  6 O        1.1210     3.7810     0.6390 O.3   1 <1>  -0.5600 
  7 C       -2.4310     4.9100     0.0900 C.ar  1 <1>  -0.1440 
  8 C        0.0840     4.7100     0.3450 C.3   1 <1>   0.2610 
  9 C       -2.7950     4.5640    -1.2060 C.ar  1 <1>  -0.1500 
 10 C       -3.1090     5.9410     0.7240 C.ar  1 <1>  -0.1500 
 11 C        0.4040     6.0970     0.9350 C.2   1 <1>   0.5690 
 12 C       -3.8190     5.2340    -1.8520 C.ar  1 <1>  -0.1500 
 13 C       -4.1330     6.6130     0.0790 C.ar  1 <1>  -0.1500 
 14 O       -0.1820     6.4510     1.9360 O.2   1 <1>  -0.5700 
 15 N        1.3220     6.9260     0.3320 N.am  1 <1>  -0.6600 
 16 C       -4.4890     6.2600    -1.2100 C.ar  1 <1>  -0.1500 
 17 C        2.2820     6.5200    -0.7400 C.3   1 <1>   0.1400 
 18 C        1.5420     8.3300     0.8020 C.3   1 <1>   0.1400 
 19 C        3.7330     6.8000    -0.3100 C.3   1 <1>   0.1100 
 20 C        3.0140     8.5690     1.1760 C.3   1 <1>   0.1100 
 21 N        3.9260     8.2150     0.0650 N.3   1 <1>  -0.8100 
 22 C        5.3470     8.4770     0.4440 C.3   1 <1>   0.1710 
 23 C        5.6960     9.9330     0.8070 C.2   1 <1>   0.5690 
 24 O        6.1330    10.1300     1.9190 O.2   1 <1>  -0.5700 
 25 N        5.5270    10.9650    -0.0930 N.am  1 <1>  -0.6600 
 26 C        4.9350    10.7890    -1.4470 C.3   1 <1>   0.0600 
 27 C        5.8270    12.3770     0.2700 C.3   1 <1>   0.0600 
 28 H       -2.3830     2.3350     0.7200 H     1 <1>   0.3700 
 29 H        1.1660     2.5930    -1.0020 H     1 <1>   0.0800 
 30 H        1.6950     1.8530     0.4900 H     1 <1>   0.0800 
 31 H       -1.3960     4.3580     1.8780 H     1 <1>   0.0800 
 32 H        0.0460     4.8170    -0.7230 H     1 <1>   0.0800 
 33 H       -2.2870     3.7680    -1.7230 H     1 <1>   0.1500 
 34 H       -2.8410     6.2330     1.7270 H     1 <1>   0.1500 
 35 H       -4.0970     4.9580    -2.8540 H     1 <1>   0.1500 
 36 H       -4.6500     7.4120     0.5810 H     1 <1>   0.1500 
 37 H       -5.2860     6.7820    -1.7110 H     1 <1>   0.1500 
 38 H        2.1900     5.4750    -0.9680 H     1 <1>   0.0800 
 39 H        2.0680     7.0790    -1.6340 H     1 <1>   0.0800 
 40 H        1.2660     9.0100     0.0160 H     1 <1>   0.0800 
 41 H        0.9240     8.5480     1.6560 H     1 <1>   0.0800 
 42 H        4.3900     6.5560    -1.1270 H     1 <1>   0.0800 
 43 H        3.9810     6.1620     0.5220 H     1 <1>   0.0800 
 44 H        3.2530     7.9870     2.0500 H     1 <1>   0.0800 
 45 H        3.1360     9.6090     1.4280 H     1 <1>   0.0800 
 46 H        5.6040     7.8590     1.2870 H     1 <1>   0.0800 
 47 H        5.9850     8.1890    -0.3710 H     1 <1>   0.0800 
 48 H        5.3910    11.4740    -2.1410 H     1 <1>   0.0800 
 49 H        3.8770    10.9820    -1.4030 H     1 <1>   0.0800 
 50 H        5.0890     9.7890    -1.8100 H     1 <1>   0.0800 
 51 H        6.5570    12.7800    -0.4090 H     1 <1>   0.0800 
 52 H        6.2180    12.4440     1.2710 H     1 <1>   0.0800 
 53 H        4.9270    12.9650     0.2150 H     1 <1>   0.0800 
@<TRIPOS>BOND
  1   1   2  2   
  2   2   3  am  
  3   2   4  1   
  4   3   5  1   
  5   3  28  1   
  6   4   6  1   
  7   4  29  1   
  8   4  30  1   
  9   5   7  1   
 10   5   8  1   
 11   5  31  1   
 12   6   8  1   
 13   7   9  ar  
 14   7  10  ar  
 15   8  11  1   
 16   8  32  1   
 17   9  12  ar  
 18   9  33  1   
 19  10  13  ar  
 20  10  34  1   
 21  11  14  2   
 22  11  15  am  
 23  12  16  ar  
 24  12  35  1   
 25  13  16  ar  
 26  13  36  1   
 27  15  17  1   
 28  15  18  1   
 29  16  37  1   
 30  17  19  1   
 31  17  38  1   
 32  17  39  1   
 33  18  20  1   
 34  18  40  1   
 35  18  41  1   
 36  19  21  1   
 37  19  42  1   
 38  19  43  1   
 39  20  21  1   
 40  20  44  1   
 41  20  45  1   
 42  21  22  1   
 43  22  23  1   
 44  22  46  1   
 45  22  47  1   
 46  23  24  2   
 47  23  25  am  
 48  25  26  1   
 49  25  27  1   
 50  26  48  1   
 51  26  49  1   
 52  26  50  1   
 53  27  51  1   
 54  27  52  1   
 55  27  53  1   
@<TRIPOS>SUBSTRUCTURE
  1 ****  15 GROUP 4 **** **** 0

# MOE 2024.06 (io_trps.svl 2023.06)
