@<TRIPOS>MOLECULE
NONAME
41 43 1 0 0 
SMALL
USER_CHARGES


@<TRIPOS>ATOM
  1 S       -0.0480     0.2720     1.3380 S.3   1 <1>  -0.0800 
  2 C        1.1320    -0.8420     0.6770 C.2   1 <1>  -0.0450 
  3 C        0.8630     1.6120     0.6970 C.2   1 <1>   0.2280 
  4 C        2.0790    -0.0930     0.0620 C.2   1 <1>   0.0460 
  5 C        0.9770    -2.2610     0.8820 C.2   1 <1>   0.7150 
  6 N        1.9160     1.2770     0.0680 N.2   1 <1>  -0.5650 
  7 C        3.3190    -0.6060    -0.6440 C.3   1 <1>  -0.0590 
  8 O        1.9540    -2.9370     1.1470 O.2   1 <1>  -0.5700 
  9 N       -0.2410    -2.8930     0.7540 N.am  1 <1>  -0.6600 
 10 C       -1.3660    -2.3880    -0.0790 C.3   1 <1>   0.1400 
 11 C       -0.4310    -4.3420     1.0040 C.3   1 <1>   0.1400 
 12 C       -2.2600    -3.6030    -0.3710 C.3   1 <1>   0.2000 
 13 C       -1.3460    -4.8080    -0.1280 C.3   1 <1>  -0.0800 
 14 O       -3.3130    -3.6460     0.5490 O.3   1 <1>  -0.5600 
 15 C       -2.0820    -6.1250     0.1790 C.3   1 <1>   0.0200 
 16 C       -4.4370    -2.8980     0.2040 C.3   1 <1>   0.0400 
 17 C       -1.1540    -7.3270     0.2430 C.2   1 <1>  -0.0400 
 18 O       -1.6500    -8.4850     0.5910 O.3   1 <1>  -0.0190 
 19 C        0.1570    -7.5010     0.0060 C.2   1 <1>  -0.1500 
 20 N       -0.7450    -9.4200     0.6020 N.2   1 <1>  -0.4100 
 21 C        0.3540    -8.8560     0.2540 C.2   1 <1>   0.1080 
 22 C        1.6790    -9.5750     0.1350 C.3   1 <1>  -0.0590 
 23 H        0.4790     2.6010     0.8730 H     1 <1>   0.1500 
 24 H        3.3550    -1.6790    -0.6400 H     1 <1>   0.0800 
 25 H        4.1940    -0.2300    -0.1470 H     1 <1>   0.0800 
 26 H        3.3240    -0.2620    -1.6610 H     1 <1>   0.0800 
 27 H       -1.9140    -1.6260     0.4430 H     1 <1>   0.0800 
 28 H       -0.9720    -1.9910    -0.9980 H     1 <1>   0.0800 
 29 H        0.5030    -4.8760     1.0100 H     1 <1>   0.0800 
 30 H       -0.9180    -4.4660     1.9570 H     1 <1>   0.0800 
 31 H       -2.6600    -3.5970    -1.3710 H     1 <1>   0.0800 
 32 H       -0.7410    -4.9440    -1.0070 H     1 <1>   0.0800 
 33 H       -2.8190    -6.3070    -0.5830 H     1 <1>   0.0800 
 34 H       -2.6010    -6.0430     1.1190 H     1 <1>   0.0800 
 35 H       -5.1610    -3.0010     0.9930 H     1 <1>   0.0800 
 36 H       -4.8490    -3.2770    -0.7150 H     1 <1>   0.0800 
 37 H       -4.1650    -1.8620     0.0990 H     1 <1>   0.0800 
 38 H        0.9100    -6.8010    -0.3030 H     1 <1>   0.1500 
 39 H        2.3960    -9.1320     0.8020 H     1 <1>   0.0800 
 40 H        2.0420    -9.5060    -0.8740 H     1 <1>   0.0800 
 41 H        1.5590   -10.6120     0.3920 H     1 <1>   0.0800 
@<TRIPOS>BOND
  1   1   2  1   
  2   1   3  1   
  3   2   4  2   
  4   2   5  1   
  5   3   6  2   
  6   3  23  1   
  7   4   6  1   
  8   4   7  1   
  9   5   8  2   
 10   5   9  am  
 11   7  24  1   
 12   7  25  1   
 13   7  26  1   
 14   9  10  1   
 15   9  11  1   
 16  10  12  1   
 17  10  27  1   
 18  10  28  1   
 19  11  13  1   
 20  11  29  1   
 21  11  30  1   
 22  12  13  1   
 23  12  14  1   
 24  12  31  1   
 25  13  15  1   
 26  13  32  1   
 27  14  16  1   
 28  15  17  1   
 29  15  33  1   
 30  15  34  1   
 31  16  35  1   
 32  16  36  1   
 33  16  37  1   
 34  17  18  1   
 35  17  19  2   
 36  18  20  1   
 37  19  21  1   
 38  19  38  1   
 39  20  21  2   
 40  21  22  1   
 41  22  39  1   
 42  22  40  1   
 43  22  41  1   
@<TRIPOS>SUBSTRUCTURE
  1 ****  11 GROUP 4 **** **** 0

# MOE 2024.06 (io_trps.svl 2023.06)
