@<TRIPOS>MOLECULE
NONAME
57 59 1 0 0 
SMALL
USER_CHARGES


@<TRIPOS>ATOM
  1 O        1.3200    -0.6750    -2.2170 O.2   1 <1>  -0.5700 
  2 C        1.9560    -0.9300    -1.2150 C.2   1 <1>   0.7150 
  3 N        2.7660     0.0430    -0.6760 N.am  1 <1>  -0.6600 
  4 C        1.8550    -2.2130    -0.5940 C.2   1 <1>  -0.2370 
  5 C        3.0880     0.0570     0.7980 C.3   1 <1>   0.2200 
  6 C        3.2270     1.1640    -1.5530 C.3   1 <1>   0.1400 
  7 N        0.6850    -2.7850    -0.2150 N.pl3 1 <1>   0.3140 
  8 C        2.8260    -3.1010    -0.2410 C.2   1 <1>  -0.1500 
  9 C        2.7010     1.3870     1.4640 C.3   1 <1>   0.1200 
 10 C        4.5690    -0.2910     1.0710 C.3   1 <1>   0.3430 
 11 C        4.3440     2.0460    -0.9650 C.3   1 <1>  -0.0800 
 12 N        0.8800    -3.9630     0.3970 N.2   1 <1>  -0.7070 
 13 C       -0.6830    -2.2490    -0.4030 C.3   1 <1>   0.0960 
 14 C        2.1630    -4.1540     0.3620 C.2   1 <1>   0.1080 
 15 O        3.7360     2.3170     1.3640 O.3   1 <1>  -0.5600 
 16 N        5.4370    -0.1120    -0.1320 N.4   1 <1>  -0.9590 
 17 C        3.8390     2.9790     0.1470 C.3   1 <1>   0.1200 
 18 C        5.6370     1.3060    -0.5740 C.3   1 <1>   0.3430 
 19 C       -0.9830    -1.1130     0.5850 C.3   1 <1>  -0.2400 
 20 C        2.8210    -5.4040     0.9230 C.3   1 <1>   0.0210 
 21 C        6.7920    -0.7870     0.0130 C.3   1 <1>   0.2370 
 22 C        3.6050    -6.1970    -0.1420 C.3   1 <1>  -0.0800 
 23 C        7.6070    -0.8310    -1.2810 C.2   1 <1>   0.9060 
 24 C        2.6880    -6.6820    -1.2740 C.3   1 <1>  -0.2400 
 25 C        4.3120    -7.3970     0.5000 C.3   1 <1>  -0.2400 
 26 O        8.2560     0.1730    -1.5890 O.co2 1 <1>  -0.9000 
 27 O        7.4670    -1.8110    -2.0110 O.co2 1 <1>  -0.9000 
 28 H        2.4880    -0.6880     1.2890 H     1 <1>   0.0800 
 29 H        3.5750     0.7420    -2.4820 H     1 <1>   0.0800 
 30 H        2.3760     1.7810    -1.7920 H     1 <1>   0.0800 
 31 H        3.8870    -3.0320    -0.3990 H     1 <1>   0.1500 
 32 H        2.5440     1.2210     2.5150 H     1 <1>   0.0800 
 33 H        1.7940     1.7930     1.0490 H     1 <1>   0.0800 
 34 H        4.6140    -1.3210     1.3810 H     1 <1>   0.0800 
 35 H        4.9390     0.3100     1.8850 H     1 <1>   0.0800 
 36 H        4.6280     2.7110    -1.7610 H     1 <1>   0.0800 
 37 H       -0.7860    -1.9050    -1.4170 H     1 <1>   0.0800 
 38 H       -1.3790    -3.0540    -0.2510 H     1 <1>   0.0800 
 39 H        4.9660    -0.5820    -0.9230 H     1 <1>   0.4500 
 40 H        2.8850     3.4150    -0.1010 H     1 <1>   0.0800 
 41 H        4.5440     3.7800     0.2910 H     1 <1>   0.0800 
 42 H        6.1450     1.8580     0.2000 H     1 <1>   0.0800 
 43 H        6.2840     1.3050    -1.4370 H     1 <1>   0.0800 
 44 H       -0.3300    -0.2760     0.4130 H     1 <1>   0.0800 
 45 H       -0.8680    -1.4630     1.5960 H     1 <1>   0.0800 
 46 H       -1.9970    -0.7820     0.4530 H     1 <1>   0.0800 
 47 H        3.4830    -5.1100     1.7160 H     1 <1>   0.0800 
 48 H        2.0590    -6.0320     1.3490 H     1 <1>   0.0800 
 49 H        7.3820    -0.2720     0.7480 H     1 <1>   0.0800 
 50 H        6.6610    -1.8060     0.3290 H     1 <1>   0.0800 
 51 H        4.3570    -5.5530    -0.5680 H     1 <1>   0.0800 
 52 H        1.9080    -7.3140    -0.8850 H     1 <1>   0.0800 
 53 H        3.2520    -7.2370    -2.0020 H     1 <1>   0.0800 
 54 H        2.2290    -5.8470    -1.7730 H     1 <1>   0.0800 
 55 H        3.5950    -8.0740     0.9310 H     1 <1>   0.0800 
 56 H        4.9860    -7.0700     1.2710 H     1 <1>   0.0800 
 57 H        4.8830    -7.9310    -0.2400 H     1 <1>   0.0800 
@<TRIPOS>BOND
  1   1   2  2   
  2   2   3  am  
  3   2   4  1   
  4   3   5  1   
  5   3   6  1   
  6   4   7  1   
  7   4   8  2   
  8   5   9  1   
  9   5  10  1   
 10   5  28  1   
 11   6  11  1   
 12   6  29  1   
 13   6  30  1   
 14   7  12  1   
 15   7  13  1   
 16   8  14  1   
 17   8  31  1   
 18   9  15  1   
 19   9  32  1   
 20   9  33  1   
 21  10  16  1   
 22  10  34  1   
 23  10  35  1   
 24  11  17  1   
 25  11  18  1   
 26  11  36  1   
 27  12  14  2   
 28  13  19  1   
 29  13  37  1   
 30  13  38  1   
 31  14  20  1   
 32  15  17  1   
 33  16  18  1   
 34  16  21  1   
 35  16  39  1   
 36  17  40  1   
 37  17  41  1   
 38  18  42  1   
 39  18  43  1   
 40  19  44  1   
 41  19  45  1   
 42  19  46  1   
 43  20  22  1   
 44  20  47  1   
 45  20  48  1   
 46  21  23  1   
 47  21  49  1   
 48  21  50  1   
 49  22  24  1   
 50  22  25  1   
 51  22  51  1   
 52  23  26  ar  
 53  23  27  ar  
 54  24  52  1   
 55  24  53  1   
 56  24  54  1   
 57  25  55  1   
 58  25  56  1   
 59  25  57  1   
@<TRIPOS>SUBSTRUCTURE
  1 ****   3 GROUP 4 **** **** 0

# MOE 2024.06 (io_trps.svl 2023.06)
