@<TRIPOS>MOLECULE
NONAME
46 48 1 0 0 
SMALL
USER_CHARGES


@<TRIPOS>ATOM
  1 CL      -3.5290    -2.0110    -1.4060 Cl    1 <1>  -0.1230 
  2 C       -3.2520    -0.3520    -0.8990 C.2   1 <1>   0.1230 
  3 C       -3.8830     0.3070     0.1630 C.2   1 <1>   0.2030 
  4 C       -2.4000     0.5150    -1.4740 C.2   1 <1>  -0.3320 
  5 N       -3.4250     1.5520     0.2260 N.2   1 <1>  -0.7070 
  6 C       -4.8590    -0.3260     1.0390 C.2   1 <1>   0.7160 
  7 N       -2.5240     1.6580    -0.7680 N.pl3 1 <1>   0.3000 
  8 C       -1.4630     0.3380    -2.6580 C.3   1 <1>  -0.0600 
  9 O       -4.6400    -1.4500     1.4650 O.2   1 <1>  -0.5700 
 10 N       -6.0480     0.2770     1.4260 N.am  1 <1>  -0.6600 
 11 C       -6.9400    -0.3690     2.4350 C.3   1 <1>   0.1400 
 12 C       -6.5760     1.5460     0.8560 C.3   1 <1>   0.1400 
 13 C       -7.9010    -1.3920     1.8030 C.3   1 <1>   0.1400 
 14 C       -7.7000     1.2900    -0.1560 C.3   1 <1>  -0.1600 
 15 N       -8.5180    -0.9510     0.5070 N.am  1 <1>  -0.6600 
 16 C       -8.8860     0.4890     0.3950 C.3   1 <1>   0.1400 
 17 C       -8.8190    -1.8340    -0.5140 C.2   1 <1>   0.7160 
 18 O       -9.6320    -1.5000    -1.3580 O.2   1 <1>  -0.5700 
 19 C       -8.2110    -3.1420    -0.6110 C.2   1 <1>  -0.0860 
 20 C       -8.7860    -4.3560    -0.8420 C.2   1 <1>  -0.0400 
 21 C       -6.8350    -3.4330    -0.5110 C.2   1 <1>  -0.1500 
 22 O       -7.8870    -5.3100    -0.8680 O.3   1 <1>  -0.2800 
 23 C      -10.2360    -4.7330    -1.0640 C.3   1 <1>  -0.0600 
 24 C       -6.7080    -4.7640    -0.6710 C.2   1 <1>  -0.0400 
 25 C       -5.4790    -5.6440    -0.6600 C.3   1 <1>  -0.0600 
 26 H       -2.0030     2.5270    -0.9440 H     1 <1>   0.2700 
 27 H       -1.5440    -0.6600    -3.0520 H     1 <1>   0.0800 
 28 H       -0.4440     0.5020    -2.3560 H     1 <1>   0.0800 
 29 H       -1.7140     1.0330    -3.4400 H     1 <1>   0.0800 
 30 H       -7.5090     0.3860     2.9490 H     1 <1>   0.0800 
 31 H       -6.3420    -0.8670     3.1780 H     1 <1>   0.0800 
 32 H       -5.7980     2.1030     0.3690 H     1 <1>   0.0800 
 33 H       -6.9450     2.1620     1.6580 H     1 <1>   0.0800 
 34 H       -8.6900    -1.6000     2.5050 H     1 <1>   0.0800 
 35 H       -7.3570    -2.3070     1.6710 H     1 <1>   0.0800 
 36 H       -7.3020     0.7950    -1.0250 H     1 <1>   0.0800 
 37 H       -8.0670     2.2460    -0.4810 H     1 <1>   0.0800 
 38 H       -9.7220     0.6010    -0.2740 H     1 <1>   0.0800 
 39 H       -9.1930     0.8710     1.3530 H     1 <1>   0.0800 
 40 H       -6.0650    -2.7040    -0.3390 H     1 <1>   0.1500 
 41 H      -10.8660    -3.8650    -1.0100 H     1 <1>   0.0800 
 42 H      -10.5450    -5.4380    -0.3150 H     1 <1>   0.0800 
 43 H      -10.3450    -5.1820    -2.0340 H     1 <1>   0.0800 
 44 H       -4.6010    -5.0490    -0.4860 H     1 <1>   0.0800 
 45 H       -5.3840    -6.1450    -1.6060 H     1 <1>   0.0800 
 46 H       -5.5670    -6.3780     0.1200 H     1 <1>   0.0800 
@<TRIPOS>BOND
  1   1   2  1   
  2   2   3  1   
  3   2   4  2   
  4   3   5  2   
  5   3   6  1   
  6   4   7  1   
  7   4   8  1   
  8   5   7  1   
  9   6   9  2   
 10   6  10  am  
 11   7  26  1   
 12   8  27  1   
 13   8  28  1   
 14   8  29  1   
 15  10  11  1   
 16  10  12  1   
 17  11  13  1   
 18  11  30  1   
 19  11  31  1   
 20  12  14  1   
 21  12  32  1   
 22  12  33  1   
 23  13  15  1   
 24  13  34  1   
 25  13  35  1   
 26  14  16  1   
 27  14  36  1   
 28  14  37  1   
 29  15  16  1   
 30  15  17  am  
 31  16  38  1   
 32  16  39  1   
 33  17  18  2   
 34  17  19  1   
 35  19  20  2   
 36  19  21  1   
 37  20  22  1   
 38  20  23  1   
 39  21  24  2   
 40  21  40  1   
 41  22  24  1   
 42  23  41  1   
 43  23  42  1   
 44  23  43  1   
 45  24  25  1   
 46  25  44  1   
 47  25  45  1   
 48  25  46  1   
@<TRIPOS>SUBSTRUCTURE
  1 ****   6 GROUP 4 **** **** 0

# MOE 2024.06 (io_trps.svl 2023.06)
