@<TRIPOS>MOLECULE
NONAME
60 63 1 0 0 
SMALL
USER_CHARGES


@<TRIPOS>ATOM
  1 O       -1.3630     0.0330    -1.4480 O.2   1 <1>  -0.5700 
  2 C       -1.8530     0.8840    -0.7260 C.2   1 <1>   0.5440 
  3 N       -2.7110     0.4630     0.2660 N.am  1 <1>  -0.6600 
  4 C       -1.5490     2.2900    -0.9430 C.ar  1 <1>   0.0860 
  5 C       -2.7330    -0.9700     0.6770 C.3   1 <1>   0.1400 
  6 C       -3.9870     1.1730     0.5630 C.3   1 <1>   0.1400 
  7 C       -1.3310     2.7860    -2.2280 C.ar  1 <1>  -0.1500 
  8 C       -1.4520     3.1960     0.1130 C.ar  1 <1>  -0.1500 
  9 C       -3.8340    -1.6950    -0.1300 C.3   1 <1>   0.4230 
 10 C       -5.1300     0.4590    -0.1750 C.3   1 <1>  -0.1600 
 11 C       -1.0440     4.1200    -2.4530 C.ar  1 <1>  -0.1500 
 12 C       -1.1680     4.5320    -0.1040 C.ar  1 <1>  -0.1500 
 13 N       -3.8880    -3.1810     0.0850 N.4   1 <1>  -0.9590 
 14 C       -5.2080    -1.0560     0.1740 C.3   1 <1>  -0.1060 
 15 C       -0.9610     5.0060    -1.3900 C.ar  1 <1>  -0.1430 
 16 C       -4.8810    -3.8330    -0.8050 C.3   1 <1>   0.3430 
 17 C       -2.5680    -3.8660     0.0600 C.3   1 <1>   0.2630 
 18 C       -5.5230    -1.2560     1.6700 C.2   1 <1>   0.9060 
 19 C       -6.2940    -1.7160    -0.7090 C.3   1 <1>  -0.1600 
 20 C       -0.6460     6.4810    -1.6330 C.3   1 <1>   0.2390 
 21 C       -6.2750    -3.2460    -0.5740 C.3   1 <1>  -0.1600 
 22 O       -5.1090    -2.2790     2.2390 O.co2 1 <1>  -0.9000 
 23 O       -6.1660    -0.4000     2.2750 O.co2 1 <1>  -0.9000 
 24 N        0.4490     6.9720    -0.7660 N.pl3 1 <1>   0.3140 
 25 N        0.2330     7.9550     0.1320 N.2   1 <1>  -0.7070 
 26 C        1.7460     6.5770    -0.7520 C.2   1 <1>  -0.3320 
 27 C        1.3830     8.1570     0.6920 C.2   1 <1>   0.1080 
 28 C        2.3710     7.3260     0.1800 C.2   1 <1>  -0.1500 
 29 C        2.3400     5.4890    -1.6320 C.3   1 <1>  -0.0600 
 30 C        1.5850     9.1920     1.7730 C.3   1 <1>  -0.0590 
 31 H       -1.7700    -1.4030     0.4780 H     1 <1>   0.0800 
 32 H       -2.9190    -1.0350     1.7350 H     1 <1>   0.0800 
 33 H       -4.1670     1.1640     1.6270 H     1 <1>   0.0800 
 34 H       -3.9420     2.1990     0.2430 H     1 <1>   0.0800 
 35 H       -1.3860     2.1060    -3.0620 H     1 <1>   0.1500 
 36 H       -1.5980     2.8460     1.1200 H     1 <1>   0.1500 
 37 H       -3.6100    -1.5220    -1.1690 H     1 <1>   0.0800 
 38 H       -6.0590     0.9370     0.0880 H     1 <1>   0.0800 
 39 H       -4.9890     0.5940    -1.2330 H     1 <1>   0.0800 
 40 H       -0.8840     4.4610    -3.4610 H     1 <1>   0.1500 
 41 H       -1.1030     5.2050     0.7360 H     1 <1>   0.1500 
 42 H       -4.2910    -3.2230     1.0610 H     1 <1>   0.4500 
 43 H       -4.5940    -3.6850    -1.8330 H     1 <1>   0.0800 
 44 H       -4.9080    -4.8920    -0.6060 H     1 <1>   0.0800 
 45 H       -2.0890    -3.7180    -0.8940 H     1 <1>   0.0800 
 46 H       -2.6960    -4.9220     0.2320 H     1 <1>   0.0800 
 47 H       -1.9320    -3.4720     0.8360 H     1 <1>   0.0800 
 48 H       -7.2630    -1.3420    -0.4200 H     1 <1>   0.0800 
 49 H       -6.1340    -1.4530    -1.7410 H     1 <1>   0.0800 
 50 H       -1.5210     7.0700    -1.4310 H     1 <1>   0.0800 
 51 H       -0.3580     6.6430    -2.6530 H     1 <1>   0.0800 
 52 H       -6.9610    -3.6750    -1.2830 H     1 <1>   0.0800 
 53 H       -6.6160    -3.5290     0.4080 H     1 <1>   0.0800 
 54 H        3.4020     7.3060     0.4830 H     1 <1>   0.1500 
 55 H        3.3960     5.4010    -1.4490 H     1 <1>   0.0800 
 56 H        2.1900     5.7230    -2.6700 H     1 <1>   0.0800 
 57 H        1.8780     4.5420    -1.4140 H     1 <1>   0.0800 
 58 H        2.6070     9.1970     2.1030 H     1 <1>   0.0800 
 59 H        0.9450     8.9670     2.6060 H     1 <1>   0.0800 
 60 H        1.3310    10.1630     1.3900 H     1 <1>   0.0800 
@<TRIPOS>BOND
  1   1   2  2   
  2   2   3  am  
  3   2   4  1   
  4   3   5  1   
  5   3   6  1   
  6   4   7  ar  
  7   4   8  ar  
  8   5   9  1   
  9   5  31  1   
 10   5  32  1   
 11   6  10  1   
 12   6  33  1   
 13   6  34  1   
 14   7  11  ar  
 15   7  35  1   
 16   8  12  ar  
 17   8  36  1   
 18   9  13  1   
 19   9  14  1   
 20   9  37  1   
 21  10  14  1   
 22  10  38  1   
 23  10  39  1   
 24  11  15  ar  
 25  11  40  1   
 26  12  15  ar  
 27  12  41  1   
 28  13  16  1   
 29  13  17  1   
 30  13  42  1   
 31  14  18  1   
 32  14  19  1   
 33  15  20  1   
 34  16  21  1   
 35  16  43  1   
 36  16  44  1   
 37  17  45  1   
 38  17  46  1   
 39  17  47  1   
 40  18  22  ar  
 41  18  23  ar  
 42  19  21  1   
 43  19  48  1   
 44  19  49  1   
 45  20  24  1   
 46  20  50  1   
 47  20  51  1   
 48  21  52  1   
 49  21  53  1   
 50  24  25  1   
 51  24  26  1   
 52  25  27  2   
 53  26  28  2   
 54  26  29  1   
 55  27  28  1   
 56  27  30  1   
 57  28  54  1   
 58  29  55  1   
 59  29  56  1   
 60  29  57  1   
 61  30  58  1   
 62  30  59  1   
 63  30  60  1   
@<TRIPOS>SUBSTRUCTURE
  1 ****   4 GROUP 4 **** **** 0

# MOE 2024.06 (io_trps.svl 2023.06)
