@<TRIPOS>MOLECULE
NONAME
47 50 1 0 0 
SMALL
USER_CHARGES


@<TRIPOS>ATOM
  1 CL      -0.7470    -2.3550     3.2560 Cl    1 <1>  -0.1770 
  2 C       -1.8380    -2.1500     1.9090 C.ar  1 <1>   0.1770 
  3 C       -2.5480    -0.9690     1.7660 C.ar  1 <1>   0.1600 
  4 C       -1.9880    -3.1660     0.9950 C.ar  1 <1>  -0.1500 
  5 N       -3.3950    -0.7310     0.7730 N.ar  1 <1>  -0.6200 
  6 C       -2.8730    -2.9510    -0.0520 C.ar  1 <1>   0.0860 
  7 C       -3.5240    -1.7180    -0.1050 C.ar  1 <1>   0.1600 
  8 C       -3.1150    -3.9570    -1.0580 C.2   1 <1>   0.5440 
  9 O       -2.1800    -4.3400    -1.7330 O.2   1 <1>  -0.5700 
 10 N       -4.3690    -4.4950    -1.2610 N.am  1 <1>  -0.6600 
 11 C       -5.5130    -4.3450    -0.3170 C.3   1 <1>   0.1400 
 12 C       -4.6340    -5.4810    -2.3480 C.3   1 <1>   0.1400 
 13 C       -5.8000    -5.6970     0.3400 C.3   1 <1>  -0.1600 
 14 C       -4.9160    -6.8520    -1.7290 C.3   1 <1>  -0.1600 
 15 C       -6.0630    -6.8020    -0.7030 C.3   1 <1>   0.4240 
 16 O       -7.1750    -6.3800    -1.4640 O.3   1 <1>  -0.5600 
 17 C       -6.3060    -8.1930    -0.0500 C.ar  1 <1>  -0.1430 
 18 C       -8.4450    -6.6570    -0.9720 C.3   1 <1>   0.1200 
 19 C       -5.3240    -8.8430     0.7100 C.ar  1 <1>   0.0830 
 20 C       -7.5360    -8.8310    -0.2130 C.ar  1 <1>  -0.1430 
 21 C       -8.6440    -8.1640    -1.0020 C.3   1 <1>  -0.0170 
 22 O       -4.1240    -8.2320     0.9000 O.3   1 <1>  -0.3630 
 23 C       -5.5800   -10.0950     1.2660 C.ar  1 <1>  -0.1500 
 24 C       -7.7770   -10.0770     0.3400 C.ar  1 <1>  -0.1500 
 25 C       -3.0030    -8.9050     1.4290 C.3   1 <1>   0.0400 
 26 C       -6.8000   -10.7110     1.0790 C.ar  1 <1>  -0.1500 
 27 H       -2.4090    -0.1940     2.5000 H     1 <1>   0.1500 
 28 H       -1.4450    -4.0900     1.0820 H     1 <1>   0.1500 
 29 H       -4.1950    -1.5470    -0.9300 H     1 <1>   0.1500 
 30 H       -6.3790    -4.0100    -0.8630 H     1 <1>   0.0800 
 31 H       -5.3000    -3.6210     0.4480 H     1 <1>   0.0800 
 32 H       -3.7920    -5.5510    -3.0160 H     1 <1>   0.0800 
 33 H       -5.4830    -5.1530    -2.9230 H     1 <1>   0.0800 
 34 H       -6.6380    -5.6150     1.0050 H     1 <1>   0.0800 
 35 H       -4.9510    -5.9500     0.9430 H     1 <1>   0.0800 
 36 H       -4.0070    -7.1920    -1.2750 H     1 <1>   0.0800 
 37 H       -5.1680    -7.5550    -2.5010 H     1 <1>   0.0800 
 38 H       -9.1610    -6.1690    -1.6090 H     1 <1>   0.0800 
 39 H       -8.5350    -6.2710     0.0280 H     1 <1>   0.0800 
 40 H       -8.6270    -8.5100    -2.0200 H     1 <1>   0.0800 
 41 H       -9.6020    -8.4020    -0.5760 H     1 <1>   0.0800 
 42 H       -4.8440   -10.6090     1.8520 H     1 <1>   0.1500 
 43 H       -8.7290   -10.5600     0.1990 H     1 <1>   0.1500 
 44 H       -2.1580    -8.2440     1.3670 H     1 <1>   0.0800 
 45 H       -2.8190    -9.7900     0.8450 H     1 <1>   0.0800 
 46 H       -3.1970    -9.1530     2.4580 H     1 <1>   0.0800 
 47 H       -6.9910   -11.6790     1.5090 H     1 <1>   0.1500 
@<TRIPOS>BOND
  1   1   2  1   
  2   2   3  ar  
  3   2   4  ar  
  4   3   5  ar  
  5   3  27  1   
  6   4   6  ar  
  7   4  28  1   
  8   5   7  ar  
  9   6   7  ar  
 10   6   8  1   
 11   7  29  1   
 12   8   9  2   
 13   8  10  am  
 14  10  11  1   
 15  10  12  1   
 16  11  13  1   
 17  11  30  1   
 18  11  31  1   
 19  12  14  1   
 20  12  32  1   
 21  12  33  1   
 22  13  15  1   
 23  13  34  1   
 24  13  35  1   
 25  14  15  1   
 26  14  36  1   
 27  14  37  1   
 28  15  16  1   
 29  15  17  1   
 30  16  18  1   
 31  17  19  ar  
 32  17  20  ar  
 33  18  21  1   
 34  18  38  1   
 35  18  39  1   
 36  19  22  1   
 37  19  23  ar  
 38  20  21  1   
 39  20  24  ar  
 40  21  40  1   
 41  21  41  1   
 42  22  25  1   
 43  23  26  ar  
 44  23  42  1   
 45  24  26  ar  
 46  24  43  1   
 47  25  44  1   
 48  25  45  1   
 49  25  46  1   
 50  26  47  1   
@<TRIPOS>SUBSTRUCTURE
  1 ****  13 GROUP 4 **** **** 0

# MOE 2024.06 (io_trps.svl 2023.06)
