@<TRIPOS>MOLECULE
NONAME
51 54 1 0 0 
SMALL
USER_CHARGES


@<TRIPOS>ATOM
  1 O       -0.7900    -1.4450    -1.4220 O.3   1 <1>  -0.5600 
  2 C        0.4970    -1.9680    -1.2940 C.3   1 <1>   0.1200 
  3 C       -1.7100    -1.9670    -0.5070 C.3   1 <1>   0.1200 
  4 C        0.4860    -3.4910    -1.5270 C.3   1 <1>   0.2090 
  5 C       -1.8480    -3.4890    -0.6840 C.3   1 <1>   0.2090 
  6 N       -0.5030    -4.1750    -0.6200 N.pl3 1 <1>  -0.8380 
  7 C       -0.2980    -5.2820     0.1470 C.ar  1 <1>   0.7710 
  8 N       -1.2970    -5.7550     0.8810 N.ar  1 <1>  -0.6200 
  9 N        0.9090    -5.8780     0.1380 N.ar  1 <1>  -0.1790 
 10 C       -1.0890    -6.8520     1.5680 C.ar  1 <1>   0.4100 
 11 C        1.1810    -6.9770     0.8820 C.ar  1 <1>   0.2180 
 12 N       -2.1750    -7.3440     2.1770 N.pl3 1 <1>  -0.8690 
 13 C        0.1650    -7.4840     1.6200 C.ar  1 <1>  -0.1500 
 14 C        2.5860    -7.5700     0.8540 C.3   1 <1>  -0.0170 
 15 C       -2.5300    -8.7640     2.3910 C.3   1 <1>   0.3530 
 16 C        3.1300    -7.7730    -0.5680 C.3   1 <1>  -0.2400 
 17 C       -3.6840    -9.0900     1.4530 C.ar  1 <1>  -0.1440 
 18 C       -3.4810    -9.2670     0.0800 C.ar  1 <1>  -0.0230 
 19 C       -4.9640    -9.1990     1.9770 C.ar  1 <1>  -0.1500 
 20 N       -2.1930    -9.1480    -0.5100 N.pl3 1 <1>   0.5930 
 21 C       -4.5720    -9.5580    -0.7330 C.ar  1 <1>  -0.1500 
 22 C       -6.0390    -9.4840     1.1550 C.ar  1 <1>  -0.1500 
 23 N       -1.2000   -10.0300    -0.3550 N.2   1 <1>  -0.7070 
 24 C       -1.7270    -8.1660    -1.3010 C.2   1 <1>   0.0360 
 25 C       -5.8430    -9.6640    -0.2010 C.ar  1 <1>  -0.1500 
 26 C       -0.2520    -9.5360    -1.0740 C.2   1 <1>   0.3660 
 27 N       -0.5070    -8.3570    -1.6610 N.2   1 <1>  -0.5650 
 28 H        0.8700    -1.7300    -0.3120 H     1 <1>   0.0800 
 29 H        1.1190    -1.4830    -2.0260 H     1 <1>   0.0800 
 30 H       -2.6570    -1.4870    -0.6850 H     1 <1>   0.0800 
 31 H       -1.3850    -1.7270     0.4900 H     1 <1>   0.0800 
 32 H        1.4830    -3.8620    -1.3820 H     1 <1>   0.0800 
 33 H        0.2100    -3.6750    -2.5520 H     1 <1>   0.0800 
 34 H       -2.3000    -3.6850    -1.6410 H     1 <1>   0.0800 
 35 H       -2.5230    -3.8520     0.0710 H     1 <1>   0.0800 
 36 H        1.5940    -5.4890    -0.4920 H     1 <1>   0.4570 
 37 H       -3.0010    -6.7370     2.1700 H     1 <1>   0.4000 
 38 H        0.2850    -8.3520     2.2400 H     1 <1>   0.1500 
 39 H        2.5750    -8.5220     1.3580 H     1 <1>   0.0800 
 40 H        3.2540    -6.9270     1.4020 H     1 <1>   0.0800 
 41 H       -2.8250    -8.9060     3.4160 H     1 <1>   0.0800 
 42 H       -1.6940    -9.4110     2.1930 H     1 <1>   0.0800 
 43 H        2.4560    -8.3720    -1.1540 H     1 <1>   0.0800 
 44 H        4.0760    -8.2850    -0.5220 H     1 <1>   0.0800 
 45 H        3.2880    -6.8350    -1.0690 H     1 <1>   0.0800 
 46 H       -5.1380    -9.0620     3.0310 H     1 <1>   0.1500 
 47 H       -4.4320    -9.7080    -1.7900 H     1 <1>   0.1500 
 48 H       -7.0290    -9.5660     1.5710 H     1 <1>   0.1500 
 49 H       -2.3400    -7.3240    -1.5700 H     1 <1>   0.1500 
 50 H       -6.6800    -9.8890    -0.8400 H     1 <1>   0.1500 
 51 H        0.7020   -10.0250    -1.2040 H     1 <1>   0.1500 
@<TRIPOS>BOND
  1   1   2  1   
  2   1   3  1   
  3   2   4  1   
  4   2  28  1   
  5   2  29  1   
  6   3   5  1   
  7   3  30  1   
  8   3  31  1   
  9   4   6  1   
 10   4  32  1   
 11   4  33  1   
 12   5   6  1   
 13   5  34  1   
 14   5  35  1   
 15   6   7  1   
 16   7   8  ar  
 17   7   9  ar  
 18   8  10  ar  
 19   9  11  ar  
 20   9  36  1   
 21  10  12  1   
 22  10  13  ar  
 23  11  13  ar  
 24  11  14  1   
 25  12  15  1   
 26  12  37  1   
 27  13  38  1   
 28  14  16  1   
 29  14  39  1   
 30  14  40  1   
 31  15  17  1   
 32  15  41  1   
 33  15  42  1   
 34  16  43  1   
 35  16  44  1   
 36  16  45  1   
 37  17  18  ar  
 38  17  19  ar  
 39  18  20  1   
 40  18  21  ar  
 41  19  22  ar  
 42  19  46  1   
 43  20  23  1   
 44  20  24  1   
 45  21  25  ar  
 46  21  47  1   
 47  22  25  ar  
 48  22  48  1   
 49  23  26  2   
 50  24  27  2   
 51  24  49  1   
 52  25  50  1   
 53  26  27  1   
 54  26  51  1   
@<TRIPOS>SUBSTRUCTURE
  1 ****   8 GROUP 4 **** **** 0

# MOE 2024.06 (io_trps.svl 2023.06)
