@<TRIPOS>MOLECULE
NONAME
57 60 1 0 0 
SMALL
USER_CHARGES


@<TRIPOS>ATOM
  1 O       -1.6990    -5.0030    -0.4250 O.2   1 <1>  -0.5700 
  2 C       -0.5230    -4.7470    -0.5250 C.2   1 <1>   0.5690 
  3 N        0.3060    -5.3540    -1.4280 N.am  1 <1>  -0.6600 
  4 C        0.0850    -3.7100     0.3990 C.3   1 <1>  -0.0990 
  5 C        1.7450    -4.9950    -1.4860 C.3   1 <1>   0.1400 
  6 C       -0.1620    -6.4100    -2.3640 C.3   1 <1>   0.0600 
  7 C        1.0030    -2.7540    -0.3850 C.3   1 <1>  -0.0800 
  8 C        1.9130    -3.4660    -1.4140 C.3   1 <1>  -0.0800 
  9 C        1.9280    -1.9250     0.5170 C.3   1 <1>  -0.1600 
 10 C        3.3490    -3.0420    -1.0790 C.3   1 <1>  -0.1600 
 11 C        3.1930    -1.7320    -0.3180 C.3   1 <1>   0.2200 
 12 N        4.4160    -1.3800     0.4640 N.am  1 <1>  -0.6600 
 13 C        5.3250    -0.4800    -0.0620 C.2   1 <1>   0.5440 
 14 C        4.6930    -2.1290     1.7280 C.3   1 <1>   0.0600 
 15 O        5.2470    -0.1800    -1.2380 O.2   1 <1>  -0.5700 
 16 C        6.3780     0.1070     0.7470 C.ar  1 <1>   0.0860 
 17 C        7.7060     0.0660     0.3290 C.ar  1 <1>  -0.1500 
 18 C        6.1020     0.7340     1.9620 C.ar  1 <1>  -0.1500 
 19 C        8.7430     0.6010     1.0850 C.ar  1 <1>   0.0000 
 20 C        7.1140     1.2760     2.7310 C.ar  1 <1>  -0.1500 
 21 C       10.1110     0.5320     0.6270 C.ar  1 <1>   0.0000 
 22 C        8.4240     1.2060     2.2960 C.ar  1 <1>  -0.1500 
 23 C       10.8770     1.6850     0.4740 C.ar  1 <1>  -0.1500 
 24 C       10.7060    -0.6900     0.3240 C.ar  1 <1>  -0.1500 
 25 C       12.1880     1.6260     0.0390 C.ar  1 <1>  -0.1500 
 26 C       12.0150    -0.7570    -0.1120 C.ar  1 <1>  -0.1500 
 27 C       12.7690     0.3960    -0.2580 C.ar  1 <1>   0.0820 
 28 O       14.0440     0.2460    -0.6890 O.3   1 <1>  -0.3630 
 29 C       14.8950     1.3550    -0.8720 C.3   1 <1>   0.0400 
 30 H       -0.6980    -3.1560     0.8830 H     1 <1>   0.0800 
 31 H        0.6410    -4.2370     1.1520 H     1 <1>   0.0800 
 32 H        2.2430    -5.4640    -0.6550 H     1 <1>   0.0800 
 33 H        2.1860    -5.3650    -2.3970 H     1 <1>   0.0800 
 34 H        0.3890    -7.3180    -2.1940 H     1 <1>   0.0800 
 35 H       -0.0140    -6.0860    -3.3790 H     1 <1>   0.0800 
 36 H       -1.2090    -6.6090    -2.2160 H     1 <1>   0.0800 
 37 H        0.3730    -2.0750    -0.9370 H     1 <1>   0.0800 
 38 H        1.6720    -3.0700    -2.3870 H     1 <1>   0.0800 
 39 H        2.1390    -2.4790     1.4120 H     1 <1>   0.0800 
 40 H        1.4840    -0.9800     0.7750 H     1 <1>   0.0800 
 41 H        3.9400    -2.9010    -1.9670 H     1 <1>   0.0800 
 42 H        3.8170    -3.7780    -0.4510 H     1 <1>   0.0800 
 43 H        2.9890    -0.9520    -1.0350 H     1 <1>   0.0800 
 44 H        4.4050    -3.1600     1.6240 H     1 <1>   0.0800 
 45 H        4.1380    -1.6900     2.5380 H     1 <1>   0.0800 
 46 H        5.7410    -2.1000     1.9670 H     1 <1>   0.0800 
 47 H        7.9310    -0.3940    -0.6170 H     1 <1>   0.1500 
 48 H        5.0820     0.7960     2.2970 H     1 <1>   0.1500 
 49 H        6.8830     1.7540     3.6680 H     1 <1>   0.1500 
 50 H        9.2110     1.6230     2.8990 H     1 <1>   0.1500 
 51 H       10.4330     2.6390     0.6960 H     1 <1>   0.1500 
 52 H       10.1350    -1.5950     0.4350 H     1 <1>   0.1500 
 53 H       12.7400     2.5410    -0.0640 H     1 <1>   0.1500 
 54 H       12.4660    -1.7060    -0.3430 H     1 <1>   0.1500 
 55 H       15.8470     0.9920    -1.2160 H     1 <1>   0.0800 
 56 H       15.0150     1.8610     0.0690 H     1 <1>   0.0800 
 57 H       14.4640     2.0080    -1.6100 H     1 <1>   0.0800 
@<TRIPOS>BOND
  1   1   2  2   
  2   2   3  am  
  3   2   4  1   
  4   3   5  1   
  5   3   6  1   
  6   4   7  1   
  7   4  30  1   
  8   4  31  1   
  9   5   8  1   
 10   5  32  1   
 11   5  33  1   
 12   6  34  1   
 13   6  35  1   
 14   6  36  1   
 15   7   8  1   
 16   7   9  1   
 17   7  37  1   
 18   8  10  1   
 19   8  38  1   
 20   9  11  1   
 21   9  39  1   
 22   9  40  1   
 23  10  11  1   
 24  10  41  1   
 25  10  42  1   
 26  11  12  1   
 27  11  43  1   
 28  12  13  am  
 29  12  14  1   
 30  13  15  2   
 31  13  16  1   
 32  14  44  1   
 33  14  45  1   
 34  14  46  1   
 35  16  17  ar  
 36  16  18  ar  
 37  17  19  ar  
 38  17  47  1   
 39  18  20  ar  
 40  18  48  1   
 41  19  21  1   
 42  19  22  ar  
 43  20  22  ar  
 44  20  49  1   
 45  21  23  ar  
 46  21  24  ar  
 47  22  50  1   
 48  23  25  ar  
 49  23  51  1   
 50  24  26  ar  
 51  24  52  1   
 52  25  27  ar  
 53  25  53  1   
 54  26  27  ar  
 55  26  54  1   
 56  27  28  1   
 57  28  29  1   
 58  29  55  1   
 59  29  56  1   
 60  29  57  1   
@<TRIPOS>SUBSTRUCTURE
  1 ****  13 GROUP 4 **** **** 0

# MOE 2024.06 (io_trps.svl 2023.06)
