@<TRIPOS>MOLECULE
NONAME
48 50 1 0 0 
SMALL
USER_CHARGES


@<TRIPOS>ATOM
  1 CL      -0.5070    -0.0860     0.0100 Cl    1 <1>  -0.1230 
  2 C       -1.1060    -1.6740     0.4310 C.2   1 <1>   0.4120 
  3 N       -1.9270    -1.8990     1.3900 N.2   1 <1>  -0.4100 
  4 C       -0.7440    -2.8320    -0.2440 C.2   1 <1>  -0.1500 
  5 O       -2.1170    -3.1900     1.3720 O.3   1 <1>  -0.0190 
  6 C       -1.4360    -3.7750     0.4160 C.2   1 <1>  -0.0400 
  7 C       -1.5310    -5.2770     0.2280 C.3   1 <1>   0.0200 
  8 C       -2.9780    -5.6970    -0.0760 C.3   1 <1>  -0.0990 
  9 C       -3.1410    -7.1880    -0.3240 C.2   1 <1>   0.5690 
 10 O       -2.1960    -7.9170    -0.1340 O.2   1 <1>  -0.5700 
 11 N       -4.3450    -7.7020    -0.7370 N.am  1 <1>  -0.6600 
 12 C       -4.4790    -9.1520    -1.0540 C.3   1 <1>   0.1400 
 13 C       -5.6440    -6.9720    -0.7050 C.3   1 <1>   0.1400 
 14 C       -5.3650    -9.8300     0.0140 C.3   1 <1>   0.4230 
 15 C       -6.5300    -7.6210     0.3670 C.3   1 <1>  -0.1600 
 16 N       -5.4290   -11.3470    -0.1080 N.4   1 <1>  -0.9590 
 17 C       -6.7600    -9.1450     0.1430 C.3   1 <1>   0.0000 
 18 C       -6.5750   -11.9740     0.6280 C.3   1 <1>   0.3430 
 19 C       -5.3640   -11.8870    -1.5070 C.3   1 <1>   0.2630 
 20 C       -7.5010    -9.7240     1.3850 C.3   1 <1>  -0.1600 
 21 C       -7.5960    -9.3820    -1.1470 C.3   1 <1>   0.1200 
 22 C       -6.9980   -11.1150     1.8180 C.3   1 <1>  -0.1600 
 23 O       -8.7460    -8.6110    -1.1610 O.3   1 <1>  -0.6800 
 24 H       -0.0740    -2.9000    -1.0800 H     1 <1>   0.1500 
 25 H       -0.8890    -5.5770    -0.5820 H     1 <1>   0.0800 
 26 H       -1.1890    -5.7670     1.1230 H     1 <1>   0.0800 
 27 H       -3.3150    -5.1660    -0.9470 H     1 <1>   0.0800 
 28 H       -3.6000    -5.4190     0.7550 H     1 <1>   0.0800 
 29 H       -4.9060    -9.2450    -2.0350 H     1 <1>   0.0800 
 30 H       -3.5120    -9.6220    -1.0650 H     1 <1>   0.0800 
 31 H       -5.5050    -5.9310    -0.4720 H     1 <1>   0.0800 
 32 H       -6.1160    -7.0280    -1.6720 H     1 <1>   0.0800 
 33 H       -4.8680    -9.6280     0.9490 H     1 <1>   0.0800 
 34 H       -6.0540    -7.4570     1.3180 H     1 <1>   0.0800 
 35 H       -7.4690    -7.0960     0.4020 H     1 <1>   0.0800 
 36 H       -4.5750   -11.6750     0.3700 H     1 <1>   0.4500 
 37 H       -7.4200   -12.0800    -0.0330 H     1 <1>   0.0800 
 38 H       -6.2970   -12.9590     0.9690 H     1 <1>   0.0800 
 39 H       -6.2090   -11.5480    -2.0830 H     1 <1>   0.0800 
 40 H       -5.3720   -12.9660    -1.4910 H     1 <1>   0.0800 
 41 H       -4.4590   -11.5660    -1.9960 H     1 <1>   0.0800 
 42 H       -7.3930    -9.0670     2.2320 H     1 <1>   0.0800 
 43 H       -8.5580    -9.7810     1.1890 H     1 <1>   0.0800 
 44 H       -7.8980   -10.4100    -1.2410 H     1 <1>   0.0800 
 45 H       -7.0430    -9.1110    -2.0280 H     1 <1>   0.0800 
 46 H       -7.7810   -11.6190     2.3590 H     1 <1>   0.0800 
 47 H       -6.1650   -11.0150     2.4940 H     1 <1>   0.0800 
 48 H       -9.3690    -8.8570    -0.4490 H     1 <1>   0.4000 
@<TRIPOS>BOND
  1   1   2  1   
  2   2   3  2   
  3   2   4  1   
  4   3   5  1   
  5   4   6  2   
  6   4  24  1   
  7   5   6  1   
  8   6   7  1   
  9   7   8  1   
 10   7  25  1   
 11   7  26  1   
 12   8   9  1   
 13   8  27  1   
 14   8  28  1   
 15   9  10  2   
 16   9  11  am  
 17  11  12  1   
 18  11  13  1   
 19  12  14  1   
 20  12  29  1   
 21  12  30  1   
 22  13  15  1   
 23  13  31  1   
 24  13  32  1   
 25  14  16  1   
 26  14  17  1   
 27  14  33  1   
 28  15  17  1   
 29  15  34  1   
 30  15  35  1   
 31  16  18  1   
 32  16  19  1   
 33  16  36  1   
 34  17  20  1   
 35  17  21  1   
 36  18  22  1   
 37  18  37  1   
 38  18  38  1   
 39  19  39  1   
 40  19  40  1   
 41  19  41  1   
 42  20  22  1   
 43  20  42  1   
 44  20  43  1   
 45  21  23  1   
 46  21  44  1   
 47  21  45  1   
 48  22  46  1   
 49  22  47  1   
 50  23  48  1   
@<TRIPOS>SUBSTRUCTURE
  1 ****  11 GROUP 4 **** **** 0

# MOE 2024.06 (io_trps.svl 2023.06)
