@<TRIPOS>MOLECULE
NONAME
56 58 1 0 0 
SMALL
USER_CHARGES


@<TRIPOS>ATOM
  1 O        1.4780     0.9460     2.1360 O.2   1 <1>  -0.5700 
  2 C        1.9440     0.0450     1.4760 C.2   1 <1>   0.5690 
  3 N        2.7250     0.2990     0.3750 N.am  1 <1>  -0.6600 
  4 C        1.6600    -1.3780     1.9470 C.3   1 <1>   0.0440 
  5 C        3.3210    -0.7350    -0.5330 C.3   1 <1>   0.1400 
  6 C        3.0440     1.6960    -0.0240 C.3   1 <1>   0.1400 
  7 C        0.7980    -2.2020     0.9850 C.ar  1 <1>  -0.1440 
  8 C        4.8230    -0.9370    -0.2830 C.3   1 <1>   0.1400 
  9 C        4.2830     2.2130     0.7180 C.3   1 <1>  -0.1600 
 10 C        1.0570    -3.5440     0.7100 C.ar  1 <1>  -0.1440 
 11 C       -0.2790    -1.5790     0.3680 C.ar  1 <1>  -0.1500 
 12 N        5.5870     0.3490    -0.3360 N.am  1 <1>  -0.6600 
 13 C        5.4250     1.2000     0.8770 C.3   1 <1>   0.1400 
 14 C        0.2470    -4.2220    -0.1890 C.ar  1 <1>  -0.1500 
 15 C        2.2010    -4.3060     1.3650 C.3   1 <1>  -0.0970 
 16 C       -1.0840    -2.2590    -0.5290 C.ar  1 <1>  -0.1440 
 17 C        6.3690     0.6660    -1.4200 C.2   1 <1>   0.5690 
 18 C       -0.8140    -3.5860    -0.8060 C.ar  1 <1>  -0.1500 
 19 C       -2.2510    -1.5550    -1.1960 C.3   1 <1>  -0.0970 
 20 O        6.4490    -0.0770    -2.3730 O.2   1 <1>  -0.5700 
 21 C        7.1510     1.9710    -1.4910 C.3   1 <1>   0.0440 
 22 C        8.3660     1.9960    -0.5610 C.ar  1 <1>  -0.1440 
 23 C        8.5740     3.0140     0.3660 C.ar  1 <1>   0.0820 
 24 C        9.2980     0.9720    -0.6470 C.ar  1 <1>  -0.1500 
 25 O        7.6960     4.0250     0.4850 O.3   1 <1>  -0.5330 
 26 C        9.6890     3.0060     1.1890 C.ar  1 <1>  -0.1500 
 27 C       10.4110     0.9600     0.1760 C.ar  1 <1>  -0.1500 
 28 C       10.6080     1.9760     1.0940 C.ar  1 <1>  -0.1500 
 29 H        1.1500    -1.3270     2.8920 H     1 <1>   0.0800 
 30 H        2.6080    -1.8430     2.1240 H     1 <1>   0.0800 
 31 H        3.1780    -0.4330    -1.5560 H     1 <1>   0.0800 
 32 H        2.8230    -1.6770    -0.4200 H     1 <1>   0.0800 
 33 H        2.2040     2.3370     0.1850 H     1 <1>   0.0800 
 34 H        3.2230     1.7320    -1.0850 H     1 <1>   0.0800 
 35 H        5.2050    -1.6220    -1.0200 H     1 <1>   0.0800 
 36 H        4.9660    -1.3980     0.6780 H     1 <1>   0.0800 
 37 H        3.9820     2.5360     1.6980 H     1 <1>   0.0800 
 38 H        4.6500     3.0850     0.2080 H     1 <1>   0.0800 
 39 H       -0.4990    -0.5480     0.5850 H     1 <1>   0.1500 
 40 H        5.2060     0.5660     1.7190 H     1 <1>   0.0800 
 41 H        6.3400     1.7120     1.1060 H     1 <1>   0.0800 
 42 H        0.4340    -5.2560    -0.4150 H     1 <1>   0.1500 
 43 H        2.1420    -4.2120     2.4350 H     1 <1>   0.0800 
 44 H        3.1450    -3.9230     1.0250 H     1 <1>   0.0800 
 45 H        2.1550    -5.3530     1.1220 H     1 <1>   0.0800 
 46 H       -1.4300    -4.1310    -1.4990 H     1 <1>   0.1500 
 47 H       -2.0320    -0.5100    -1.3280 H     1 <1>   0.0800 
 48 H       -3.1300    -1.6510    -0.5840 H     1 <1>   0.0800 
 49 H       -2.4490    -1.9850    -2.1610 H     1 <1>   0.0800 
 50 H        6.4790     2.7810    -1.2900 H     1 <1>   0.0800 
 51 H        7.4990     2.1030    -2.4980 H     1 <1>   0.0800 
 52 H        9.1590     0.1750    -1.3590 H     1 <1>   0.1500 
 53 H        7.9850     4.7020     1.1210 H     1 <1>   0.4500 
 54 H        9.8480     3.7920     1.9040 H     1 <1>   0.1500 
 55 H       11.1250     0.1580     0.0980 H     1 <1>   0.1500 
 56 H       11.4750     1.9640     1.7310 H     1 <1>   0.1500 
@<TRIPOS>BOND
  1   1   2  2   
  2   2   3  am  
  3   2   4  1   
  4   3   5  1   
  5   3   6  1   
  6   4   7  1   
  7   4  29  1   
  8   4  30  1   
  9   5   8  1   
 10   5  31  1   
 11   5  32  1   
 12   6   9  1   
 13   6  33  1   
 14   6  34  1   
 15   7  10  ar  
 16   7  11  ar  
 17   8  12  1   
 18   8  35  1   
 19   8  36  1   
 20   9  13  1   
 21   9  37  1   
 22   9  38  1   
 23  10  14  ar  
 24  10  15  1   
 25  11  16  ar  
 26  11  39  1   
 27  12  13  1   
 28  12  17  am  
 29  13  40  1   
 30  13  41  1   
 31  14  18  ar  
 32  14  42  1   
 33  15  43  1   
 34  15  44  1   
 35  15  45  1   
 36  16  18  ar  
 37  16  19  1   
 38  17  20  2   
 39  17  21  1   
 40  18  46  1   
 41  19  47  1   
 42  19  48  1   
 43  19  49  1   
 44  21  22  1   
 45  21  50  1   
 46  21  51  1   
 47  22  23  ar  
 48  22  24  ar  
 49  23  25  1   
 50  23  26  ar  
 51  24  27  ar  
 52  24  52  1   
 53  25  53  1   
 54  26  28  ar  
 55  26  54  1   
 56  27  28  ar  
 57  27  55  1   
 58  28  56  1   
@<TRIPOS>SUBSTRUCTURE
  1 ****   8 GROUP 4 **** **** 0

# MOE 2024.06 (io_trps.svl 2023.06)
