@<TRIPOS>MOLECULE
NONAME
44 45 1 0 0 
SMALL
USER_CHARGES


@<TRIPOS>ATOM
  1 O        0.8440    -0.2630     0.4270 O.3   1 <1>  -0.5600 
  2 C        0.8440    -1.6420     0.6310 C.3   1 <1>   0.2000 
  3 C        2.0890     0.3460     0.5110 C.3   1 <1>   0.1200 
  4 C        1.0800    -2.3530    -0.7000 C.3   1 <1>  -0.1600 
  5 C       -0.5770    -2.0500     1.0000 C.3   1 <1>  -0.1600 
  6 C        1.8990     1.8260     0.1920 C.3   1 <1>  -0.1600 
  7 C       -0.2710    -2.3200    -1.4210 C.3   1 <1>  -0.1600 
  8 C       -1.3350    -2.1710    -0.3270 C.3   1 <1>  -0.1600 
  9 C        3.2240     2.5740     0.2890 C.3   1 <1>   0.2090 
 10 N        3.0020     3.9920    -0.0540 N.pl3 1 <1>  -0.8690 
 11 C        3.9970     4.9400    -0.0620 C.ar  1 <1>   0.4100 
 12 N        5.2270     4.5160     0.1430 N.ar  1 <1>  -0.6200 
 13 C        3.7160     6.2860    -0.2730 C.ar  1 <1>  -0.1430 
 14 C        6.1650     5.4380     0.1370 C.ar  1 <1>   0.4770 
 15 C        4.7890     7.1430    -0.2510 C.ar  1 <1>   0.1600 
 16 C        2.2740     6.7450    -0.5160 C.3   1 <1>  -0.0170 
 17 N        6.0260     6.7370    -0.0460 N.ar  1 <1>  -0.6200 
 18 C        7.5710     4.9420     0.3720 C.3   1 <1>  -0.0970 
 19 C        2.1030     8.2410    -0.8100 C.3   1 <1>  -0.2400 
 20 H        1.5550    -1.9030     1.3970 H     1 <1>   0.0800 
 21 H        2.7560    -0.1120    -0.1990 H     1 <1>   0.0800 
 22 H        2.4680     0.2170     1.5110 H     1 <1>   0.0800 
 23 H        1.3420    -3.3760    -0.4990 H     1 <1>   0.0800 
 24 H        1.8640    -1.9040    -1.2820 H     1 <1>   0.0800 
 25 H       -1.0330    -1.3440     1.6730 H     1 <1>   0.0800 
 26 H       -0.5460    -3.0140     1.4740 H     1 <1>   0.0800 
 27 H        1.1990     2.2460     0.8920 H     1 <1>   0.0800 
 28 H        1.5110     1.9180    -0.8070 H     1 <1>   0.0800 
 29 H       -0.4230    -3.2090    -2.0090 H     1 <1>   0.0800 
 30 H       -0.3070    -1.4610    -2.0690 H     1 <1>   0.0800 
 31 H       -1.9030    -1.2730    -0.5020 H     1 <1>   0.0800 
 32 H       -2.0070    -3.0120    -0.3110 H     1 <1>   0.0800 
 33 H        3.9430     2.1550    -0.3960 H     1 <1>   0.0800 
 34 H        3.6210     2.5090     1.2880 H     1 <1>   0.0800 
 35 H        2.0350     4.3080    -0.0020 H     1 <1>   0.4000 
 36 H        4.6580     8.1990    -0.4050 H     1 <1>   0.1500 
 37 H        1.6870     6.4990     0.3520 H     1 <1>   0.0800 
 38 H        1.8770     6.1900    -1.3490 H     1 <1>   0.0800 
 39 H        7.8030     4.1750    -0.3420 H     1 <1>   0.0800 
 40 H        7.6430     4.5360     1.3630 H     1 <1>   0.0800 
 41 H        8.2780     5.7440     0.2670 H     1 <1>   0.0800 
 42 H        2.4370     8.8320     0.0240 H     1 <1>   0.0800 
 43 H        1.0640     8.4610    -0.9840 H     1 <1>   0.0800 
 44 H        2.6580     8.5180    -1.6900 H     1 <1>   0.0800 
@<TRIPOS>BOND
  1   1   2  1   
  2   1   3  1   
  3   2   4  1   
  4   2   5  1   
  5   2  20  1   
  6   3   6  1   
  7   3  21  1   
  8   3  22  1   
  9   4   7  1   
 10   4  23  1   
 11   4  24  1   
 12   5   8  1   
 13   5  25  1   
 14   5  26  1   
 15   6   9  1   
 16   6  27  1   
 17   6  28  1   
 18   7   8  1   
 19   7  29  1   
 20   7  30  1   
 21   8  31  1   
 22   8  32  1   
 23   9  10  1   
 24   9  33  1   
 25   9  34  1   
 26  10  11  1   
 27  10  35  1   
 28  11  12  ar  
 29  11  13  ar  
 30  12  14  ar  
 31  13  15  ar  
 32  13  16  1   
 33  14  17  ar  
 34  14  18  1   
 35  15  17  ar  
 36  15  36  1   
 37  16  19  1   
 38  16  37  1   
 39  16  38  1   
 40  18  39  1   
 41  18  40  1   
 42  18  41  1   
 43  19  42  1   
 44  19  43  1   
 45  19  44  1   
@<TRIPOS>SUBSTRUCTURE
  1 ****   9 GROUP 4 **** **** 0

# MOE 2024.06 (io_trps.svl 2023.06)
