@<TRIPOS>MOLECULE
NONAME
53 55 1 0 0 
SMALL
USER_CHARGES


@<TRIPOS>ATOM
  1 O       -3.5340     1.3730    -1.2090 O.2   1 <1>  -0.5700 
  2 C       -2.6550     1.0930    -0.4270 C.2   1 <1>   0.5690 
  3 N       -2.1930    -0.1820    -0.3490 N.am  1 <1>  -0.7300 
  4 C       -2.0550     2.1950     0.4850 C.3   1 <1>   0.0610 
  5 C       -2.7290    -1.3130    -1.1360 C.3   1 <1>   0.2200 
  6 C       -1.1230     3.0720    -0.3910 C.3   1 <1>  -0.1600 
  7 C       -3.1980     3.0460     1.0810 C.3   1 <1>  -0.2400 
  8 C       -1.2650     1.5880     1.6690 C.3   1 <1>  -0.2400 
  9 C       -3.8680    -1.9530    -0.3650 C.3   1 <1>  -0.0800 
 10 C       -1.7110    -2.4460    -1.1920 C.3   1 <1>   0.1200 
 11 C       -0.4160     4.2460     0.3130 C.3   1 <1>  -0.1600 
 12 C       -3.1310    -2.9260     0.5600 C.3   1 <1>   0.1200 
 13 C       -4.8540    -2.6690    -1.3090 C.3   1 <1>  -0.0170 
 14 O       -1.8880    -3.1900    -0.0240 O.3   1 <1>  -0.5600 
 15 C        0.4550     5.0270    -0.6750 C.3   1 <1>  -0.2400 
 16 C       -6.0700    -3.1920    -0.5510 C.ar  1 <1>  -0.1440 
 17 C       -7.1060    -2.3370    -0.1040 C.ar  1 <1>   0.0000 
 18 C       -6.1910    -4.5240    -0.2820 C.ar  1 <1>  -0.1500 
 19 C       -8.1830    -2.9240     0.6040 C.ar  1 <1>   0.3100 
 20 C       -7.1400    -0.9380    -0.3190 C.ar  1 <1>  -0.1500 
 21 C       -7.3020    -5.0030     0.4230 C.ar  1 <1>   0.1600 
 22 N       -8.2650    -4.2550     0.8590 N.ar  1 <1>  -0.6200 
 23 C       -9.2210    -2.1010     1.0690 C.ar  1 <1>  -0.1500 
 24 C       -8.1680    -0.1650     0.1470 C.ar  1 <1>  -0.1500 
 25 C       -9.2220    -0.7500     0.8510 C.ar  1 <1>  -0.1500 
 26 H       -1.5120    -0.4380     0.3680 H     1 <1>   0.3700 
 27 H       -3.0160    -0.9720    -2.1170 H     1 <1>   0.0800 
 28 H       -0.3720     2.4360    -0.8280 H     1 <1>   0.0800 
 29 H       -1.7050     3.4690    -1.2060 H     1 <1>   0.0800 
 30 H       -2.8280     3.7690     1.7840 H     1 <1>   0.0800 
 31 H       -3.9030     2.4120     1.5890 H     1 <1>   0.0800 
 32 H       -3.7220     3.5670     0.2990 H     1 <1>   0.0800 
 33 H       -0.9530     2.3530     2.3570 H     1 <1>   0.0800 
 34 H       -0.3870     1.0750     1.3200 H     1 <1>   0.0800 
 35 H       -1.8820     0.8940     2.2130 H     1 <1>   0.0800 
 36 H       -4.4040    -1.2190     0.2110 H     1 <1>   0.0800 
 37 H       -0.6970    -2.0920    -1.2480 H     1 <1>   0.0800 
 38 H       -1.9150    -3.0960    -2.0250 H     1 <1>   0.0800 
 39 H       -1.1410     4.9190     0.7350 H     1 <1>   0.0800 
 40 H        0.2120     3.8840     1.1090 H     1 <1>   0.0800 
 41 H       -3.6570    -3.8530     0.7020 H     1 <1>   0.0800 
 42 H       -2.9480    -2.4700     1.5180 H     1 <1>   0.0800 
 43 H       -4.3560    -3.4850    -1.8030 H     1 <1>   0.0800 
 44 H       -5.1850    -1.9930    -2.0770 H     1 <1>   0.0800 
 45 H       -0.1470     5.4270    -1.4720 H     1 <1>   0.0800 
 46 H        1.2100     4.3880    -1.0990 H     1 <1>   0.0800 
 47 H        0.9410     5.8440    -0.1720 H     1 <1>   0.0800 
 48 H       -5.4460    -5.2330    -0.5950 H     1 <1>   0.1500 
 49 H       -6.3420    -0.4620    -0.8600 H     1 <1>   0.1500 
 50 H       -7.3570    -6.0610     0.6150 H     1 <1>   0.1500 
 51 H      -10.0220    -2.5740     1.6060 H     1 <1>   0.1500 
 52 H       -8.1770     0.8990    -0.0230 H     1 <1>   0.1500 
 53 H      -10.0250    -0.1310     1.2130 H     1 <1>   0.1500 
@<TRIPOS>BOND
  1   1   2  2   
  2   2   3  am  
  3   2   4  1   
  4   3   5  1   
  5   3  26  1   
  6   4   6  1   
  7   4   7  1   
  8   4   8  1   
  9   5   9  1   
 10   5  10  1   
 11   5  27  1   
 12   6  11  1   
 13   6  28  1   
 14   6  29  1   
 15   7  30  1   
 16   7  31  1   
 17   7  32  1   
 18   8  33  1   
 19   8  34  1   
 20   8  35  1   
 21   9  12  1   
 22   9  13  1   
 23   9  36  1   
 24  10  14  1   
 25  10  37  1   
 26  10  38  1   
 27  11  15  1   
 28  11  39  1   
 29  11  40  1   
 30  12  14  1   
 31  12  41  1   
 32  12  42  1   
 33  13  16  1   
 34  13  43  1   
 35  13  44  1   
 36  15  45  1   
 37  15  46  1   
 38  15  47  1   
 39  16  17  ar  
 40  16  18  ar  
 41  17  19  ar  
 42  17  20  ar  
 43  18  21  ar  
 44  18  48  1   
 45  19  22  ar  
 46  19  23  ar  
 47  20  24  ar  
 48  20  49  1   
 49  21  22  ar  
 50  21  50  1   
 51  23  25  ar  
 52  23  51  1   
 53  24  25  ar  
 54  24  52  1   
 55  25  53  1   
@<TRIPOS>SUBSTRUCTURE
  1 ****   9 GROUP 4 **** **** 0

# MOE 2024.06 (io_trps.svl 2023.06)
