@<TRIPOS>MOLECULE
NONAME
47 49 1 0 0 
SMALL
USER_CHARGES


@<TRIPOS>ATOM
  1 S        0.7790    -1.0460     2.9870 S.o2  1 <1>   1.4470 
  2 O        1.7590    -2.1050     3.0880 O.2   1 <1>  -0.6500 
  3 O        0.3570    -0.3320     4.1670 O.2   1 <1>  -0.6500 
  4 N       -0.6220    -1.7530     2.4020 N.am  1 <1>  -0.9140 
  5 C        1.2040     0.1080     1.6550 C.ar  1 <1>  -0.0090 
  6 C       -0.4050    -2.8500     1.4680 C.3   1 <1>   0.2760 
  7 C        0.3540     1.1580     1.3260 C.ar  1 <1>  -0.1500 
  8 C        2.3710    -0.0400     0.9120 C.ar  1 <1>  -0.1500 
  9 C       -1.6510    -3.0630     0.6200 C.3   1 <1>  -0.0800 
 10 C       -0.3630    -4.1770     2.2220 C.3   1 <1>   0.1200 
 11 C        0.6470     2.0290     0.2900 C.ar  1 <1>  -0.1500 
 12 C        2.6720     0.8250    -0.1250 C.ar  1 <1>  -0.1500 
 13 C       -2.5300    -3.9440     1.5150 C.3   1 <1>   0.1200 
 14 C       -2.3410    -1.7800     0.1160 C.3   1 <1>  -0.0170 
 15 O       -1.6960    -4.4660     2.5100 O.3   1 <1>  -0.5600 
 16 C        1.8140     1.8620    -0.4470 C.ar  1 <1>   0.0830 
 17 C       -3.5030    -2.1170    -0.8030 C.ar  1 <1>  -0.1430 
 18 O        2.1800     2.6600    -1.4780 O.3   1 <1>  -0.3630 
 19 C       -4.8080    -2.1400    -0.3530 C.ar  1 <1>  -0.1500 
 20 C       -3.3110    -2.4170    -2.1360 C.ar  1 <1>  -0.1500 
 21 C        1.4140     3.7820    -1.8510 C.3   1 <1>   0.1200 
 22 C       -5.8290    -2.4590    -1.2330 C.ar  1 <1>   0.1600 
 23 C       -4.4020    -2.7220    -2.9320 C.ar  1 <1>   0.1600 
 24 C        2.1210     4.4720    -3.0140 C.3   1 <1>  -0.2400 
 25 N       -5.6560    -2.7530    -2.5110 N.ar  1 <1>  -0.6200 
 26 H       -1.0700    -2.1670     3.2210 H     1 <1>   0.4200 
 27 H        0.4700    -2.6850     0.8590 H     1 <1>   0.0800 
 28 H       -0.5530     1.2920     1.8920 H     1 <1>   0.1500 
 29 H        3.0540    -0.8400     1.1470 H     1 <1>   0.1500 
 30 H       -1.3710    -3.6530    -0.2350 H     1 <1>   0.0800 
 31 H        0.2050    -4.1360     3.1350 H     1 <1>   0.0800 
 32 H        0.0170    -4.9630     1.5930 H     1 <1>   0.0800 
 33 H       -0.0420     2.8240     0.0730 H     1 <1>   0.1500 
 34 H        3.5770     0.7020    -0.6940 H     1 <1>   0.1500 
 35 H       -2.9730    -4.7570     0.9650 H     1 <1>   0.0800 
 36 H       -3.3000    -3.3730     2.0040 H     1 <1>   0.0800 
 37 H       -1.6290    -1.1760    -0.4190 H     1 <1>   0.0800 
 38 H       -2.7020    -1.1950     0.9440 H     1 <1>   0.0800 
 39 H       -5.0430    -1.9130     0.6710 H     1 <1>   0.1500 
 40 H       -2.3260    -2.4150    -2.5640 H     1 <1>   0.1500 
 41 H        0.4360     3.4450    -2.1470 H     1 <1>   0.0800 
 42 H        1.3420     4.4430    -1.0030 H     1 <1>   0.0800 
 43 H       -6.8410    -2.4730    -0.8660 H     1 <1>   0.1500 
 44 H       -4.2350    -2.9540    -3.9700 H     1 <1>   0.1500 
 45 H        2.2010     3.8000    -3.8490 H     1 <1>   0.0800 
 46 H        3.1030     4.7910    -2.7130 H     1 <1>   0.0800 
 47 H        1.5600     5.3360    -3.3210 H     1 <1>   0.0800 
@<TRIPOS>BOND
  1   1   2  2   
  2   1   3  2   
  3   1   4  am  
  4   1   5  1   
  5   4   6  1   
  6   4  26  1   
  7   5   7  ar  
  8   5   8  ar  
  9   6   9  1   
 10   6  10  1   
 11   6  27  1   
 12   7  11  ar  
 13   7  28  1   
 14   8  12  ar  
 15   8  29  1   
 16   9  13  1   
 17   9  14  1   
 18   9  30  1   
 19  10  15  1   
 20  10  31  1   
 21  10  32  1   
 22  11  16  ar  
 23  11  33  1   
 24  12  16  ar  
 25  12  34  1   
 26  13  15  1   
 27  13  35  1   
 28  13  36  1   
 29  14  17  1   
 30  14  37  1   
 31  14  38  1   
 32  16  18  1   
 33  17  19  ar  
 34  17  20  ar  
 35  18  21  1   
 36  19  22  ar  
 37  19  39  1   
 38  20  23  ar  
 39  20  40  1   
 40  21  24  1   
 41  21  41  1   
 42  21  42  1   
 43  22  25  ar  
 44  22  43  1   
 45  23  25  ar  
 46  23  44  1   
 47  24  45  1   
 48  24  46  1   
 49  24  47  1   
@<TRIPOS>SUBSTRUCTURE
  1 ****  14 GROUP 4 **** **** 0

# MOE 2024.06 (io_trps.svl 2023.06)
