@<TRIPOS>MOLECULE
NONAME
53 54 1 0 0 
SMALL
USER_CHARGES


@<TRIPOS>ATOM
  1 F       -0.0870     1.2080     0.1790 F     1 <1>  -0.1900 
  2 C       -1.3900     1.3210     0.2260 C.ar  1 <1>   0.1900 
  3 C       -2.0550     2.4470    -0.2710 C.ar  1 <1>   0.0830 
  4 C       -2.0780     0.2680     0.7970 C.ar  1 <1>  -0.1500 
  5 O       -1.4910     3.5440    -0.8540 O.3   1 <1>  -0.3630 
  6 C       -3.4370     2.4730    -0.1720 C.ar  1 <1>  -0.1500 
  7 C       -3.4570     0.3270     0.8810 C.ar  1 <1>  -0.1500 
  8 C       -0.1040     3.6690    -1.0790 C.3   1 <1>   0.0400 
  9 C       -4.1670     1.4270     0.3960 C.ar  1 <1>   0.0530 
 10 C       -5.6050     1.5040     0.4850 C.2   1 <1>   0.0870 
 11 O       -6.1720     2.6560     0.7390 O.3   1 <1>  -0.0190 
 12 C       -6.6070     0.5890     0.3700 C.2   1 <1>  -0.0860 
 13 N       -7.4730     2.5840     0.8090 N.2   1 <1>  -0.4100 
 14 C       -7.7640     1.3510     0.5890 C.2   1 <1>   0.3720 
 15 C       -6.5810    -0.8120     0.0790 C.2   1 <1>   0.7160 
 16 N       -9.0830     0.8620     0.5560 N.pl3 1 <1>  -0.8210 
 17 O       -5.6320    -1.3390    -0.4680 O.2   1 <1>  -0.5700 
 18 N       -7.6510    -1.5820     0.3990 N.am  1 <1>  -0.7300 
 19 C       -9.6370     0.7610    -0.8270 C.3   1 <1>   0.1290 
 20 C      -10.0300     1.5670     1.4670 C.3   1 <1>   0.1290 
 21 C       -8.0240    -2.8300    -0.3170 C.3   1 <1>   0.2810 
 22 C       -9.5420    -2.8310    -0.5880 C.2   1 <1>   0.5690 
 23 C       -7.5130    -4.0290     0.5080 C.3   1 <1>  -0.1600 
 24 O       -9.9560    -2.6470    -1.7050 O.2   1 <1>  -0.5700 
 25 N      -10.4260    -2.9800     0.4250 N.am  1 <1>  -0.8000 
 26 C       -7.3760    -5.3480    -0.2810 C.3   1 <1>  -0.0800 
 27 C       -8.7170    -5.9050    -0.7750 C.3   1 <1>  -0.2400 
 28 C       -6.6930    -6.3990     0.6030 C.3   1 <1>  -0.2400 
 29 H       -1.5390    -0.5840     1.1700 H     1 <1>   0.1500 
 30 H       -3.9590     3.3330    -0.5500 H     1 <1>   0.1500 
 31 H       -3.9890    -0.4940     1.3290 H     1 <1>   0.1500 
 32 H        0.0710     4.6080    -1.5710 H     1 <1>   0.0800 
 33 H        0.2220     2.8610    -1.7100 H     1 <1>   0.0800 
 34 H        0.4070     3.6520    -0.1340 H     1 <1>   0.0800 
 35 H       -8.4620    -1.0210     0.7030 H     1 <1>   0.3700 
 36 H      -10.5400     0.1760    -0.8220 H     1 <1>   0.0800 
 37 H       -8.9270     0.2840    -1.4810 H     1 <1>   0.0800 
 38 H       -9.8520     1.7440    -1.2120 H     1 <1>   0.0800 
 39 H      -10.9480     1.0100     1.5470 H     1 <1>   0.0800 
 40 H      -10.2440     2.5530     1.0920 H     1 <1>   0.0800 
 41 H       -9.5940     1.6580     2.4480 H     1 <1>   0.0800 
 42 H       -7.5230    -2.8350    -1.2710 H     1 <1>   0.0800 
 43 H       -6.5320    -3.7740     0.8700 H     1 <1>   0.0800 
 44 H       -8.1430    -4.1810     1.3650 H     1 <1>   0.0800 
 45 H      -11.4270    -2.9840     0.2230 H     1 <1>   0.3700 
 46 H      -10.1520    -3.1240     1.3970 H     1 <1>   0.3700 
 47 H       -6.7420    -5.1750    -1.1360 H     1 <1>   0.0800 
 48 H       -9.4210    -5.9860     0.0350 H     1 <1>   0.0800 
 49 H       -8.5790    -6.8830    -1.2030 H     1 <1>   0.0800 
 50 H       -9.1350    -5.2800    -1.5430 H     1 <1>   0.0800 
 51 H       -7.2910    -6.6150     1.4710 H     1 <1>   0.0800 
 52 H       -5.7290    -6.0470     0.9280 H     1 <1>   0.0800 
 53 H       -6.5450    -7.3120     0.0530 H     1 <1>   0.0800 
@<TRIPOS>BOND
  1   1   2  1   
  2   2   3  ar  
  3   2   4  ar  
  4   3   5  1   
  5   3   6  ar  
  6   4   7  ar  
  7   4  29  1   
  8   5   8  1   
  9   6   9  ar  
 10   6  30  1   
 11   7   9  ar  
 12   7  31  1   
 13   8  32  1   
 14   8  33  1   
 15   8  34  1   
 16   9  10  1   
 17  10  11  1   
 18  10  12  2   
 19  11  13  1   
 20  12  14  1   
 21  12  15  1   
 22  13  14  2   
 23  14  16  1   
 24  15  17  2   
 25  15  18  am  
 26  16  19  1   
 27  16  20  1   
 28  18  21  1   
 29  18  35  1   
 30  19  36  1   
 31  19  37  1   
 32  19  38  1   
 33  20  39  1   
 34  20  40  1   
 35  20  41  1   
 36  21  22  1   
 37  21  23  1   
 38  21  42  1   
 39  22  24  2   
 40  22  25  am  
 41  23  26  1   
 42  23  43  1   
 43  23  44  1   
 44  25  45  1   
 45  25  46  1   
 46  26  27  1   
 47  26  28  1   
 48  26  47  1   
 49  27  48  1   
 50  27  49  1   
 51  27  50  1   
 52  28  51  1   
 53  28  52  1   
 54  28  53  1   
@<TRIPOS>SUBSTRUCTURE
  1 ****  15 GROUP 4 **** **** 0

# MOE 2024.06 (io_trps.svl 2023.06)
