@<TRIPOS>MOLECULE
NONAME
56 58 1 0 0 
SMALL
USER_CHARGES


@<TRIPOS>ATOM
  1 O       -1.0940     0.3940    -0.4830 O.2   1 <1>  -0.5700 
  2 C       -1.9700     1.2270    -0.6350 C.2   1 <1>   0.5440 
  3 N       -3.2410     0.7650    -0.9050 N.am  1 <1>  -0.6600 
  4 C       -1.6800     2.6410    -0.4880 C.ar  1 <1>   0.0860 
  5 C       -3.4110    -0.6350    -1.3840 C.3   1 <1>   0.1400 
  6 C       -4.4080     1.2910    -0.1460 C.3   1 <1>   0.1400 
  7 C       -0.7830     3.0970     0.4740 C.ar  1 <1>  -0.1500 
  8 C       -2.2840     3.5990    -1.3010 C.ar  1 <1>  -0.1500 
  9 C       -3.5740    -1.5380    -0.1480 C.3   1 <1>   0.4230 
 10 C       -4.6850     0.3620     1.0520 C.3   1 <1>  -0.1600 
 11 C       -0.5020     4.4400     0.6460 C.ar  1 <1>   0.0820 
 12 C       -2.0230     4.9480    -1.1460 C.ar  1 <1>  -0.1500 
 13 N       -3.3670    -3.0190    -0.4070 N.4   1 <1>  -0.9590 
 14 C       -4.8400    -1.1410     0.6790 C.3   1 <1>   0.0000 
 15 O        0.3960     4.7160     1.6320 O.3   1 <1>  -0.3620 
 16 C       -1.1390     5.3940    -0.1670 C.ar  1 <1>   0.0820 
 17 C       -3.9700    -3.8940     0.6470 C.3   1 <1>   0.3430 
 18 C       -3.8110    -3.4920    -1.7560 C.3   1 <1>   0.2630 
 19 C       -4.9020    -1.9660     2.0000 C.3   1 <1>  -0.1600 
 20 C       -6.1820    -1.2670    -0.1010 C.3   1 <1>   0.1200 
 21 C        1.2600     5.8280     1.5470 C.3   1 <1>   0.3200 
 22 O       -0.8980     6.7200     0.0210 O.3   1 <1>  -0.3630 
 23 C       -3.9740    -3.1940     2.0050 C.3   1 <1>  -0.1600 
 24 O       -6.4640    -2.5750    -0.4660 O.3   1 <1>  -0.6800 
 25 C        2.4270     5.5920     2.4470 C.1   1 <1>  -0.2000 
 26 C       -1.5720     7.7270    -0.7030 C.3   1 <1>   0.0400 
 27 C        3.3570     5.4050     3.1640 C.1   1 <1>  -0.1770 
 28 H       -4.2650    -0.6930    -2.0330 H     1 <1>   0.0800 
 29 H       -2.5370    -0.9270    -1.9400 H     1 <1>   0.0800 
 30 H       -4.2060     2.2850     0.2150 H     1 <1>   0.0800 
 31 H       -5.2630     1.3480    -0.7980 H     1 <1>   0.0800 
 32 H       -0.2860     2.3820     1.1060 H     1 <1>   0.1500 
 33 H       -2.9660     3.2780    -2.0680 H     1 <1>   0.1500 
 34 H       -2.7490    -1.2570     0.4870 H     1 <1>   0.0800 
 35 H       -3.8620     0.4800     1.7380 H     1 <1>   0.0800 
 36 H       -5.5660     0.7090     1.5650 H     1 <1>   0.0800 
 37 H       -2.5230     5.6360    -1.8010 H     1 <1>   0.1500 
 38 H       -2.3480    -3.1510    -0.3530 H     1 <1>   0.4500 
 39 H       -4.9880    -4.1320     0.3840 H     1 <1>   0.0800 
 40 H       -3.4200    -4.8180     0.7130 H     1 <1>   0.0800 
 41 H       -4.8660    -3.3220    -1.8880 H     1 <1>   0.0800 
 42 H       -3.6200    -4.5470    -1.8630 H     1 <1>   0.0800 
 43 H       -3.2780    -2.9710    -2.5340 H     1 <1>   0.0800 
 44 H       -4.6460    -1.3590     2.8520 H     1 <1>   0.0800 
 45 H       -5.9120    -2.3010     2.1680 H     1 <1>   0.0800 
 46 H       -6.1850    -0.6740    -0.9980 H     1 <1>   0.0800 
 47 H       -6.9940    -0.9290     0.5220 H     1 <1>   0.0800 
 48 H        1.5880     5.9340     0.5280 H     1 <1>   0.0800 
 49 H        0.7210     6.7030     1.8610 H     1 <1>   0.0800 
 50 H       -4.3150    -3.8860     2.7560 H     1 <1>   0.0800 
 51 H       -2.9700    -2.9080     2.2660 H     1 <1>   0.0800 
 52 H       -7.4000    -2.6550    -0.7490 H     1 <1>   0.4000 
 53 H       -1.2300     8.6820    -0.3440 H     1 <1>   0.0800 
 54 H       -2.6300     7.6330    -0.5330 H     1 <1>   0.0800 
 55 H       -1.3360     7.6260    -1.7470 H     1 <1>   0.0800 
 56 H        4.1950     5.2270     3.8140 H     1 <1>   0.1770 
@<TRIPOS>BOND
  1   1   2  2   
  2   2   3  am  
  3   2   4  1   
  4   3   5  1   
  5   3   6  1   
  6   4   7  ar  
  7   4   8  ar  
  8   5   9  1   
  9   5  28  1   
 10   5  29  1   
 11   6  10  1   
 12   6  30  1   
 13   6  31  1   
 14   7  11  ar  
 15   7  32  1   
 16   8  12  ar  
 17   8  33  1   
 18   9  13  1   
 19   9  14  1   
 20   9  34  1   
 21  10  14  1   
 22  10  35  1   
 23  10  36  1   
 24  11  15  1   
 25  11  16  ar  
 26  12  16  ar  
 27  12  37  1   
 28  13  17  1   
 29  13  18  1   
 30  13  38  1   
 31  14  19  1   
 32  14  20  1   
 33  15  21  1   
 34  16  22  1   
 35  17  23  1   
 36  17  39  1   
 37  17  40  1   
 38  18  41  1   
 39  18  42  1   
 40  18  43  1   
 41  19  23  1   
 42  19  44  1   
 43  19  45  1   
 44  20  24  1   
 45  20  46  1   
 46  20  47  1   
 47  21  25  1   
 48  21  48  1   
 49  21  49  1   
 50  22  26  1   
 51  23  50  1   
 52  23  51  1   
 53  24  52  1   
 54  25  27  3   
 55  26  53  1   
 56  26  54  1   
 57  26  55  1   
 58  27  56  1   
@<TRIPOS>SUBSTRUCTURE
  1 ****   2 GROUP 4 **** **** 0

# MOE 2024.06 (io_trps.svl 2023.06)
