@<TRIPOS>MOLECULE
NONAME
41 43 1 0 0 
SMALL
USER_CHARGES


@<TRIPOS>ATOM
  1 S       -1.1810    -0.7700     1.6320 S.3   1 <1>  -0.0800 
  2 C       -1.5990    -0.9970    -0.0630 C.2   1 <1>  -0.1400 
  3 C       -1.1890     0.9750     1.4530 C.2   1 <1>  -0.1100 
  4 C       -1.7180     0.1990    -0.6740 C.2   1 <1>  -0.1500 
  5 C       -1.7460    -2.4320    -0.5550 C.3   1 <1>   0.3800 
  6 C       -1.4880     1.3190     0.1870 C.2   1 <1>  -0.1500 
  7 O       -1.9810    -2.3980    -1.9170 O.3   1 <1>  -0.6800 
  8 C       -2.8950    -3.1950     0.1450 C.3   1 <1>  -0.0800 
  9 C       -3.0090    -4.6510    -0.3460 C.3   1 <1>  -0.1600 
 10 C       -4.2680    -2.5010     0.0130 C.3   1 <1>  -0.1600 
 11 C       -4.1150    -5.4180     0.3830 C.3   1 <1>   0.2090 
 12 C       -5.3580    -3.2690     0.7630 C.3   1 <1>   0.2090 
 13 N       -5.4010    -4.6750     0.2870 N.pl3 1 <1>  -0.8380 
 14 C       -6.5990    -5.3660     0.2750 C.ar  1 <1>   0.7200 
 15 N       -6.5600    -6.6440     0.6290 N.ar  1 <1>  -0.6200 
 16 N       -7.6830    -4.6820    -0.0830 N.ar  1 <1>  -0.6200 
 17 C       -7.7010    -7.3430     0.6280 C.ar  1 <1>   0.1310 
 18 C       -8.8040    -5.3540    -0.0880 C.ar  1 <1>   0.1670 
 19 C       -7.7790    -8.7700     0.9970 C.2   1 <1>   0.9790 
 20 C       -8.8610    -6.6800     0.2580 C.ar  1 <1>  -0.1500 
 21 C      -10.0520    -4.6020    -0.4960 C.3   1 <1>  -0.0960 
 22 O       -6.7780    -9.4530     1.2980 O.co2 1 <1>  -0.9000 
 23 O       -8.8880    -9.3500     1.0150 O.co2 1 <1>  -0.9000 
 24 H       -0.9660     1.5640     2.3240 H     1 <1>   0.1500 
 25 H       -1.9560     0.3470    -1.7130 H     1 <1>   0.1500 
 26 H       -0.8160    -2.9530    -0.4050 H     1 <1>   0.0800 
 27 H       -1.5560     2.3260    -0.1870 H     1 <1>   0.1500 
 28 H       -2.8550    -1.9940    -2.0650 H     1 <1>   0.4000 
 29 H       -2.6530    -3.2330     1.1930 H     1 <1>   0.0800 
 30 H       -2.0760    -5.1640    -0.1970 H     1 <1>   0.0800 
 31 H       -3.2290    -4.6730    -1.3990 H     1 <1>   0.0800 
 32 H       -4.5600    -2.4350    -1.0200 H     1 <1>   0.0800 
 33 H       -4.2220    -1.5030     0.4100 H     1 <1>   0.0800 
 34 H       -3.8620    -5.5490     1.4220 H     1 <1>   0.0800 
 35 H       -4.2110    -6.3950    -0.0630 H     1 <1>   0.0800 
 36 H       -6.3050    -2.7810     0.6090 H     1 <1>   0.0800 
 37 H       -5.1510    -3.2670     1.8190 H     1 <1>   0.0800 
 38 H       -9.7920    -7.2160     0.2480 H     1 <1>   0.1500 
 39 H      -10.2050    -3.7750     0.1720 H     1 <1>   0.0800 
 40 H      -10.9140    -5.2430    -0.4630 H     1 <1>   0.0800 
 41 H       -9.9320    -4.2270    -1.4950 H     1 <1>   0.0800 
@<TRIPOS>BOND
  1   1   2  1   
  2   1   3  1   
  3   2   4  2   
  4   2   5  1   
  5   3   6  2   
  6   3  24  1   
  7   4   6  1   
  8   4  25  1   
  9   5   7  1   
 10   5   8  1   
 11   5  26  1   
 12   6  27  1   
 13   7  28  1   
 14   8   9  1   
 15   8  10  1   
 16   8  29  1   
 17   9  11  1   
 18   9  30  1   
 19   9  31  1   
 20  10  12  1   
 21  10  32  1   
 22  10  33  1   
 23  11  13  1   
 24  11  34  1   
 25  11  35  1   
 26  12  13  1   
 27  12  36  1   
 28  12  37  1   
 29  13  14  1   
 30  14  15  ar  
 31  14  16  ar  
 32  15  17  ar  
 33  16  18  ar  
 34  17  19  1   
 35  17  20  ar  
 36  18  20  ar  
 37  18  21  1   
 38  19  22  ar  
 39  19  23  ar  
 40  20  38  1   
 41  21  39  1   
 42  21  40  1   
 43  21  41  1   
@<TRIPOS>SUBSTRUCTURE
  1 ****  13 GROUP 4 **** **** 0

# MOE 2024.06 (io_trps.svl 2023.06)
