@<TRIPOS>MOLECULE
NONAME
56 58 1 0 0 
SMALL
USER_CHARGES


@<TRIPOS>ATOM
  1 O        3.0880    -3.8940     1.5740 O.2   1 <1>  -0.5700 
  2 C        2.8850    -2.9510     0.8330 C.2   1 <1>   0.5440 
  3 N        1.9570    -3.1080    -0.1530 N.am  1 <1>  -0.7300 
  4 C        3.6150    -1.7010     0.9870 C.ar  1 <1>   0.0860 
  5 C        1.1810    -4.3570    -0.3940 C.3   1 <1>   0.2010 
  6 C        4.8290    -1.6620     1.6740 C.ar  1 <1>  -0.1500 
  7 C        3.1410    -0.4950     0.4630 C.ar  1 <1>  -0.1500 
  8 C        0.0980    -4.2060    -1.4780 C.2   1 <1>   0.5690 
  9 C        5.5420    -0.4860     1.8250 C.ar  1 <1>  -0.1500 
 10 C        3.8490     0.6840     0.6090 C.ar  1 <1>  -0.1500 
 11 O        0.2000    -3.2610    -2.2320 O.2   1 <1>  -0.5700 
 12 N       -0.9520    -5.0890    -1.5970 N.am  1 <1>  -0.6600 
 13 C        5.0520     0.6910     1.2900 C.ar  1 <1>  -0.1500 
 14 C       -1.1770    -6.2430    -0.6480 C.3   1 <1>   0.3640 
 15 C       -2.0240    -4.7910    -2.5970 C.3   1 <1>   0.1400 
 16 C        0.0690    -7.1320    -0.6570 C.ar  1 <1>  -0.1430 
 17 C       -2.4290    -7.1380    -0.9220 C.3   1 <1>   0.2000 
 18 C       -2.8820    -6.0120    -2.9260 C.3   1 <1>   0.1200 
 19 C        0.7040    -7.4440     0.5360 C.ar  1 <1>  -0.1500 
 20 C        0.6000    -7.6150    -1.8460 C.ar  1 <1>  -0.1500 
 21 O       -3.3900    -6.5350    -1.7440 O.3   1 <1>  -0.5600 
 22 C       -3.1620    -7.5330     0.3710 C.3   1 <1>   0.1200 
 23 C        1.8640    -8.1970     0.5400 C.ar  1 <1>   0.0830 
 24 C        1.7490    -8.3880    -1.8480 C.ar  1 <1>  -0.1500 
 25 O       -2.2890    -8.0630     1.3160 O.3   1 <1>  -0.6800 
 26 O        2.4570    -8.4320     1.7320 O.3   1 <1>  -0.3630 
 27 C        2.3980    -8.6870    -0.6530 C.ar  1 <1>   0.0830 
 28 C        3.5250    -7.5670     2.0470 C.3   1 <1>   0.0400 
 29 O        3.5370    -9.4340    -0.5950 O.3   1 <1>  -0.3630 
 30 C        4.1030   -10.0100    -1.7510 C.3   1 <1>   0.0400 
 31 H        1.8250    -2.4040    -0.8860 H     1 <1>   0.3700 
 32 H        1.8670    -5.1280    -0.6970 H     1 <1>   0.0800 
 33 H        0.7260    -4.6510     0.5330 H     1 <1>   0.0800 
 34 H        5.2170    -2.5740     2.0950 H     1 <1>   0.1500 
 35 H        2.2030    -0.4740    -0.0620 H     1 <1>   0.1500 
 36 H        6.4770    -0.4870     2.3590 H     1 <1>   0.1500 
 37 H        3.4630     1.6000     0.1950 H     1 <1>   0.1500 
 38 H        5.6050     1.6080     1.4060 H     1 <1>   0.1500 
 39 H       -1.2910    -5.8230     0.3370 H     1 <1>   0.0800 
 40 H       -2.6570    -4.0130    -2.2070 H     1 <1>   0.0800 
 41 H       -1.5780    -4.4250    -3.5060 H     1 <1>   0.0800 
 42 H       -2.1210    -8.0390    -1.4220 H     1 <1>   0.0800 
 43 H       -2.3120    -6.7670    -3.4390 H     1 <1>   0.0800 
 44 H       -3.7140    -5.7220    -3.5430 H     1 <1>   0.0800 
 45 H        0.3170    -7.0980     1.4790 H     1 <1>   0.1500 
 46 H        0.1240    -7.3800    -2.7830 H     1 <1>   0.1500 
 47 H       -3.9210    -8.2670     0.1630 H     1 <1>   0.0800 
 48 H       -3.6200    -6.6640     0.8100 H     1 <1>   0.0800 
 49 H        2.1250    -8.7410    -2.7890 H     1 <1>   0.1500 
 50 H       -1.9110    -8.9170     1.0180 H     1 <1>   0.4000 
 51 H        3.8980    -7.8320     3.0190 H     1 <1>   0.0800 
 52 H        3.1650    -6.5530     2.0530 H     1 <1>   0.0800 
 53 H        4.2990    -7.6850     1.3090 H     1 <1>   0.0800 
 54 H        4.9730   -10.5670    -1.4520 H     1 <1>   0.0800 
 55 H        4.3870    -9.2260    -2.4290 H     1 <1>   0.0800 
 56 H        3.3830   -10.6710    -2.2000 H     1 <1>   0.0800 
@<TRIPOS>BOND
  1   1   2  2   
  2   2   3  am  
  3   2   4  1   
  4   3   5  1   
  5   3  31  1   
  6   4   6  ar  
  7   4   7  ar  
  8   5   8  1   
  9   5  32  1   
 10   5  33  1   
 11   6   9  ar  
 12   6  34  1   
 13   7  10  ar  
 14   7  35  1   
 15   8  11  2   
 16   8  12  am  
 17   9  13  ar  
 18   9  36  1   
 19  10  13  ar  
 20  10  37  1   
 21  12  14  1   
 22  12  15  1   
 23  13  38  1   
 24  14  16  1   
 25  14  17  1   
 26  14  39  1   
 27  15  18  1   
 28  15  40  1   
 29  15  41  1   
 30  16  19  ar  
 31  16  20  ar  
 32  17  21  1   
 33  17  22  1   
 34  17  42  1   
 35  18  21  1   
 36  18  43  1   
 37  18  44  1   
 38  19  23  ar  
 39  19  45  1   
 40  20  24  ar  
 41  20  46  1   
 42  22  25  1   
 43  22  47  1   
 44  22  48  1   
 45  23  26  1   
 46  23  27  ar  
 47  24  27  ar  
 48  24  49  1   
 49  25  50  1   
 50  26  28  1   
 51  27  29  1   
 52  28  51  1   
 53  28  52  1   
 54  28  53  1   
 55  29  30  1   
 56  30  54  1   
 57  30  55  1   
 58  30  56  1   
@<TRIPOS>SUBSTRUCTURE
  1 ****   5 GROUP 4 **** **** 0

# MOE 2024.06 (io_trps.svl 2023.06)
