@<TRIPOS>MOLECULE
NONAME
61 64 1 0 0 
SMALL
USER_CHARGES


@<TRIPOS>ATOM
  1 N       -0.0020    -0.2930     0.9760 N.ar  1 <1>  -0.6200 
  2 C        0.4840     0.3230    -0.1070 C.ar  1 <1>   0.6200 
  3 C        0.1700    -1.5880     1.0480 C.ar  1 <1>   0.1600 
  4 N        1.1470    -0.2860    -1.0900 N.ar  1 <1>  -0.6200 
  5 C        0.1810     1.7350    -0.2600 C.ar  1 <1>   0.0000 
  6 C        0.7610    -2.3070     0.0380 C.ar  1 <1>  -0.1440 
  7 C        1.2910    -1.5840    -1.0060 C.ar  1 <1>   0.1600 
  8 C        0.4400     2.7020     0.7240 C.ar  1 <1>  -0.1440 
  9 C       -0.4460     2.1610    -1.4340 C.ar  1 <1>  -0.1500 
 10 C        0.7790    -3.8180     0.0690 C.3   1 <1>   0.4870 
 11 C        0.0390     4.0150     0.5370 C.ar  1 <1>  -0.1500 
 12 C        1.1810     2.3560     2.0110 C.3   1 <1>  -0.0960 
 13 C       -0.8380     3.4720    -1.6170 C.ar  1 <1>  -0.1500 
 14 N       -0.0950    -4.4080    -1.0120 N.4   1 <1>  -0.9590 
 15 C       -0.6020     4.4020    -0.6240 C.ar  1 <1>  -0.1500 
 16 C       -1.5690    -4.0990    -1.0450 C.3   1 <1>   0.4230 
 17 C        0.0850    -5.8950    -1.0170 C.3   1 <1>   0.2630 
 18 C       -1.9060    -2.7970    -1.7670 C.3   1 <1>  -0.1600 
 19 C       -2.2800    -3.9960     0.3050 C.3   1 <1>  -0.1600 
 20 C       -3.3210    -2.4280    -1.2990 C.3   1 <1>  -0.0800 
 21 C       -3.5460    -3.1600     0.0340 C.3   1 <1>  -0.0800 
 22 C       -3.5070    -0.9280    -1.0170 C.3   1 <1>  -0.1600 
 23 C       -3.8350    -2.0700     1.0820 C.3   1 <1>  -0.1600 
 24 C       -3.2730    -0.7830     0.4860 C.3   1 <1>   0.4230 
 25 N       -3.8370     0.4500     1.1100 N.4   1 <1>  -0.9590 
 26 C       -5.2800     0.7280     0.8150 C.3   1 <1>   0.2630 
 27 C       -2.9960     1.6410     0.7630 C.3   1 <1>   0.2630 
 28 H       -0.1960    -2.0820     1.9350 H     1 <1>   0.1500 
 29 H        1.8250    -2.0710    -1.8070 H     1 <1>   0.1500 
 30 H       -0.6230     1.4510    -2.2240 H     1 <1>   0.1500 
 31 H        0.4460    -4.1640     1.0340 H     1 <1>   0.0800 
 32 H        1.7960    -4.1540    -0.0650 H     1 <1>   0.0800 
 33 H        0.2350     4.7560     1.2940 H     1 <1>   0.1500 
 34 H        1.5580     3.2430     2.4880 H     1 <1>   0.0800 
 35 H        2.0190     1.7160     1.8010 H     1 <1>   0.0800 
 36 H        0.5230     1.8540     2.6980 H     1 <1>   0.0800 
 37 H       -1.3160     3.7750    -2.5340 H     1 <1>   0.1500 
 38 H        0.2730    -4.0620    -1.9090 H     1 <1>   0.4500 
 39 H       -0.9020     5.4280    -0.7600 H     1 <1>   0.1500 
 40 H       -2.0680    -4.8790    -1.6000 H     1 <1>   0.0800 
 41 H       -0.2990    -6.3250    -0.1060 H     1 <1>   0.0800 
 42 H        1.1290    -6.1500    -1.1050 H     1 <1>   0.0800 
 43 H       -0.4410    -6.3350    -1.8500 H     1 <1>   0.0800 
 44 H       -1.2360    -2.0080    -1.5050 H     1 <1>   0.0800 
 45 H       -1.8860    -2.9310    -2.8350 H     1 <1>   0.0800 
 46 H       -2.5460    -4.9720     0.6710 H     1 <1>   0.0800 
 47 H       -1.6770    -3.5060     1.0390 H     1 <1>   0.0800 
 48 H       -4.0400    -2.7630    -2.0310 H     1 <1>   0.0800 
 49 H       -4.3970    -3.8190    -0.0530 H     1 <1>   0.0800 
 50 H       -4.5170    -0.6700    -1.2770 H     1 <1>   0.0800 
 51 H       -2.8310    -0.3170    -1.5890 H     1 <1>   0.0800 
 52 H       -3.3960    -2.2940     2.0380 H     1 <1>   0.0800 
 53 H       -4.9010    -1.9930     1.1970 H     1 <1>   0.0800 
 54 H       -2.2120    -0.7960     0.6490 H     1 <1>   0.0800 
 55 H       -3.7510     0.3200     2.1290 H     1 <1>   0.4500 
 56 H       -5.4160     0.9370    -0.2340 H     1 <1>   0.0800 
 57 H       -5.6160     1.5830     1.3780 H     1 <1>   0.0800 
 58 H       -5.8920    -0.1170     1.0820 H     1 <1>   0.0800 
 59 H       -2.9990     1.8110    -0.3010 H     1 <1>   0.0800 
 60 H       -1.9770     1.4840     1.0810 H     1 <1>   0.0800 
 61 H       -3.3700     2.5240     1.2540 H     1 <1>   0.0800 
@<TRIPOS>BOND
  1   1   2  ar  
  2   1   3  ar  
  3   2   4  ar  
  4   2   5  1   
  5   3   6  ar  
  6   3  28  1   
  7   4   7  ar  
  8   5   8  ar  
  9   5   9  ar  
 10   6   7  ar  
 11   6  10  1   
 12   7  29  1   
 13   8  11  ar  
 14   8  12  1   
 15   9  13  ar  
 16   9  30  1   
 17  10  14  1   
 18  10  31  1   
 19  10  32  1   
 20  11  15  ar  
 21  11  33  1   
 22  12  34  1   
 23  12  35  1   
 24  12  36  1   
 25  13  15  ar  
 26  13  37  1   
 27  14  16  1   
 28  14  17  1   
 29  14  38  1   
 30  15  39  1   
 31  16  18  1   
 32  16  19  1   
 33  16  40  1   
 34  17  41  1   
 35  17  42  1   
 36  17  43  1   
 37  18  20  1   
 38  18  44  1   
 39  18  45  1   
 40  19  21  1   
 41  19  46  1   
 42  19  47  1   
 43  20  21  1   
 44  20  22  1   
 45  20  48  1   
 46  21  23  1   
 47  21  49  1   
 48  22  24  1   
 49  22  50  1   
 50  22  51  1   
 51  23  24  1   
 52  23  52  1   
 53  23  53  1   
 54  24  25  1   
 55  24  54  1   
 56  25  26  1   
 57  25  27  1   
 58  25  55  1   
 59  26  56  1   
 60  26  57  1   
 61  26  58  1   
 62  27  59  1   
 63  27  60  1   
 64  27  61  1   
@<TRIPOS>SUBSTRUCTURE
  1 ****   1 GROUP 4 **** **** 0

# MOE 2024.06 (io_trps.svl 2023.06)
