@<TRIPOS>MOLECULE
NONAME
29 30 1 0 0 
SMALL
USER_CHARGES


@<TRIPOS>ATOM
  1 F       -1.3470    -0.4220    -1.8590 F     1 <1>  -0.1900 
  2 C       -2.2960    -0.9830    -1.1420 C.ar  1 <1>   0.1900 
  3 C       -2.8470    -0.3990    -0.0070 C.ar  1 <1>   0.3920 
  4 C       -2.7650    -2.2070    -1.5400 C.ar  1 <1>   0.1600 
  5 O       -2.5020     0.8010     0.5140 O.3   1 <1>  -0.3630 
  6 N       -3.7940    -1.0180     0.6640 N.ar  1 <1>  -0.6200 
  7 N       -3.7150    -2.8330    -0.8760 N.ar  1 <1>  -0.6200 
  8 C       -1.4900     1.6400     0.0020 C.3   1 <1>   0.0400 
  9 C       -4.1780    -2.2040     0.2070 C.ar  1 <1>   0.7200 
 10 N       -5.1630    -2.8490     0.9100 N.pl3 1 <1>  -0.8380 
 11 C       -5.2150    -4.3380     0.9950 C.3   1 <1>   0.3890 
 12 C       -6.1440    -2.1220     1.7620 C.3   1 <1>   0.1290 
 13 C       -6.2550    -4.8870     0.0320 C.2   1 <1>   0.0060 
 14 N       -7.1500    -5.7840     0.3090 N.2   1 <1>  -0.5650 
 15 N       -6.3050    -4.4500    -1.2410 N.pl3 1 <1>   0.0330 
 16 C       -7.8190    -5.9350    -0.8510 C.2   1 <1>   0.0770 
 17 C       -7.3170    -5.1280    -1.8110 C.2   1 <1>  -0.3020 
 18 H       -2.3530    -2.6770    -2.4160 H     1 <1>   0.1500 
 19 H       -1.4300     2.5100     0.6310 H     1 <1>   0.0800 
 20 H       -1.7490     1.9340    -0.9990 H     1 <1>   0.0800 
 21 H       -0.5520     1.1130     0.0220 H     1 <1>   0.0800 
 22 H       -5.4660    -4.6360     1.9980 H     1 <1>   0.0800 
 23 H       -4.2540    -4.7590     0.7580 H     1 <1>   0.0800 
 24 H       -6.2420    -1.1000     1.4370 H     1 <1>   0.0800 
 25 H       -5.8130    -2.1310     2.7860 H     1 <1>   0.0800 
 26 H       -7.1100    -2.5940     1.6950 H     1 <1>   0.0800 
 27 H       -5.6780    -3.7330    -1.6270 H     1 <1>   0.2700 
 28 H       -8.6400    -6.6280    -0.9350 H     1 <1>   0.1500 
 29 H       -7.6140    -5.0000    -2.8350 H     1 <1>   0.1500 
@<TRIPOS>BOND
  1   1   2  1   
  2   2   3  ar  
  3   2   4  ar  
  4   3   5  1   
  5   3   6  ar  
  6   4   7  ar  
  7   4  18  1   
  8   5   8  1   
  9   6   9  ar  
 10   7   9  ar  
 11   8  19  1   
 12   8  20  1   
 13   8  21  1   
 14   9  10  1   
 15  10  11  1   
 16  10  12  1   
 17  11  13  1   
 18  11  22  1   
 19  11  23  1   
 20  12  24  1   
 21  12  25  1   
 22  12  26  1   
 23  13  14  2   
 24  13  15  1   
 25  14  16  1   
 26  15  17  1   
 27  15  27  1   
 28  16  17  2   
 29  16  28  1   
 30  17  29  1   
@<TRIPOS>SUBSTRUCTURE
  1 ****   9 GROUP 4 **** **** 0

# MOE 2024.06 (io_trps.svl 2023.06)
