@<TRIPOS>MOLECULE
NONAME
47 49 1 0 0 
SMALL
USER_CHARGES


@<TRIPOS>ATOM
  1 O       -0.4320    -0.0740     0.2500 O.2   1 <1>  -0.5700 
  2 C       -1.4410     0.5760     0.0910 C.2   1 <1>   0.5690 
  3 N       -2.6190    -0.0860    -0.1870 N.am  1 <1>  -0.6600 
  4 C       -1.3290     2.1290     0.2340 C.3   1 <1>   0.0610 
  5 C       -3.9860     0.4600    -0.3830 C.3   1 <1>   0.1400 
  6 C       -2.6700    -1.5680    -0.2630 C.3   1 <1>   0.1400 
  7 C       -1.9200     2.5920     1.5800 C.3   1 <1>  -0.2400 
  8 C       -2.0130     2.9020    -0.9150 C.3   1 <1>  -0.2400 
  9 C        0.1530     2.5730     0.2230 C.3   1 <1>  -0.2400 
 10 C       -4.9330    -0.7430    -0.3420 C.3   1 <1>   0.2000 
 11 C       -4.1000    -1.9330     0.1310 C.3   1 <1>  -0.0800 
 12 O       -5.9770    -0.5280     0.5450 O.3   1 <1>  -0.6800 
 13 C       -4.5870    -3.2680    -0.4560 C.3   1 <1>  -0.0170 
 14 C       -3.7140    -4.4240    -0.0010 C.ar  1 <1>   0.1670 
 15 N       -2.6880    -4.7220    -0.7380 N.ar  1 <1>  -0.6200 
 16 C       -4.0440    -5.1010     1.1830 C.ar  1 <1>  -0.1500 
 17 C       -1.8900    -5.7410    -0.3290 C.ar  1 <1>   0.3100 
 18 C       -3.2650    -6.1310     1.6150 C.ar  1 <1>  -0.1500 
 19 C       -2.1410    -6.4810     0.8480 C.ar  1 <1>   0.0000 
 20 C       -0.7660    -6.0760    -1.1010 C.ar  1 <1>  -0.1500 
 21 C       -1.2630    -7.5240     1.2010 C.ar  1 <1>  -0.1500 
 22 C        0.0760    -7.0940    -0.7400 C.ar  1 <1>  -0.1500 
 23 C       -0.1760    -7.8260     0.4250 C.ar  1 <1>  -0.1500 
 24 H       -4.2290     1.1640     0.3890 H     1 <1>   0.0800 
 25 H       -4.0490     0.9280    -1.3490 H     1 <1>   0.0800 
 26 H       -2.4570    -1.8750    -1.2730 H     1 <1>   0.0800 
 27 H       -1.9540    -2.0250     0.4000 H     1 <1>   0.0800 
 28 H       -1.7940     3.6520     1.7070 H     1 <1>   0.0800 
 29 H       -1.4190     2.0900     2.3900 H     1 <1>   0.0800 
 30 H       -2.9670     2.3680     1.6470 H     1 <1>   0.0800 
 31 H       -1.7220     3.9370    -0.9030 H     1 <1>   0.0800 
 32 H       -3.0810     2.8780    -0.8310 H     1 <1>   0.0800 
 33 H       -1.7260     2.4810    -1.8630 H     1 <1>   0.0800 
 34 H        0.2450     3.6400     0.3260 H     1 <1>   0.0800 
 35 H        0.6220     2.2760    -0.6980 H     1 <1>   0.0800 
 36 H        0.6910     2.1120     1.0340 H     1 <1>   0.0800 
 37 H       -5.3500    -0.9120    -1.3200 H     1 <1>   0.0800 
 38 H       -4.1210    -1.9880     1.2050 H     1 <1>   0.0800 
 39 H       -5.6280    -0.4030     1.4480 H     1 <1>   0.4000 
 40 H       -4.5720    -3.2230    -1.5310 H     1 <1>   0.0800 
 41 H       -5.6040    -3.4440    -0.1530 H     1 <1>   0.0800 
 42 H       -4.9120    -4.7960     1.7390 H     1 <1>   0.1500 
 43 H       -3.4860    -6.6740     2.5160 H     1 <1>   0.1500 
 44 H       -0.5900    -5.5000    -1.9900 H     1 <1>   0.1500 
 45 H       -1.4620    -8.0830     2.0980 H     1 <1>   0.1500 
 46 H        0.9350    -7.3390    -1.3410 H     1 <1>   0.1500 
 47 H        0.4940    -8.6230     0.6970 H     1 <1>   0.1500 
@<TRIPOS>BOND
  1   1   2  2   
  2   2   3  am  
  3   2   4  1   
  4   3   5  1   
  5   3   6  1   
  6   4   7  1   
  7   4   8  1   
  8   4   9  1   
  9   5  10  1   
 10   5  24  1   
 11   5  25  1   
 12   6  11  1   
 13   6  26  1   
 14   6  27  1   
 15   7  28  1   
 16   7  29  1   
 17   7  30  1   
 18   8  31  1   
 19   8  32  1   
 20   8  33  1   
 21   9  34  1   
 22   9  35  1   
 23   9  36  1   
 24  10  11  1   
 25  10  12  1   
 26  10  37  1   
 27  11  13  1   
 28  11  38  1   
 29  12  39  1   
 30  13  14  1   
 31  13  40  1   
 32  13  41  1   
 33  14  15  ar  
 34  14  16  ar  
 35  15  17  ar  
 36  16  18  ar  
 37  16  42  1   
 38  17  19  ar  
 39  17  20  ar  
 40  18  19  ar  
 41  18  43  1   
 42  19  21  ar  
 43  20  22  ar  
 44  20  44  1   
 45  21  23  ar  
 46  21  45  1   
 47  22  23  ar  
 48  22  46  1   
 49  23  47  1   
@<TRIPOS>SUBSTRUCTURE
  1 ****   6 GROUP 4 **** **** 0

# MOE 2024.06 (io_trps.svl 2023.06)
