@<TRIPOS>MOLECULE
NONAME
58 61 1 0 0 
SMALL
USER_CHARGES


@<TRIPOS>ATOM
  1 O       -0.5460     0.5340    -1.2550 O.2   1 <1>  -0.5700 
  2 C       -1.5370     0.8800    -0.6500 C.2   1 <1>   0.5690 
  3 N       -2.7290     0.2060    -0.8230 N.am  1 <1>  -0.6600 
  4 C       -1.4300     2.0760     0.3350 C.3   1 <1>   0.2610 
  5 C       -2.8540    -0.9280    -1.7820 C.3   1 <1>   0.1400 
  6 C       -4.0120     0.5350    -0.1380 C.3   1 <1>   0.1400 
  7 O       -2.2390     3.1480    -0.0680 O.3   1 <1>  -0.6800 
  8 C        0.0050     2.6080     0.5970 C.3   1 <1>  -0.0800 
  9 C       -3.3310    -2.1750    -1.0330 C.3   1 <1>  -0.1600 
 10 C       -4.4940    -0.6940     0.6360 C.3   1 <1>  -0.1600 
 11 C        0.0440     3.4890     1.8630 C.3   1 <1>  -0.1600 
 12 C        0.6230     3.3780    -0.5950 C.3   1 <1>  -0.1600 
 13 C       -4.6440    -1.9230    -0.2770 C.3   1 <1>   0.4240 
 14 C        1.4690     3.9630     2.1790 C.3   1 <1>  -0.1600 
 15 C        2.0520     3.8410    -0.2790 C.3   1 <1>  -0.1600 
 16 O       -5.5910    -1.6130    -1.2730 O.3   1 <1>  -0.5600 
 17 C       -5.0510    -3.1750     0.5310 C.ar  1 <1>  -0.1430 
 18 C        2.0860     4.7050     0.9870 C.3   1 <1>  -0.1600 
 19 C       -6.9380    -1.7750    -0.9570 C.3   1 <1>   0.1200 
 20 C       -6.2700    -3.8090     0.3110 C.ar  1 <1>  -0.1430 
 21 C       -4.2030    -3.6910     1.5060 C.ar  1 <1>  -0.1500 
 22 C       -7.2170    -3.2590    -0.7370 C.3   1 <1>  -0.0170 
 23 C       -6.6260    -4.9340     1.0390 C.ar  1 <1>  -0.1500 
 24 C       -4.5580    -4.8110     2.2340 C.ar  1 <1>  -0.1500 
 25 C       -5.7670    -5.4420     2.0080 C.ar  1 <1>   0.0830 
 26 O       -6.0380    -6.5360     2.7630 O.3   1 <1>  -0.3630 
 27 C       -7.2340    -7.2640     2.5970 C.3   1 <1>   0.0400 
 28 H       -1.8240     1.7320     1.2740 H     1 <1>   0.0800 
 29 H       -3.5620    -0.6650    -2.5490 H     1 <1>   0.0800 
 30 H       -1.9120    -1.1360    -2.2600 H     1 <1>   0.0800 
 31 H       -3.9020     1.3610     0.5390 H     1 <1>   0.0800 
 32 H       -4.7420     0.8120    -0.8800 H     1 <1>   0.0800 
 33 H       -1.9090     3.4790    -0.9260 H     1 <1>   0.4000 
 34 H        0.6260     1.7490     0.7890 H     1 <1>   0.0800 
 35 H       -2.5570    -2.4690    -0.3510 H     1 <1>   0.0800 
 36 H       -3.4750    -2.9830    -1.7260 H     1 <1>   0.0800 
 37 H       -5.4270    -0.4800     1.1220 H     1 <1>   0.0800 
 38 H       -3.7800    -0.9050     1.4090 H     1 <1>   0.0800 
 39 H       -0.5900     4.3490     1.7230 H     1 <1>   0.0800 
 40 H       -0.3350     2.9360     2.7040 H     1 <1>   0.0800 
 41 H        0.6490     2.7550    -1.4710 H     1 <1>   0.0800 
 42 H        0.0280     4.2450    -0.8220 H     1 <1>   0.0800 
 43 H        1.4510     4.6140     3.0370 H     1 <1>   0.0800 
 44 H        2.0820     3.1130     2.4240 H     1 <1>   0.0800 
 45 H        2.6830     2.9790    -0.1420 H     1 <1>   0.0800 
 46 H        2.4400     4.4040    -1.1100 H     1 <1>   0.0800 
 47 H        3.1040     4.9710     1.2150 H     1 <1>   0.0800 
 48 H        1.5380     5.6150     0.8120 H     1 <1>   0.0800 
 49 H       -7.1690    -1.2030    -0.0760 H     1 <1>   0.0800 
 50 H       -7.5180    -1.4020    -1.7820 H     1 <1>   0.0800 
 51 H       -3.2560    -3.2250     1.7090 H     1 <1>   0.1500 
 52 H       -8.2370    -3.3840    -0.4210 H     1 <1>   0.0800 
 53 H       -7.0800    -3.7890    -1.6620 H     1 <1>   0.0800 
 54 H       -7.5700    -5.4030     0.8430 H     1 <1>   0.1500 
 55 H       -3.8970    -5.2050     2.9850 H     1 <1>   0.1500 
 56 H       -7.2240    -8.0850     3.2910 H     1 <1>   0.0800 
 57 H       -7.2780    -7.6370     1.5890 H     1 <1>   0.0800 
 58 H       -8.0680    -6.6180     2.8070 H     1 <1>   0.0800 
@<TRIPOS>BOND
  1   1   2  2   
  2   2   3  am  
  3   2   4  1   
  4   3   5  1   
  5   3   6  1   
  6   4   7  1   
  7   4   8  1   
  8   4  28  1   
  9   5   9  1   
 10   5  29  1   
 11   5  30  1   
 12   6  10  1   
 13   6  31  1   
 14   6  32  1   
 15   7  33  1   
 16   8  11  1   
 17   8  12  1   
 18   8  34  1   
 19   9  13  1   
 20   9  35  1   
 21   9  36  1   
 22  10  13  1   
 23  10  37  1   
 24  10  38  1   
 25  11  14  1   
 26  11  39  1   
 27  11  40  1   
 28  12  15  1   
 29  12  41  1   
 30  12  42  1   
 31  13  16  1   
 32  13  17  1   
 33  14  18  1   
 34  14  43  1   
 35  14  44  1   
 36  15  18  1   
 37  15  45  1   
 38  15  46  1   
 39  16  19  1   
 40  17  20  ar  
 41  17  21  ar  
 42  18  47  1   
 43  18  48  1   
 44  19  22  1   
 45  19  49  1   
 46  19  50  1   
 47  20  22  1   
 48  20  23  ar  
 49  21  24  ar  
 50  21  51  1   
 51  22  52  1   
 52  22  53  1   
 53  23  25  ar  
 54  23  54  1   
 55  24  25  ar  
 56  24  55  1   
 57  25  26  1   
 58  26  27  1   
 59  27  56  1   
 60  27  57  1   
 61  27  58  1   
@<TRIPOS>SUBSTRUCTURE
  1 ****  10 GROUP 4 **** **** 0

# MOE 2024.06 (io_trps.svl 2023.06)
