@<TRIPOS>MOLECULE
NONAME
48 51 1 0 0 
SMALL
USER_CHARGES


@<TRIPOS>ATOM
  1 S       -0.2360     0.7700     0.1370 S.3   1 <1>  -0.0800 
  2 C        0.8510    -0.6210     0.0110 C.2   1 <1>  -0.0450 
  3 C        0.6140     1.6410    -1.1180 C.2   1 <1>  -0.1100 
  4 C        1.7850    -0.3580    -0.9430 C.2   1 <1>  -0.1810 
  5 C        0.6350    -1.7460     0.8900 C.2   1 <1>   0.7150 
  6 C        1.6460     0.9120    -1.5780 C.2   1 <1>  -0.1500 
  7 C        2.9140    -1.2890    -1.3510 C.3   1 <1>  -0.0590 
  8 O        1.5730    -2.1810     1.5370 O.2   1 <1>  -0.5700 
  9 N       -0.5960    -2.3630     1.0070 N.am  1 <1>  -0.6600 
 10 C       -1.6700    -2.2600    -0.0180 C.3   1 <1>   0.1400 
 11 C       -0.8930    -3.3340     2.0970 C.3   1 <1>   0.1400 
 12 C       -1.9100    -3.6370    -0.6430 C.3   1 <1>  -0.1600 
 13 C       -1.1270    -4.7230     1.4970 C.3   1 <1>  -0.1600 
 14 C       -2.2240    -4.7100     0.4170 C.3   1 <1>   0.4240 
 15 O       -3.3730    -4.2720     1.1100 O.3   1 <1>  -0.5600 
 16 C       -2.4330    -6.1220    -0.2050 C.ar  1 <1>  -0.1430 
 17 C       -4.6160    -4.5580     0.5570 C.3   1 <1>   0.1200 
 18 C       -1.4120    -6.7950    -0.8900 C.ar  1 <1>   0.0830 
 19 C       -3.6710    -6.7540    -0.0890 C.ar  1 <1>  -0.1430 
 20 C       -4.8200    -6.0630     0.6150 C.3   1 <1>  -0.0170 
 21 O       -0.2050    -6.1880    -1.0360 O.3   1 <1>  -0.3630 
 22 C       -1.6390    -8.0640    -1.4190 C.ar  1 <1>  -0.1500 
 23 C       -3.8840    -8.0170    -0.6150 C.ar  1 <1>  -0.1500 
 24 C        0.9340    -6.8610    -1.5250 C.3   1 <1>   0.0400 
 25 C       -2.8690    -8.6740    -1.2790 C.ar  1 <1>  -0.1500 
 26 H        0.2500     2.6180    -1.3810 H     1 <1>   0.1500 
 27 H        2.3260     1.2250    -2.3510 H     1 <1>   0.1500 
 28 H        2.8630    -2.2160    -0.8070 H     1 <1>   0.0800 
 29 H        3.8610    -0.8250    -1.1430 H     1 <1>   0.0800 
 30 H        2.8510    -1.5040    -2.4020 H     1 <1>   0.0800 
 31 H       -1.3980    -1.5700    -0.7960 H     1 <1>   0.0800 
 32 H       -2.5710    -1.9030     0.4510 H     1 <1>   0.0800 
 33 H       -1.7730    -3.0080     2.6250 H     1 <1>   0.0800 
 34 H       -0.0820    -3.3760     2.8030 H     1 <1>   0.0800 
 35 H       -1.0250    -3.9010    -1.1870 H     1 <1>   0.0800 
 36 H       -2.7070    -3.5830    -1.3590 H     1 <1>   0.0800 
 37 H       -1.4070    -5.4120     2.2720 H     1 <1>   0.0800 
 38 H       -0.1930    -5.0600     1.0950 H     1 <1>   0.0800 
 39 H       -4.6500    -4.1970    -0.4550 H     1 <1>   0.0800 
 40 H       -5.3630    -4.0510     1.1420 H     1 <1>   0.0800 
 41 H       -5.7530    -6.3110     0.1420 H     1 <1>   0.0800 
 42 H       -4.8640    -6.3820     1.6410 H     1 <1>   0.0800 
 43 H       -0.8730    -8.5970    -1.9470 H     1 <1>   0.1500 
 44 H       -4.8420    -8.4960    -0.5110 H     1 <1>   0.1500 
 45 H        1.7730    -6.1920    -1.4500 H     1 <1>   0.0800 
 46 H        0.7690    -7.1260    -2.5540 H     1 <1>   0.0800 
 47 H        1.1090    -7.7350    -0.9230 H     1 <1>   0.0800 
 48 H       -3.0370    -9.6550    -1.6870 H     1 <1>   0.1500 
@<TRIPOS>BOND
  1   1   2  1   
  2   1   3  1   
  3   2   4  2   
  4   2   5  1   
  5   3   6  2   
  6   3  26  1   
  7   4   6  1   
  8   4   7  1   
  9   5   8  2   
 10   5   9  am  
 11   6  27  1   
 12   7  28  1   
 13   7  29  1   
 14   7  30  1   
 15   9  10  1   
 16   9  11  1   
 17  10  12  1   
 18  10  31  1   
 19  10  32  1   
 20  11  13  1   
 21  11  33  1   
 22  11  34  1   
 23  12  14  1   
 24  12  35  1   
 25  12  36  1   
 26  13  14  1   
 27  13  37  1   
 28  13  38  1   
 29  14  15  1   
 30  14  16  1   
 31  15  17  1   
 32  16  18  ar  
 33  16  19  ar  
 34  17  20  1   
 35  17  39  1   
 36  17  40  1   
 37  18  21  1   
 38  18  22  ar  
 39  19  20  1   
 40  19  23  ar  
 41  20  41  1   
 42  20  42  1   
 43  21  24  1   
 44  22  25  ar  
 45  22  43  1   
 46  23  25  ar  
 47  23  44  1   
 48  24  45  1   
 49  24  46  1   
 50  24  47  1   
 51  25  48  1   
@<TRIPOS>SUBSTRUCTURE
  1 ****  12 GROUP 4 **** **** 0

# MOE 2024.06 (io_trps.svl 2023.06)
