@<TRIPOS>MOLECULE
NONAME
47 50 1 0 0 
SMALL
USER_CHARGES


@<TRIPOS>ATOM
  1 O       -0.7280     0.7040    -1.1430 O.2   1 <1>  -0.5700 
  2 C       -1.7640     1.2060    -0.7350 C.2   1 <1>   0.7160 
  3 N       -2.9420     0.5070    -0.9490 N.am  1 <1>  -0.6600 
  4 C       -1.6860     2.4910    -0.0470 C.2   1 <1>   0.2030 
  5 C       -3.0540    -0.5310    -2.0140 C.3   1 <1>   0.1400 
  6 C       -4.1920     0.6920    -0.1590 C.3   1 <1>   0.1400 
  7 N       -2.6350     3.3610     0.1600 N.2   1 <1>  -0.4100 
  8 C       -0.5160     3.0080     0.4930 C.2   1 <1>  -0.1500 
  9 C       -3.4440    -1.8710    -1.3880 C.3   1 <1>  -0.1600 
 10 C       -4.5960    -0.6420     0.4750 C.3   1 <1>  -0.1600 
 11 O       -2.1720     4.4040     0.8050 O.3   1 <1>  -0.0190 
 12 C       -0.8910     4.1840     1.0010 C.2   1 <1>  -0.0400 
 13 C       -4.7370    -1.7630    -0.5690 C.3   1 <1>   0.4240 
 14 C       -0.0760     5.2340     1.7250 C.3   1 <1>  -0.0600 
 15 O       -5.7300    -1.3800    -1.4910 O.3   1 <1>  -0.5600 
 16 C       -5.0680    -3.1140     0.1020 C.ar  1 <1>  -0.1430 
 17 C       -7.0580    -1.6270    -1.1480 C.3   1 <1>   0.1200 
 18 C       -6.2730    -3.7650    -0.1460 C.ar  1 <1>  -0.1430 
 19 C       -4.1650    -3.7060     0.9790 C.ar  1 <1>  -0.1500 
 20 C       -7.2790    -3.1350    -1.0890 C.3   1 <1>  -0.0170 
 21 C       -6.5600    -4.9800     0.4570 C.ar  1 <1>  -0.1500 
 22 C       -4.4510    -4.9150     1.5840 C.ar  1 <1>  -0.1500 
 23 C       -5.6460    -5.5630     1.3290 C.ar  1 <1>   0.0820 
 24 O       -5.8490    -6.7460     1.9600 O.3   1 <1>  -0.3620 
 25 C       -7.0250    -7.4960     1.7520 C.3   1 <1>   0.0400 
 26 H       -2.1250    -0.6380    -2.5470 H     1 <1>   0.0800 
 27 H       -3.8050    -0.2250    -2.7220 H     1 <1>   0.0800 
 28 H       -4.9720     1.0480    -0.8100 H     1 <1>   0.0800 
 29 H       -4.0550     1.4110     0.6280 H     1 <1>   0.0800 
 30 H        0.4450     2.5280     0.4750 H     1 <1>   0.1500 
 31 H       -2.6320    -2.1960    -0.7660 H     1 <1>   0.0800 
 32 H       -3.5770    -2.6080    -2.1580 H     1 <1>   0.0800 
 33 H       -5.5140    -0.5260     1.0180 H     1 <1>   0.0800 
 34 H       -3.8420    -0.9120     1.1900 H     1 <1>   0.0800 
 35 H        0.9480     4.9200     1.8090 H     1 <1>   0.0800 
 36 H       -0.4760     5.3900     2.7110 H     1 <1>   0.0800 
 37 H       -0.1140     6.1610     1.1830 H     1 <1>   0.0800 
 38 H       -7.6820    -1.1840    -1.9040 H     1 <1>   0.0800 
 39 H       -7.2720    -1.1660    -0.2000 H     1 <1>   0.0800 
 40 H       -3.2270    -3.2300     1.2020 H     1 <1>   0.1500 
 41 H       -7.1640    -3.5520    -2.0730 H     1 <1>   0.0800 
 42 H       -8.2800    -3.3320    -0.7510 H     1 <1>   0.0800 
 43 H       -7.4940    -5.4590     0.2410 H     1 <1>   0.1500 
 44 H       -3.7480    -5.3670     2.2600 H     1 <1>   0.1500 
 45 H       -6.9580    -8.3910     2.3440 H     1 <1>   0.0800 
 46 H       -7.0950    -7.7520     0.7090 H     1 <1>   0.0800 
 47 H       -7.8710    -6.9120     2.0650 H     1 <1>   0.0800 
@<TRIPOS>BOND
  1   1   2  2   
  2   2   3  am  
  3   2   4  1   
  4   3   5  1   
  5   3   6  1   
  6   4   7  2   
  7   4   8  1   
  8   5   9  1   
  9   5  26  1   
 10   5  27  1   
 11   6  10  1   
 12   6  28  1   
 13   6  29  1   
 14   7  11  1   
 15   8  12  2   
 16   8  30  1   
 17   9  13  1   
 18   9  31  1   
 19   9  32  1   
 20  10  13  1   
 21  10  33  1   
 22  10  34  1   
 23  11  12  1   
 24  12  14  1   
 25  13  15  1   
 26  13  16  1   
 27  14  35  1   
 28  14  36  1   
 29  14  37  1   
 30  15  17  1   
 31  16  18  ar  
 32  16  19  ar  
 33  17  20  1   
 34  17  38  1   
 35  17  39  1   
 36  18  20  1   
 37  18  21  ar  
 38  19  22  ar  
 39  19  40  1   
 40  20  41  1   
 41  20  42  1   
 42  21  23  ar  
 43  21  43  1   
 44  22  23  ar  
 45  22  44  1   
 46  23  24  1   
 47  24  25  1   
 48  25  45  1   
 49  25  46  1   
 50  25  47  1   
@<TRIPOS>SUBSTRUCTURE
  1 ****  10 GROUP 4 **** **** 0

# MOE 2024.06 (io_trps.svl 2023.06)
