@<TRIPOS>MOLECULE
NONAME
47 50 1 0 0 
SMALL
USER_CHARGES


@<TRIPOS>ATOM
  1 O       -2.5850     0.5800    -1.8100 O.2   1 <1>  -0.5700 
  2 C       -2.2870     0.7190    -0.6400 C.2   1 <1>   0.7160 
  3 N       -2.1530    -0.3930     0.1300 N.am  1 <1>  -0.7300 
  4 C       -2.0790     2.0210    -0.0620 C.2   1 <1>  -0.0860 
  5 C       -2.4380    -1.7750    -0.3090 C.3   1 <1>   0.2200 
  6 C       -2.3060     2.5090     1.1790 C.2   1 <1>  -0.0400 
  7 C       -1.5560     3.1410    -0.6940 C.2   1 <1>   0.1080 
  8 C       -3.9010    -2.0870    -0.0350 C.3   1 <1>  -0.0800 
  9 C       -1.7350    -2.7600     0.6150 C.3   1 <1>   0.1200 
 10 O       -1.9440     3.7640     1.2920 O.3   1 <1>  -0.0190 
 11 C       -2.9130     1.8550     2.4070 C.3   1 <1>  -0.0600 
 12 N       -1.4880     4.1270     0.1170 N.2   1 <1>  -0.4100 
 13 C       -1.1110     3.2230    -2.1410 C.3   1 <1>  -0.0590 
 14 C       -3.8800    -2.6030     1.4110 C.3   1 <1>   0.1200 
 15 C       -4.4490    -3.1320    -1.0260 C.3   1 <1>  -0.0170 
 16 O       -2.5420    -2.8340     1.7480 O.3   1 <1>  -0.5600 
 17 C       -5.9430    -3.3640    -0.8210 C.ar  1 <1>  -0.1440 
 18 C       -6.9180    -2.4320    -1.2500 C.ar  1 <1>   0.0000 
 19 C       -6.3830    -4.5000    -0.2060 C.ar  1 <1>  -0.1500 
 20 C       -8.2770    -2.7360    -0.9880 C.ar  1 <1>   0.3100 
 21 C       -6.6290    -1.2210    -1.9240 C.ar  1 <1>  -0.1500 
 22 C       -7.7530    -4.7070    -0.0030 C.ar  1 <1>   0.1600 
 23 N       -8.6760    -3.8730    -0.3650 N.ar  1 <1>  -0.6200 
 24 C       -9.2670    -1.8240    -1.3880 C.ar  1 <1>  -0.1500 
 25 C       -7.6180    -0.3560    -2.3020 C.ar  1 <1>  -0.1500 
 26 C       -8.9550    -0.6570    -2.0300 C.ar  1 <1>  -0.1500 
 27 H       -1.9250    -0.2980     1.1200 H     1 <1>   0.3700 
 28 H       -2.1560    -1.9050    -1.3410 H     1 <1>   0.0800 
 29 H       -4.5020    -1.1970    -0.1010 H     1 <1>   0.0800 
 30 H       -0.7460    -2.4420     0.8920 H     1 <1>   0.0800 
 31 H       -1.6950    -3.7400     0.1730 H     1 <1>   0.0800 
 32 H       -3.3180     0.8870     2.1800 H     1 <1>   0.0800 
 33 H       -3.7090     2.4720     2.7830 H     1 <1>   0.0800 
 34 H       -2.1650     1.7560     3.1730 H     1 <1>   0.0800 
 35 H       -0.4030     2.4440    -2.3540 H     1 <1>   0.0800 
 36 H       -0.6500     4.1750    -2.3320 H     1 <1>   0.0800 
 37 H       -1.9610     3.1120    -2.7890 H     1 <1>   0.0800 
 38 H       -4.4270    -3.5220     1.5320 H     1 <1>   0.0800 
 39 H       -4.2680    -1.8650     2.0910 H     1 <1>   0.0800 
 40 H       -3.9180    -4.0600    -0.9060 H     1 <1>   0.0800 
 41 H       -4.2810    -2.8050    -2.0370 H     1 <1>   0.0800 
 42 H       -5.7030    -5.2570     0.1380 H     1 <1>   0.1500 
 43 H       -5.6100    -0.9670    -2.1500 H     1 <1>   0.1500 
 44 H       -8.0570    -5.6160     0.4870 H     1 <1>   0.1500 
 45 H      -10.2880    -2.0790    -1.1710 H     1 <1>   0.1500 
 46 H       -7.3820     0.5630    -2.8110 H     1 <1>   0.1500 
 47 H       -9.7250     0.0330    -2.3320 H     1 <1>   0.1500 
@<TRIPOS>BOND
  1   1   2  2   
  2   2   3  am  
  3   2   4  1   
  4   3   5  1   
  5   3  27  1   
  6   4   6  2   
  7   4   7  1   
  8   5   8  1   
  9   5   9  1   
 10   5  28  1   
 11   6  10  1   
 12   6  11  1   
 13   7  12  2   
 14   7  13  1   
 15   8  14  1   
 16   8  15  1   
 17   8  29  1   
 18   9  16  1   
 19   9  30  1   
 20   9  31  1   
 21  10  12  1   
 22  11  32  1   
 23  11  33  1   
 24  11  34  1   
 25  13  35  1   
 26  13  36  1   
 27  13  37  1   
 28  14  16  1   
 29  14  38  1   
 30  14  39  1   
 31  15  17  1   
 32  15  40  1   
 33  15  41  1   
 34  17  18  ar  
 35  17  19  ar  
 36  18  20  ar  
 37  18  21  ar  
 38  19  22  ar  
 39  19  42  1   
 40  20  23  ar  
 41  20  24  ar  
 42  21  25  ar  
 43  21  43  1   
 44  22  23  ar  
 45  22  44  1   
 46  24  26  ar  
 47  24  45  1   
 48  25  26  ar  
 49  25  46  1   
 50  26  47  1   
@<TRIPOS>SUBSTRUCTURE
  1 ****   8 GROUP 4 **** **** 0

# MOE 2024.06 (io_trps.svl 2023.06)
