@<TRIPOS>MOLECULE
NONAME
47 48 1 0 0 
SMALL
USER_CHARGES


@<TRIPOS>ATOM
  1 O        1.2670    -0.2960     1.3830 O.3   1 <1>  -0.6800 
  2 C        2.2280     0.5870     0.9250 C.3   1 <1>   0.2000 
  3 C        3.1430    -0.0990    -0.1350 C.3   1 <1>   0.0000 
  4 C        1.5100     1.8160     0.3670 C.3   1 <1>  -0.1600 
  5 C        3.6800     0.9470    -1.1390 C.3   1 <1>   0.3430 
  6 C        2.3370    -1.1320    -0.9640 C.3   1 <1>   0.1200 
  7 C        4.3110    -0.8450     0.5700 C.3   1 <1>  -0.1600 
  8 C        2.4990     2.8840    -0.1160 C.3   1 <1>   0.3430 
  9 N        3.8200     2.3010    -0.5190 N.4   1 <1>  -0.9590 
 10 O        3.0490    -1.4930    -2.1040 O.3   1 <1>  -0.6800 
 11 C        5.3840     0.0350     1.2390 C.3   1 <1>  -0.1600 
 12 C        4.5920     3.2250    -1.3990 C.3   1 <1>   0.4860 
 13 C        6.4210    -0.8330     1.9540 C.3   1 <1>  -0.2400 
 14 C        4.8240     4.5310    -0.6660 C.ar  1 <1>  -0.1440 
 15 C        5.7930     4.6690     0.3270 C.ar  1 <1>   0.1670 
 16 C        4.0350     5.6220    -0.9870 C.ar  1 <1>  -0.1500 
 17 N        5.9800     5.7780     1.0170 N.ar  1 <1>  -0.6200 
 18 C        6.7410     3.5480     0.7230 C.3   1 <1>  -0.0970 
 19 C        4.2440     6.7850    -0.2790 C.ar  1 <1>  -0.1500 
 20 C        5.2140     6.8090     0.7040 C.ar  1 <1>   0.1600 
 21 H        0.7980     0.0550     2.1680 H     1 <1>   0.4000 
 22 H        2.8060     0.8850     1.7820 H     1 <1>   0.0800 
 23 H        0.8860     1.5240    -0.4600 H     1 <1>   0.0800 
 24 H        0.8750     2.2520     1.1180 H     1 <1>   0.0800 
 25 H        2.9950     1.0100    -1.9700 H     1 <1>   0.0800 
 26 H        4.6240     0.6000    -1.5250 H     1 <1>   0.0800 
 27 H        1.3920    -0.7250    -1.2820 H     1 <1>   0.0800 
 28 H        2.1490    -2.0210    -0.3830 H     1 <1>   0.0800 
 29 H        3.8920    -1.5060     1.3110 H     1 <1>   0.0800 
 30 H        4.8100    -1.4740    -0.1500 H     1 <1>   0.0800 
 31 H        2.6620     3.6030     0.6720 H     1 <1>   0.0800 
 32 H        2.0580     3.4100    -0.9480 H     1 <1>   0.0800 
 33 H        4.3750     2.1850     0.3380 H     1 <1>   0.4500 
 34 H        2.6320    -2.2700    -2.5360 H     1 <1>   0.4000 
 35 H        5.8990     0.6190     0.4980 H     1 <1>   0.0800 
 36 H        4.9460     0.6960     1.9650 H     1 <1>   0.0800 
 37 H        5.5390     2.7840    -1.6660 H     1 <1>   0.0800 
 38 H        4.0440     3.4120    -2.3080 H     1 <1>   0.0800 
 39 H        6.9050    -1.4980     1.2590 H     1 <1>   0.0800 
 40 H        5.9550    -1.4240     2.7240 H     1 <1>   0.0800 
 41 H        7.1740    -0.2150     2.4120 H     1 <1>   0.0800 
 42 H        3.2830     5.5880    -1.7570 H     1 <1>   0.1500 
 43 H        6.8710     2.8210    -0.0530 H     1 <1>   0.0800 
 44 H        6.3850     3.0710     1.6170 H     1 <1>   0.0800 
 45 H        7.7100     3.9650     0.9370 H     1 <1>   0.0800 
 46 H        3.6650     7.6690    -0.4830 H     1 <1>   0.1500 
 47 H        5.3710     7.7200     1.2590 H     1 <1>   0.1500 
@<TRIPOS>BOND
  1   1   2  1   
  2   1  21  1   
  3   2   3  1   
  4   2   4  1   
  5   2  22  1   
  6   3   5  1   
  7   3   6  1   
  8   3   7  1   
  9   4   8  1   
 10   4  23  1   
 11   4  24  1   
 12   5   9  1   
 13   5  25  1   
 14   5  26  1   
 15   6  10  1   
 16   6  27  1   
 17   6  28  1   
 18   7  11  1   
 19   7  29  1   
 20   7  30  1   
 21   8   9  1   
 22   8  31  1   
 23   8  32  1   
 24   9  12  1   
 25   9  33  1   
 26  10  34  1   
 27  11  13  1   
 28  11  35  1   
 29  11  36  1   
 30  12  14  1   
 31  12  37  1   
 32  12  38  1   
 33  13  39  1   
 34  13  40  1   
 35  13  41  1   
 36  14  15  ar  
 37  14  16  ar  
 38  15  17  ar  
 39  15  18  1   
 40  16  19  ar  
 41  16  42  1   
 42  17  20  ar  
 43  18  43  1   
 44  18  44  1   
 45  18  45  1   
 46  19  20  ar  
 47  19  46  1   
 48  20  47  1   
@<TRIPOS>SUBSTRUCTURE
  1 ****   9 GROUP 4 **** **** 0

# MOE 2024.06 (io_trps.svl 2023.06)
