@<TRIPOS>MOLECULE
NONAME
57 60 1 0 0 
SMALL
USER_CHARGES


@<TRIPOS>ATOM
  1 O        0.3940    -0.2540     0.4780 O.3   1 <1>  -0.5600 
  2 C        1.5850    -0.8850     0.0630 C.3   1 <1>   0.4240 
  3 C       -0.8090    -0.7880     0.0210 C.3   1 <1>   0.1200 
  4 C        1.4370    -2.4230     0.0520 C.ar  1 <1>  -0.1440 
  5 C        1.9570    -0.3540    -1.3290 C.3   1 <1>  -0.1600 
  6 C        2.6490    -0.4570     1.0820 C.3   1 <1>  -0.1600 
  7 C       -0.9910    -2.1760     0.6290 C.3   1 <1>  -0.0160 
  8 C        0.2200    -3.0340     0.3220 C.ar  1 <1>  -0.1440 
  9 C        2.5280    -3.2330    -0.2370 C.ar  1 <1>  -0.1500 
 10 C        2.1880     1.1580    -1.3230 C.3   1 <1>   0.2090 
 11 C        2.8510     1.0570     1.0900 C.3   1 <1>   0.2090 
 12 C        0.1040    -4.4150     0.3080 C.ar  1 <1>  -0.1500 
 13 C        2.4330    -4.6150    -0.2480 C.ar  1 <1>   0.0830 
 14 N        3.1790     1.5270    -0.2780 N.pl3 1 <1>  -0.8380 
 15 C        1.1980    -5.2260     0.0170 C.ar  1 <1>   0.0830 
 16 O        3.5950    -5.2680    -0.5340 O.3   1 <1>  -0.3630 
 17 C        4.4980     1.7250    -0.6190 C.ar  1 <1>   0.4100 
 18 O        1.0820    -6.5860    -0.0300 O.3   1 <1>  -0.3630 
 19 C        3.8930    -6.5130     0.0580 C.3   1 <1>   0.0400 
 20 N        5.0800     0.7580    -1.3000 N.ar  1 <1>  -0.6200 
 21 C        5.1950     2.8760    -0.2660 C.ar  1 <1>  -0.1430 
 22 C       -0.1640    -7.2390     0.0640 C.3   1 <1>   0.0400 
 23 C        6.3450     0.9440    -1.6090 C.ar  1 <1>   0.4770 
 24 C        6.5080     2.9450    -0.6550 C.ar  1 <1>   0.1600 
 25 C        4.5640     4.0400     0.4940 C.3   1 <1>  -0.0170 
 26 N        7.1070     1.9840    -1.3280 N.ar  1 <1>  -0.6200 
 27 C        7.0080    -0.1680    -2.3840 C.3   1 <1>  -0.0970 
 28 C        5.0660     4.0980     1.9400 C.3   1 <1>  -0.2400 
 29 H       -0.7920    -0.8340    -1.0530 H     1 <1>   0.0800 
 30 H       -1.6010    -0.1320     0.3350 H     1 <1>   0.0800 
 31 H        1.1980    -0.6080    -2.0420 H     1 <1>   0.0800 
 32 H        2.8640    -0.8250    -1.6590 H     1 <1>   0.0800 
 33 H        3.5910    -0.9140     0.8460 H     1 <1>   0.0800 
 34 H        2.3580    -0.7940     2.0590 H     1 <1>   0.0800 
 35 H       -1.8800    -2.6240     0.2230 H     1 <1>   0.0800 
 36 H       -1.1120    -2.0860     1.6930 H     1 <1>   0.0800 
 37 H        3.4850    -2.7970    -0.4600 H     1 <1>   0.1500 
 38 H        1.2630     1.6700    -1.1220 H     1 <1>   0.0800 
 39 H        2.5480     1.4740    -2.2870 H     1 <1>   0.0800 
 40 H        3.6530     1.3060     1.7620 H     1 <1>   0.0800 
 41 H        1.9570     1.5510     1.4300 H     1 <1>   0.0800 
 42 H       -0.8550    -4.8420     0.5270 H     1 <1>   0.1500 
 43 H        4.9560    -6.6590     0.0140 H     1 <1>   0.0800 
 44 H        3.3960    -7.2880    -0.4970 H     1 <1>   0.0800 
 45 H        3.5620    -6.5040     1.0810 H     1 <1>   0.0800 
 46 H        0.0000    -8.2930    -0.0710 H     1 <1>   0.0800 
 47 H       -0.8120    -6.8690    -0.7120 H     1 <1>   0.0800 
 48 H       -0.5820    -7.0580     1.0380 H     1 <1>   0.0800 
 49 H        7.0940     3.8140    -0.4120 H     1 <1>   0.1500 
 50 H        3.4910     3.9570     0.4900 H     1 <1>   0.0800 
 51 H        4.8110     4.9600    -0.0060 H     1 <1>   0.0800 
 52 H        6.4740    -1.0900    -2.2440 H     1 <1>   0.0800 
 53 H        8.0190    -0.2970    -2.0460 H     1 <1>   0.0800 
 54 H        7.0130     0.0830    -3.4270 H     1 <1>   0.0800 
 55 H        4.8300     3.1840     2.4540 H     1 <1>   0.0800 
 56 H        4.5970     4.9150     2.4600 H     1 <1>   0.0800 
 57 H        6.1310     4.2410     1.9650 H     1 <1>   0.0800 
@<TRIPOS>BOND
  1   1   2  1   
  2   1   3  1   
  3   2   4  1   
  4   2   5  1   
  5   2   6  1   
  6   3   7  1   
  7   3  29  1   
  8   3  30  1   
  9   4   8  ar  
 10   4   9  ar  
 11   5  10  1   
 12   5  31  1   
 13   5  32  1   
 14   6  11  1   
 15   6  33  1   
 16   6  34  1   
 17   7   8  1   
 18   7  35  1   
 19   7  36  1   
 20   8  12  ar  
 21   9  13  ar  
 22   9  37  1   
 23  10  14  1   
 24  10  38  1   
 25  10  39  1   
 26  11  14  1   
 27  11  40  1   
 28  11  41  1   
 29  12  15  ar  
 30  12  42  1   
 31  13  15  ar  
 32  13  16  1   
 33  14  17  1   
 34  15  18  1   
 35  16  19  1   
 36  17  20  ar  
 37  17  21  ar  
 38  18  22  1   
 39  19  43  1   
 40  19  44  1   
 41  19  45  1   
 42  20  23  ar  
 43  21  24  ar  
 44  21  25  1   
 45  22  46  1   
 46  22  47  1   
 47  22  48  1   
 48  23  26  ar  
 49  23  27  1   
 50  24  26  ar  
 51  24  49  1   
 52  25  28  1   
 53  25  50  1   
 54  25  51  1   
 55  27  52  1   
 56  27  53  1   
 57  27  54  1   
 58  28  55  1   
 59  28  56  1   
 60  28  57  1   
@<TRIPOS>SUBSTRUCTURE
  1 ****   2 GROUP 4 **** **** 0

# MOE 2024.06 (io_trps.svl 2023.06)
