@<TRIPOS>MOLECULE
NONAME
57 59 1 0 0 
SMALL
USER_CHARGES


@<TRIPOS>ATOM
  1 S       -0.2730    -0.1800     1.0650 S.o2  1 <1>   1.4470 
  2 O       -0.8980     0.5860     2.1200 O.2   1 <1>  -0.6500 
  3 O        0.0120    -1.5760     1.3500 O.2   1 <1>  -0.6500 
  4 N       -1.3360    -0.2250    -0.2710 N.am  1 <1>  -0.8490 
  5 C        1.2240     0.6280     0.4470 C.ar  1 <1>  -0.0090 
  6 C       -1.5210    -1.5430    -0.8810 C.3   1 <1>   0.1960 
  7 C       -2.5990     0.5060    -0.1040 C.3   1 <1>   0.1960 
  8 C        1.1850     1.9230    -0.0640 C.ar  1 <1>   0.0820 
  9 C        2.4480    -0.0320     0.4780 C.ar  1 <1>  -0.1500 
 10 C       -2.4790    -2.4220    -0.0310 C.3   1 <1>   0.4230 
 11 C       -3.6040    -0.3130     0.7250 C.3   1 <1>  -0.1600 
 12 O       -0.0140     2.5570    -0.0800 O.3   1 <1>  -0.3630 
 13 C        2.3480     2.5250    -0.5380 C.ar  1 <1>  -0.1500 
 14 C        3.6080     0.5630     0.0110 C.ar  1 <1>  -0.1440 
 15 N       -2.5580    -3.8770    -0.4770 N.4   1 <1>  -0.9590 
 16 C       -3.8630    -1.7400     0.1660 C.3   1 <1>   0.0000 
 17 C       -0.1310     3.9340    -0.3530 C.3   1 <1>   0.1200 
 18 C        3.5510     1.8460    -0.5000 C.ar  1 <1>  -0.1500 
 19 C        4.9290    -0.1850     0.0580 C.3   1 <1>  -0.0970 
 20 C       -3.7520    -4.6120     0.0520 C.3   1 <1>   0.3430 
 21 C       -2.4160    -4.1130    -1.9510 C.3   1 <1>   0.2630 
 22 C       -4.6900    -2.5480     1.2100 C.3   1 <1>  -0.1600 
 23 C       -4.6250    -1.6620    -1.1890 C.3   1 <1>   0.1200 
 24 C       -1.5910     4.3290    -0.1530 C.3   1 <1>  -0.2400 
 25 C       -4.2270    -4.0090     1.3730 C.3   1 <1>  -0.1600 
 26 O       -5.7700    -0.8910    -1.0890 O.3   1 <1>  -0.6800 
 27 H       -1.9150    -1.4020    -1.8710 H     1 <1>   0.0800 
 28 H       -0.5630    -2.0250    -0.9790 H     1 <1>   0.0800 
 29 H       -2.4160     1.4570     0.3710 H     1 <1>   0.0800 
 30 H       -3.0170     0.7170    -1.0740 H     1 <1>   0.0800 
 31 H        2.4960    -1.0310     0.8770 H     1 <1>   0.1500 
 32 H       -2.0430    -2.4440     0.9540 H     1 <1>   0.0800 
 33 H       -3.2270    -0.3770     1.7310 H     1 <1>   0.0800 
 34 H       -4.5220     0.2430     0.7900 H     1 <1>   0.0800 
 35 H        2.3400     3.5190    -0.9430 H     1 <1>   0.1500 
 36 H       -1.7390    -4.3130    -0.0240 H     1 <1>   0.4500 
 37 H        0.5050     4.4720     0.3290 H     1 <1>   0.0800 
 38 H        0.1740     4.1100    -1.3700 H     1 <1>   0.0800 
 39 H        4.4430     2.3220    -0.8700 H     1 <1>   0.1500 
 40 H        5.7470     0.5030     0.1830 H     1 <1>   0.0800 
 41 H        5.0720    -0.7310    -0.8570 H     1 <1>   0.0800 
 42 H        4.9420    -0.8760     0.8810 H     1 <1>   0.0800 
 43 H       -4.5610    -4.5540    -0.6590 H     1 <1>   0.0800 
 44 H       -3.5090    -5.6540     0.1930 H     1 <1>   0.0800 
 45 H       -3.2200    -3.6380    -2.4890 H     1 <1>   0.0800 
 46 H       -2.4400    -5.1700    -2.1620 H     1 <1>   0.0800 
 47 H       -1.4790    -3.7200    -2.3100 H     1 <1>   0.0800 
 48 H       -4.6320    -2.0850     2.1820 H     1 <1>   0.0800 
 49 H       -5.7330    -2.5420     0.9430 H     1 <1>   0.0800 
 50 H       -4.9240    -2.6360    -1.5290 H     1 <1>   0.0800 
 51 H       -4.0230    -1.2050    -1.9540 H     1 <1>   0.0800 
 52 H       -1.8940     4.1200     0.8570 H     1 <1>   0.0800 
 53 H       -2.2180     3.7890    -0.8390 H     1 <1>   0.0800 
 54 H       -1.7100     5.3810    -0.3360 H     1 <1>   0.0800 
 55 H       -5.0430    -4.5960     1.7590 H     1 <1>   0.0800 
 56 H       -3.4300    -4.0670     2.0940 H     1 <1>   0.0800 
 57 H       -6.4010    -1.2450    -0.4320 H     1 <1>   0.4000 
@<TRIPOS>BOND
  1   1   2  2   
  2   1   3  2   
  3   1   4  am  
  4   1   5  1   
  5   4   6  1   
  6   4   7  1   
  7   5   8  ar  
  8   5   9  ar  
  9   6  10  1   
 10   6  27  1   
 11   6  28  1   
 12   7  11  1   
 13   7  29  1   
 14   7  30  1   
 15   8  12  1   
 16   8  13  ar  
 17   9  14  ar  
 18   9  31  1   
 19  10  15  1   
 20  10  16  1   
 21  10  32  1   
 22  11  16  1   
 23  11  33  1   
 24  11  34  1   
 25  12  17  1   
 26  13  18  ar  
 27  13  35  1   
 28  14  18  ar  
 29  14  19  1   
 30  15  20  1   
 31  15  21  1   
 32  15  36  1   
 33  16  22  1   
 34  16  23  1   
 35  17  24  1   
 36  17  37  1   
 37  17  38  1   
 38  18  39  1   
 39  19  40  1   
 40  19  41  1   
 41  19  42  1   
 42  20  25  1   
 43  20  43  1   
 44  20  44  1   
 45  21  45  1   
 46  21  46  1   
 47  21  47  1   
 48  22  25  1   
 49  22  48  1   
 50  22  49  1   
 51  23  26  1   
 52  23  50  1   
 53  23  51  1   
 54  24  52  1   
 55  24  53  1   
 56  24  54  1   
 57  25  55  1   
 58  25  56  1   
 59  26  57  1   
@<TRIPOS>SUBSTRUCTURE
  1 ****   4 GROUP 4 **** **** 0

# MOE 2024.06 (io_trps.svl 2023.06)
