@<TRIPOS>MOLECULE
NONAME
35 36 1 0 0 
SMALL
USER_CHARGES


@<TRIPOS>ATOM
  1 CL       0.8760     0.3300    -2.1900 Cl    1 <1>  -0.1770 
  2 C        1.6610    -0.8230    -1.1250 C.ar  1 <1>   0.1770 
  3 C        1.0820    -2.0540    -0.8350 C.ar  1 <1>   0.4100 
  4 C        2.8640    -0.5240    -0.5490 C.ar  1 <1>   0.1600 
  5 N        1.6740    -2.9020    -0.0100 N.ar  1 <1>  -0.6200 
  6 N       -0.1350    -2.4590    -1.3510 N.pl3 1 <1>  -0.8380 
  7 N        3.4700    -1.3690     0.2690 N.ar  1 <1>  -0.6200 
  8 C        2.8370    -2.5090     0.4870 C.ar  1 <1>   0.4770 
  9 C       -0.2700    -3.8690    -1.8260 C.3   1 <1>   0.2090 
 10 C       -1.3610    -1.9050    -0.7080 C.3   1 <1>   0.2090 
 11 C        3.5350    -3.4710     1.4190 C.3   1 <1>  -0.0960 
 12 C       -0.7830    -4.7850    -0.6930 C.3   1 <1>   0.3430 
 13 C       -1.8560    -2.8440     0.4140 C.3   1 <1>   0.3430 
 14 N       -2.0550    -4.2680    -0.0540 N.4   1 <1>  -0.9590 
 15 C       -2.4910    -5.1220     1.0980 C.3   1 <1>   0.3430 
 16 C       -2.9420    -6.5260     0.6690 C.3   1 <1>   0.1200 
 17 O       -3.3730    -7.1900     1.8030 O.3   1 <1>  -0.6800 
 18 H        3.3420     0.4180    -0.7560 H     1 <1>   0.1500 
 19 H        0.6870    -4.2270    -2.1660 H     1 <1>   0.0800 
 20 H       -0.9450    -3.9020    -2.6630 H     1 <1>   0.0800 
 21 H       -2.1280    -1.7760    -1.4510 H     1 <1>   0.0800 
 22 H       -1.1450    -0.9360    -0.2900 H     1 <1>   0.0800 
 23 H        2.9080    -4.3140     1.6400 H     1 <1>   0.0800 
 24 H        3.7820    -2.9690     2.3360 H     1 <1>   0.0800 
 25 H        4.4400    -3.8190     0.9570 H     1 <1>   0.0800 
 26 H       -0.0080    -4.8490     0.0530 H     1 <1>   0.0800 
 27 H       -0.9420    -5.7730    -1.0900 H     1 <1>   0.0800 
 28 H       -2.7790    -2.4570     0.8130 H     1 <1>   0.0800 
 29 H       -1.1230    -2.8280     1.2040 H     1 <1>   0.0800 
 30 H       -2.7950    -4.2570    -0.7670 H     1 <1>   0.4500 
 31 H       -3.3190    -4.6490     1.6000 H     1 <1>   0.0800 
 32 H       -1.6820    -5.2190     1.8040 H     1 <1>   0.0800 
 33 H       -2.1300    -7.0910     0.2450 H     1 <1>   0.0800 
 34 H       -3.7680    -6.4750    -0.0190 H     1 <1>   0.0800 
 35 H       -3.6930    -8.0950     1.6000 H     1 <1>   0.4000 
@<TRIPOS>BOND
  1   1   2  1   
  2   2   3  ar  
  3   2   4  ar  
  4   3   5  ar  
  5   3   6  1   
  6   4   7  ar  
  7   4  18  1   
  8   5   8  ar  
  9   6   9  1   
 10   6  10  1   
 11   7   8  ar  
 12   8  11  1   
 13   9  12  1   
 14   9  19  1   
 15   9  20  1   
 16  10  13  1   
 17  10  21  1   
 18  10  22  1   
 19  11  23  1   
 20  11  24  1   
 21  11  25  1   
 22  12  14  1   
 23  12  26  1   
 24  12  27  1   
 25  13  14  1   
 26  13  28  1   
 27  13  29  1   
 28  14  15  1   
 29  14  30  1   
 30  15  16  1   
 31  15  31  1   
 32  15  32  1   
 33  16  17  1   
 34  16  33  1   
 35  16  34  1   
 36  17  35  1   
@<TRIPOS>SUBSTRUCTURE
  1 ****   6 GROUP 4 **** **** 0

# MOE 2024.06 (io_trps.svl 2023.06)
