@<TRIPOS>MOLECULE
NONAME
48 49 1 0 0 
SMALL
USER_CHARGES


@<TRIPOS>ATOM
  1 S        0.1610    -0.3680     0.9220 S.o2  1 <1>   1.5760 
  2 O        1.3280    -1.2180     0.8620 O.2   1 <1>  -0.6500 
  3 O       -0.4250    -0.0030     2.1920 O.2   1 <1>  -0.6500 
  4 N       -1.0460    -1.0490    -0.0360 N.am  1 <1>  -0.8490 
  5 N        0.4830     1.0390     0.0370 N.am  1 <1>  -0.8490 
  6 C       -1.3410    -2.4250     0.3950 C.3   1 <1>   0.1960 
  7 C       -2.2880    -0.2590     0.0030 C.3   1 <1>   0.1960 
  8 C        1.2670     1.9950     0.8190 C.3   1 <1>   0.1160 
  9 C        1.1530     0.7560    -1.2350 C.3   1 <1>   0.1160 
 10 C       -2.4760    -3.0530    -0.4380 C.3   1 <1>   0.3440 
 11 C       -3.4040    -0.9180    -0.8450 C.3   1 <1>   0.2000 
 12 O       -3.6150    -2.2340    -0.3970 O.3   1 <1>  -0.5600 
 13 C       -2.8330    -4.4400     0.0900 C.ar  1 <1>  -0.1440 
 14 C       -4.7630    -0.1530    -0.8420 C.3   1 <1>   0.0000 
 15 C       -3.7100    -4.6000     1.1540 C.ar  1 <1>  -0.1500 
 16 C       -2.2660    -5.5670    -0.4890 C.ar  1 <1>  -0.1500 
 17 C       -4.5870     1.2830    -1.3700 C.3   1 <1>  -0.2400 
 18 C       -5.7580    -0.8720    -1.7730 C.3   1 <1>  -0.2400 
 19 C       -5.3850    -0.0820     0.5650 C.3   1 <1>  -0.2400 
 20 C       -4.0140    -5.8620     1.6330 C.ar  1 <1>  -0.1500 
 21 C       -2.5680    -6.8300    -0.0120 C.ar  1 <1>  -0.1500 
 22 C       -3.4430    -6.9790     1.0500 C.ar  1 <1>  -0.1500 
 23 H       -0.4580    -3.0320     0.2890 H     1 <1>   0.0800 
 24 H       -1.6250    -2.4350     1.4340 H     1 <1>   0.0800 
 25 H       -2.6280    -0.1570     1.0190 H     1 <1>   0.0800 
 26 H       -2.0840     0.7260    -0.3790 H     1 <1>   0.0800 
 27 H        1.4320     2.8930     0.2490 H     1 <1>   0.0800 
 28 H        2.2180     1.5680     1.0910 H     1 <1>   0.0800 
 29 H        0.7350     2.2580     1.7180 H     1 <1>   0.0800 
 30 H        1.2800     1.6660    -1.7950 H     1 <1>   0.0800 
 31 H        0.5570     0.0770    -1.8220 H     1 <1>   0.0800 
 32 H        2.1180     0.3090    -1.0640 H     1 <1>   0.0800 
 33 H       -2.1660    -3.1310    -1.4650 H     1 <1>   0.0800 
 34 H       -3.0580    -0.9760    -1.8620 H     1 <1>   0.0800 
 35 H       -4.1630    -3.7360     1.6110 H     1 <1>   0.1500 
 36 H       -1.5840    -5.4680    -1.3160 H     1 <1>   0.1500 
 37 H       -5.5430     1.7680    -1.4610 H     1 <1>   0.0800 
 38 H       -4.1210     1.2750    -2.3390 H     1 <1>   0.0800 
 39 H       -3.9860     1.8740    -0.7030 H     1 <1>   0.0800 
 40 H       -6.6940    -0.3450    -1.8130 H     1 <1>   0.0800 
 41 H       -5.9520    -1.8700    -1.4200 H     1 <1>   0.0800 
 42 H       -5.3620    -0.9390    -2.7700 H     1 <1>   0.0800 
 43 H       -6.3490     0.3940     0.5270 H     1 <1>   0.0800 
 44 H       -4.7660     0.4800     1.2400 H     1 <1>   0.0800 
 45 H       -5.5170    -1.0710     0.9680 H     1 <1>   0.0800 
 46 H       -4.6960    -5.9740     2.4570 H     1 <1>   0.1500 
 47 H       -2.1240    -7.6980    -0.4670 H     1 <1>   0.1500 
 48 H       -3.6790    -7.9610     1.4220 H     1 <1>   0.1500 
@<TRIPOS>BOND
  1   1   2  2   
  2   1   3  2   
  3   1   4  am  
  4   1   5  am  
  5   4   6  1   
  6   4   7  1   
  7   5   8  1   
  8   5   9  1   
  9   6  10  1   
 10   6  23  1   
 11   6  24  1   
 12   7  11  1   
 13   7  25  1   
 14   7  26  1   
 15   8  27  1   
 16   8  28  1   
 17   8  29  1   
 18   9  30  1   
 19   9  31  1   
 20   9  32  1   
 21  10  12  1   
 22  10  13  1   
 23  10  33  1   
 24  11  12  1   
 25  11  14  1   
 26  11  34  1   
 27  13  15  ar  
 28  13  16  ar  
 29  14  17  1   
 30  14  18  1   
 31  14  19  1   
 32  15  20  ar  
 33  15  35  1   
 34  16  21  ar  
 35  16  36  1   
 36  17  37  1   
 37  17  38  1   
 38  17  39  1   
 39  18  40  1   
 40  18  41  1   
 41  18  42  1   
 42  19  43  1   
 43  19  44  1   
 44  19  45  1   
 45  20  22  ar  
 46  20  46  1   
 47  21  22  ar  
 48  21  47  1   
 49  22  48  1   
@<TRIPOS>SUBSTRUCTURE
  1 ****   6 GROUP 4 **** **** 0

# MOE 2024.06 (io_trps.svl 2023.06)
