@<TRIPOS>MOLECULE
NONAME
25 25 1 0 0 
SMALL
USER_CHARGES


@<TRIPOS>ATOM
  1 O        6.5470     1.5340    -0.7220 O.2   1 <1>  -0.5700 
  2 C        5.8080     1.5440     0.2320 C.2   1 <1>   0.6590 
  3 O        5.2370     2.6460     0.6910 O.3   1 <1>  -0.4300 
  4 C        5.4810     0.2550     0.9640 C.3   1 <1>  -0.0190 
  5 C        5.4480     3.9070     0.0880 C.3   1 <1>   0.0400 
  6 C        6.7790    -0.5620     1.0940 C.3   1 <1>   0.3430 
  7 C        4.3390    -0.5220     0.2480 C.3   1 <1>  -0.1600 
  8 N        7.1340    -1.1730    -0.2220 N.4   1 <1>  -0.9060 
  9 C        4.7030    -1.9830    -0.0540 C.3   1 <1>   0.2000 
 10 C        6.0690    -2.0850    -0.7810 C.3   1 <1>   0.3430 
 11 O        4.7920    -2.6530     1.1570 O.3   1 <1>  -0.6800 
 12 H        5.1590     0.5130     1.9570 H     1 <1>   0.0800 
 13 H        4.8830     4.6450     0.6310 H     1 <1>   0.0800 
 14 H        5.1140     3.8680    -0.9350 H     1 <1>   0.0800 
 15 H        6.4970     4.1450     0.1270 H     1 <1>   0.0800 
 16 H        6.6380    -1.3430     1.8260 H     1 <1>   0.0800 
 17 H        7.5780     0.0780     1.4350 H     1 <1>   0.0800 
 18 H        4.1140    -0.0410    -0.6900 H     1 <1>   0.0800 
 19 H        3.4370    -0.4810     0.8350 H     1 <1>   0.0800 
 20 H        8.0290    -1.6710    -0.1570 H     1 <1>   0.4500 
 21 H        7.2680    -0.3770    -0.8750 H     1 <1>   0.4500 
 22 H        3.9360    -2.4660    -0.6380 H     1 <1>   0.0800 
 23 H        5.9210    -1.8440    -1.8210 H     1 <1>   0.0800 
 24 H        6.3990    -3.1100    -0.7300 H     1 <1>   0.0800 
 25 H        3.9030    -2.8010     1.5450 H     1 <1>   0.4000 
@<TRIPOS>BOND
  1   1   2  2   
  2   2   3  1   
  3   2   4  1   
  4   3   5  1   
  5   4   6  1   
  6   4   7  1   
  7   4  12  1   
  8   5  13  1   
  9   5  14  1   
 10   5  15  1   
 11   6   8  1   
 12   6  16  1   
 13   6  17  1   
 14   7   9  1   
 15   7  18  1   
 16   7  19  1   
 17   8  10  1   
 18   8  20  1   
 19   8  21  1   
 20   9  10  1   
 21   9  11  1   
 22   9  22  1   
 23  10  23  1   
 24  10  24  1   
 25  11  25  1   
@<TRIPOS>SUBSTRUCTURE
  1 ****   4 GROUP 4 **** **** 0

# MOE 2024.06 (io_trps.svl 2023.06)
