@<TRIPOS>MOLECULE
NONAME
51 53 1 0 0 
SMALL
USER_CHARGES


@<TRIPOS>ATOM
  1 S        0.8170     0.2530    -0.9550 S.3   1 <1>  -0.3320 
  2 C        1.3200    -1.4100    -0.5600 C.ar  1 <1>   0.7220 
  3 C        0.7200     1.1060     0.6940 C.3   1 <1>   0.1310 
  4 N        1.4430    -1.6860     0.7290 N.ar  1 <1>  -0.6200 
  5 N        1.5260    -2.1860    -1.6090 N.ar  1 <1>  -0.6200 
  6 C        0.6860     2.6180     0.5200 C.2   1 <1>   0.5690 
  7 C        1.8100    -2.9180     0.9930 C.ar  1 <1>   0.1660 
  8 C        1.8940    -3.4110    -1.3100 C.ar  1 <1>   0.1600 
  9 O       -0.3000     3.1910     0.9220 O.2   1 <1>  -0.5700 
 10 N        1.7370     3.3130    -0.0430 N.am  1 <1>  -0.6600 
 11 C        2.0510    -3.8310    -0.0090 C.ar  1 <1>  -0.1500 
 12 C        1.9570    -3.2950     2.4520 C.3   1 <1>  -0.0970 
 13 C        3.0140     2.6920    -0.4900 C.3   1 <1>   0.1400 
 14 C        1.5980     4.7620    -0.3570 C.3   1 <1>   0.1400 
 15 C        4.1920     3.4480     0.1310 C.3   1 <1>  -0.1600 
 16 C        2.7650     5.5320     0.2650 C.3   1 <1>  -0.1600 
 17 C        4.1350     4.9620    -0.1280 C.3   1 <1>   0.2800 
 18 O        4.2910     5.1520    -1.4920 O.3   1 <1>  -0.6800 
 19 C        5.2700     5.7100     0.6300 C.3   1 <1>   0.3430 
 20 N        6.6570     5.4330     0.1130 N.4   1 <1>  -0.9590 
 21 C        7.7300     5.7080     1.0940 C.3   1 <1>   0.3430 
 22 C        6.9930     6.2310    -1.0940 C.3   1 <1>   0.3430 
 23 C        8.9890     5.8250     0.2480 C.3   1 <1>  -0.1600 
 24 C        8.5140     6.2030    -1.1580 C.3   1 <1>  -0.1600 
 25 H        1.5760     0.8180     1.2730 H     1 <1>   0.0800 
 26 H       -0.1760     0.7590     1.1740 H     1 <1>   0.0800 
 27 H        2.0730    -4.0950    -2.1230 H     1 <1>   0.1500 
 28 H        2.3520    -4.8390     0.2080 H     1 <1>   0.1500 
 29 H        2.7010    -2.6720     2.9130 H     1 <1>   0.0800 
 30 H        2.2500    -4.3230     2.5590 H     1 <1>   0.0800 
 31 H        1.0200    -3.1470     2.9580 H     1 <1>   0.0800 
 32 H        3.0640     2.7240    -1.5660 H     1 <1>   0.0800 
 33 H        3.0730     1.6610    -0.1930 H     1 <1>   0.0800 
 34 H        0.6700     5.1520     0.0270 H     1 <1>   0.0800 
 35 H        1.5830     4.8910    -1.4260 H     1 <1>   0.0800 
 36 H        5.1100     3.0360    -0.2480 H     1 <1>   0.0800 
 37 H        4.1720     3.2670     1.1920 H     1 <1>   0.0800 
 38 H        2.6490     5.4860     1.3340 H     1 <1>   0.0800 
 39 H        2.6990     6.5680    -0.0180 H     1 <1>   0.0800 
 40 H        3.5360     4.7490    -1.9680 H     1 <1>   0.4000 
 41 H        5.2140     5.4200     1.6660 H     1 <1>   0.0800 
 42 H        5.0750     6.7680     0.5840 H     1 <1>   0.0800 
 43 H        6.7110     4.4470    -0.1710 H     1 <1>   0.4500 
 44 H        7.8140     4.9240     1.8300 H     1 <1>   0.0800 
 45 H        7.5420     6.6480     1.5880 H     1 <1>   0.0800 
 46 H        6.6540     7.2460    -0.9680 H     1 <1>   0.0800 
 47 H        6.5460     5.8160    -1.9840 H     1 <1>   0.0800 
 48 H        9.5030     4.8790     0.2280 H     1 <1>   0.0800 
 49 H        9.6540     6.5650     0.6590 H     1 <1>   0.0800 
 50 H        8.8900     7.1650    -1.4620 H     1 <1>   0.0800 
 51 H        8.8370     5.4690    -1.8770 H     1 <1>   0.0800 
@<TRIPOS>BOND
  1   1   2  1   
  2   1   3  1   
  3   2   4  ar  
  4   2   5  ar  
  5   3   6  1   
  6   3  25  1   
  7   3  26  1   
  8   4   7  ar  
  9   5   8  ar  
 10   6   9  2   
 11   6  10  am  
 12   7  11  ar  
 13   7  12  1   
 14   8  11  ar  
 15   8  27  1   
 16  10  13  1   
 17  10  14  1   
 18  11  28  1   
 19  12  29  1   
 20  12  30  1   
 21  12  31  1   
 22  13  15  1   
 23  13  32  1   
 24  13  33  1   
 25  14  16  1   
 26  14  34  1   
 27  14  35  1   
 28  15  17  1   
 29  15  36  1   
 30  15  37  1   
 31  16  17  1   
 32  16  38  1   
 33  16  39  1   
 34  17  18  1   
 35  17  19  1   
 36  18  40  1   
 37  19  20  1   
 38  19  41  1   
 39  19  42  1   
 40  20  21  1   
 41  20  22  1   
 42  20  43  1   
 43  21  23  1   
 44  21  44  1   
 45  21  45  1   
 46  22  24  1   
 47  22  46  1   
 48  22  47  1   
 49  23  24  1   
 50  23  48  1   
 51  23  49  1   
 52  24  50  1   
 53  24  51  1   
@<TRIPOS>SUBSTRUCTURE
  1 ****  13 GROUP 4 **** **** 0

# MOE 2024.06 (io_trps.svl 2023.06)
