@<TRIPOS>MOLECULE
NONAME
55 58 1 0 0 
SMALL
USER_CHARGES


@<TRIPOS>ATOM
  1 O        0.6120     1.0200    -1.3670 O.3   1 <1>  -0.3630 
  2 C        1.3480     0.7640    -0.2550 C.ar  1 <1>   0.0830 
  3 C       -0.5700     1.7640    -1.1710 C.3   1 <1>   0.0400 
  4 C        2.0320     1.7930     0.4060 C.ar  1 <1>   0.0830 
  5 C        1.4160    -0.5420     0.2280 C.ar  1 <1>  -0.1440 
  6 O        2.0450     3.0730    -0.0430 O.3   1 <1>  -0.3620 
  7 C        2.7320     1.5230     1.5680 C.ar  1 <1>  -0.1500 
  8 C        2.1390    -0.7910     1.3890 C.ar  1 <1>  -0.1500 
  9 C        0.7080    -1.6990    -0.4880 C.3   1 <1>   0.0630 
 10 C        2.7330     3.3030    -1.2520 C.3   1 <1>   0.0400 
 11 C        2.7870     0.2320     2.0590 C.ar  1 <1>  -0.1500 
 12 C       -0.2860    -2.4580     0.3900 C.3   1 <1>   0.2090 
 13 C        1.6660    -2.7780    -0.9900 C.3   1 <1>  -0.1600 
 14 N       -0.2880    -3.8510    -0.1330 N.pl3 1 <1>  -0.8380 
 15 C        0.8090    -4.0330    -1.1110 C.3   1 <1>   0.2090 
 16 C       -0.8410    -4.8990     0.5830 C.ar  1 <1>   0.4100 
 17 N       -1.3470    -4.6280     1.7740 N.ar  1 <1>  -0.6200 
 18 C       -0.8810    -6.1810     0.0830 C.ar  1 <1>  -0.1500 
 19 C       -1.8660    -5.6530     2.4190 C.ar  1 <1>   0.4700 
 20 C       -1.4390    -7.1740     0.8500 C.ar  1 <1>   0.4100 
 21 N       -1.9450    -6.9120     2.0420 N.ar  1 <1>  -0.6200 
 22 N       -1.4820    -8.4780     0.4010 N.pl3 1 <1>  -0.8380 
 23 C       -0.2000    -9.1920     0.1860 C.3   1 <1>   0.2090 
 24 C       -2.6000    -9.3590     0.8330 C.3   1 <1>   0.2090 
 25 C       -0.3930   -10.2810    -0.8740 C.3   1 <1>  -0.1600 
 26 C       -2.8190   -10.4570    -0.2130 C.3   1 <1>  -0.1600 
 27 C       -1.5290   -11.2420    -0.4950 C.3   1 <1>  -0.1600 
 28 H       -1.0960     1.8140    -2.1060 H     1 <1>   0.0800 
 29 H       -0.3160     2.7550    -0.8400 H     1 <1>   0.0800 
 30 H       -1.1740     1.2680    -0.4320 H     1 <1>   0.0800 
 31 H        3.2350     2.3240     2.0780 H     1 <1>   0.1500 
 32 H        2.2020    -1.7890     1.7860 H     1 <1>   0.1500 
 33 H        0.1520    -1.3410    -1.3350 H     1 <1>   0.0800 
 34 H        2.7560     4.3620    -1.4300 H     1 <1>   0.0800 
 35 H        2.2180     2.8070    -2.0550 H     1 <1>   0.0800 
 36 H        3.7350     2.9220    -1.1590 H     1 <1>   0.0800 
 37 H        3.3350     0.0230     2.9610 H     1 <1>   0.1500 
 38 H       -1.2700    -2.0280     0.3270 H     1 <1>   0.0800 
 39 H        0.0340    -2.4620     1.4170 H     1 <1>   0.0800 
 40 H        2.4430    -2.9620    -0.2710 H     1 <1>   0.0800 
 41 H        2.1170    -2.5090    -1.9280 H     1 <1>   0.0800 
 42 H        1.3850    -4.9160    -0.8950 H     1 <1>   0.0800 
 43 H        0.3870    -4.1050    -2.0990 H     1 <1>   0.0800 
 44 H       -0.5040    -6.4110    -0.8890 H     1 <1>   0.1500 
 45 H       -2.2800    -5.4300     3.3870 H     1 <1>   0.1500 
 46 H        0.1140    -9.6350     1.1160 H     1 <1>   0.0800 
 47 H        0.5620    -8.5010    -0.1320 H     1 <1>   0.0800 
 48 H       -3.5000    -8.7770     0.9430 H     1 <1>   0.0800 
 49 H       -2.3590    -9.7940     1.7880 H     1 <1>   0.0800 
 50 H        0.5240   -10.8310    -0.9890 H     1 <1>   0.0800 
 51 H       -0.6160    -9.8090    -1.8140 H     1 <1>   0.0800 
 52 H       -3.1690    -9.9970    -1.1200 H     1 <1>   0.0800 
 53 H       -3.5850   -11.1270     0.1330 H     1 <1>   0.0800 
 54 H       -1.2500   -11.7960     0.3850 H     1 <1>   0.0800 
 55 H       -1.6960   -11.9440    -1.2940 H     1 <1>   0.0800 
@<TRIPOS>BOND
  1   1   2  1   
  2   1   3  1   
  3   2   4  ar  
  4   2   5  ar  
  5   3  28  1   
  6   3  29  1   
  7   3  30  1   
  8   4   6  1   
  9   4   7  ar  
 10   5   8  ar  
 11   5   9  1   
 12   6  10  1   
 13   7  11  ar  
 14   7  31  1   
 15   8  11  ar  
 16   8  32  1   
 17   9  12  1   
 18   9  13  1   
 19   9  33  1   
 20  10  34  1   
 21  10  35  1   
 22  10  36  1   
 23  11  37  1   
 24  12  14  1   
 25  12  38  1   
 26  12  39  1   
 27  13  15  1   
 28  13  40  1   
 29  13  41  1   
 30  14  15  1   
 31  14  16  1   
 32  15  42  1   
 33  15  43  1   
 34  16  17  ar  
 35  16  18  ar  
 36  17  19  ar  
 37  18  20  ar  
 38  18  44  1   
 39  19  21  ar  
 40  19  45  1   
 41  20  21  ar  
 42  20  22  1   
 43  22  23  1   
 44  22  24  1   
 45  23  25  1   
 46  23  46  1   
 47  23  47  1   
 48  24  26  1   
 49  24  48  1   
 50  24  49  1   
 51  25  27  1   
 52  25  50  1   
 53  25  51  1   
 54  26  27  1   
 55  26  52  1   
 56  26  53  1   
 57  27  54  1   
 58  27  55  1   
@<TRIPOS>SUBSTRUCTURE
  1 ****  14 GROUP 4 **** **** 0

# MOE 2024.06 (io_trps.svl 2023.06)
