@<TRIPOS>MOLECULE
NONAME
51 52 1 0 0 
SMALL
USER_CHARGES


@<TRIPOS>ATOM
  1 S       -0.3500     0.2390    -0.1750 S.o2  1 <1>   1.3330 
  2 O       -0.5410    -0.1860     1.1940 O.2   1 <1>  -0.6500 
  3 O       -1.0190     1.4280    -0.6520 O.2   1 <1>  -0.6500 
  4 N       -0.7820    -1.0570    -1.1840 N.am  1 <1>  -0.8490 
  5 C        1.4010     0.4280    -0.5120 C.3   1 <1>  -0.0550 
  6 C       -0.5340    -2.3720    -0.5820 C.3   1 <1>   0.1160 
  7 C       -2.1730    -0.9700    -1.6380 C.3   1 <1>   0.1160 
  8 C        2.0470     1.6190     0.2240 C.3   1 <1>  -0.0800 
  9 C        3.4610     1.8680    -0.2720 C.3   1 <1>   0.2200 
 10 C        2.2700     1.3250     1.7140 C.3   1 <1>   0.1200 
 11 N        3.8280     3.2760    -0.0080 N.am  1 <1>  -0.7300 
 12 C        4.2740     0.9520     0.6340 C.3   1 <1>   0.1200 
 13 O        3.6070     0.9400     1.8600 O.3   1 <1>  -0.5600 
 14 C        4.1220     4.1910    -0.9630 C.2   1 <1>   0.5690 
 15 O        4.1120     3.9160    -2.1360 O.2   1 <1>  -0.5700 
 16 C        4.4860     5.5950    -0.5360 C.3   1 <1>  -0.0990 
 17 C        6.0060     5.7930    -0.5270 C.3   1 <1>  -0.0170 
 18 C        6.3550     7.1950    -0.0540 C.ar  1 <1>  -0.1440 
 19 C        6.3850     8.2480    -0.9560 C.ar  1 <1>  -0.1500 
 20 C        6.6430     7.4350     1.2800 C.ar  1 <1>  -0.1500 
 21 C        6.7000     9.5280    -0.5320 C.ar  1 <1>  -0.1500 
 22 C        6.9580     8.7140     1.7060 C.ar  1 <1>  -0.1500 
 23 C        6.9890     9.7680     0.8080 C.ar  1 <1>   0.0820 
 24 O        7.3070    10.9880     1.3080 O.3   1 <1>  -0.3630 
 25 C        7.3840    12.1230     0.4740 C.3   1 <1>   0.0400 
 26 H        1.9150    -0.4780    -0.2560 H     1 <1>   0.0800 
 27 H        1.5150     0.5800    -1.5690 H     1 <1>   0.0800 
 28 H       -0.7360    -3.1500    -1.2990 H     1 <1>   0.0800 
 29 H       -1.1650    -2.5160     0.2800 H     1 <1>   0.0800 
 30 H        0.4940    -2.4520    -0.2740 H     1 <1>   0.0800 
 31 H       -2.4070    -1.7960    -2.2860 H     1 <1>   0.0800 
 32 H       -2.3240    -0.0570    -2.1910 H     1 <1>   0.0800 
 33 H       -2.8430    -0.9780    -0.7940 H     1 <1>   0.0800 
 34 H        1.4290     2.4900     0.0830 H     1 <1>   0.0800 
 35 H        3.5970     1.6320    -1.3150 H     1 <1>   0.0800 
 36 H        1.6440     0.5390     2.0970 H     1 <1>   0.0800 
 37 H        2.1230     2.2130     2.3040 H     1 <1>   0.0800 
 38 H        3.8790     3.5210     0.9830 H     1 <1>   0.3700 
 39 H        5.2840     1.2950     0.7740 H     1 <1>   0.0800 
 40 H        4.2800    -0.0540     0.2550 H     1 <1>   0.0800 
 41 H        4.0380     6.2880    -1.2240 H     1 <1>   0.0800 
 42 H        4.0860     5.7930     0.4410 H     1 <1>   0.0800 
 43 H        6.3950     5.6370    -1.5190 H     1 <1>   0.0800 
 44 H        6.4650     5.0670     0.1200 H     1 <1>   0.0800 
 45 H        6.1630     8.0730    -1.9940 H     1 <1>   0.1500 
 46 H        6.6250     6.6310     1.9940 H     1 <1>   0.1500 
 47 H        6.7140    10.3200    -1.2560 H     1 <1>   0.1500 
 48 H        7.1820     8.9030     2.7400 H     1 <1>   0.1500 
 49 H        7.6550    12.9660     1.0830 H     1 <1>   0.0800 
 50 H        6.4220    12.2910     0.0240 H     1 <1>   0.0800 
 51 H        8.1380    11.9550    -0.2740 H     1 <1>   0.0800 
@<TRIPOS>BOND
  1   1   2  2   
  2   1   3  2   
  3   1   4  am  
  4   1   5  1   
  5   4   6  1   
  6   4   7  1   
  7   5   8  1   
  8   5  26  1   
  9   5  27  1   
 10   6  28  1   
 11   6  29  1   
 12   6  30  1   
 13   7  31  1   
 14   7  32  1   
 15   7  33  1   
 16   8   9  1   
 17   8  10  1   
 18   8  34  1   
 19   9  11  1   
 20   9  12  1   
 21   9  35  1   
 22  10  13  1   
 23  10  36  1   
 24  10  37  1   
 25  11  14  am  
 26  11  38  1   
 27  12  13  1   
 28  12  39  1   
 29  12  40  1   
 30  14  15  2   
 31  14  16  1   
 32  16  17  1   
 33  16  41  1   
 34  16  42  1   
 35  17  18  1   
 36  17  43  1   
 37  17  44  1   
 38  18  19  ar  
 39  18  20  ar  
 40  19  21  ar  
 41  19  45  1   
 42  20  22  ar  
 43  20  46  1   
 44  21  23  ar  
 45  21  47  1   
 46  22  23  ar  
 47  22  48  1   
 48  23  24  1   
 49  24  25  1   
 50  25  49  1   
 51  25  50  1   
 52  25  51  1   
@<TRIPOS>SUBSTRUCTURE
  1 ****  11 GROUP 4 **** **** 0

# MOE 2024.06 (io_trps.svl 2023.06)
