@<TRIPOS>MOLECULE
NONAME
50 52 1 0 0 
SMALL
USER_CHARGES


@<TRIPOS>ATOM
  1 CL       1.6900    -0.7360    -1.6190 Cl    1 <1>  -0.1770 
  2 C        2.1590    -1.8270    -0.3350 C.ar  1 <1>   0.1770 
  3 C        1.4370    -2.9990    -0.0950 C.ar  1 <1>   0.0530 
  4 C        3.2730    -1.4850     0.4070 C.ar  1 <1>  -0.1500 
  5 C        0.2640    -3.3790    -0.8490 C.2   1 <1>   0.0870 
  6 C        1.9010    -3.8240     0.9310 C.ar  1 <1>  -0.1500 
  7 C        3.7060    -2.3210     1.4210 C.ar  1 <1>  -0.1500 
  8 O        0.0780    -4.6540    -1.1630 O.3   1 <1>  -0.2800 
  9 C       -0.7810    -2.6600    -1.3370 C.2   1 <1>  -0.1500 
 10 C        3.0170    -3.4930     1.6790 C.ar  1 <1>  -0.1500 
 11 C       -1.0460    -4.7710    -1.8420 C.2   1 <1>  -0.0400 
 12 C       -1.6290    -3.5610    -1.9840 C.2   1 <1>  -0.1500 
 13 C       -1.4890    -6.1460    -2.3260 C.3   1 <1>   0.5230 
 14 N       -1.6870    -7.0750    -1.1870 N.4   1 <1>  -0.9590 
 15 C       -0.3920    -7.5720    -0.6430 C.3   1 <1>   0.3430 
 16 C       -2.6070    -6.5760    -0.1340 C.3   1 <1>   0.3430 
 17 C       -0.6250    -8.7530     0.3040 C.3   1 <1>  -0.1060 
 18 C       -2.8680    -7.6720     0.8960 C.3   1 <1>  -0.1600 
 19 C       -1.3320    -9.8670    -0.4700 C.2   1 <1>   0.9060 
 20 C       -1.5550    -8.2520     1.4290 C.3   1 <1>   0.2000 
 21 C        0.7330    -9.2280     0.8940 C.3   1 <1>  -0.1600 
 22 O       -1.6890   -10.8760     0.1410 O.co2 1 <1>  -0.9000 
 23 O       -1.6390    -9.6750    -1.6580 O.co2 1 <1>  -0.9000 
 24 O       -1.8740    -9.2910     2.2720 O.3   1 <1>  -0.6800 
 25 C        1.7530    -9.6920    -0.1600 C.3   1 <1>  -0.1600 
 26 C        3.0350   -10.1920     0.5090 C.3   1 <1>  -0.2400 
 27 H        3.7990    -0.5720     0.1900 H     1 <1>   0.1500 
 28 H        1.3770    -4.7370     1.1470 H     1 <1>   0.1500 
 29 H        4.5740    -2.0620     2.0040 H     1 <1>   0.1500 
 30 H       -0.9480    -1.5990    -1.2560 H     1 <1>   0.1500 
 31 H        3.3520    -4.1470     2.4670 H     1 <1>   0.1500 
 32 H       -2.5460    -3.2960    -2.4810 H     1 <1>   0.1500 
 33 H       -0.7470    -6.5470    -2.9960 H     1 <1>   0.0800 
 34 H       -2.4120    -6.0460    -2.8720 H     1 <1>   0.0800 
 35 H       -2.0780    -7.9700    -1.5840 H     1 <1>   0.4500 
 36 H        0.2280    -7.9070    -1.4580 H     1 <1>   0.0800 
 37 H        0.1220    -6.7810    -0.1230 H     1 <1>   0.0800 
 38 H       -2.1640    -5.7220     0.3530 H     1 <1>   0.0800 
 39 H       -3.5420    -6.2710    -0.5740 H     1 <1>   0.0800 
 40 H       -3.4630    -8.4470     0.4440 H     1 <1>   0.0800 
 41 H       -3.4290    -7.2580     1.7150 H     1 <1>   0.0800 
 42 H       -1.0500    -7.5090     2.0230 H     1 <1>   0.0800 
 43 H        1.1680    -8.4380     1.4830 H     1 <1>   0.0800 
 44 H        0.5440   -10.0540     1.5610 H     1 <1>   0.0800 
 45 H       -1.9490   -10.1190     1.7090 H     1 <1>   0.4000 
 46 H        1.3320   -10.4960    -0.7430 H     1 <1>   0.0800 
 47 H        2.0060    -8.8900    -0.8300 H     1 <1>   0.0800 
 48 H        2.8170   -11.0210     1.1600 H     1 <1>   0.0800 
 49 H        3.4930    -9.4080     1.0870 H     1 <1>   0.0800 
 50 H        3.7360   -10.5220    -0.2370 H     1 <1>   0.0800 
@<TRIPOS>BOND
  1   1   2  1   
  2   2   3  ar  
  3   2   4  ar  
  4   3   5  1   
  5   3   6  ar  
  6   4   7  ar  
  7   4  27  1   
  8   5   8  1   
  9   5   9  2   
 10   6  10  ar  
 11   6  28  1   
 12   7  10  ar  
 13   7  29  1   
 14   8  11  1   
 15   9  12  1   
 16   9  30  1   
 17  10  31  1   
 18  11  12  2   
 19  11  13  1   
 20  12  32  1   
 21  13  14  1   
 22  13  33  1   
 23  13  34  1   
 24  14  15  1   
 25  14  16  1   
 26  14  35  1   
 27  15  17  1   
 28  15  36  1   
 29  15  37  1   
 30  16  18  1   
 31  16  38  1   
 32  16  39  1   
 33  17  19  1   
 34  17  20  1   
 35  17  21  1   
 36  18  20  1   
 37  18  40  1   
 38  18  41  1   
 39  19  22  ar  
 40  19  23  ar  
 41  20  24  1   
 42  20  42  1   
 43  21  25  1   
 44  21  43  1   
 45  21  44  1   
 46  24  45  1   
 47  25  26  1   
 48  25  46  1   
 49  25  47  1   
 50  26  48  1   
 51  26  49  1   
 52  26  50  1   
@<TRIPOS>SUBSTRUCTURE
  1 ****   8 GROUP 4 **** **** 0

# MOE 2024.06 (io_trps.svl 2023.06)
