@<TRIPOS>MOLECULE
NONAME
52 56 1 0 0 
SMALL
USER_CHARGES


@<TRIPOS>ATOM
  1 O        1.4030     0.0880     2.4100 O.2   1 <1>  -0.5700 
  2 C        1.8260     0.5140     1.3500 C.2   1 <1>   0.5440 
  3 N        1.3170     1.7000     0.8700 N.am  1 <1>  -0.6600 
  4 C        2.8530    -0.1910     0.6290 C.ar  1 <1>   0.0860 
  5 C        0.2290     2.4360     1.5460 C.3   1 <1>   0.1400 
  6 C        1.6380     2.3010    -0.4430 C.3   1 <1>   0.1400 
  7 C        2.6140    -1.3930    -0.0720 C.ar  1 <1>   0.4100 
  8 C        4.1420     0.3260     0.6220 C.ar  1 <1>  -0.1500 
  9 C       -0.0370     3.6470     0.6570 C.3   1 <1>  -0.1600 
 10 C        0.4700     3.2370    -0.7250 C.3   1 <1>  -0.1600 
 11 N        3.5720    -2.0480    -0.7280 N.ar  1 <1>  -0.6200 
 12 N        1.3750    -2.0070    -0.1440 N.pl3 1 <1>  -0.8380 
 13 C        5.1190    -0.3560    -0.0640 C.ar  1 <1>  -0.1500 
 14 C        4.7810    -1.5280    -0.7140 C.ar  1 <1>   0.1600 
 15 C        1.2580    -3.4340     0.3080 C.3   1 <1>   0.3900 
 16 C        0.0860    -1.2690    -0.3410 C.3   1 <1>   0.2090 
 17 C        0.0110    -4.0870    -0.2690 C.2   1 <1>  -0.1810 
 18 C       -0.8400    -1.9790    -1.3450 C.3   1 <1>   0.0200 
 19 C       -0.3800    -5.4390    -0.1510 C.ar  1 <1>   0.0000 
 20 C       -0.9240    -3.4520    -1.0070 C.2   1 <1>  -0.3320 
 21 C       -1.5740    -5.5610    -0.8580 C.ar  1 <1>  -0.1520 
 22 C        0.1630    -6.5600     0.4840 C.ar  1 <1>  -0.1500 
 23 N       -1.8960    -4.3320    -1.3840 N.pl3 1 <1>   0.0330 
 24 C       -2.2340    -6.7890    -0.9410 C.ar  1 <1>  -0.1500 
 25 C       -0.4830    -7.7730     0.4070 C.ar  1 <1>   0.0820 
 26 C       -1.6900    -7.8850    -0.3120 C.ar  1 <1>  -0.1500 
 27 O        0.1020    -8.8230     1.0490 O.3   1 <1>  -0.3620 
 28 C       -0.4640   -10.1130     0.9960 C.3   1 <1>   0.0400 
 29 H        0.5270     2.7260     2.5400 H     1 <1>   0.0800 
 30 H       -0.6410     1.8040     1.6030 H     1 <1>   0.0800 
 31 H        1.7400     1.5500    -1.2080 H     1 <1>   0.0800 
 32 H        2.5540     2.8610    -0.3570 H     1 <1>   0.0800 
 33 H        4.3620     1.2380     1.1490 H     1 <1>   0.1500 
 34 H        0.5370     4.4790     1.0240 H     1 <1>   0.0800 
 35 H       -1.0780     3.9160     0.6510 H     1 <1>   0.0800 
 36 H       -0.2970     2.6920    -1.2480 H     1 <1>   0.0800 
 37 H        0.7680     4.0820    -1.3200 H     1 <1>   0.0800 
 38 H        6.1300     0.0080    -0.0950 H     1 <1>   0.1500 
 39 H        5.5470    -2.0630    -1.2490 H     1 <1>   0.1500 
 40 H        1.2090    -3.4590     1.3820 H     1 <1>   0.0800 
 41 H        2.1220    -3.9930    -0.0070 H     1 <1>   0.0800 
 42 H        0.2810    -0.2750    -0.6980 H     1 <1>   0.0800 
 43 H       -0.4140    -1.1970     0.6100 H     1 <1>   0.0800 
 44 H       -0.4470    -1.8590    -2.3380 H     1 <1>   0.0800 
 45 H       -1.8150    -1.5280    -1.3030 H     1 <1>   0.0800 
 46 H        1.0830    -6.4690     1.0280 H     1 <1>   0.1500 
 47 H       -2.7180    -4.1310    -1.9600 H     1 <1>   0.2700 
 48 H       -3.1540    -6.8650    -1.4920 H     1 <1>   0.1500 
 49 H       -2.2020    -8.8250    -0.3780 H     1 <1>   0.1500 
 50 H        0.1680   -10.7780     1.5550 H     1 <1>   0.0800 
 51 H       -0.5120   -10.4300    -0.0310 H     1 <1>   0.0800 
 52 H       -1.4440   -10.0820     1.4390 H     1 <1>   0.0800 
@<TRIPOS>BOND
  1   1   2  2   
  2   2   3  am  
  3   2   4  1   
  4   3   5  1   
  5   3   6  1   
  6   4   7  ar  
  7   4   8  ar  
  8   5   9  1   
  9   5  29  1   
 10   5  30  1   
 11   6  10  1   
 12   6  31  1   
 13   6  32  1   
 14   7  11  ar  
 15   7  12  1   
 16   8  13  ar  
 17   8  33  1   
 18   9  10  1   
 19   9  34  1   
 20   9  35  1   
 21  10  36  1   
 22  10  37  1   
 23  11  14  ar  
 24  12  15  1   
 25  12  16  1   
 26  13  14  ar  
 27  13  38  1   
 28  14  39  1   
 29  15  17  1   
 30  15  40  1   
 31  15  41  1   
 32  16  18  1   
 33  16  42  1   
 34  16  43  1   
 35  17  19  1   
 36  17  20  2   
 37  18  20  1   
 38  18  44  1   
 39  18  45  1   
 40  19  21  ar  
 41  19  22  ar  
 42  20  23  1   
 43  21  23  1   
 44  21  24  ar  
 45  22  25  ar  
 46  22  46  1   
 47  23  47  1   
 48  24  26  ar  
 49  24  48  1   
 50  25  26  ar  
 51  25  27  1   
 52  26  49  1   
 53  27  28  1   
 54  28  50  1   
 55  28  51  1   
 56  28  52  1   
@<TRIPOS>SUBSTRUCTURE
  1 ****  12 GROUP 4 **** **** 0

# MOE 2024.06 (io_trps.svl 2023.06)
