@<TRIPOS>MOLECULE
NONAME
40 42 1 0 0 
SMALL
USER_CHARGES


@<TRIPOS>ATOM
  1 CL      -0.1110    -5.3790    -2.3940 Cl    1 <1>  -0.1770 
  2 C       -1.1730    -4.3240    -1.4940 C.ar  1 <1>   0.1770 
  3 C       -1.3460    -2.9980    -1.8520 C.ar  1 <1>   0.1900 
  4 C       -1.8660    -4.8390    -0.4140 C.ar  1 <1>  -0.1500 
  5 F       -0.6960    -2.5070    -2.8740 F     1 <1>  -0.1900 
  6 C       -2.2040    -2.1720    -1.1510 C.ar  1 <1>  -0.1500 
  7 C       -2.7470    -4.0270     0.2940 C.ar  1 <1>  -0.1440 
  8 C       -2.9070    -2.6940    -0.0750 C.ar  1 <1>  -0.1500 
  9 C       -3.5360    -4.6120     1.4500 C.3   1 <1>   0.4870 
 10 N       -4.5910    -5.4720     0.8640 N.4   1 <1>  -0.9590 
 11 C       -5.7140    -4.7440     0.2000 C.3   1 <1>   0.3430 
 12 C       -5.2030    -6.4840     1.7520 C.3   1 <1>   0.3430 
 13 C       -6.9130    -5.7030     0.2440 C.3   1 <1>   0.2000 
 14 C       -6.4360    -6.9630     0.9830 C.3   1 <1>  -0.0800 
 15 O       -7.9440    -5.1160     0.9660 O.3   1 <1>  -0.6800 
 16 C       -6.1310    -8.1460     0.0260 C.3   1 <1>  -0.0160 
 17 C       -4.8230    -8.0640    -0.7620 C.ar  1 <1>   0.1670 
 18 N       -4.6780    -7.0380    -1.5890 N.ar  1 <1>  -0.6200 
 19 C       -3.8470    -9.0450    -0.5880 C.ar  1 <1>   0.1600 
 20 C       -3.5390    -7.0910    -2.2670 C.ar  1 <1>   0.1600 
 21 N       -2.6860    -9.0600    -1.2160 N.ar  1 <1>  -0.6200 
 22 C       -2.5700    -8.0680    -2.0820 C.ar  1 <1>   0.1600 
 23 H       -1.7070    -5.8700    -0.1440 H     1 <1>   0.1500 
 24 H       -2.3160    -1.1420    -1.4470 H     1 <1>   0.1500 
 25 H       -3.5770    -2.0460     0.4670 H     1 <1>   0.1500 
 26 H       -3.9720    -3.8300     2.0500 H     1 <1>   0.0800 
 27 H       -2.8770    -5.1990     2.0680 H     1 <1>   0.0800 
 28 H       -4.1590    -5.9980     0.0790 H     1 <1>   0.4500 
 29 H       -5.9540    -3.8360     0.7260 H     1 <1>   0.0800 
 30 H       -5.4540    -4.5160    -0.8210 H     1 <1>   0.0800 
 31 H       -4.5220    -7.2940     1.9640 H     1 <1>   0.0800 
 32 H       -5.5090    -6.0210     2.6770 H     1 <1>   0.0800 
 33 H       -7.2840    -5.9100    -0.7470 H     1 <1>   0.0800 
 34 H       -7.1920    -7.3000     1.6720 H     1 <1>   0.0800 
 35 H       -7.7830    -5.0850     1.9280 H     1 <1>   0.4000 
 36 H       -6.9420    -8.2520    -0.6760 H     1 <1>   0.0800 
 37 H       -6.1220    -9.0510     0.6090 H     1 <1>   0.0800 
 38 H       -4.0270    -9.8550     0.0980 H     1 <1>   0.1500 
 39 H       -3.3560    -6.3240    -3.0020 H     1 <1>   0.1500 
 40 H       -1.6680    -8.0270    -2.6690 H     1 <1>   0.1500 
@<TRIPOS>BOND
  1   1   2  1   
  2   2   3  ar  
  3   2   4  ar  
  4   3   5  1   
  5   3   6  ar  
  6   4   7  ar  
  7   4  23  1   
  8   6   8  ar  
  9   6  24  1   
 10   7   8  ar  
 11   7   9  1   
 12   8  25  1   
 13   9  10  1   
 14   9  26  1   
 15   9  27  1   
 16  10  11  1   
 17  10  12  1   
 18  10  28  1   
 19  11  13  1   
 20  11  29  1   
 21  11  30  1   
 22  12  14  1   
 23  12  31  1   
 24  12  32  1   
 25  13  14  1   
 26  13  15  1   
 27  13  33  1   
 28  14  16  1   
 29  14  34  1   
 30  15  35  1   
 31  16  17  1   
 32  16  36  1   
 33  16  37  1   
 34  17  18  ar  
 35  17  19  ar  
 36  18  20  ar  
 37  19  21  ar  
 38  19  38  1   
 39  20  22  ar  
 40  20  39  1   
 41  21  22  ar  
 42  22  40  1   
@<TRIPOS>SUBSTRUCTURE
  1 ****  10 GROUP 4 **** **** 0

# MOE 2024.06 (io_trps.svl 2023.06)
