@<TRIPOS>MOLECULE
NONAME
42 43 1 0 0 
SMALL
USER_CHARGES


@<TRIPOS>ATOM
  1 S        0.7510     1.2520     0.0860 S.o2  1 <1>   1.3330 
  2 O       -0.0180     0.4340    -0.8250 O.2   1 <1>  -0.6500 
  3 O        0.1290     2.3930     0.7190 O.2   1 <1>  -0.6500 
  4 N        1.3210     0.2420     1.3270 N.am  1 <1>  -0.8490 
  5 C        2.2370     1.7820    -0.7680 C.3   1 <1>  -0.0550 
  6 C        1.8990     0.9810     2.4560 C.3   1 <1>   0.1160 
  7 C        0.2780    -0.6650     1.8130 C.3   1 <1>   0.1160 
  8 C        2.9750     0.6580    -1.5300 C.3   1 <1>  -0.0800 
  9 C        4.1330     1.1290    -2.4000 C.3   1 <1>   0.2200 
 10 C        3.6300    -0.4030    -0.6360 C.3   1 <1>   0.1200 
 11 N        4.9170     2.1620    -1.6890 N.am  1 <1>  -0.7300 
 12 C        4.9600    -0.1460    -2.4830 C.3   1 <1>   0.1200 
 13 O        4.8650    -0.7160    -1.2140 O.3   1 <1>  -0.5600 
 14 C        4.8620     3.4970    -1.9340 C.2   1 <1>   0.5690 
 15 O        4.2630     3.9390    -2.8840 O.2   1 <1>  -0.5700 
 16 C        5.5400     4.4570    -0.9790 C.3   1 <1>   0.1570 
 17 N        5.0640     4.2110     0.3970 N.pl3 1 <1>   0.0480 
 18 C        3.8860     4.6360     0.9290 C.2   1 <1>  -0.3020 
 19 C        5.6890     3.4720     1.3540 C.2   1 <1>  -0.3020 
 20 C        3.7700     4.1810     2.2030 C.2   1 <1>  -0.1500 
 21 C        4.9210     3.4360     2.4740 C.2   1 <1>  -0.1500 
 22 H        1.9620     2.5380    -1.4780 H     1 <1>   0.0800 
 23 H        2.9000     2.2380    -0.0610 H     1 <1>   0.0800 
 24 H        2.2980     0.2940     3.1820 H     1 <1>   0.0800 
 25 H        1.1510     1.5960     2.9280 H     1 <1>   0.0800 
 26 H        2.7000     1.6120     2.1150 H     1 <1>   0.0800 
 27 H        0.6690    -1.3060     2.5850 H     1 <1>   0.0800 
 28 H       -0.0750    -1.2870     1.0080 H     1 <1>   0.0800 
 29 H       -0.5540    -0.1030     2.2050 H     1 <1>   0.0800 
 30 H        2.2670     0.1550    -2.1670 H     1 <1>   0.0800 
 31 H        3.8180     1.4810    -3.3690 H     1 <1>   0.0800 
 32 H        3.0330    -1.2980    -0.5750 H     1 <1>   0.0800 
 33 H        3.8250    -0.0300     0.3540 H     1 <1>   0.0800 
 34 H        5.3830     1.8080    -0.8470 H     1 <1>   0.3700 
 35 H        5.9920     0.0390    -2.7240 H     1 <1>   0.0800 
 36 H        4.5330    -0.8350    -3.1900 H     1 <1>   0.0800 
 37 H        5.3030     5.4670    -1.2560 H     1 <1>   0.0800 
 38 H        6.6030     4.3200    -1.0210 H     1 <1>   0.0800 
 39 H        3.1890     5.2420     0.3760 H     1 <1>   0.1500 
 40 H        6.6490     3.0120     1.1970 H     1 <1>   0.1500 
 41 H        2.9580     4.3500     2.8900 H     1 <1>   0.1500 
 42 H        5.1360     2.9430     3.4080 H     1 <1>   0.1500 
@<TRIPOS>BOND
  1   1   2  2   
  2   1   3  2   
  3   1   4  am  
  4   1   5  1   
  5   4   6  1   
  6   4   7  1   
  7   5   8  1   
  8   5  22  1   
  9   5  23  1   
 10   6  24  1   
 11   6  25  1   
 12   6  26  1   
 13   7  27  1   
 14   7  28  1   
 15   7  29  1   
 16   8   9  1   
 17   8  10  1   
 18   8  30  1   
 19   9  11  1   
 20   9  12  1   
 21   9  31  1   
 22  10  13  1   
 23  10  32  1   
 24  10  33  1   
 25  11  14  am  
 26  11  34  1   
 27  12  13  1   
 28  12  35  1   
 29  12  36  1   
 30  14  15  2   
 31  14  16  1   
 32  16  17  1   
 33  16  37  1   
 34  16  38  1   
 35  17  18  1   
 36  17  19  1   
 37  18  20  2   
 38  18  39  1   
 39  19  21  2   
 40  19  40  1   
 41  20  21  1   
 42  20  41  1   
 43  21  42  1   
@<TRIPOS>SUBSTRUCTURE
  1 ****   5 GROUP 4 **** **** 0

# MOE 2024.06 (io_trps.svl 2023.06)
