@<TRIPOS>MOLECULE
NONAME
56 58 1 0 0 
SMALL
USER_CHARGES


@<TRIPOS>ATOM
  1 O        0.4910     2.8900    -2.5950 O.2   1 <1>  -0.5700 
  2 C       -0.1900     3.6490    -1.9460 C.2   1 <1>   0.5690 
  3 N       -1.0280     3.2160    -0.9550 N.am  1 <1>  -0.6600 
  4 C       -0.0850     5.1440    -2.2480 C.3   1 <1>   0.1810 
  5 C       -1.8760     4.1750    -0.1770 C.3   1 <1>   0.3640 
  6 C       -1.1690     1.7760    -0.5950 C.3   1 <1>   0.0600 
  7 O       -1.2310     5.8760    -1.8690 O.3   1 <1>  -0.5600 
  8 C       -3.3670     3.7980    -0.2250 C.ar  1 <1>  -0.1440 
  9 C       -1.6590     5.6770    -0.5270 C.3   1 <1>   0.2610 
 10 C       -4.1250     3.6290    -1.3890 C.ar  1 <1>  -0.1440 
 11 C       -3.9930     3.6280     1.0060 C.ar  1 <1>  -0.1500 
 12 C       -0.7400     6.3990     0.4720 C.2   1 <1>   0.5690 
 13 C       -5.4680     3.2950    -1.2870 C.ar  1 <1>  -0.1500 
 14 C       -3.5590     3.7930    -2.7950 C.3   1 <1>  -0.0960 
 15 C       -5.3310     3.2950     1.0950 C.ar  1 <1>  -0.1500 
 16 O       -0.7300     6.0600     1.6330 O.2   1 <1>  -0.5700 
 17 N        0.0190     7.4300     0.0140 N.am  1 <1>  -0.7300 
 18 C       -6.0710     3.1280    -0.0560 C.ar  1 <1>  -0.1500 
 19 C        0.9820     8.2920     0.7050 C.3   1 <1>   0.4440 
 20 C        1.4080     9.3550    -0.3270 C.ar  1 <1>  -0.1440 
 21 C        2.1370     7.4100     1.1910 C.3   1 <1>  -0.2400 
 22 C        0.3120     8.9810     1.8960 C.3   1 <1>  -0.2400 
 23 C        2.7370     9.6100    -0.6560 C.ar  1 <1>  -0.1500 
 24 C        0.4280    10.1050    -0.9710 C.ar  1 <1>  -0.1500 
 25 C        3.0680    10.5710    -1.5960 C.ar  1 <1>  -0.1500 
 26 C        0.7570    11.0650    -1.9110 C.ar  1 <1>  -0.1500 
 27 C        2.0810    11.3030    -2.2310 C.ar  1 <1>  -0.1440 
 28 C        2.4460    12.3580    -3.2600 C.3   1 <1>  -0.0970 
 29 H        0.0500     5.2780    -3.3050 H     1 <1>   0.0800 
 30 H        0.7720     5.5470    -1.7410 H     1 <1>   0.0800 
 31 H       -1.5780     4.0410     0.8470 H     1 <1>   0.0800 
 32 H       -1.0110     1.6450     0.4610 H     1 <1>   0.0800 
 33 H       -0.4490     1.1790    -1.1280 H     1 <1>   0.0800 
 34 H       -2.1560     1.4310    -0.8500 H     1 <1>   0.0800 
 35 H       -2.6120     6.1660    -0.4430 H     1 <1>   0.0800 
 36 H       -3.4410     3.7550     1.9220 H     1 <1>   0.1500 
 37 H       -6.0620     3.1610    -2.1740 H     1 <1>   0.1500 
 38 H       -4.3080     3.5910    -3.5380 H     1 <1>   0.0800 
 39 H       -2.7500     3.1080    -2.9600 H     1 <1>   0.0800 
 40 H       -3.2170     4.7990    -2.9460 H     1 <1>   0.0800 
 41 H       -5.7940     3.1670     2.0580 H     1 <1>   0.1500 
 42 H       -0.0550     7.6640    -0.9790 H     1 <1>   0.3700 
 43 H       -7.1140     2.8690     0.0040 H     1 <1>   0.1500 
 44 H        2.8670     8.0070     1.7070 H     1 <1>   0.0800 
 45 H        2.6100     6.9190     0.3600 H     1 <1>   0.0800 
 46 H        1.7830     6.6650     1.8790 H     1 <1>   0.0800 
 47 H        0.9860     9.7040     2.3180 H     1 <1>   0.0800 
 48 H        0.0650     8.2690     2.6630 H     1 <1>   0.0800 
 49 H       -0.5830     9.4900     1.5920 H     1 <1>   0.0800 
 50 H        3.5440     9.0730    -0.1940 H     1 <1>   0.1500 
 51 H       -0.6120     9.9480    -0.7430 H     1 <1>   0.1500 
 52 H        4.1030    10.7480    -1.8300 H     1 <1>   0.1500 
 53 H       -0.0240    11.6280    -2.3900 H     1 <1>   0.1500 
 54 H        3.3570    12.0920    -3.7650 H     1 <1>   0.0800 
 55 H        2.5830    13.3070    -2.7740 H     1 <1>   0.0800 
 56 H        1.6670    12.4530    -3.9950 H     1 <1>   0.0800 
@<TRIPOS>BOND
  1   1   2  2   
  2   2   3  am  
  3   2   4  1   
  4   3   5  1   
  5   3   6  1   
  6   4   7  1   
  7   4  29  1   
  8   4  30  1   
  9   5   8  1   
 10   5   9  1   
 11   5  31  1   
 12   6  32  1   
 13   6  33  1   
 14   6  34  1   
 15   7   9  1   
 16   8  10  ar  
 17   8  11  ar  
 18   9  12  1   
 19   9  35  1   
 20  10  13  ar  
 21  10  14  1   
 22  11  15  ar  
 23  11  36  1   
 24  12  16  2   
 25  12  17  am  
 26  13  18  ar  
 27  13  37  1   
 28  14  38  1   
 29  14  39  1   
 30  14  40  1   
 31  15  18  ar  
 32  15  41  1   
 33  17  19  1   
 34  17  42  1   
 35  18  43  1   
 36  19  20  1   
 37  19  21  1   
 38  19  22  1   
 39  20  23  ar  
 40  20  24  ar  
 41  21  44  1   
 42  21  45  1   
 43  21  46  1   
 44  22  47  1   
 45  22  48  1   
 46  22  49  1   
 47  23  25  ar  
 48  23  50  1   
 49  24  26  ar  
 50  24  51  1   
 51  25  27  ar  
 52  25  52  1   
 53  26  27  ar  
 54  26  53  1   
 55  27  28  1   
 56  28  54  1   
 57  28  55  1   
 58  28  56  1   
@<TRIPOS>SUBSTRUCTURE
  1 ****   9 GROUP 4 **** **** 0

# MOE 2024.06 (io_trps.svl 2023.06)
