@<TRIPOS>MOLECULE
NONAME
44 46 1 0 0 
SMALL
USER_CHARGES


@<TRIPOS>ATOM
  1 O       -0.6620    -0.7980     1.4250 O.3   1 <1>  -0.5600 
  2 C        0.5180    -0.4880     0.7510 C.3   1 <1>   0.1200 
  3 C       -1.7080    -0.0800     0.8610 C.3   1 <1>   0.1200 
  4 C        0.3770     0.9570     0.2680 C.3   1 <1>   0.2890 
  5 C       -1.1050     1.2670     0.4680 C.3   1 <1>  -0.0800 
  6 N        1.1980     1.8780     1.0810 N.pl3 1 <1>  -0.8690 
  7 C       -1.7570     1.8950    -0.7740 C.3   1 <1>  -0.0170 
  8 C        1.4860     3.1450     0.7150 C.ar  1 <1>   0.7200 
  9 C       -3.2380     2.1510    -0.5460 C.ar  1 <1>  -0.1440 
 10 N        1.4630     3.4480    -0.5780 N.ar  1 <1>  -0.6200 
 11 N        1.7430     3.9560     1.7280 N.ar  1 <1>  -0.6200 
 12 C       -3.6760     3.1990     0.2380 C.ar  1 <1>  -0.1500 
 13 C       -4.2190     1.3560    -1.1040 C.ar  1 <1>  -0.1500 
 14 C        1.7470     4.6940    -0.8690 C.ar  1 <1>   0.1600 
 15 C        2.0210     5.1950     1.4030 C.ar  1 <1>   0.1600 
 16 C       -5.0340     3.3940     0.4250 C.ar  1 <1>   0.1600 
 17 C       -5.5520     1.6380    -0.8540 C.ar  1 <1>   0.1600 
 18 C        2.0400     5.6310     0.0970 C.ar  1 <1>  -0.1430 
 19 N       -5.9830     2.6370    -0.1020 N.ar  1 <1>  -0.6200 
 20 C        2.3620     7.0730    -0.2610 C.3   1 <1>  -0.0170 
 21 C        1.0800     7.9110    -0.3200 C.3   1 <1>  -0.1600 
 22 C        1.3790     9.3710    -0.6770 C.3   1 <1>  -0.2400 
 23 H        1.3530    -0.6220     1.4150 H     1 <1>   0.0800 
 24 H        0.6020    -1.1580    -0.0870 H     1 <1>   0.0800 
 25 H       -2.0590    -0.6250     0.0020 H     1 <1>   0.0800 
 26 H       -2.5000     0.0210     1.5830 H     1 <1>   0.0800 
 27 H        0.6720     1.0160    -0.7660 H     1 <1>   0.0800 
 28 H       -1.2300     1.9330     1.3040 H     1 <1>   0.0800 
 29 H        1.0890     1.7810     2.0890 H     1 <1>   0.4000 
 30 H       -1.6230     1.2520    -1.6260 H     1 <1>   0.0800 
 31 H       -1.2700     2.8300    -0.9940 H     1 <1>   0.0800 
 32 H       -2.9720     3.8630     0.7050 H     1 <1>   0.1500 
 33 H       -3.9630     0.5210    -1.7300 H     1 <1>   0.1500 
 34 H        1.7440     4.9780    -1.9080 H     1 <1>   0.1500 
 35 H        2.2400     5.8830     2.2010 H     1 <1>   0.1500 
 36 H       -5.3560     4.2160     1.0410 H     1 <1>   0.1500 
 37 H       -6.3040     1.0080    -1.2980 H     1 <1>   0.1500 
 38 H        3.0330     7.4860     0.4730 H     1 <1>   0.0800 
 39 H        2.8620     7.1050    -1.2140 H     1 <1>   0.0800 
 40 H        0.4130     7.4960    -1.0560 H     1 <1>   0.0800 
 41 H        0.5830     7.8740     0.6340 H     1 <1>   0.0800 
 42 H        1.8550     9.4350    -1.6410 H     1 <1>   0.0800 
 43 H        2.0260     9.8160     0.0590 H     1 <1>   0.0800 
 44 H        0.4640     9.9350    -0.7120 H     1 <1>   0.0800 
@<TRIPOS>BOND
  1   1   2  1   
  2   1   3  1   
  3   2   4  1   
  4   2  23  1   
  5   2  24  1   
  6   3   5  1   
  7   3  25  1   
  8   3  26  1   
  9   4   5  1   
 10   4   6  1   
 11   4  27  1   
 12   5   7  1   
 13   5  28  1   
 14   6   8  1   
 15   6  29  1   
 16   7   9  1   
 17   7  30  1   
 18   7  31  1   
 19   8  10  ar  
 20   8  11  ar  
 21   9  12  ar  
 22   9  13  ar  
 23  10  14  ar  
 24  11  15  ar  
 25  12  16  ar  
 26  12  32  1   
 27  13  17  ar  
 28  13  33  1   
 29  14  18  ar  
 30  14  34  1   
 31  15  18  ar  
 32  15  35  1   
 33  16  19  ar  
 34  16  36  1   
 35  17  19  ar  
 36  17  37  1   
 37  18  20  1   
 38  20  21  1   
 39  20  38  1   
 40  20  39  1   
 41  21  22  1   
 42  21  40  1   
 43  21  41  1   
 44  22  42  1   
 45  22  43  1   
 46  22  44  1   
@<TRIPOS>SUBSTRUCTURE
  1 ****   7 GROUP 4 **** **** 0

# MOE 2024.06 (io_trps.svl 2023.06)
