@<TRIPOS>MOLECULE
NONAME
52 54 1 0 0 
SMALL
USER_CHARGES


@<TRIPOS>ATOM
  1 S       -0.6640     0.1150     1.1760 S.o2  1 <1>   1.4470 
  2 O       -1.4640     1.0460     1.9340 O.2   1 <1>  -0.6500 
  3 O       -0.5820    -1.2560     1.6210 O.2   1 <1>  -0.6500 
  4 N       -1.4100     0.1400    -0.3310 N.am  1 <1>  -0.9140 
  5 C        0.9820     0.8070     0.8600 C.ar  1 <1>  -0.0090 
  6 C       -1.3620    -1.0060    -1.2530 C.3   1 <1>   0.2760 
  7 C        1.1350     2.0400     0.2450 C.ar  1 <1>  -0.1500 
  8 C        2.1360     0.1230     1.2170 C.ar  1 <1>  -0.1500 
  9 C       -2.3040    -2.1720    -0.9350 C.3   1 <1>  -0.0800 
 10 C        0.0140    -1.6730    -1.4240 C.3   1 <1>   0.1200 
 11 C        2.3890     2.5660    -0.0090 C.ar  1 <1>  -0.1500 
 12 C        3.3920     0.6450     0.9640 C.ar  1 <1>  -0.1500 
 13 C       -1.3450    -3.3190    -0.6310 C.3   1 <1>   0.1200 
 14 C       -3.4070    -1.9650     0.1220 C.3   1 <1>  -0.0170 
 15 O       -0.2130    -3.0470    -1.3910 O.3   1 <1>  -0.5600 
 16 C        3.5450     1.8810     0.3430 C.ar  1 <1>  -0.1430 
 17 C       -4.2450    -3.2220     0.2860 C.ar  1 <1>  -0.1430 
 18 C        4.9240     2.5070     0.0380 C.3   1 <1>   0.1440 
 19 C       -5.2620    -3.5470    -0.5900 C.ar  1 <1>  -0.1500 
 20 C       -4.0270    -4.1070     1.3220 C.ar  1 <1>  -0.1500 
 21 C        5.0490     3.8530     0.7660 C.3   1 <1>  -0.2400 
 22 C        5.0630     2.7310    -1.4760 C.3   1 <1>  -0.2400 
 23 C        6.1020     1.6260     0.4860 C.3   1 <1>  -0.2400 
 24 C       -5.9880    -4.7090    -0.3930 C.ar  1 <1>   0.1600 
 25 C       -4.8120    -5.2430     1.4290 C.ar  1 <1>   0.1600 
 26 N       -5.7870    -5.5660     0.5950 N.ar  1 <1>  -0.6200 
 27 H       -2.3780     0.3690    -0.1220 H     1 <1>   0.4200 
 28 H       -1.6470    -0.6260    -2.2200 H     1 <1>   0.0800 
 29 H        0.2590     2.5990    -0.0400 H     1 <1>   0.1500 
 30 H        2.0540    -0.8370     1.7010 H     1 <1>   0.1500 
 31 H       -2.7920    -2.4400    -1.8560 H     1 <1>   0.0800 
 32 H        0.7010    -1.4440    -0.6330 H     1 <1>   0.0800 
 33 H        0.4580    -1.4280    -2.3730 H     1 <1>   0.0800 
 34 H        2.4520     3.5270    -0.4890 H     1 <1>   0.1500 
 35 H        4.2410     0.0610     1.2660 H     1 <1>   0.1500 
 36 H       -1.7440    -4.2770    -0.9190 H     1 <1>   0.0800 
 37 H       -1.0570    -3.3420     0.4060 H     1 <1>   0.0800 
 38 H       -4.0490    -1.1550    -0.1780 H     1 <1>   0.0800 
 39 H       -2.9860    -1.7100     1.0760 H     1 <1>   0.0800 
 40 H       -5.4960    -2.9090    -1.4220 H     1 <1>   0.1500 
 41 H       -3.2540    -3.9250     2.0480 H     1 <1>   0.1500 
 42 H        6.0160     4.2900     0.5950 H     1 <1>   0.0800 
 43 H        4.9190     3.7120     1.8250 H     1 <1>   0.0800 
 44 H        4.3050     4.5500     0.4270 H     1 <1>   0.0800 
 45 H        6.0310     3.1330    -1.7130 H     1 <1>   0.0800 
 46 H        4.3200     3.4170    -1.8370 H     1 <1>   0.0800 
 47 H        4.9430     1.7980    -1.9970 H     1 <1>   0.0800 
 48 H        7.0390     2.1000     0.2530 H     1 <1>   0.0800 
 49 H        6.0770     0.6760    -0.0170 H     1 <1>   0.0800 
 50 H        6.0680     1.4610     1.5480 H     1 <1>   0.0800 
 51 H       -6.7780    -4.9470    -1.0860 H     1 <1>   0.1500 
 52 H       -4.6270    -5.9220     2.2440 H     1 <1>   0.1500 
@<TRIPOS>BOND
  1   1   2  2   
  2   1   3  2   
  3   1   4  am  
  4   1   5  1   
  5   4   6  1   
  6   4  27  1   
  7   5   7  ar  
  8   5   8  ar  
  9   6   9  1   
 10   6  10  1   
 11   6  28  1   
 12   7  11  ar  
 13   7  29  1   
 14   8  12  ar  
 15   8  30  1   
 16   9  13  1   
 17   9  14  1   
 18   9  31  1   
 19  10  15  1   
 20  10  32  1   
 21  10  33  1   
 22  11  16  ar  
 23  11  34  1   
 24  12  16  ar  
 25  12  35  1   
 26  13  15  1   
 27  13  36  1   
 28  13  37  1   
 29  14  17  1   
 30  14  38  1   
 31  14  39  1   
 32  16  18  1   
 33  17  19  ar  
 34  17  20  ar  
 35  18  21  1   
 36  18  22  1   
 37  18  23  1   
 38  19  24  ar  
 39  19  40  1   
 40  20  25  ar  
 41  20  41  1   
 42  21  42  1   
 43  21  43  1   
 44  21  44  1   
 45  22  45  1   
 46  22  46  1   
 47  22  47  1   
 48  23  48  1   
 49  23  49  1   
 50  23  50  1   
 51  24  26  ar  
 52  24  51  1   
 53  25  26  ar  
 54  25  52  1   
@<TRIPOS>SUBSTRUCTURE
  1 ****   1 GROUP 4 **** **** 0

# MOE 2024.06 (io_trps.svl 2023.06)
