@<TRIPOS>MOLECULE
NONAME
43 44 1 0 0 
SMALL
USER_CHARGES


@<TRIPOS>ATOM
  1 O        0.3780    -0.3010     0.2570 O.2   1 <1>  -0.5700 
  2 C        0.2210    -1.4970     0.4020 C.2   1 <1>   0.7800 
  3 O       -0.9170    -2.0890     0.0300 O.3   1 <1>  -0.4300 
  4 N        1.1960    -2.2990     0.9460 N.am  1 <1>  -0.6600 
  5 C       -2.0430    -1.4850    -0.5680 C.3   1 <1>   0.2800 
  6 C        1.0250    -3.7580     1.1620 C.3   1 <1>   0.1400 
  7 C        2.5090    -1.7460     1.3670 C.3   1 <1>   0.1400 
  8 C       -1.6630    -0.8820    -1.9260 C.3   1 <1>  -0.2400 
  9 C       -2.6600    -0.4510     0.3820 C.3   1 <1>  -0.2400 
 10 C       -3.0370    -2.6260    -0.7850 C.3   1 <1>  -0.2400 
 11 C        2.1320    -4.5160     0.4220 C.3   1 <1>  -0.1600 
 12 C        3.6280    -2.4880     0.6330 C.3   1 <1>  -0.1600 
 13 C        3.5190    -4.0010     0.8360 C.3   1 <1>   0.2000 
 14 O        4.5070    -4.5870     0.0440 O.3   1 <1>  -0.5380 
 15 C        4.7970    -5.9320     0.2970 C.3   1 <1>   0.2580 
 16 C        6.2380    -6.2820    -0.1540 C.3   1 <1>   0.4720 
 17 C        4.3280    -6.8600    -0.8530 C.3   1 <1>   0.4720 
 18 N        5.6960    -7.4840    -0.8750 N.4   1 <1>  -0.8440 
 19 H        0.0630    -4.0920     0.8110 H     1 <1>   0.0800 
 20 H        1.0780    -3.9600     2.2190 H     1 <1>   0.0800 
 21 H        2.6170    -1.8660     2.4310 H     1 <1>   0.0800 
 22 H        2.5700    -0.6930     1.1440 H     1 <1>   0.0800 
 23 H       -1.0210    -0.0300    -1.8060 H     1 <1>   0.0800 
 24 H       -2.5470    -0.5520    -2.4400 H     1 <1>   0.0800 
 25 H       -1.1680    -1.6160    -2.5360 H     1 <1>   0.0800 
 26 H       -2.0150     0.4000     0.5000 H     1 <1>   0.0800 
 27 H       -2.8440    -0.8920     1.3440 H     1 <1>   0.0800 
 28 H       -3.5930    -0.0980    -0.0170 H     1 <1>   0.0800 
 29 H       -2.6110    -3.3750    -1.4280 H     1 <1>   0.0800 
 30 H       -3.9360    -2.2570    -1.2440 H     1 <1>   0.0800 
 31 H       -3.2980    -3.0770     0.1560 H     1 <1>   0.0800 
 32 H        1.9890    -4.3720    -0.6350 H     1 <1>   0.0800 
 33 H        2.0310    -5.5600     0.6510 H     1 <1>   0.0800 
 34 H        4.5770    -2.1400     0.9980 H     1 <1>   0.0800 
 35 H        3.5600    -2.2530    -0.4150 H     1 <1>   0.0800 
 36 H        3.7150    -4.2310     1.8710 H     1 <1>   0.0800 
 37 H        4.5490    -6.2450     1.2970 H     1 <1>   0.0000 
 38 H        6.8960    -6.5660     0.6470 H     1 <1>   0.0000 
 39 H        6.6500    -5.5720    -0.8490 H     1 <1>   0.0000 
 40 H        4.1310    -6.3340    -1.7700 H     1 <1>   0.0000 
 41 H        3.5740    -7.5720    -0.5680 H     1 <1>   0.0000 
 42 H        5.7580    -8.3450    -0.3200 H     1 <1>   0.4500 
 43 H        6.0770    -7.5860    -1.8220 H     1 <1>   0.4500 
@<TRIPOS>BOND
  1   1   2  2   
  2   2   3  1   
  3   2   4  am  
  4   3   5  1   
  5   4   6  1   
  6   4   7  1   
  7   5   8  1   
  8   5   9  1   
  9   5  10  1   
 10   6  11  1   
 11   6  19  1   
 12   6  20  1   
 13   7  12  1   
 14   7  21  1   
 15   7  22  1   
 16   8  23  1   
 17   8  24  1   
 18   8  25  1   
 19   9  26  1   
 20   9  27  1   
 21   9  28  1   
 22  10  29  1   
 23  10  30  1   
 24  10  31  1   
 25  11  13  1   
 26  11  32  1   
 27  11  33  1   
 28  12  13  1   
 29  12  34  1   
 30  12  35  1   
 31  13  14  1   
 32  13  36  1   
 33  14  15  1   
 34  15  16  1   
 35  15  17  1   
 36  15  37  1   
 37  16  18  1   
 38  16  38  1   
 39  16  39  1   
 40  17  18  1   
 41  17  40  1   
 42  17  41  1   
 43  18  42  1   
 44  18  43  1   
@<TRIPOS>SUBSTRUCTURE
  1 ****   6 GROUP 4 **** **** 0

# MOE 2024.06 (io_trps.svl 2023.06)
