@<TRIPOS>MOLECULE
NONAME
58 61 1 0 0 
SMALL
USER_CHARGES


@<TRIPOS>ATOM
  1 O       -0.0080     0.1410     1.5460 O.3   1 <1>  -0.8290 
  2 C        0.9940    -0.4300     1.0960 C.ar  1 <1>   0.4490 
  3 N        0.7810    -1.4810     0.2900 N.ar  1 <1>  -0.6200 
  4 N        2.1960     0.0500     1.4670 N.ar  1 <1>  -0.6200 
  5 C        1.8450    -2.1310    -0.1470 C.ar  1 <1>   0.3960 
  6 C        3.2360    -0.5780     1.0040 C.ar  1 <1>   0.1660 
  7 C        1.7270    -3.3210    -1.0010 C.2   1 <1>   0.5440 
  8 C        3.1110    -1.6820     0.1960 C.ar  1 <1>  -0.1500 
  9 C        4.6110    -0.0570     1.3910 C.3   1 <1>  -0.0170 
 10 O        2.5800    -3.5180    -1.8560 O.2   1 <1>  -0.5700 
 11 N        0.7180    -4.2700    -0.8840 N.am  1 <1>  -0.6600 
 12 C        5.3510     0.6170     0.2180 C.3   1 <1>  -0.0800 
 13 C        0.3670    -5.1850    -2.0070 C.3   1 <1>   0.1400 
 14 C       -0.2310    -4.3240     0.2670 C.3   1 <1>   0.1400 
 15 C        6.7690     1.0200     0.6400 C.3   1 <1>  -0.2400 
 16 C        4.5920     1.8520    -0.2900 C.3   1 <1>  -0.2400 
 17 C        0.2580    -6.6260    -1.5010 C.3   1 <1>  -0.1600 
 18 C       -0.3500    -5.7610     0.7800 C.3   1 <1>  -0.1600 
 19 C       -0.7360    -6.7530    -0.3340 C.3   1 <1>   0.4240 
 20 O       -1.9590    -6.3130    -0.8860 O.3   1 <1>  -0.5600 
 21 C       -0.8500    -8.2170     0.1870 C.ar  1 <1>  -0.1440 
 22 C       -3.1290    -6.6470    -0.2170 C.3   1 <1>   0.1200 
 23 C        0.2510    -8.9210     0.6940 C.ar  1 <1>   0.0820 
 24 C       -2.0860    -8.8660     0.1630 C.ar  1 <1>  -0.1440 
 25 C       -3.3230    -8.1490    -0.3420 C.3   1 <1>  -0.0170 
 26 O        1.4580    -8.3000     0.7590 O.3   1 <1>  -0.3630 
 27 C        0.1030   -10.2350     1.1330 C.ar  1 <1>  -0.1500 
 28 C       -2.2200   -10.1720     0.6010 C.ar  1 <1>  -0.1500 
 29 C        2.6450    -8.9650     1.1280 C.3   1 <1>   0.0400 
 30 C       -1.1260   -10.8590     1.0840 C.ar  1 <1>  -0.1500 
 31 H        3.9760    -2.1960    -0.1720 H     1 <1>   0.1500 
 32 H        5.1910    -0.8830     1.7570 H     1 <1>   0.0800 
 33 H        4.5010     0.6440     2.2000 H     1 <1>   0.0800 
 34 H        5.4260    -0.0890    -0.5920 H     1 <1>   0.0800 
 35 H        1.1070    -5.1340    -2.7860 H     1 <1>   0.0800 
 36 H       -0.5740    -4.8700    -2.4260 H     1 <1>   0.0800 
 37 H       -1.1910    -3.9530    -0.0520 H     1 <1>   0.0800 
 38 H        0.1110    -3.7060     1.0780 H     1 <1>   0.0800 
 39 H        6.7340     1.7310     1.4470 H     1 <1>   0.0800 
 40 H        7.2920     1.4640    -0.1880 H     1 <1>   0.0800 
 41 H        7.3220     0.1560     0.9650 H     1 <1>   0.0800 
 42 H        4.4680     2.5710     0.5010 H     1 <1>   0.0800 
 43 H        3.6130     1.5730    -0.6400 H     1 <1>   0.0800 
 44 H        5.1210     2.3150    -1.1030 H     1 <1>   0.0800 
 45 H        1.2410    -6.9350    -1.2070 H     1 <1>   0.0800 
 46 H       -0.0560    -7.2700    -2.3000 H     1 <1>   0.0800 
 47 H       -1.0620    -5.8050     1.5810 H     1 <1>   0.0800 
 48 H        0.6000    -6.0320     1.1960 H     1 <1>   0.0800 
 49 H       -3.9400    -6.1180    -0.6870 H     1 <1>   0.0800 
 50 H       -3.0560    -6.3420     0.8110 H     1 <1>   0.0800 
 51 H       -3.4940    -8.4040    -1.3720 H     1 <1>   0.0800 
 52 H       -4.1850    -8.4420     0.2300 H     1 <1>   0.0800 
 53 H        0.9320   -10.7940     1.5220 H     1 <1>   0.1500 
 54 H       -3.1770   -10.6620     0.5680 H     1 <1>   0.1500 
 55 H        3.4580    -8.2670     1.0410 H     1 <1>   0.0800 
 56 H        2.8020    -9.7940     0.4620 H     1 <1>   0.0800 
 57 H        2.5570    -9.2960     2.1480 H     1 <1>   0.0800 
 58 H       -1.2330   -11.8750     1.4230 H     1 <1>   0.1500 
@<TRIPOS>BOND
  1   1   2  1   
  2   2   3  ar  
  3   2   4  ar  
  4   3   5  ar  
  5   4   6  ar  
  6   5   7  1   
  7   5   8  ar  
  8   6   8  ar  
  9   6   9  1   
 10   7  10  2   
 11   7  11  am  
 12   8  31  1   
 13   9  12  1   
 14   9  32  1   
 15   9  33  1   
 16  11  13  1   
 17  11  14  1   
 18  12  15  1   
 19  12  16  1   
 20  12  34  1   
 21  13  17  1   
 22  13  35  1   
 23  13  36  1   
 24  14  18  1   
 25  14  37  1   
 26  14  38  1   
 27  15  39  1   
 28  15  40  1   
 29  15  41  1   
 30  16  42  1   
 31  16  43  1   
 32  16  44  1   
 33  17  19  1   
 34  17  45  1   
 35  17  46  1   
 36  18  19  1   
 37  18  47  1   
 38  18  48  1   
 39  19  20  1   
 40  19  21  1   
 41  20  22  1   
 42  21  23  ar  
 43  21  24  ar  
 44  22  25  1   
 45  22  49  1   
 46  22  50  1   
 47  23  26  1   
 48  23  27  ar  
 49  24  25  1   
 50  24  28  ar  
 51  25  51  1   
 52  25  52  1   
 53  26  29  1   
 54  27  30  ar  
 55  27  53  1   
 56  28  30  ar  
 57  28  54  1   
 58  29  55  1   
 59  29  56  1   
 60  29  57  1   
 61  30  58  1   
@<TRIPOS>SUBSTRUCTURE
  1 ****  11 GROUP 4 **** **** 0

# MOE 2024.06 (io_trps.svl 2023.06)
