@<TRIPOS>MOLECULE
NONAME
54 58 1 0 0 
SMALL
USER_CHARGES


@<TRIPOS>ATOM
  1 F       -1.2620    -0.3570     2.0950 F     1 <1>  -0.1900 
  2 C       -2.3960    -0.2750     1.4480 C.ar  1 <1>   0.1900 
  3 C       -3.1800    -1.3970     1.3310 C.ar  1 <1>  -0.1500 
  4 C       -2.7490     0.9650     0.9050 C.ar  1 <1>  -0.1500 
  5 C       -4.3790    -1.2720     0.6350 C.ar  1 <1>   0.2270 
  6 C       -3.9380     1.0840     0.2170 C.ar  1 <1>  -0.1500 
  7 N       -5.3290    -2.2110     0.3750 N.2   1 <1>  -0.5650 
  8 C       -4.7450    -0.0520     0.0920 C.ar  1 <1>  -0.1520 
  9 C       -6.2350    -1.5850    -0.2960 C.2   1 <1>   0.0060 
 10 N       -5.9430    -0.2740    -0.5040 N.pl3 1 <1>   0.0330 
 11 C       -7.5250    -2.2050    -0.8300 C.3   1 <1>   0.1000 
 12 C       -8.7370    -1.7170    -0.0210 C.3   1 <1>  -0.1600 
 13 C       -7.4780    -3.7430    -0.8160 C.3   1 <1>  -0.1600 
 14 C      -10.0400    -2.3330    -0.5360 C.3   1 <1>   0.2090 
 15 C       -8.7810    -4.3460    -1.3360 C.3   1 <1>   0.2090 
 16 N       -9.9200    -3.8130    -0.5490 N.pl3 1 <1>  -0.8380 
 17 C      -11.0630    -4.5800    -0.4500 C.ar  1 <1>   0.4100 
 18 N      -12.1760    -4.0970    -0.9730 N.ar  1 <1>  -0.6200 
 19 C      -11.0440    -5.8090     0.1640 C.ar  1 <1>  -0.1500 
 20 C      -13.2320    -4.8770    -0.8610 C.ar  1 <1>   0.4700 
 21 C      -12.2060    -6.5420     0.2140 C.ar  1 <1>   0.4100 
 22 N      -13.3250    -6.0680    -0.3050 N.ar  1 <1>  -0.6200 
 23 N      -12.2460    -7.7950     0.8020 N.pl3 1 <1>  -0.8380 
 24 C      -13.5000    -8.3030     1.4270 C.3   1 <1>   0.2090 
 25 C      -11.2610    -8.8370     0.4130 C.3   1 <1>   0.2090 
 26 C      -14.1760    -9.3040     0.4890 C.3   1 <1>  -0.1600 
 27 C      -11.9250    -9.8360    -0.5350 C.3   1 <1>  -0.1600 
 28 C      -13.1950   -10.4070     0.0950 C.3   1 <1>   0.2000 
 29 O      -13.8080   -11.2250    -0.8270 O.3   1 <1>  -0.6800 
 30 H       -2.8980    -2.3420     1.7520 H     1 <1>   0.1500 
 31 H       -2.0870     1.8020     1.0340 H     1 <1>   0.1500 
 32 H       -4.2420     2.0220    -0.2130 H     1 <1>   0.1500 
 33 H       -6.5060     0.4150    -1.0070 H     1 <1>   0.2700 
 34 H       -7.6450    -1.8910    -1.8520 H     1 <1>   0.0800 
 35 H       -8.8120    -0.6470    -0.0730 H     1 <1>   0.0800 
 36 H       -8.6110    -1.9900     1.0120 H     1 <1>   0.0800 
 37 H       -7.3120    -4.0930     0.1880 H     1 <1>   0.0800 
 38 H       -6.6580    -4.0840    -1.4210 H     1 <1>   0.0800 
 39 H      -10.2530    -1.9880    -1.5340 H     1 <1>   0.0800 
 40 H      -10.8560    -2.0420     0.1040 H     1 <1>   0.0800 
 41 H       -8.7430    -5.4190    -1.2550 H     1 <1>   0.0800 
 42 H       -8.9200    -4.0910    -2.3730 H     1 <1>   0.0800 
 43 H      -10.1430    -6.1750     0.6060 H     1 <1>   0.1500 
 44 H      -14.1440    -4.4890    -1.2820 H     1 <1>   0.1500 
 45 H      -14.1690    -7.4860     1.6390 H     1 <1>   0.0800 
 46 H      -13.2560    -8.7800     2.3600 H     1 <1>   0.0800 
 47 H      -10.9140    -9.3400     1.2990 H     1 <1>   0.0800 
 48 H      -10.4130    -8.3910    -0.0760 H     1 <1>   0.0800 
 49 H      -14.5120    -8.7710    -0.3830 H     1 <1>   0.0800 
 50 H      -15.0270    -9.7320     0.9850 H     1 <1>   0.0800 
 51 H      -11.2370   -10.6340    -0.7470 H     1 <1>   0.0800 
 52 H      -12.1620    -9.3270    -1.4520 H     1 <1>   0.0800 
 53 H      -12.9470   -11.0090     0.9540 H     1 <1>   0.0800 
 54 H      -14.0770   -10.6960    -1.6020 H     1 <1>   0.4000 
@<TRIPOS>BOND
  1   1   2  1   
  2   2   3  ar  
  3   2   4  ar  
  4   3   5  ar  
  5   3  30  1   
  6   4   6  ar  
  7   4  31  1   
  8   5   7  1   
  9   5   8  ar  
 10   6   8  ar  
 11   6  32  1   
 12   7   9  2   
 13   8  10  1   
 14   9  10  1   
 15   9  11  1   
 16  10  33  1   
 17  11  12  1   
 18  11  13  1   
 19  11  34  1   
 20  12  14  1   
 21  12  35  1   
 22  12  36  1   
 23  13  15  1   
 24  13  37  1   
 25  13  38  1   
 26  14  16  1   
 27  14  39  1   
 28  14  40  1   
 29  15  16  1   
 30  15  41  1   
 31  15  42  1   
 32  16  17  1   
 33  17  18  ar  
 34  17  19  ar  
 35  18  20  ar  
 36  19  21  ar  
 37  19  43  1   
 38  20  22  ar  
 39  20  44  1   
 40  21  22  ar  
 41  21  23  1   
 42  23  24  1   
 43  23  25  1   
 44  24  26  1   
 45  24  45  1   
 46  24  46  1   
 47  25  27  1   
 48  25  47  1   
 49  25  48  1   
 50  26  28  1   
 51  26  49  1   
 52  26  50  1   
 53  27  28  1   
 54  27  51  1   
 55  27  52  1   
 56  28  29  1   
 57  28  53  1   
 58  29  54  1   
@<TRIPOS>SUBSTRUCTURE
  1 ****  16 GROUP 4 **** **** 0

# MOE 2024.06 (io_trps.svl 2023.06)
