@<TRIPOS>MOLECULE
NONAME
37 38 1 0 0 
SMALL
USER_CHARGES


@<TRIPOS>ATOM
  1 CL      -1.2340    -1.4180    -0.7690 Cl    1 <1>  -0.1770 
  2 C       -2.0390    -0.0960     0.0400 C.ar  1 <1>   0.1770 
  3 C       -3.3690     0.1860    -0.2370 C.ar  1 <1>  -0.1440 
  4 C       -1.3140     0.6430     0.9550 C.ar  1 <1>  -0.1500 
  5 C       -3.9830     1.2510     0.4200 C.ar  1 <1>  -0.1440 
  6 C       -4.1120    -0.6690    -1.2480 C.3   1 <1>   0.4870 
  7 C       -1.9300     1.6900     1.6120 C.ar  1 <1>  -0.1500 
  8 C       -3.2540     1.9890     1.3430 C.ar  1 <1>  -0.1500 
  9 C       -5.4320     1.6490     0.1620 C.3   1 <1>  -0.0960 
 10 N       -5.0030    -1.6000    -0.5190 N.4   1 <1>  -0.9590 
 11 C       -4.2150    -2.6950     0.1730 C.3   1 <1>   0.3430 
 12 C       -6.0660    -2.1620    -1.3970 C.3   1 <1>   0.3430 
 13 C       -5.0290    -3.9810     0.4260 C.3   1 <1>   0.2000 
 14 C       -7.1180    -2.8590    -0.5280 C.3   1 <1>  -0.1600 
 15 O       -4.9400    -4.7800    -0.7020 O.3   1 <1>  -0.6800 
 16 C       -6.5080    -3.6520     0.6580 C.3   1 <1>  -0.1860 
 17 C       -7.2760    -4.9200     0.9540 C.2   1 <1>   0.9060 
 18 O       -7.9590    -4.9610     1.9740 O.co2 1 <1>  -0.9000 
 19 O       -7.1640    -5.8600     0.1570 O.co2 1 <1>  -0.9000 
 20 H       -0.2830     0.4030     1.1490 H     1 <1>   0.1500 
 21 H       -3.4250    -1.2210    -1.8680 H     1 <1>   0.0800 
 22 H       -4.6950    -0.0270    -1.8870 H     1 <1>   0.0800 
 23 H       -1.3790     2.2760     2.3290 H     1 <1>   0.1500 
 24 H       -3.7110     2.8150     1.8640 H     1 <1>   0.1500 
 25 H       -5.6390     2.6170     0.5830 H     1 <1>   0.0800 
 26 H       -6.1050     0.9430     0.6130 H     1 <1>   0.0800 
 27 H       -5.6310     1.7090    -0.8930 H     1 <1>   0.0800 
 28 H       -5.4740    -1.0680     0.2190 H     1 <1>   0.4500 
 29 H       -3.3540    -2.9670    -0.4150 H     1 <1>   0.0800 
 30 H       -3.8620    -2.3200     1.1190 H     1 <1>   0.0800 
 31 H       -6.5350    -1.3890    -1.9830 H     1 <1>   0.0800 
 32 H       -5.6290    -2.8860    -2.0680 H     1 <1>   0.0800 
 33 H       -4.6210    -4.5410     1.2510 H     1 <1>   0.0800 
 34 H       -7.8310    -2.1460    -0.1550 H     1 <1>   0.0800 
 35 H       -7.6620    -3.5380    -1.1640 H     1 <1>   0.0800 
 36 H       -5.6790    -5.4590    -0.6110 H     1 <1>   0.4000 
 37 H       -6.5710    -3.0450     1.5430 H     1 <1>   0.0800 
@<TRIPOS>BOND
  1   1   2  1   
  2   2   3  ar  
  3   2   4  ar  
  4   3   5  ar  
  5   3   6  1   
  6   4   7  ar  
  7   4  20  1   
  8   5   8  ar  
  9   5   9  1   
 10   6  10  1   
 11   6  21  1   
 12   6  22  1   
 13   7   8  ar  
 14   7  23  1   
 15   8  24  1   
 16   9  25  1   
 17   9  26  1   
 18   9  27  1   
 19  10  11  1   
 20  10  12  1   
 21  10  28  1   
 22  11  13  1   
 23  11  29  1   
 24  11  30  1   
 25  12  14  1   
 26  12  31  1   
 27  12  32  1   
 28  13  15  1   
 29  13  16  1   
 30  13  33  1   
 31  14  16  1   
 32  14  34  1   
 33  14  35  1   
 34  15  36  1   
 35  16  17  1   
 36  16  37  1   
 37  17  18  ar  
 38  17  19  ar  
@<TRIPOS>SUBSTRUCTURE
  1 ****  10 GROUP 4 **** **** 0

# MOE 2024.06 (io_trps.svl 2023.06)
