@<TRIPOS>MOLECULE
NONAME
45 46 1 0 0 
SMALL
USER_CHARGES


@<TRIPOS>ATOM
  1 O       -1.3670     0.4820     2.6370 O.2   1 <1>  -0.5700 
  2 C       -1.6680     0.8610     1.5290 C.2   1 <1>   0.5690 
  3 N       -2.0650    -0.0290     0.5560 N.am  1 <1>  -0.6600 
  4 C       -1.6110     2.3700     1.2920 C.3   1 <1>   0.0440 
  5 C       -2.2730    -1.4630     0.9050 C.3   1 <1>   0.3200 
  6 C       -2.1670     0.2970    -0.9000 C.3   1 <1>   0.1400 
  7 C       -0.5930     2.8300     0.2440 C.ar  1 <1>  -0.1440 
  8 C       -3.6880    -1.8760     0.5520 C.2   1 <1>  -0.3320 
  9 C       -3.5220     0.9160    -1.2580 C.3   1 <1>   0.1200 
 10 C       -0.8690     3.8400    -0.6770 C.ar  1 <1>  -0.1430 
 11 C        0.6480     2.2070     0.2160 C.ar  1 <1>  -0.1500 
 12 N       -4.0640    -2.4300    -0.6170 N.pl3 1 <1>   0.0330 
 13 C       -4.8080    -1.7780     1.3000 C.2   1 <1>   0.0770 
 14 O       -3.5080     1.2730    -2.5990 O.3   1 <1>  -0.6800 
 15 C        0.0890     4.1770    -1.6210 C.ar  1 <1>  -0.1500 
 16 C       -2.1830     4.6100    -0.6840 C.3   1 <1>  -0.0970 
 17 C        1.6020     2.5500    -0.7260 C.ar  1 <1>  -0.1430 
 18 C       -5.3960    -2.6240    -0.5050 C.2   1 <1>   0.0070 
 19 N       -5.8780    -2.2470     0.6320 N.2   1 <1>  -0.5650 
 20 C        1.3130     3.5360    -1.6500 C.ar  1 <1>  -0.1500 
 21 C        2.9490     1.8500    -0.7410 C.3   1 <1>  -0.0970 
 22 C       -6.2320    -3.2210    -1.6160 C.3   1 <1>  -0.0600 
 23 H       -1.3580     2.8460     2.2220 H     1 <1>   0.0800 
 24 H       -2.6020     2.6880     1.0440 H     1 <1>   0.0800 
 25 H       -2.1250    -1.6250     1.9590 H     1 <1>   0.0800 
 26 H       -1.5580    -2.0720     0.3800 H     1 <1>   0.0800 
 27 H       -2.0330    -0.6010    -1.4750 H     1 <1>   0.0800 
 28 H       -1.3770     0.9680    -1.1790 H     1 <1>   0.0800 
 29 H       -3.7190     1.7980    -0.6790 H     1 <1>   0.0800 
 30 H       -4.3230     0.2120    -1.1120 H     1 <1>   0.0800 
 31 H        0.8800     1.4400     0.9350 H     1 <1>   0.1500 
 32 H       -3.4840    -2.6510    -1.4300 H     1 <1>   0.2700 
 33 H       -4.9020    -1.3840     2.2980 H     1 <1>   0.1500 
 34 H       -2.8360     1.9650    -2.7650 H     1 <1>   0.4000 
 35 H       -0.1070     4.9500    -2.3430 H     1 <1>   0.1500 
 36 H       -2.4090     4.9660     0.3050 H     1 <1>   0.0800 
 37 H       -2.9840     3.9820    -1.0260 H     1 <1>   0.0800 
 38 H       -2.1240     5.4640    -1.3330 H     1 <1>   0.0800 
 39 H        2.0420     3.8140    -2.3910 H     1 <1>   0.1500 
 40 H        3.2420     1.5790     0.2570 H     1 <1>   0.0800 
 41 H        3.7040     2.4960    -1.1510 H     1 <1>   0.0800 
 42 H        2.8900     0.9600    -1.3410 H     1 <1>   0.0800 
 43 H       -5.8890    -4.2130    -1.8460 H     1 <1>   0.0800 
 44 H       -6.1720    -2.6060    -2.4950 H     1 <1>   0.0800 
 45 H       -7.2600    -3.2760    -1.3040 H     1 <1>   0.0800 
@<TRIPOS>BOND
  1   1   2  2   
  2   2   3  am  
  3   2   4  1   
  4   3   5  1   
  5   3   6  1   
  6   4   7  1   
  7   4  23  1   
  8   4  24  1   
  9   5   8  1   
 10   5  25  1   
 11   5  26  1   
 12   6   9  1   
 13   6  27  1   
 14   6  28  1   
 15   7  10  ar  
 16   7  11  ar  
 17   8  12  1   
 18   8  13  2   
 19   9  14  1   
 20   9  29  1   
 21   9  30  1   
 22  10  15  ar  
 23  10  16  1   
 24  11  17  ar  
 25  11  31  1   
 26  12  18  1   
 27  12  32  1   
 28  13  19  1   
 29  13  33  1   
 30  14  34  1   
 31  15  20  ar  
 32  15  35  1   
 33  16  36  1   
 34  16  37  1   
 35  16  38  1   
 36  17  20  ar  
 37  17  21  1   
 38  18  19  2   
 39  18  22  1   
 40  20  39  1   
 41  21  40  1   
 42  21  41  1   
 43  21  42  1   
 44  22  43  1   
 45  22  44  1   
 46  22  45  1   
@<TRIPOS>SUBSTRUCTURE
  1 ****   6 GROUP 4 **** **** 0

# MOE 2024.06 (io_trps.svl 2023.06)
