@<TRIPOS>MOLECULE
NONAME
48 50 1 0 0 
SMALL
USER_CHARGES


@<TRIPOS>ATOM
  1 O       -1.8980     1.4120    -1.0670 O.2   1 <1>  -0.5700 
  2 C       -2.7550     1.1010    -0.2600 C.2   1 <1>   0.5440 
  3 N       -3.1300     2.0230     0.7010 N.am  1 <1>  -0.6600 
  4 C       -3.3330    -0.2210    -0.3290 C.ar  1 <1>   0.0860 
  5 C       -2.7190     3.4520     0.6050 C.3   1 <1>   0.0600 
  6 C       -3.7830     1.6540     1.9880 C.3   1 <1>   0.0600 
  7 C       -2.5210    -1.3350    -0.5280 C.ar  1 <1>   0.1600 
  8 C       -4.7000    -0.4560    -0.2120 C.ar  1 <1>  -0.1500 
  9 N       -2.9230    -2.5940    -0.5880 N.ar  1 <1>  -0.6200 
 10 C       -5.1390    -1.7550    -0.2720 C.ar  1 <1>  -0.1500 
 11 C       -4.2230    -2.7890    -0.4580 C.ar  1 <1>   0.4100 
 12 N       -4.5870    -4.0940    -0.5160 N.pl3 1 <1>  -0.8690 
 13 C       -5.6040    -4.5590    -1.4680 C.3   1 <1>   0.4330 
 14 C       -7.0140    -4.3830    -0.9090 C.ar  1 <1>  -0.1430 
 15 C       -5.3260    -6.0280    -1.7580 C.3   1 <1>  -0.2400 
 16 C       -7.2910    -4.5910     0.4370 C.ar  1 <1>  -0.1500 
 17 C       -8.0460    -3.9950    -1.7540 C.ar  1 <1>  -0.1500 
 18 C       -8.5720    -4.4190     0.9350 C.ar  1 <1>   0.0820 
 19 C       -9.3290    -3.8170    -1.2640 C.ar  1 <1>  -0.1500 
 20 O       -8.7560    -4.6040     2.2640 O.3   1 <1>  -0.3620 
 21 C       -9.6020    -4.0300     0.0760 C.ar  1 <1>   0.0820 
 22 C       -9.6770    -5.5860     2.6710 C.3   1 <1>   0.1200 
 23 O      -10.8700    -3.8130     0.4980 O.3   1 <1>  -0.3630 
 24 C      -11.1100    -5.0630     2.5530 C.3   1 <1>  -0.1600 
 25 C      -11.5570    -4.8820     1.1020 C.3   1 <1>   0.1200 
 26 H       -2.4370     3.6970    -0.4050 H     1 <1>   0.0800 
 27 H       -1.8790     3.6310     1.2520 H     1 <1>   0.0800 
 28 H       -3.5360     4.0890     0.8940 H     1 <1>   0.0800 
 29 H       -3.7430     0.5910     2.1500 H     1 <1>   0.0800 
 30 H       -4.8110     1.9710     1.9780 H     1 <1>   0.0800 
 31 H       -3.2750     2.1370     2.8060 H     1 <1>   0.0800 
 32 H       -1.4640    -1.1590    -0.6420 H     1 <1>   0.1500 
 33 H       -5.3860     0.3620    -0.0770 H     1 <1>   0.1500 
 34 H       -6.1820    -1.9850    -0.1680 H     1 <1>   0.1500 
 35 H       -3.7560    -4.6850    -0.5410 H     1 <1>   0.4000 
 36 H       -5.5060    -3.9940    -2.3810 H     1 <1>   0.0800 
 37 H       -5.3950    -6.6040    -0.8530 H     1 <1>   0.0800 
 38 H       -4.3490    -6.1450    -2.1900 H     1 <1>   0.0800 
 39 H       -6.0550    -6.4010    -2.4550 H     1 <1>   0.0800 
 40 H       -6.5070    -4.8790     1.1140 H     1 <1>   0.1500 
 41 H       -7.8560    -3.8250    -2.8000 H     1 <1>   0.1500 
 42 H      -10.1250    -3.5090    -1.9180 H     1 <1>   0.1500 
 43 H       -9.4540    -5.8170     3.6970 H     1 <1>   0.0800 
 44 H       -9.5250    -6.4680     2.0730 H     1 <1>   0.0800 
 45 H      -11.2140    -4.1380     3.0920 H     1 <1>   0.0800 
 46 H      -11.7630    -5.7820     3.0140 H     1 <1>   0.0800 
 47 H      -11.3850    -5.7720     0.5210 H     1 <1>   0.0800 
 48 H      -12.6040    -4.6410     1.0690 H     1 <1>   0.0800 
@<TRIPOS>BOND
  1   1   2  2   
  2   2   3  am  
  3   2   4  1   
  4   3   5  1   
  5   3   6  1   
  6   4   7  ar  
  7   4   8  ar  
  8   5  26  1   
  9   5  27  1   
 10   5  28  1   
 11   6  29  1   
 12   6  30  1   
 13   6  31  1   
 14   7   9  ar  
 15   7  32  1   
 16   8  10  ar  
 17   8  33  1   
 18   9  11  ar  
 19  10  11  ar  
 20  10  34  1   
 21  11  12  1   
 22  12  13  1   
 23  12  35  1   
 24  13  14  1   
 25  13  15  1   
 26  13  36  1   
 27  14  16  ar  
 28  14  17  ar  
 29  15  37  1   
 30  15  38  1   
 31  15  39  1   
 32  16  18  ar  
 33  16  40  1   
 34  17  19  ar  
 35  17  41  1   
 36  18  20  1   
 37  18  21  ar  
 38  19  21  ar  
 39  19  42  1   
 40  20  22  1   
 41  21  23  1   
 42  22  24  1   
 43  22  43  1   
 44  22  44  1   
 45  23  25  1   
 46  24  25  1   
 47  24  45  1   
 48  24  46  1   
 49  25  47  1   
 50  25  48  1   
@<TRIPOS>SUBSTRUCTURE
  1 ****  10 GROUP 4 **** **** 0

# MOE 2024.06 (io_trps.svl 2023.06)
