@<TRIPOS>MOLECULE
NONAME
54 55 1 0 0 
SMALL
USER_CHARGES


@<TRIPOS>ATOM
  1 O        3.1460    -1.0560     0.8480 O.2   1 <1>  -0.5700 
  2 C        2.1560    -1.2770     0.1920 C.2   1 <1>   0.5690 
  3 N        1.3210    -0.3060    -0.2640 N.am  1 <1>  -0.7300 
  4 C        1.8020    -2.7260    -0.1590 C.3   1 <1>   0.1710 
  5 C        1.3670     1.1440    -0.0860 C.3   1 <1>   0.3000 
  6 N        0.3550    -2.9520    -0.4560 N.3   1 <1>  -0.8100 
  7 C        2.6530     1.6940    -0.7020 C.3   1 <1>  -0.2400 
  8 C        0.1560     1.7140    -0.8210 C.3   1 <1>  -0.2400 
  9 C        1.2750     1.4790     1.4020 C.3   1 <1>  -0.2400 
 10 C        0.1480    -4.2680    -1.1020 C.3   1 <1>   0.1100 
 11 C       -0.4580    -2.8760     0.7850 C.3   1 <1>   0.1100 
 12 C       -1.3380    -4.5250    -1.4180 C.3   1 <1>   0.2090 
 13 C       -1.9550    -3.1160     0.5140 C.3   1 <1>   0.2090 
 14 N       -2.1690    -4.4200    -0.1820 N.pl3 1 <1>  -0.8380 
 15 C       -3.4420    -4.9620    -0.2050 C.ar  1 <1>   0.4100 
 16 N       -4.4310    -4.0870    -0.3610 N.ar  1 <1>  -0.6200 
 17 C       -3.6450    -6.3430    -0.0740 C.ar  1 <1>   0.0730 
 18 C       -5.6630    -4.5640    -0.3960 C.ar  1 <1>   0.1670 
 19 C       -2.5430    -7.2370     0.0970 C.1   1 <1>   0.4840 
 20 C       -4.9400    -6.8240    -0.1120 C.ar  1 <1>  -0.1500 
 21 C       -5.9600    -5.9130    -0.2770 C.ar  1 <1>  -0.1500 
 22 C       -6.7830    -3.5370    -0.5800 C.3   1 <1>   0.0630 
 23 N       -1.6870    -7.9850     0.2040 N.1   1 <1>  -0.5570 
 24 C       -7.7430    -3.5290     0.6170 C.3   1 <1>  -0.2400 
 25 C       -7.5490    -3.7700    -1.8890 C.3   1 <1>  -0.2400 
 26 H        0.4980    -0.6560    -0.7620 H     1 <1>   0.3700 
 27 H        2.1140    -3.3630     0.6500 H     1 <1>   0.0800 
 28 H        2.3850    -2.9860    -1.0240 H     1 <1>   0.0800 
 29 H        2.7250     1.4130    -1.7370 H     1 <1>   0.0800 
 30 H        3.5130     1.3180    -0.1780 H     1 <1>   0.0800 
 31 H        2.6670     2.7660    -0.6370 H     1 <1>   0.0800 
 32 H        0.2020     1.4710    -1.8680 H     1 <1>   0.0800 
 33 H        0.1360     2.7840    -0.7260 H     1 <1>   0.0800 
 34 H       -0.7560     1.3230    -0.4070 H     1 <1>   0.0800 
 35 H        2.1330     1.1010     1.9270 H     1 <1>   0.0800 
 36 H        0.3860     1.0530     1.8300 H     1 <1>   0.0800 
 37 H        1.2450     2.5450     1.5400 H     1 <1>   0.0800 
 38 H        0.5040    -5.0550    -0.4580 H     1 <1>   0.0800 
 39 H        0.7060    -4.3070    -2.0200 H     1 <1>   0.0800 
 40 H       -0.3430    -1.9070     1.2370 H     1 <1>   0.0800 
 41 H       -0.1160    -3.6140     1.4910 H     1 <1>   0.0800 
 42 H       -1.4460    -5.5030    -1.8520 H     1 <1>   0.0800 
 43 H       -1.6790    -3.8010    -2.1370 H     1 <1>   0.0800 
 44 H       -2.3400    -2.3170    -0.0960 H     1 <1>   0.0800 
 45 H       -2.4950    -3.1160     1.4450 H     1 <1>   0.0800 
 46 H       -5.1470    -7.8760    -0.0160 H     1 <1>   0.1500 
 47 H       -6.9800    -6.2500    -0.3120 H     1 <1>   0.1500 
 48 H       -6.3290    -2.5610    -0.6380 H     1 <1>   0.0800 
 49 H       -8.2670    -4.4630     0.6990 H     1 <1>   0.0800 
 50 H       -8.4650    -2.7380     0.5080 H     1 <1>   0.0800 
 51 H       -7.1910    -3.3620     1.5250 H     1 <1>   0.0800 
 52 H       -8.0630    -4.7130    -1.8740 H     1 <1>   0.0800 
 53 H       -6.8610    -3.7650    -2.7170 H     1 <1>   0.0800 
 54 H       -8.2700    -2.9870    -2.0410 H     1 <1>   0.0800 
@<TRIPOS>BOND
  1   1   2  2   
  2   2   3  am  
  3   2   4  1   
  4   3   5  1   
  5   3  26  1   
  6   4   6  1   
  7   4  27  1   
  8   4  28  1   
  9   5   7  1   
 10   5   8  1   
 11   5   9  1   
 12   6  10  1   
 13   6  11  1   
 14   7  29  1   
 15   7  30  1   
 16   7  31  1   
 17   8  32  1   
 18   8  33  1   
 19   8  34  1   
 20   9  35  1   
 21   9  36  1   
 22   9  37  1   
 23  10  12  1   
 24  10  38  1   
 25  10  39  1   
 26  11  13  1   
 27  11  40  1   
 28  11  41  1   
 29  12  14  1   
 30  12  42  1   
 31  12  43  1   
 32  13  14  1   
 33  13  44  1   
 34  13  45  1   
 35  14  15  1   
 36  15  16  ar  
 37  15  17  ar  
 38  16  18  ar  
 39  17  19  1   
 40  17  20  ar  
 41  18  21  ar  
 42  18  22  1   
 43  19  23  3   
 44  20  21  ar  
 45  20  46  1   
 46  21  47  1   
 47  22  24  1   
 48  22  25  1   
 49  22  48  1   
 50  24  49  1   
 51  24  50  1   
 52  24  51  1   
 53  25  52  1   
 54  25  53  1   
 55  25  54  1   
@<TRIPOS>SUBSTRUCTURE
  1 ****  13 GROUP 4 **** **** 0

# MOE 2024.06 (io_trps.svl 2023.06)
