@<TRIPOS>MOLECULE
NONAME
62 65 1 0 0 
SMALL
USER_CHARGES


@<TRIPOS>ATOM
  1 O        3.4520     2.1280     1.9330 O.co2 1 <1>  -0.9000 
  2 C        3.3240     0.9610     1.5730 C.2   1 <1>   0.9060 
  3 O        3.9310     0.0400     2.1360 O.co2 1 <1>  -0.9000 
  4 C        2.6060     0.6370     0.2500 C.3   1 <1>  -0.1060 
  5 C        3.4590    -0.4210    -0.4690 C.3   1 <1>   0.4230 
  6 C        2.5940     1.8510    -0.7080 C.3   1 <1>  -0.1600 
  7 C        1.1570     0.1440     0.5270 C.3   1 <1>  -0.1600 
  8 N        3.3110    -1.7340     0.2580 N.4   1 <1>  -0.9590 
  9 C        4.9260     0.1080    -0.5790 C.3   1 <1>   0.3430 
 10 C        3.9740     2.5110    -0.8190 C.3   1 <1>   0.3430 
 11 C        0.8700    -1.2170    -0.1200 C.3   1 <1>  -0.1600 
 12 C        1.9120    -2.2720     0.2740 C.3   1 <1>   0.3430 
 13 C        4.2960    -2.8100    -0.0540 C.3   1 <1>   0.2630 
 14 N        5.1210     1.5460    -1.0730 N.4   1 <1>  -0.9590 
 15 C        6.4250     2.0830    -0.5320 C.3   1 <1>   0.4230 
 16 C        6.4110     2.3040     0.9940 C.3   1 <1>  -0.1600 
 17 C        6.8200     3.3840    -1.2430 C.3   1 <1>  -0.1600 
 18 C        7.7400     2.8420     1.5030 C.3   1 <1>   0.3430 
 19 C        8.1450     3.9270    -0.7040 C.3   1 <1>   0.3430 
 20 N        8.0630     4.0990     0.7770 N.4   1 <1>  -0.9590 
 21 C        9.2950     4.7360     1.3280 C.3   1 <1>   0.4870 
 22 C        9.4170     6.1220     0.7280 C.ar  1 <1>  -0.1430 
 23 C        8.5640     7.1390     1.1370 C.ar  1 <1>  -0.1500 
 24 C       10.3750     6.3830    -0.2420 C.ar  1 <1>  -0.1500 
 25 C        8.6580     8.3960     0.5680 C.ar  1 <1>  -0.1500 
 26 C       10.4670     7.6420    -0.8080 C.ar  1 <1>  -0.1500 
 27 C        9.6070     8.6470    -0.4060 C.ar  1 <1>  -0.1500 
 28 H        3.0780    -0.5510    -1.4670 H     1 <1>   0.0800 
 29 H        1.9210     2.5980    -0.3200 H     1 <1>   0.0800 
 30 H        2.2330     1.5760    -1.6840 H     1 <1>   0.0800 
 31 H        1.0150     0.0460     1.5930 H     1 <1>   0.0800 
 32 H        0.4300     0.8640     0.1910 H     1 <1>   0.0800 
 33 H        3.4970    -1.4220     1.2510 H     1 <1>   0.4500 
 34 H        5.4780    -0.5560    -1.2210 H     1 <1>   0.0800 
 35 H        5.3520     0.0220     0.4040 H     1 <1>   0.0800 
 36 H        4.1430     3.0450     0.1000 H     1 <1>   0.0800 
 37 H        3.9430     3.2530    -1.6000 H     1 <1>   0.0800 
 38 H        0.8470    -1.1180    -1.1910 H     1 <1>   0.0800 
 39 H       -0.1040    -1.5610     0.1830 H     1 <1>   0.0800 
 40 H        1.8280    -3.1090    -0.4000 H     1 <1>   0.0800 
 41 H        1.6900    -2.6280     1.2680 H     1 <1>   0.0800 
 42 H        4.1980    -3.1270    -1.0790 H     1 <1>   0.0800 
 43 H        4.1250    -3.6610     0.5860 H     1 <1>   0.0800 
 44 H        5.3020    -2.4640     0.1160 H     1 <1>   0.0800 
 45 H        5.2070     1.4960    -2.0960 H     1 <1>   0.4500 
 46 H        7.1940     1.3570    -0.7440 H     1 <1>   0.0800 
 47 H        5.6610     3.0140     1.2850 H     1 <1>   0.0800 
 48 H        6.2120     1.3890     1.5210 H     1 <1>   0.0800 
 49 H        6.9320     3.2030    -2.2970 H     1 <1>   0.0800 
 50 H        6.0720     4.1450    -1.1090 H     1 <1>   0.0800 
 51 H        8.5190     2.1120     1.3490 H     1 <1>   0.0800 
 52 H        7.6600     3.0350     2.5630 H     1 <1>   0.0800 
 53 H        8.3570     4.8760    -1.1730 H     1 <1>   0.0800 
 54 H        8.9480     3.2490    -0.9480 H     1 <1>   0.0800 
 55 H        7.3150     4.7820     0.9680 H     1 <1>   0.4500 
 56 H        9.2250     4.8210     2.4010 H     1 <1>   0.0800 
 57 H       10.1670     4.1500     1.0870 H     1 <1>   0.0800 
 58 H        7.8230     6.9750     1.9010 H     1 <1>   0.1500 
 59 H       11.0630     5.6200    -0.5670 H     1 <1>   0.1500 
 60 H        7.9960     9.1850     0.8840 H     1 <1>   0.1500 
 61 H       11.2110     7.8470    -1.5600 H     1 <1>   0.1500 
 62 H        9.6810     9.6280    -0.8460 H     1 <1>   0.1500 
@<TRIPOS>BOND
  1   1   2  ar  
  2   2   3  ar  
  3   2   4  1   
  4   4   5  1   
  5   4   6  1   
  6   4   7  1   
  7   5   8  1   
  8   5   9  1   
  9   5  28  1   
 10   6  10  1   
 11   6  29  1   
 12   6  30  1   
 13   7  11  1   
 14   7  31  1   
 15   7  32  1   
 16   8  12  1   
 17   8  13  1   
 18   8  33  1   
 19   9  14  1   
 20   9  34  1   
 21   9  35  1   
 22  10  14  1   
 23  10  36  1   
 24  10  37  1   
 25  11  12  1   
 26  11  38  1   
 27  11  39  1   
 28  12  40  1   
 29  12  41  1   
 30  13  42  1   
 31  13  43  1   
 32  13  44  1   
 33  14  15  1   
 34  14  45  1   
 35  15  16  1   
 36  15  17  1   
 37  15  46  1   
 38  16  18  1   
 39  16  47  1   
 40  16  48  1   
 41  17  19  1   
 42  17  49  1   
 43  17  50  1   
 44  18  20  1   
 45  18  51  1   
 46  18  52  1   
 47  19  20  1   
 48  19  53  1   
 49  19  54  1   
 50  20  21  1   
 51  20  55  1   
 52  21  22  1   
 53  21  56  1   
 54  21  57  1   
 55  22  23  ar  
 56  22  24  ar  
 57  23  25  ar  
 58  23  58  1   
 59  24  26  ar  
 60  24  59  1   
 61  25  27  ar  
 62  25  60  1   
 63  26  27  ar  
 64  26  61  1   
 65  27  62  1   
@<TRIPOS>SUBSTRUCTURE
  1 ****  16 GROUP 4 **** **** 0

# MOE 2024.06 (io_trps.svl 2023.06)
