@<TRIPOS>MOLECULE
NONAME
59 61 1 0 0 
SMALL
USER_CHARGES


@<TRIPOS>ATOM
  1 O       -0.7090    -0.8700    -1.3900 O.2   1 <1>  -0.5700 
  2 C       -1.2690     0.2010    -1.2750 C.2   1 <1>   0.5690 
  3 N       -2.6550     0.2190    -1.3050 N.am  1 <1>  -0.6600 
  4 C       -0.3890     1.4810    -1.0860 C.3   1 <1>   0.3410 
  5 C       -3.4080    -1.0550    -1.4580 C.3   1 <1>   0.1400 
  6 C       -3.5200     1.3240    -0.8010 C.3   1 <1>   0.1400 
  7 O       -0.8000     2.1230     0.1260 O.3   1 <1>  -0.3630 
  8 C        1.1090     1.1320    -0.9500 C.3   1 <1>  -0.2400 
  9 C       -0.5620     2.4320    -2.2870 C.3   1 <1>  -0.2400 
 10 C       -3.8830    -1.5040    -0.0590 C.3   1 <1>   0.4230 
 11 C       -4.0100     0.9320     0.6000 C.3   1 <1>  -0.1600 
 12 C       -0.2670     3.2940     0.5440 C.ar  1 <1>   0.0820 
 13 N       -4.4660    -2.9100    -0.0220 N.4   1 <1>  -0.9590 
 14 C       -4.7750    -0.4260     0.6310 C.3   1 <1>   0.0000 
 15 C        0.8000     3.2880     1.4280 C.ar  1 <1>  -0.1500 
 16 C       -0.8180     4.4990     0.1350 C.ar  1 <1>  -0.1500 
 17 C       -5.2820    -3.2000     1.2020 C.3   1 <1>   0.3430 
 18 C       -5.2130    -3.3340    -1.2510 C.3   1 <1>   0.2630 
 19 C       -5.0110    -0.8350     2.1150 C.3   1 <1>  -0.1600 
 20 C       -6.1340    -0.2970    -0.1170 C.3   1 <1>   0.1200 
 21 C        1.3350     4.4830     1.8750 C.ar  1 <1>  -0.1500 
 22 C       -0.2800     5.6930     0.5840 C.ar  1 <1>  -0.1500 
 23 C       -4.8280    -2.3420     2.3820 C.3   1 <1>  -0.1600 
 24 O       -6.8670     0.7890     0.3300 O.3   1 <1>  -0.6800 
 25 C        0.8020     5.6900     1.4520 C.ar  1 <1>  -0.1440 
 26 C        1.3900     7.0010     1.9440 C.3   1 <1>  -0.0970 
 27 H       -4.2340    -0.8900    -2.1250 H     1 <1>   0.0800 
 28 H       -2.7800    -1.8130    -1.8910 H     1 <1>   0.0800 
 29 H       -2.9920     2.2580    -0.7520 H     1 <1>   0.0800 
 30 H       -4.3540     1.4670    -1.4670 H     1 <1>   0.0800 
 31 H        1.4380     0.5890    -1.8170 H     1 <1>   0.0800 
 32 H        1.2670     0.5110    -0.0870 H     1 <1>   0.0800 
 33 H        1.7110     2.0190    -0.8710 H     1 <1>   0.0800 
 34 H       -0.3050     1.9110    -3.1920 H     1 <1>   0.0800 
 35 H        0.0900     3.2820    -2.2030 H     1 <1>   0.0800 
 36 H       -1.5770     2.7690    -2.3770 H     1 <1>   0.0800 
 37 H       -2.9830    -1.5400     0.5330 H     1 <1>   0.0800 
 38 H       -3.1430     0.8820     1.2360 H     1 <1>   0.0800 
 39 H       -4.6230     1.7270     0.9870 H     1 <1>   0.0800 
 40 H       -3.6360    -3.5200     0.0410 H     1 <1>   0.4500 
 41 H        1.2070     2.3520     1.7650 H     1 <1>   0.1500 
 42 H       -1.6620     4.5060    -0.5270 H     1 <1>   0.1500 
 43 H       -6.3200    -2.9880     1.0070 H     1 <1>   0.0800 
 44 H       -5.2000    -4.2450     1.4580 H     1 <1>   0.0800 
 45 H       -6.0750    -2.7060    -1.4060 H     1 <1>   0.0800 
 46 H       -5.5470    -4.3540    -1.1520 H     1 <1>   0.0800 
 47 H       -4.5790    -3.2710    -2.1210 H     1 <1>   0.0800 
 48 H       -4.3290    -0.3100     2.7650 H     1 <1>   0.0800 
 49 H       -5.9990    -0.5420     2.4260 H     1 <1>   0.0800 
 50 H       -6.7440    -1.1710     0.0180 H     1 <1>   0.0800 
 51 H       -5.9890    -0.1460    -1.1720 H     1 <1>   0.0800 
 52 H        2.1680     4.4690     2.5570 H     1 <1>   0.1500 
 53 H       -0.7090     6.6240     0.2590 H     1 <1>   0.1500 
 54 H       -5.3920    -2.6150     3.2580 H     1 <1>   0.0800 
 55 H       -3.7940    -2.5570     2.5960 H     1 <1>   0.0800 
 56 H       -7.0800     0.7260     1.2820 H     1 <1>   0.4000 
 57 H        2.4410     6.8900     2.1430 H     1 <1>   0.0800 
 58 H        0.8960     7.3040     2.8500 H     1 <1>   0.0800 
 59 H        1.2640     7.7710     1.2050 H     1 <1>   0.0800 
@<TRIPOS>BOND
  1   1   2  2   
  2   2   3  am  
  3   2   4  1   
  4   3   5  1   
  5   3   6  1   
  6   4   7  1   
  7   4   8  1   
  8   4   9  1   
  9   5  10  1   
 10   5  27  1   
 11   5  28  1   
 12   6  11  1   
 13   6  29  1   
 14   6  30  1   
 15   7  12  1   
 16   8  31  1   
 17   8  32  1   
 18   8  33  1   
 19   9  34  1   
 20   9  35  1   
 21   9  36  1   
 22  10  13  1   
 23  10  14  1   
 24  10  37  1   
 25  11  14  1   
 26  11  38  1   
 27  11  39  1   
 28  12  15  ar  
 29  12  16  ar  
 30  13  17  1   
 31  13  18  1   
 32  13  40  1   
 33  14  19  1   
 34  14  20  1   
 35  15  21  ar  
 36  15  41  1   
 37  16  22  ar  
 38  16  42  1   
 39  17  23  1   
 40  17  43  1   
 41  17  44  1   
 42  18  45  1   
 43  18  46  1   
 44  18  47  1   
 45  19  23  1   
 46  19  48  1   
 47  19  49  1   
 48  20  24  1   
 49  20  50  1   
 50  20  51  1   
 51  21  25  ar  
 52  21  52  1   
 53  22  25  ar  
 54  22  53  1   
 55  23  54  1   
 56  23  55  1   
 57  24  56  1   
 58  25  26  1   
 59  26  57  1   
 60  26  58  1   
 61  26  59  1   
@<TRIPOS>SUBSTRUCTURE
  1 ****   6 GROUP 4 **** **** 0

# MOE 2024.06 (io_trps.svl 2023.06)
