@<TRIPOS>MOLECULE
NONAME
54 56 1 0 0 
SMALL
USER_CHARGES


@<TRIPOS>ATOM
  1 S        0.0740     0.1320    -1.7810 S.3   1 <1>  -0.0800 
  2 C        0.4700    -1.1780    -0.6560 C.2   1 <1>  -0.0450 
  3 C        0.4190     1.3530    -0.5830 C.2   1 <1>  -0.1400 
  4 C        0.3600    -2.5710    -1.0230 C.2   1 <1>   0.7150 
  5 C        0.8640    -0.6280     0.5230 C.2   1 <1>  -0.1500 
  6 C        0.8150     0.7940     0.5680 C.2   1 <1>  -0.1810 
  7 C        0.2790     2.8270    -0.8980 C.3   1 <1>   0.0200 
  8 O        1.2210    -3.3280    -0.6200 O.2   1 <1>  -0.5700 
  9 N       -0.7330    -3.1150    -1.6780 N.am  1 <1>  -0.6600 
 10 C        1.1960     1.6330     1.7760 C.3   1 <1>   0.0210 
 11 C        0.9530     3.6490     0.2180 C.3   1 <1>  -0.1600 
 12 C       -0.8000    -4.5990    -1.8790 C.3   1 <1>   0.3210 
 13 C       -1.9590    -2.3850    -2.1520 C.3   1 <1>   0.1400 
 14 C        0.6670     3.0790     1.6270 C.3   1 <1>  -0.0800 
 15 C       -1.6020    -5.2700    -0.7640 C.2   1 <1>   0.0460 
 16 C       -2.9970    -2.0230    -1.0620 C.3   1 <1>   0.3430 
 17 C        1.2700     3.9880     2.7060 C.3   1 <1>  -0.2400 
 18 N       -2.9440    -5.1280    -0.6780 N.2   1 <1>  -0.5650 
 19 C       -1.1430    -6.0690     0.2290 C.2   1 <1>  -0.3320 
 20 N       -2.4220    -1.4610     0.2080 N.4   1 <1>  -0.9590 
 21 C       -3.2710    -5.8680     0.3320 C.2   1 <1>   0.0360 
 22 N       -2.2200    -6.4650     0.9300 N.pl3 1 <1>   0.0330 
 23 C        0.2680    -6.5190     0.5760 C.3   1 <1>  -0.0600 
 24 C       -2.1050    -2.5720     1.1620 C.3   1 <1>   0.2630 
 25 C       -3.3460    -0.4770     0.8380 C.3   1 <1>   0.2630 
 26 H        1.2000    -1.1960     1.3740 H     1 <1>   0.1500 
 27 H       -0.7650     3.0760    -0.9600 H     1 <1>   0.0800 
 28 H        0.7420     3.0500    -1.8430 H     1 <1>   0.0800 
 29 H        2.2690     1.6410     1.8580 H     1 <1>   0.0800 
 30 H        0.7940     1.1930     2.6710 H     1 <1>   0.0800 
 31 H        0.6170     4.6690     0.1540 H     1 <1>   0.0800 
 32 H        2.0170     3.6430     0.0530 H     1 <1>   0.0800 
 33 H        0.1890    -5.0200    -1.9150 H     1 <1>   0.0800 
 34 H       -1.2630    -4.8220    -2.8240 H     1 <1>   0.0800 
 35 H       -2.4670    -2.9980    -2.8770 H     1 <1>   0.0800 
 36 H       -1.6780    -1.5010    -2.6870 H     1 <1>   0.0800 
 37 H       -0.4010     3.0600     1.7660 H     1 <1>   0.0800 
 38 H       -3.5810    -2.8980    -0.8310 H     1 <1>   0.0800 
 39 H       -3.6760    -1.3060    -1.4920 H     1 <1>   0.0800 
 40 H        2.3390     4.0520     2.5960 H     1 <1>   0.0800 
 41 H        1.0480     3.6050     3.6860 H     1 <1>   0.0800 
 42 H        0.8600     4.9800     2.6310 H     1 <1>   0.0800 
 43 H       -1.5400    -0.9710    -0.0280 H     1 <1>   0.4500 
 44 H       -4.2800    -6.0140     0.6790 H     1 <1>   0.1500 
 45 H       -2.2430    -7.1050     1.7300 H     1 <1>   0.2700 
 46 H        0.9920    -6.0560    -0.0710 H     1 <1>   0.0800 
 47 H        0.3550    -7.5860     0.4740 H     1 <1>   0.0800 
 48 H        0.5070    -6.2460     1.5890 H     1 <1>   0.0800 
 49 H       -2.9980    -3.1240     1.4030 H     1 <1>   0.0800 
 50 H       -1.6780    -2.1780     2.0690 H     1 <1>   0.0800 
 51 H       -1.3990    -3.2570     0.7230 H     1 <1>   0.0800 
 52 H       -4.2780    -0.9510     1.0980 H     1 <1>   0.0800 
 53 H       -3.5460     0.3350     0.1580 H     1 <1>   0.0800 
 54 H       -2.9020    -0.0710     1.7330 H     1 <1>   0.0800 
@<TRIPOS>BOND
  1   1   2  1   
  2   1   3  1   
  3   2   4  1   
  4   2   5  2   
  5   3   6  2   
  6   3   7  1   
  7   4   8  2   
  8   4   9  am  
  9   5   6  1   
 10   5  26  1   
 11   6  10  1   
 12   7  11  1   
 13   7  27  1   
 14   7  28  1   
 15   9  12  1   
 16   9  13  1   
 17  10  14  1   
 18  10  29  1   
 19  10  30  1   
 20  11  14  1   
 21  11  31  1   
 22  11  32  1   
 23  12  15  1   
 24  12  33  1   
 25  12  34  1   
 26  13  16  1   
 27  13  35  1   
 28  13  36  1   
 29  14  17  1   
 30  14  37  1   
 31  15  18  1   
 32  15  19  2   
 33  16  20  1   
 34  16  38  1   
 35  16  39  1   
 36  17  40  1   
 37  17  41  1   
 38  17  42  1   
 39  18  21  2   
 40  19  22  1   
 41  19  23  1   
 42  20  24  1   
 43  20  25  1   
 44  20  43  1   
 45  21  22  1   
 46  21  44  1   
 47  22  45  1   
 48  23  46  1   
 49  23  47  1   
 50  23  48  1   
 51  24  49  1   
 52  24  50  1   
 53  24  51  1   
 54  25  52  1   
 55  25  53  1   
 56  25  54  1   
@<TRIPOS>SUBSTRUCTURE
  1 ****   2 GROUP 4 **** **** 0

# MOE 2024.06 (io_trps.svl 2023.06)
