@<TRIPOS>MOLECULE
NONAME
43 46 1 0 0 
SMALL
USER_CHARGES


@<TRIPOS>ATOM
  1 S       -0.2340     0.2200    -0.0410 S.3   1 <1>  -0.0800 
  2 C        1.0510    -1.0030     0.0670 C.ar  1 <1>   0.0400 
  3 C        0.9130     1.5410     0.1120 C.2   1 <1>  -0.1100 
  4 C        0.9790    -2.4060     0.0300 C.ar  1 <1>   0.4100 
  5 C        2.2510    -0.3580     0.2130 C.ar  1 <1>   0.3070 
  6 C        2.1680     1.0710     0.2360 C.2   1 <1>  -0.1500 
  7 N        2.1270    -3.1020     0.1400 N.ar  1 <1>  -0.6200 
  8 N       -0.1500    -3.1440    -0.1090 N.pl3 1 <1>  -0.8380 
  9 N        3.3600    -1.1260     0.3200 N.ar  1 <1>  -0.1250 
 10 C        3.2550    -2.4700     0.2790 C.ar  1 <1>   0.5280 
 11 C       -1.5420    -2.6440    -0.3090 C.3   1 <1>   0.2090 
 12 C       -0.1690    -4.6370    -0.0600 C.3   1 <1>   0.2090 
 13 C        4.5200    -3.2960     0.4020 C.3   1 <1>  -0.0970 
 14 C       -2.4020    -3.8890    -0.5320 C.3   1 <1>   0.2000 
 15 C       -1.6330    -5.0280     0.1230 C.3   1 <1>  -0.0800 
 16 O       -3.6580    -3.7640     0.0430 O.3   1 <1>  -0.6800 
 17 C       -1.9770    -6.4110    -0.4530 C.3   1 <1>   0.0210 
 18 C       -1.0560    -7.4900     0.0870 C.2   1 <1>   0.1080 
 19 N       -0.7350    -7.5900     1.3400 N.2   1 <1>  -0.7070 
 20 C       -0.4560    -8.4770    -0.6880 C.2   1 <1>  -0.1500 
 21 N        0.0810    -8.6590     1.3990 N.pl3 1 <1>   0.3000 
 22 C        0.2690    -9.2110     0.1820 C.2   1 <1>  -0.3320 
 23 C        1.1400   -10.4260    -0.0780 C.3   1 <1>  -0.0600 
 24 H        0.5140     2.5430     0.0920 H     1 <1>   0.1500 
 25 H        3.0400     1.6930     0.3440 H     1 <1>   0.1500 
 26 H        4.2740    -0.6900     0.4320 H     1 <1>   0.4570 
 27 H       -1.8640    -2.1200     0.5740 H     1 <1>   0.0800 
 28 H       -1.5950    -2.0010    -1.1700 H     1 <1>   0.0800 
 29 H        0.2160    -5.0240    -0.9890 H     1 <1>   0.0800 
 30 H        0.4280    -5.0130     0.7550 H     1 <1>   0.0800 
 31 H        4.2790    -4.3450     0.3580 H     1 <1>   0.0800 
 32 H        5.0050    -3.1050     1.3420 H     1 <1>   0.0800 
 33 H        5.1940    -3.0740    -0.4050 H     1 <1>   0.0800 
 34 H       -2.5280    -4.0540    -1.5890 H     1 <1>   0.0800 
 35 H       -1.8220    -5.0320     1.1830 H     1 <1>   0.0800 
 36 H       -3.5900    -3.7930     1.0170 H     1 <1>   0.4000 
 37 H       -1.9010    -6.3900    -1.5250 H     1 <1>   0.0800 
 38 H       -2.9900    -6.6620    -0.1950 H     1 <1>   0.0800 
 39 H       -0.5650    -8.6050    -1.7500 H     1 <1>   0.1500 
 40 H        0.4910    -8.9860     2.2820 H     1 <1>   0.2700 
 41 H        1.1220   -10.6770    -1.1230 H     1 <1>   0.0800 
 42 H        0.7780   -11.2700     0.4830 H     1 <1>   0.0800 
 43 H        2.1570   -10.2240     0.2090 H     1 <1>   0.0800 
@<TRIPOS>BOND
  1   1   2  1   
  2   1   3  1   
  3   2   4  ar  
  4   2   5  ar  
  5   3   6  2   
  6   3  24  1   
  7   4   7  ar  
  8   4   8  1   
  9   5   6  1   
 10   5   9  ar  
 11   6  25  1   
 12   7  10  ar  
 13   8  11  1   
 14   8  12  1   
 15   9  10  ar  
 16   9  26  1   
 17  10  13  1   
 18  11  14  1   
 19  11  27  1   
 20  11  28  1   
 21  12  15  1   
 22  12  29  1   
 23  12  30  1   
 24  13  31  1   
 25  13  32  1   
 26  13  33  1   
 27  14  15  1   
 28  14  16  1   
 29  14  34  1   
 30  15  17  1   
 31  15  35  1   
 32  16  36  1   
 33  17  18  1   
 34  17  37  1   
 35  17  38  1   
 36  18  19  2   
 37  18  20  1   
 38  19  21  1   
 39  20  22  2   
 40  20  39  1   
 41  21  22  1   
 42  21  40  1   
 43  22  23  1   
 44  23  41  1   
 45  23  42  1   
 46  23  43  1   
@<TRIPOS>SUBSTRUCTURE
  1 ****  12 GROUP 4 **** **** 0

# MOE 2024.06 (io_trps.svl 2023.06)
