@<TRIPOS>MOLECULE
NONAME
57 58 1 0 0 
SMALL
USER_CHARGES


@<TRIPOS>ATOM
  1 O        1.0050     0.0400    -2.0040 O.2   1 <1>  -0.5700 
  2 C        1.4660    -0.5320    -1.0480 C.2   1 <1>   0.5690 
  3 N        2.0270     0.1160     0.0200 N.am  1 <1>  -0.5470 
  4 C        1.3890    -2.0670    -1.0440 C.3   1 <1>   0.4040 
  5 C        2.2150     1.4970     0.1770 C.ar  1 <1>   0.1170 
  6 N       -0.0020    -2.6380    -0.8190 N.4   1 <1>  -0.9590 
  7 C        3.5130     2.0270     0.2330 C.ar  1 <1>  -0.1430 
  8 C        1.1110     2.3490     0.3110 C.ar  1 <1>  -0.1430 
  9 C        0.0560    -4.1180    -0.6680 C.3   1 <1>   0.3430 
 10 C       -0.9240    -2.2220    -1.9330 C.3   1 <1>   0.2630 
 11 C        3.6710     3.3950     0.4040 C.ar  1 <1>  -0.1500 
 12 C        4.8060     1.2020     0.1050 C.3   1 <1>   0.0630 
 13 C        1.3050     3.7090     0.4770 C.ar  1 <1>  -0.1500 
 14 C       -0.3270     1.8430     0.2920 C.3   1 <1>  -0.0970 
 15 C       -1.2430    -4.6440    -0.0570 C.3   1 <1>  -0.1600 
 16 C        2.5800     4.2330     0.5230 C.ar  1 <1>  -0.1500 
 17 C        4.9630     0.5740    -1.2840 C.3   1 <1>  -0.2400 
 18 C        4.9730     0.1630     1.2220 C.3   1 <1>  -0.2400 
 19 C       -1.1200    -6.1500     0.2210 C.3   1 <1>  -0.1600 
 20 C       -2.3660    -6.7360     0.8900 C.3   1 <1>   0.2000 
 21 O       -2.1210    -8.0740     1.1280 O.3   1 <1>  -0.5600 
 22 C       -3.6260    -6.7310     0.0370 C.3   1 <1>  -0.1600 
 23 C       -3.3170    -8.7770     1.2540 C.3   1 <1>   0.1200 
 24 C       -4.3870    -7.9360     0.5610 C.3   1 <1>  -0.1600 
 25 H        2.5430    -0.4230     0.7130 H     1 <1>   0.3700 
 26 H        2.0530    -2.4320    -0.2810 H     1 <1>   0.0800 
 27 H        1.7620    -2.4100    -1.9940 H     1 <1>   0.0800 
 28 H       -0.3700    -2.2370     0.0560 H     1 <1>   0.4500 
 29 H        0.8720    -4.3840    -0.0150 H     1 <1>   0.0800 
 30 H        0.2270    -4.5850    -1.6250 H     1 <1>   0.0800 
 31 H       -0.5610    -2.5910    -2.8790 H     1 <1>   0.0800 
 32 H       -0.9870    -1.1470    -1.9900 H     1 <1>   0.0800 
 33 H       -1.9160    -2.6080    -1.7690 H     1 <1>   0.0800 
 34 H        4.6520     3.8340     0.4450 H     1 <1>   0.1500 
 35 H        5.6350     1.8810     0.2150 H     1 <1>   0.0800 
 36 H        0.4650     4.3740     0.5710 H     1 <1>   0.1500 
 37 H       -0.4180     0.9360     0.8580 H     1 <1>   0.0800 
 38 H       -0.6350     1.6670    -0.7220 H     1 <1>   0.0800 
 39 H       -0.9910     2.5690     0.7250 H     1 <1>   0.0800 
 40 H       -2.0640    -4.4800    -0.7320 H     1 <1>   0.0800 
 41 H       -1.4430    -4.1370     0.8710 H     1 <1>   0.0800 
 42 H        2.7240     5.2910     0.6510 H     1 <1>   0.1500 
 43 H        4.2400    -0.1980    -1.4570 H     1 <1>   0.0800 
 44 H        5.9460     0.1500    -1.3890 H     1 <1>   0.0800 
 45 H        4.8390     1.3310    -2.0380 H     1 <1>   0.0800 
 46 H        4.3160    -0.6740     1.0980 H     1 <1>   0.0800 
 47 H        4.7830     0.6210     2.1770 H     1 <1>   0.0800 
 48 H        5.9840    -0.2060     1.2230 H     1 <1>   0.0800 
 49 H       -0.2840    -6.3260     0.8760 H     1 <1>   0.0800 
 50 H       -0.9420    -6.6800    -0.6990 H     1 <1>   0.0800 
 51 H       -2.5530    -6.2710     1.8440 H     1 <1>   0.0800 
 52 H       -3.3720    -6.8810    -0.9980 H     1 <1>   0.0800 
 53 H       -4.1840    -5.8170     0.1420 H     1 <1>   0.0800 
 54 H       -3.5290    -8.9000     2.3020 H     1 <1>   0.0800 
 55 H       -3.1930    -9.7390     0.7870 H     1 <1>   0.0800 
 56 H       -4.8650    -8.4860    -0.2310 H     1 <1>   0.0800 
 57 H       -5.1310    -7.6410     1.2800 H     1 <1>   0.0800 
@<TRIPOS>BOND
  1   1   2  2   
  2   2   3  am  
  3   2   4  1   
  4   3   5  1   
  5   3  25  1   
  6   4   6  1   
  7   4  26  1   
  8   4  27  1   
  9   5   7  ar  
 10   5   8  ar  
 11   6   9  1   
 12   6  10  1   
 13   6  28  1   
 14   7  11  ar  
 15   7  12  1   
 16   8  13  ar  
 17   8  14  1   
 18   9  15  1   
 19   9  29  1   
 20   9  30  1   
 21  10  31  1   
 22  10  32  1   
 23  10  33  1   
 24  11  16  ar  
 25  11  34  1   
 26  12  17  1   
 27  12  18  1   
 28  12  35  1   
 29  13  16  ar  
 30  13  36  1   
 31  14  37  1   
 32  14  38  1   
 33  14  39  1   
 34  15  19  1   
 35  15  40  1   
 36  15  41  1   
 37  16  42  1   
 38  17  43  1   
 39  17  44  1   
 40  17  45  1   
 41  18  46  1   
 42  18  47  1   
 43  18  48  1   
 44  19  20  1   
 45  19  49  1   
 46  19  50  1   
 47  20  21  1   
 48  20  22  1   
 49  20  51  1   
 50  21  23  1   
 51  22  24  1   
 52  22  52  1   
 53  22  53  1   
 54  23  24  1   
 55  23  54  1   
 56  23  55  1   
 57  24  56  1   
 58  24  57  1   
@<TRIPOS>SUBSTRUCTURE
  1 ****   4 GROUP 4 **** **** 0

# MOE 2024.06 (io_trps.svl 2023.06)
