@<TRIPOS>MOLECULE
NONAME
51 53 1 0 0 
SMALL
USER_CHARGES


@<TRIPOS>ATOM
  1 S        0.2330     0.3330    -0.6690 S.3   1 <1>  -0.0800 
  2 C        1.8100    -0.1740    -0.1030 C.2   1 <1>   0.1980 
  3 C       -0.5000    -0.7400     0.4890 C.2   1 <1>  -0.1400 
  4 N        1.7780    -1.0360     0.8300 N.2   1 <1>  -0.5650 
  5 C        3.0270     0.4420    -0.7640 C.3   1 <1>   0.0200 
  6 C        0.4760    -1.3620     1.1720 C.2   1 <1>   0.0460 
  7 C       -2.0160    -0.7790     0.5160 C.3   1 <1>  -0.0600 
  8 C        3.2330     1.8960    -0.3150 C.3   1 <1>  -0.1600 
  9 C        0.3220    -2.3830     2.2790 C.3   1 <1>  -0.0590 
 10 C        4.4620     2.5100    -0.9800 C.3   1 <1>   0.2090 
 11 N        4.6220     3.8980    -0.5020 N.pl3 1 <1>  -0.8690 
 12 C        5.5750     4.7390    -1.0270 C.ar  1 <1>   0.4100 
 13 N        6.4970     4.2050    -1.8170 N.ar  1 <1>  -0.6200 
 14 C        5.5310     6.0890    -0.7110 C.ar  1 <1>  -0.1500 
 15 C        7.3890     5.0440    -2.3110 C.ar  1 <1>   0.1600 
 16 C        6.4710     6.9680    -1.2130 C.ar  1 <1>   0.0860 
 17 C        7.4210     6.3990    -2.0510 C.ar  1 <1>  -0.1500 
 18 C        6.4560     8.3800    -0.8900 C.2   1 <1>   0.5440 
 19 O        5.4460     9.0190    -1.1150 O.2   1 <1>  -0.5700 
 20 N        7.5490     9.0130    -0.3330 N.am  1 <1>  -0.6600 
 21 C        8.6740     8.2930     0.3290 C.3   1 <1>   0.1400 
 22 C        7.5980    10.4950    -0.1770 C.3   1 <1>   0.1400 
 23 C        8.7040     8.6420     1.8210 C.3   1 <1>  -0.1600 
 24 C        7.6140    10.8580     1.3110 C.3   1 <1>  -0.1600 
 25 C        8.7630    10.1590     2.0510 C.3   1 <1>  -0.1600 
 26 H        2.9050     0.3940    -1.8310 H     1 <1>   0.0800 
 27 H        3.8890    -0.1430    -0.4980 H     1 <1>   0.0800 
 28 H       -2.3890    -1.0830    -0.4450 H     1 <1>   0.0800 
 29 H       -2.4000     0.1990     0.7440 H     1 <1>   0.0800 
 30 H       -2.3680    -1.4700     1.2580 H     1 <1>   0.0800 
 31 H        3.3600     1.9150     0.7540 H     1 <1>   0.0800 
 32 H        2.3630     2.4740    -0.5720 H     1 <1>   0.0800 
 33 H       -0.7130    -2.5810     2.4810 H     1 <1>   0.0800 
 34 H        0.7890    -2.0150     3.1730 H     1 <1>   0.0800 
 35 H        0.8020    -3.3000     1.9890 H     1 <1>   0.0800 
 36 H        4.3490     2.5120    -2.0510 H     1 <1>   0.0800 
 37 H        5.3460     1.9480    -0.7280 H     1 <1>   0.0800 
 38 H        3.7490     4.3440    -0.2140 H     1 <1>   0.4000 
 39 H        4.7570     6.4580    -0.0660 H     1 <1>   0.1500 
 40 H        8.1370     4.6240    -2.9620 H     1 <1>   0.1500 
 41 H        8.1770     7.0200    -2.4950 H     1 <1>   0.1500 
 42 H        9.6000     8.5910    -0.1340 H     1 <1>   0.0800 
 43 H        8.5720     7.2280     0.2230 H     1 <1>   0.0800 
 44 H        6.7510    10.9580    -0.6530 H     1 <1>   0.0800 
 45 H        8.4880    10.8660    -0.6540 H     1 <1>   0.0800 
 46 H        9.5570     8.1740     2.2790 H     1 <1>   0.0800 
 47 H        7.8210     8.2410     2.2880 H     1 <1>   0.0800 
 48 H        6.6720    10.5700     1.7440 H     1 <1>   0.0800 
 49 H        7.7100    11.9240     1.4150 H     1 <1>   0.0800 
 50 H        9.7040    10.5390     1.6910 H     1 <1>   0.0800 
 51 H        8.6990    10.3710     3.1050 H     1 <1>   0.0800 
@<TRIPOS>BOND
  1   1   2  1   
  2   1   3  1   
  3   2   4  2   
  4   2   5  1   
  5   3   6  2   
  6   3   7  1   
  7   4   6  1   
  8   5   8  1   
  9   5  26  1   
 10   5  27  1   
 11   6   9  1   
 12   7  28  1   
 13   7  29  1   
 14   7  30  1   
 15   8  10  1   
 16   8  31  1   
 17   8  32  1   
 18   9  33  1   
 19   9  34  1   
 20   9  35  1   
 21  10  11  1   
 22  10  36  1   
 23  10  37  1   
 24  11  12  1   
 25  11  38  1   
 26  12  13  ar  
 27  12  14  ar  
 28  13  15  ar  
 29  14  16  ar  
 30  14  39  1   
 31  15  17  ar  
 32  15  40  1   
 33  16  17  ar  
 34  16  18  1   
 35  17  41  1   
 36  18  19  2   
 37  18  20  am  
 38  20  21  1   
 39  20  22  1   
 40  21  23  1   
 41  21  42  1   
 42  21  43  1   
 43  22  24  1   
 44  22  44  1   
 45  22  45  1   
 46  23  25  1   
 47  23  46  1   
 48  23  47  1   
 49  24  25  1   
 50  24  48  1   
 51  24  49  1   
 52  25  50  1   
 53  25  51  1   
@<TRIPOS>SUBSTRUCTURE
  1 ****  11 GROUP 4 **** **** 0

# MOE 2024.06 (io_trps.svl 2023.06)
