@<TRIPOS>MOLECULE
NONAME
52 56 1 0 0 
SMALL
USER_CHARGES


@<TRIPOS>ATOM
  1 S        0.4910    -0.4950    -1.8760 S.3   1 <1>  -0.0800 
  2 C        1.0280     1.1350    -1.5900 C.2   1 <1>   0.1240 
  3 C        1.0620    -1.0220    -0.2770 C.2   1 <1>  -0.0450 
  4 N        0.8950     2.1590    -2.4620 N.pl3 1 <1>  -0.5340 
  5 C        1.6060     1.2790    -0.3740 C.2   1 <1>  -0.0860 
  6 C        1.6260     0.0440     0.3620 C.2   1 <1>  -0.1810 
  7 C        0.8860    -2.4070     0.0830 C.2   1 <1>   0.7150 
  8 C        1.3660     3.3860    -2.0950 C.2   1 <1>   0.4400 
  9 C        2.0730     2.6000    -0.0630 C.2   1 <1>   0.8670 
 10 C        2.2440    -0.0190     1.7520 C.3   1 <1>  -0.0590 
 11 O        1.8170    -3.0310     0.5630 O.2   1 <1>  -0.5700 
 12 N       -0.3190    -3.0580    -0.0750 N.am  1 <1>  -0.6600 
 13 N        1.9290     3.6300    -0.9680 N.2   1 <1>  -0.6610 
 14 O        2.6060     2.8610     1.0040 O.2   1 <1>  -0.5700 
 15 C       -1.6190    -2.3770    -0.2550 C.3   1 <1>   0.1400 
 16 C       -0.5030    -4.4830     0.2840 C.3   1 <1>   0.1400 
 17 C       -2.6570    -3.3190     0.3590 C.3   1 <1>  -0.0800 
 18 C       -2.0140    -4.7200     0.3710 C.3   1 <1>  -0.0800 
 19 C       -4.0730    -3.2340    -0.2720 C.3   1 <1>   0.4240 
 20 C       -2.5460    -5.6220    -0.7540 C.3   1 <1>  -0.1600 
 21 O       -3.9620    -3.1070    -1.6460 O.3   1 <1>  -0.6800 
 22 C       -4.8470    -2.0250     0.2930 C.ar  1 <1>  -0.1430 
 23 C       -4.8110    -4.5680    -0.0610 C.3   1 <1>  -0.1600 
 24 C       -4.0800    -5.7840    -0.6830 C.3   1 <1>  -0.1600 
 25 C       -5.1310    -0.8990    -0.4760 C.ar  1 <1>  -0.1500 
 26 C       -5.2710    -2.0300     1.6190 C.ar  1 <1>  -0.1500 
 27 C       -5.8180     0.1780     0.0570 C.ar  1 <1>  -0.1500 
 28 C       -5.9580    -0.9540     2.1560 C.ar  1 <1>  -0.1500 
 29 C       -6.2330     0.1520     1.3750 C.ar  1 <1>  -0.1500 
 30 H        0.4530     2.0160    -3.3730 H     1 <1>   0.4000 
 31 H        1.2470     4.1810    -2.8120 H     1 <1>   0.0600 
 32 H        1.7500     0.6740     2.4080 H     1 <1>   0.0800 
 33 H        3.2870     0.2390     1.7020 H     1 <1>   0.0800 
 34 H        2.1600    -1.0040     2.1750 H     1 <1>   0.0800 
 35 H       -1.6330    -1.4200     0.2380 H     1 <1>   0.0800 
 36 H       -1.7780    -2.2310    -1.3080 H     1 <1>   0.0800 
 37 H       -0.0400    -5.1100    -0.4590 H     1 <1>   0.0800 
 38 H       -0.0400    -4.6730     1.2380 H     1 <1>   0.0800 
 39 H       -2.7450    -3.0310     1.3900 H     1 <1>   0.0800 
 40 H       -2.2310    -5.2060     1.3080 H     1 <1>   0.0800 
 41 H       -2.2670    -5.1970    -1.7040 H     1 <1>   0.0800 
 42 H       -2.0830    -6.5930    -0.6960 H     1 <1>   0.0800 
 43 H       -3.6720    -3.9690    -1.9950 H     1 <1>   0.4000 
 44 H       -4.9020    -4.7420     0.9950 H     1 <1>   0.0800 
 45 H       -5.8110    -4.4930    -0.4520 H     1 <1>   0.0800 
 46 H       -4.3180    -6.6560    -0.0960 H     1 <1>   0.0800 
 47 H       -4.4570    -5.9630    -1.6760 H     1 <1>   0.0800 
 48 H       -4.8220    -0.8450    -1.5050 H     1 <1>   0.1500 
 49 H       -5.0700    -2.8720     2.2550 H     1 <1>   0.1500 
 50 H       -6.0290     1.0360    -0.5560 H     1 <1>   0.1500 
 51 H       -6.2780    -0.9780     3.1830 H     1 <1>   0.1500 
 52 H       -6.7680     0.9880     1.7900 H     1 <1>   0.1500 
@<TRIPOS>BOND
  1   1   2  1   
  2   1   3  1   
  3   2   4  1   
  4   2   5  2   
  5   3   6  2   
  6   3   7  1   
  7   4   8  1   
  8   4  30  1   
  9   5   6  1   
 10   5   9  1   
 11   6  10  1   
 12   7  11  2   
 13   7  12  am  
 14   8  13  2   
 15   8  31  1   
 16   9  13  1   
 17   9  14  2   
 18  10  32  1   
 19  10  33  1   
 20  10  34  1   
 21  12  15  1   
 22  12  16  1   
 23  15  17  1   
 24  15  35  1   
 25  15  36  1   
 26  16  18  1   
 27  16  37  1   
 28  16  38  1   
 29  17  18  1   
 30  17  19  1   
 31  17  39  1   
 32  18  20  1   
 33  18  40  1   
 34  19  21  1   
 35  19  22  1   
 36  19  23  1   
 37  20  24  1   
 38  20  41  1   
 39  20  42  1   
 40  21  43  1   
 41  22  25  ar  
 42  22  26  ar  
 43  23  24  1   
 44  23  44  1   
 45  23  45  1   
 46  24  46  1   
 47  24  47  1   
 48  25  27  ar  
 49  25  48  1   
 50  26  28  ar  
 51  26  49  1   
 52  27  29  ar  
 53  27  50  1   
 54  28  29  ar  
 55  28  51  1   
 56  29  52  1   
@<TRIPOS>SUBSTRUCTURE
  1 ****  15 GROUP 4 **** **** 0

# MOE 2024.06 (io_trps.svl 2023.06)
