@<TRIPOS>MOLECULE
NONAME
45 47 1 0 0 
SMALL
USER_CHARGES


@<TRIPOS>ATOM
  1 O        2.3350     0.5400    -1.9920 O.2   1 <1>  -0.5700 
  2 C        2.4510    -0.4650    -1.3100 C.2   1 <1>   0.7670 
  3 N        2.7960    -0.3370     0.0090 N.2   1 <1>  -0.6610 
  4 C        2.2200    -1.7480    -1.8740 C.2   1 <1>  -0.1360 
  5 C        2.9040    -1.4060     0.7050 C.2   1 <1>   0.4390 
  6 C        2.3390    -2.8540    -1.1060 C.2   1 <1>  -0.0380 
  7 N        2.6870    -2.6560     0.2040 N.pl3 1 <1>  -0.5500 
  8 C        3.2870    -1.3170     2.1610 C.3   1 <1>  -0.1790 
  9 C        2.1120    -4.2820    -1.5890 C.3   1 <1>   0.2480 
 10 N        1.1920    -5.0090    -0.6840 N.3   1 <1>  -0.8100 
 11 C        1.1340    -6.4430    -1.0300 C.3   1 <1>   0.1100 
 12 C       -0.1620    -4.4070    -0.6790 C.3   1 <1>   0.1100 
 13 C        0.1910    -7.2190    -0.0860 C.3   1 <1>   0.3430 
 14 C       -1.1190    -5.1640     0.2640 C.3   1 <1>   0.3430 
 15 N       -1.1970    -6.6320    -0.0670 N.4   1 <1>  -0.9590 
 16 C       -2.0970    -7.3730     0.8570 C.3   1 <1>   0.4230 
 17 C       -2.2890    -8.8330     0.4160 C.3   1 <1>  -0.1600 
 18 C       -3.5030    -6.7660     0.8800 C.3   1 <1>  -0.1600 
 19 C       -3.7980    -9.0800     0.3130 C.3   1 <1>  -0.1600 
 20 C       -4.4450    -7.9460     1.0960 C.3   1 <1>  -0.1600 
 21 H        1.9560    -1.7690    -2.9120 H     1 <1>   0.1500 
 22 H        2.7630    -3.4660     0.8240 H     1 <1>   0.4000 
 23 H        4.2080    -1.8430     2.3300 H     1 <1>   0.0800 
 24 H        2.5120    -1.7400     2.7720 H     1 <1>   0.0800 
 25 H        3.4230    -0.2880     2.4420 H     1 <1>   0.0800 
 26 H        3.0650    -4.7840    -1.6070 H     1 <1>   0.0800 
 27 H        1.7200    -4.2740    -2.5930 H     1 <1>   0.0800 
 28 H        2.1210    -6.8660    -0.9510 H     1 <1>   0.0800 
 29 H        0.8030    -6.5660    -2.0480 H     1 <1>   0.0800 
 30 H       -0.5690    -4.4010    -1.6760 H     1 <1>   0.0800 
 31 H       -0.1010    -3.3850    -0.3450 H     1 <1>   0.0800 
 32 H        0.6080    -7.1910     0.9070 H     1 <1>   0.0800 
 33 H        0.1550    -8.2490    -0.3990 H     1 <1>   0.0800 
 34 H       -2.0980    -4.7170     0.1970 H     1 <1>   0.0800 
 35 H       -0.7680    -5.0390     1.2750 H     1 <1>   0.0800 
 36 H       -1.5930    -6.7210    -1.0100 H     1 <1>   0.4500 
 37 H       -1.6950    -7.3620     1.8590 H     1 <1>   0.0800 
 38 H       -1.8790    -9.4790     1.1740 H     1 <1>   0.0800 
 39 H       -1.8250    -9.0600    -0.5260 H     1 <1>   0.0800 
 40 H       -3.7410    -6.3170    -0.0690 H     1 <1>   0.0800 
 41 H       -3.6140    -6.0400     1.6660 H     1 <1>   0.0800 
 42 H       -4.0790   -10.0450     0.7010 H     1 <1>   0.0800 
 43 H       -4.1060    -9.0210    -0.7180 H     1 <1>   0.0800 
 44 H       -5.4460    -7.7380     0.7540 H     1 <1>   0.0800 
 45 H       -4.4800    -8.2020     2.1420 H     1 <1>   0.0800 
@<TRIPOS>BOND
  1   1   2  2   
  2   2   3  1   
  3   2   4  1   
  4   3   5  2   
  5   4   6  2   
  6   4  21  1   
  7   5   7  1   
  8   5   8  1   
  9   6   7  1   
 10   6   9  1   
 11   7  22  1   
 12   8  23  1   
 13   8  24  1   
 14   8  25  1   
 15   9  10  1   
 16   9  26  1   
 17   9  27  1   
 18  10  11  1   
 19  10  12  1   
 20  11  13  1   
 21  11  28  1   
 22  11  29  1   
 23  12  14  1   
 24  12  30  1   
 25  12  31  1   
 26  13  15  1   
 27  13  32  1   
 28  13  33  1   
 29  14  15  1   
 30  14  34  1   
 31  14  35  1   
 32  15  16  1   
 33  15  36  1   
 34  16  17  1   
 35  16  18  1   
 36  16  37  1   
 37  17  19  1   
 38  17  38  1   
 39  17  39  1   
 40  18  20  1   
 41  18  40  1   
 42  18  41  1   
 43  19  20  1   
 44  19  42  1   
 45  19  43  1   
 46  20  44  1   
 47  20  45  1   
@<TRIPOS>SUBSTRUCTURE
  1 ****  12 GROUP 4 **** **** 0

# MOE 2024.06 (io_trps.svl 2023.06)
