@<TRIPOS>MOLECULE
NONAME
46 49 1 0 0 
SMALL
USER_CHARGES


@<TRIPOS>ATOM
  1 O       -0.8930     0.2390     1.3000 O.2   1 <1>  -0.5700 
  2 C       -1.7420     0.7000     0.5710 C.2   1 <1>   0.6300 
  3 N       -2.9200     0.0460     0.3380 N.am  1 <1>  -0.6600 
  4 C       -1.4580     2.0310    -0.0990 C.3   1 <1>   0.0000 
  5 C       -3.9740     0.4620    -0.6240 C.3   1 <1>   0.1400 
  6 C       -3.1840    -1.3290     0.8320 C.3   1 <1>   0.1400 
  7 C       -0.9770     1.7760    -1.5120 C.2   1 <1>   0.6300 
  8 C       -0.8370     3.1560     0.6890 C.3   1 <1>  -0.2000 
  9 C       -2.2610     3.2590     0.2490 C.3   1 <1>  -0.2000 
 10 C       -5.1020    -0.5460    -0.4130 C.3   1 <1>   0.2000 
 11 C       -4.3910    -1.8300     0.0210 C.3   1 <1>  -0.0800 
 12 O       -1.6980     2.0080    -2.4500 O.2   1 <1>  -0.5700 
 13 N        0.2580     1.2820    -1.7090 N.am  1 <1>  -0.8000 
 14 O       -5.8840    -0.1140     0.6460 O.3   1 <1>  -0.6800 
 15 C       -3.9570    -2.6570    -1.2060 C.3   1 <1>  -0.0170 
 16 C       -3.3160    -3.9740    -0.8040 C.ar  1 <1>   0.1670 
 17 N       -2.0210    -4.0430    -0.8260 N.ar  1 <1>  -0.6200 
 18 C       -4.1440    -5.0440    -0.4280 C.ar  1 <1>  -0.1500 
 19 C       -1.4420    -5.2130    -0.4540 C.ar  1 <1>   0.3100 
 20 C       -3.5910    -6.2310    -0.0540 C.ar  1 <1>  -0.1500 
 21 C       -2.1910    -6.3420    -0.0580 C.ar  1 <1>   0.0000 
 22 C       -0.0410    -5.3080    -0.4590 C.ar  1 <1>  -0.1500 
 23 C       -1.5110    -7.5190     0.3140 C.ar  1 <1>  -0.1500 
 24 C        0.6020    -6.4610    -0.0930 C.ar  1 <1>  -0.1500 
 25 C       -0.1440    -7.5790     0.2980 C.ar  1 <1>  -0.1500 
 26 H       -4.3060     1.4710    -0.4530 H     1 <1>   0.0800 
 27 H       -3.5900     0.3750    -1.6260 H     1 <1>   0.0800 
 28 H       -2.3120    -1.9490     0.7100 H     1 <1>   0.0800 
 29 H       -3.4300    -1.2810     1.8790 H     1 <1>   0.0800 
 30 H       -0.6220     2.9900     1.7310 H     1 <1>   0.1000 
 31 H       -0.1030     3.7820     0.2110 H     1 <1>   0.1000 
 32 H       -2.5170     3.9410    -0.5430 H     1 <1>   0.1000 
 33 H       -3.0350     3.1810     0.9940 H     1 <1>   0.1000 
 34 H       -5.7350    -0.6630    -1.2760 H     1 <1>   0.0800 
 35 H       -5.0350    -2.4380     0.6320 H     1 <1>   0.0800 
 36 H        0.5780     1.0720    -2.6530 H     1 <1>   0.3700 
 37 H        0.8510     0.9700    -0.9370 H     1 <1>   0.3700 
 38 H       -5.2980     0.1180     1.3950 H     1 <1>   0.4000 
 39 H       -3.2580    -2.0950    -1.8030 H     1 <1>   0.0800 
 40 H       -4.8120    -2.8670    -1.8230 H     1 <1>   0.0800 
 41 H       -5.2110    -4.9120    -0.4380 H     1 <1>   0.1500 
 42 H       -4.1920    -7.0720     0.2400 H     1 <1>   0.1500 
 43 H        0.5120    -4.4380    -0.7610 H     1 <1>   0.1500 
 44 H       -2.0890    -8.3750     0.6140 H     1 <1>   0.1500 
 45 H        1.6760    -6.5210    -0.1000 H     1 <1>   0.1500 
 46 H        0.3740    -8.4790     0.5830 H     1 <1>   0.1500 
@<TRIPOS>BOND
  1   1   2  2   
  2   2   3  am  
  3   2   4  1   
  4   3   5  1   
  5   3   6  1   
  6   4   7  1   
  7   4   8  1   
  8   4   9  1   
  9   5  10  1   
 10   5  26  1   
 11   5  27  1   
 12   6  11  1   
 13   6  28  1   
 14   6  29  1   
 15   7  12  2   
 16   7  13  am  
 17   8   9  1   
 18   8  30  1   
 19   8  31  1   
 20   9  32  1   
 21   9  33  1   
 22  10  11  1   
 23  10  14  1   
 24  10  34  1   
 25  11  15  1   
 26  11  35  1   
 27  13  36  1   
 28  13  37  1   
 29  14  38  1   
 30  15  16  1   
 31  15  39  1   
 32  15  40  1   
 33  16  17  ar  
 34  16  18  ar  
 35  17  19  ar  
 36  18  20  ar  
 37  18  41  1   
 38  19  21  ar  
 39  19  22  ar  
 40  20  21  ar  
 41  20  42  1   
 42  21  23  ar  
 43  22  24  ar  
 44  22  43  1   
 45  23  25  ar  
 46  23  44  1   
 47  24  25  ar  
 48  24  45  1   
 49  25  46  1   
@<TRIPOS>SUBSTRUCTURE
  1 ****   6 GROUP 4 **** **** 0

# MOE 2024.06 (io_trps.svl 2023.06)
