@<TRIPOS>MOLECULE
NONAME
51 53 1 0 0 
SMALL
USER_CHARGES


@<TRIPOS>ATOM
  1 O       -0.5320     0.3030     1.2330 O.2   1 <1>  -0.5700 
  2 C       -1.3610     0.8160     0.5090 C.2   1 <1>   0.5690 
  3 N       -2.6110     0.2240     0.4580 N.am  1 <1>  -0.6600 
  4 C       -0.9300     2.1040    -0.3090 C.3   1 <1>   0.3310 
  5 C       -3.8600     0.6700    -0.2150 C.3   1 <1>   0.1400 
  6 C       -2.8880    -1.0190     1.2310 C.3   1 <1>   0.1400 
  7 N       -1.1100     3.3830     0.4630 N.3   1 <1>  -0.8100 
  8 C       -1.6320     2.2170    -1.6800 C.3   1 <1>  -0.2400 
  9 C        0.5810     1.9830    -0.6100 C.3   1 <1>  -0.2400 
 10 C       -4.9790    -0.1350     0.4450 C.3   1 <1>   0.2000 
 11 C       -4.3110    -1.4480     0.8510 C.3   1 <1>  -0.0800 
 12 C       -0.8080     4.6570    -0.2380 C.3   1 <1>   0.1100 
 13 C       -2.3870     3.5130     1.1980 C.3   1 <1>   0.1100 
 14 O       -5.3680     0.5250     1.6000 O.3   1 <1>  -0.6800 
 15 C       -4.3150    -2.4550    -0.3150 C.3   1 <1>  -0.0170 
 16 C       -0.8660     5.8530     0.7280 C.3   1 <1>   0.1200 
 17 C       -2.3830     4.7520     2.1110 C.3   1 <1>   0.1200 
 18 C       -3.6990    -3.7850     0.0920 C.ar  1 <1>  -0.1430 
 19 O       -2.1060     5.9050     1.3710 O.3   1 <1>  -0.5600 
 20 C       -4.3940    -4.7060     0.8500 C.ar  1 <1>  -0.1500 
 21 C       -2.4150    -4.1410    -0.2720 C.ar  1 <1>  -0.1500 
 22 C       -3.7890    -5.9010     1.2000 C.ar  1 <1>   0.1600 
 23 C       -1.9030    -5.3620     0.1320 C.ar  1 <1>   0.1600 
 24 N       -2.5590    -6.2510     0.8600 N.ar  1 <1>  -0.6200 
 25 H       -4.0360     1.7230    -0.1030 H     1 <1>   0.0800 
 26 H       -3.8050     0.4190    -1.2600 H     1 <1>   0.0800 
 27 H       -2.1530    -1.7740     1.0120 H     1 <1>   0.0800 
 28 H       -2.8360    -0.7920     2.2830 H     1 <1>   0.0800 
 29 H       -1.6500     1.2540    -2.1570 H     1 <1>   0.0800 
 30 H       -1.1050     2.8880    -2.3330 H     1 <1>   0.0800 
 31 H       -2.6340     2.5810    -1.5800 H     1 <1>   0.0800 
 32 H        0.7870     1.0220    -1.0470 H     1 <1>   0.0800 
 33 H        1.1420     2.0580     0.3040 H     1 <1>   0.0800 
 34 H        0.9300     2.7320    -1.2940 H     1 <1>   0.0800 
 35 H       -5.8450    -0.2570    -0.1830 H     1 <1>   0.0800 
 36 H       -4.8150    -1.8940     1.6910 H     1 <1>   0.0800 
 37 H        0.1760     4.6260    -0.6660 H     1 <1>   0.0800 
 38 H       -1.5170     4.8240    -1.0300 H     1 <1>   0.0800 
 39 H       -3.2040     3.6050     0.5060 H     1 <1>   0.0800 
 40 H       -2.5510     2.6490     1.8160 H     1 <1>   0.0800 
 41 H       -4.5780     0.6890     2.1540 H     1 <1>   0.4000 
 42 H       -3.7770    -2.0540    -1.1570 H     1 <1>   0.0800 
 43 H       -5.3280    -2.6320    -0.6320 H     1 <1>   0.0800 
 44 H       -0.7370     6.7740     0.1900 H     1 <1>   0.0800 
 45 H       -0.0930     5.7720     1.4720 H     1 <1>   0.0800 
 46 H       -1.6400     4.6480     2.8820 H     1 <1>   0.0800 
 47 H       -3.3470     4.8800     2.5700 H     1 <1>   0.0800 
 48 H       -5.3990    -4.5060     1.1720 H     1 <1>   0.1500 
 49 H       -1.8060    -3.4810    -0.8620 H     1 <1>   0.1500 
 50 H       -4.3460    -6.6080     1.7910 H     1 <1>   0.1500 
 51 H       -0.8990    -5.6210    -0.1580 H     1 <1>   0.1500 
@<TRIPOS>BOND
  1   1   2  2   
  2   2   3  am  
  3   2   4  1   
  4   3   5  1   
  5   3   6  1   
  6   4   7  1   
  7   4   8  1   
  8   4   9  1   
  9   5  10  1   
 10   5  25  1   
 11   5  26  1   
 12   6  11  1   
 13   6  27  1   
 14   6  28  1   
 15   7  12  1   
 16   7  13  1   
 17   8  29  1   
 18   8  30  1   
 19   8  31  1   
 20   9  32  1   
 21   9  33  1   
 22   9  34  1   
 23  10  11  1   
 24  10  14  1   
 25  10  35  1   
 26  11  15  1   
 27  11  36  1   
 28  12  16  1   
 29  12  37  1   
 30  12  38  1   
 31  13  17  1   
 32  13  39  1   
 33  13  40  1   
 34  14  41  1   
 35  15  18  1   
 36  15  42  1   
 37  15  43  1   
 38  16  19  1   
 39  16  44  1   
 40  16  45  1   
 41  17  19  1   
 42  17  46  1   
 43  17  47  1   
 44  18  20  ar  
 45  18  21  ar  
 46  20  22  ar  
 47  20  48  1   
 48  21  23  ar  
 49  21  49  1   
 50  22  24  ar  
 51  22  50  1   
 52  23  24  ar  
 53  23  51  1   
@<TRIPOS>SUBSTRUCTURE
  1 ****   3 GROUP 4 **** **** 0

# MOE 2024.06 (io_trps.svl 2023.06)
