@<TRIPOS>MOLECULE
NONAME
56 59 1 0 0 
SMALL
USER_CHARGES


@<TRIPOS>ATOM
  1 CL      -1.2670    -0.6270    -2.5130 Cl    1 <1>  -0.1770 
  2 C       -2.2670    -1.0430    -1.1330 C.ar  1 <1>   0.1770 
  3 C       -2.7810    -0.0420    -0.2980 C.ar  1 <1>   0.1000 
  4 C       -2.5260    -2.3800    -0.9240 C.ar  1 <1>  -0.1500 
  5 N       -2.5250     1.3150    -0.5100 N.pl3 1 <1>  -0.8380 
  6 C       -3.5630    -0.4680     0.7740 C.ar  1 <1>  -0.1500 
  7 C       -3.3260    -2.8000     0.1380 C.ar  1 <1>   0.0860 
  8 C       -1.1400     1.8280    -0.3880 C.3   1 <1>   0.2090 
  9 C       -3.5070     2.3960    -0.2490 C.3   1 <1>   0.2090 
 10 C       -3.8260    -1.8080     0.9850 C.ar  1 <1>  -0.1500 
 11 C       -3.6170    -4.2030     0.3470 C.2   1 <1>   0.5440 
 12 C       -1.2910     3.2140     0.2260 C.3   1 <1>  -0.1600 
 13 C       -2.6780     3.6730    -0.2110 C.3   1 <1>  -0.1600 
 14 O       -2.7800    -5.0530     0.0900 O.2   1 <1>  -0.5700 
 15 N       -4.8430    -4.6320     0.8060 N.am  1 <1>  -0.6600 
 16 C       -5.0030    -6.0230     1.3190 C.3   1 <1>   0.1400 
 17 C       -6.1170    -4.0510     0.2930 C.3   1 <1>   0.1400 
 18 C       -5.4570    -6.9260     0.1490 C.3   1 <1>   0.4230 
 19 C       -6.6390    -4.9420    -0.8440 C.3   1 <1>  -0.1600 
 20 N       -5.5380    -8.3870     0.4870 N.4   1 <1>  -0.9590 
 21 C       -6.8120    -6.4240    -0.4010 C.3   1 <1>  -0.1060 
 22 C       -5.8590    -9.2140    -0.7030 C.3   1 <1>   0.3430 
 23 C       -4.3810    -8.9220     1.2520 C.3   1 <1>   0.2630 
 24 C       -7.8670    -6.5390     0.7170 C.2   1 <1>   0.9060 
 25 C       -7.2180    -7.2690    -1.6320 C.3   1 <1>  -0.1600 
 26 C       -7.1890    -8.7730    -1.3190 C.3   1 <1>  -0.1600 
 27 O       -7.7770    -7.4710     1.5330 O.co2 1 <1>  -0.9000 
 28 O       -8.7600    -5.6970     0.7970 O.co2 1 <1>  -0.9000 
 29 H       -2.1060    -3.1100    -1.5920 H     1 <1>   0.1500 
 30 H       -3.9620     0.2540     1.4590 H     1 <1>   0.1500 
 31 H       -0.5360     1.1820     0.2260 H     1 <1>   0.0800 
 32 H       -0.7070     1.9020    -1.3710 H     1 <1>   0.0800 
 33 H       -4.2480     2.4290    -1.0290 H     1 <1>   0.0800 
 34 H       -3.9870     2.2460     0.7010 H     1 <1>   0.0800 
 35 H       -4.4300    -2.1010     1.8260 H     1 <1>   0.1500 
 36 H       -1.2540     3.1240     1.2980 H     1 <1>   0.0800 
 37 H       -0.5140     3.8810    -0.1000 H     1 <1>   0.0800 
 38 H       -2.6300     4.0850    -1.2040 H     1 <1>   0.0800 
 39 H       -3.0990     4.4050     0.4540 H     1 <1>   0.0800 
 40 H       -4.0600    -6.3570     1.7120 H     1 <1>   0.0800 
 41 H       -5.7240    -6.0270     2.1180 H     1 <1>   0.0800 
 42 H       -6.8390    -4.0010     1.0920 H     1 <1>   0.0800 
 43 H       -5.9640    -3.0520    -0.0780 H     1 <1>   0.0800 
 44 H       -4.7190    -6.8090    -0.6260 H     1 <1>   0.0800 
 45 H       -7.5870    -4.5530    -1.1760 H     1 <1>   0.0800 
 46 H       -5.9570    -4.8740    -1.6730 H     1 <1>   0.0800 
 47 H       -6.4010    -8.4000     1.0970 H     1 <1>   0.4500 
 48 H       -5.0730    -9.1120    -1.4340 H     1 <1>   0.0800 
 49 H       -5.9310   -10.2500    -0.4180 H     1 <1>   0.0800 
 50 H       -3.4710    -8.7970     0.6890 H     1 <1>   0.0800 
 51 H       -4.5260    -9.9690     1.4590 H     1 <1>   0.0800 
 52 H       -4.2850    -8.4030     2.1920 H     1 <1>   0.0800 
 53 H       -8.2100    -6.9870    -1.9460 H     1 <1>   0.0800 
 54 H       -6.5450    -7.0690    -2.4490 H     1 <1>   0.0800 
 55 H       -7.3620    -9.3290    -2.2230 H     1 <1>   0.0800 
 56 H       -7.9880    -9.0170    -0.6380 H     1 <1>   0.0800 
@<TRIPOS>BOND
  1   1   2  1   
  2   2   3  ar  
  3   2   4  ar  
  4   3   5  1   
  5   3   6  ar  
  6   4   7  ar  
  7   4  29  1   
  8   5   8  1   
  9   5   9  1   
 10   6  10  ar  
 11   6  30  1   
 12   7  10  ar  
 13   7  11  1   
 14   8  12  1   
 15   8  31  1   
 16   8  32  1   
 17   9  13  1   
 18   9  33  1   
 19   9  34  1   
 20  10  35  1   
 21  11  14  2   
 22  11  15  am  
 23  12  13  1   
 24  12  36  1   
 25  12  37  1   
 26  13  38  1   
 27  13  39  1   
 28  15  16  1   
 29  15  17  1   
 30  16  18  1   
 31  16  40  1   
 32  16  41  1   
 33  17  19  1   
 34  17  42  1   
 35  17  43  1   
 36  18  20  1   
 37  18  21  1   
 38  18  44  1   
 39  19  21  1   
 40  19  45  1   
 41  19  46  1   
 42  20  22  1   
 43  20  23  1   
 44  20  47  1   
 45  21  24  1   
 46  21  25  1   
 47  22  26  1   
 48  22  48  1   
 49  22  49  1   
 50  23  50  1   
 51  23  51  1   
 52  23  52  1   
 53  24  27  ar  
 54  24  28  ar  
 55  25  26  1   
 56  25  53  1   
 57  25  54  1   
 58  26  55  1   
 59  26  56  1   
@<TRIPOS>SUBSTRUCTURE
  1 ****  11 GROUP 4 **** **** 0

# MOE 2024.06 (io_trps.svl 2023.06)
