@<TRIPOS>MOLECULE
NONAME
60 62 1 0 0 
SMALL
USER_CHARGES


@<TRIPOS>ATOM
  1 O       -5.4190    -1.2250    -2.0570 O.co2 1 <1>  -0.9000 
  2 C       -5.5220     0.0190    -2.0150 C.2   1 <1>   0.9060 
  3 O       -6.4630     0.5830    -2.5780 O.co2 1 <1>  -0.9000 
  4 C       -4.5040     0.8370    -1.2060 C.3   1 <1>   0.0140 
  5 O       -4.9280     1.2580     0.1090 O.3   1 <1>  -0.3630 
  6 C       -5.7450     0.4690     0.8640 C.ar  1 <1>   0.0830 
  7 C       -6.7730     0.9810     1.6730 C.ar  1 <1>   0.0820 
  8 C       -5.5930    -0.9030     0.7730 C.ar  1 <1>  -0.1500 
  9 O       -7.0560     2.2980     1.8840 O.3   1 <1>  -0.3630 
 10 C       -7.6260     0.0960     2.3170 C.ar  1 <1>  -0.1500 
 11 C       -6.5370    -1.7690     1.2850 C.ar  1 <1>  -0.1440 
 12 C       -6.6170     3.2970     0.9890 C.3   1 <1>   0.0400 
 13 C       -7.5320    -1.2710     2.1100 C.ar  1 <1>  -0.1500 
 14 C       -6.4610    -3.2020     0.8070 C.3   1 <1>   0.4860 
 15 N       -6.7480    -3.2180    -0.6670 N.4   1 <1>  -0.9590 
 16 C       -8.1440    -3.0350    -1.1580 C.3   1 <1>   0.4230 
 17 C       -6.0770    -4.3440    -1.3600 C.3   1 <1>   0.2630 
 18 C       -8.4130    -1.5850    -1.5220 C.3   1 <1>  -0.1600 
 19 C       -9.2810    -3.4230    -0.2040 C.3   1 <1>  -0.1600 
 20 C       -9.9220    -1.3840    -1.4200 C.3   1 <1>  -0.0800 
 21 C      -10.4880    -2.5760    -0.6470 C.3   1 <1>  -0.0800 
 22 C      -10.3290    -0.1340    -0.6310 C.3   1 <1>  -0.1600 
 23 C      -11.3310    -1.9640     0.4900 C.3   1 <1>  -0.1600 
 24 C      -11.6300    -0.5170     0.0690 C.3   1 <1>   0.4230 
 25 N      -12.7820    -0.4650    -0.8880 N.4   1 <1>  -0.9590 
 26 C      -12.9900     0.9070    -1.4580 C.3   1 <1>   0.2630 
 27 C      -14.0680    -0.9280    -0.2750 C.3   1 <1>   0.2630 
 28 H       -4.2720     1.7230    -1.7640 H     1 <1>   0.0800 
 29 H       -3.6090     0.2580    -1.0930 H     1 <1>   0.0800 
 30 H       -4.7520    -1.3030     0.2370 H     1 <1>   0.1500 
 31 H       -8.3840     0.4960     2.9660 H     1 <1>   0.1500 
 32 H       -7.1310     4.2100     1.2240 H     1 <1>   0.0800 
 33 H       -6.8460     2.9920    -0.0180 H     1 <1>   0.0800 
 34 H       -5.5570     3.4320     1.1140 H     1 <1>   0.0800 
 35 H       -8.2430    -1.9250     2.5830 H     1 <1>   0.1500 
 36 H       -7.1540    -3.8280     1.3410 H     1 <1>   0.0800 
 37 H       -5.4630    -3.5660     0.9850 H     1 <1>   0.0800 
 38 H       -6.2580    -2.3640    -1.0620 H     1 <1>   0.4500 
 39 H       -8.2710    -3.6010    -2.0670 H     1 <1>   0.0800 
 40 H       -6.5220    -5.2830    -1.0780 H     1 <1>   0.0800 
 41 H       -5.0280    -4.3570    -1.1110 H     1 <1>   0.0800 
 42 H       -6.1630    -4.2160    -2.4270 H     1 <1>   0.0800 
 43 H       -7.9010    -0.9210    -0.8530 H     1 <1>   0.0800 
 44 H       -8.0750    -1.3840    -2.5240 H     1 <1>   0.0800 
 45 H       -9.4990    -4.4740    -0.2760 H     1 <1>   0.0800 
 46 H       -9.0390    -3.1840     0.8090 H     1 <1>   0.0800 
 47 H      -10.3510    -1.3560    -2.4090 H     1 <1>   0.0800 
 48 H      -11.1130    -3.1530    -1.3090 H     1 <1>   0.0800 
 49 H      -10.3710     0.7430    -1.2490 H     1 <1>   0.0800 
 50 H       -9.6010     0.0640     0.1360 H     1 <1>   0.0800 
 51 H      -10.7420    -1.9100     1.3890 H     1 <1>   0.0800 
 52 H      -12.1990    -2.5540     0.7150 H     1 <1>   0.0800 
 53 H      -11.8190     0.1150     0.9230 H     1 <1>   0.0800 
 54 H      -12.5360    -1.0960    -1.6640 H     1 <1>   0.4500 
 55 H      -13.1320     1.6240    -0.6660 H     1 <1>   0.0800 
 56 H      -13.8600     0.9190    -2.0950 H     1 <1>   0.0800 
 57 H      -12.1410     1.2080    -2.0490 H     1 <1>   0.0800 
 58 H      -14.3080    -0.3270     0.5880 H     1 <1>   0.0800 
 59 H      -13.9980    -1.9580     0.0290 H     1 <1>   0.0800 
 60 H      -14.8720    -0.8420    -0.9880 H     1 <1>   0.0800 
@<TRIPOS>BOND
  1   1   2  ar  
  2   2   3  ar  
  3   2   4  1   
  4   4   5  1   
  5   4  28  1   
  6   4  29  1   
  7   5   6  1   
  8   6   7  ar  
  9   6   8  ar  
 10   7   9  1   
 11   7  10  ar  
 12   8  11  ar  
 13   8  30  1   
 14   9  12  1   
 15  10  13  ar  
 16  10  31  1   
 17  11  13  ar  
 18  11  14  1   
 19  12  32  1   
 20  12  33  1   
 21  12  34  1   
 22  13  35  1   
 23  14  15  1   
 24  14  36  1   
 25  14  37  1   
 26  15  16  1   
 27  15  17  1   
 28  15  38  1   
 29  16  18  1   
 30  16  19  1   
 31  16  39  1   
 32  17  40  1   
 33  17  41  1   
 34  17  42  1   
 35  18  20  1   
 36  18  43  1   
 37  18  44  1   
 38  19  21  1   
 39  19  45  1   
 40  19  46  1   
 41  20  21  1   
 42  20  22  1   
 43  20  47  1   
 44  21  23  1   
 45  21  48  1   
 46  22  24  1   
 47  22  49  1   
 48  22  50  1   
 49  23  24  1   
 50  23  51  1   
 51  23  52  1   
 52  24  25  1   
 53  24  53  1   
 54  25  26  1   
 55  25  27  1   
 56  25  54  1   
 57  26  55  1   
 58  26  56  1   
 59  26  57  1   
 60  27  58  1   
 61  27  59  1   
 62  27  60  1   
@<TRIPOS>SUBSTRUCTURE
  1 ****  18 GROUP 4 **** **** 0

# MOE 2024.06 (io_trps.svl 2023.06)
