@<TRIPOS>MOLECULE
NONAME
50 52 1 0 0 
SMALL
USER_CHARGES


@<TRIPOS>ATOM
  1 O       -2.5100     2.4940    -1.8670 O.2   1 <1>  -0.5700 
  2 C       -2.2720     1.6980    -0.9720 C.2   1 <1>   0.5440 
  3 N       -3.1720     0.6600    -0.7810 N.am  1 <1>  -0.6600 
  4 C       -1.0490     1.8650    -0.1820 C.ar  1 <1>   0.3960 
  5 C       -2.8490    -0.5310     0.0890 C.3   1 <1>   0.3640 
  6 C       -4.5800     0.8150    -1.2520 C.3   1 <1>   0.1400 
  7 N       -1.1140     1.8620     1.1610 N.ar  1 <1>  -0.6200 
  8 C        0.1600     2.0050    -0.8630 C.ar  1 <1>  -0.1500 
  9 C       -1.4880    -1.0950    -0.3400 C.ar  1 <1>  -0.1440 
 10 C       -3.8990    -1.6860     0.0590 C.3   1 <1>   0.2000 
 11 C       -5.2730    -0.5320    -1.4490 C.3   1 <1>   0.1200 
 12 C        0.0290     1.9650     1.8010 C.ar  1 <1>   0.4100 
 13 C        1.3510     2.1200    -0.1770 C.ar  1 <1>  -0.1500 
 14 C       -0.4870    -1.2860     0.6030 C.ar  1 <1>  -0.1500 
 15 C       -1.2270    -1.4050    -1.6690 C.ar  1 <1>  -0.1500 
 16 O       -5.1950    -1.2610    -0.2680 O.3   1 <1>  -0.5600 
 17 C       -4.0260    -2.4150     1.4070 C.3   1 <1>   0.1200 
 18 N       -0.0850     1.9170     3.1510 N.pl3 1 <1>  -0.9000 
 19 C        1.2700     2.0930     1.1920 C.ar  1 <1>  -0.1500 
 20 C        0.7560    -1.7700     0.2340 C.ar  1 <1>   0.0830 
 21 C        0.0150    -1.8840    -2.0500 C.ar  1 <1>  -0.1500 
 22 O       -2.8030    -2.9060     1.8530 O.3   1 <1>  -0.6800 
 23 O        1.6740    -1.9490     1.2150 O.3   1 <1>  -0.3630 
 24 C        1.0170    -2.0530    -1.1100 C.ar  1 <1>   0.0830 
 25 C        2.0120    -3.2860     1.5090 C.3   1 <1>   0.0400 
 26 O        2.2230    -2.4870    -1.5520 O.3   1 <1>  -0.3630 
 27 C        3.3000    -1.5870    -1.4180 C.3   1 <1>   0.0400 
 28 H       -2.7800    -0.1810     1.1050 H     1 <1>   0.0800 
 29 H       -5.1290     1.3910    -0.5270 H     1 <1>   0.0800 
 30 H       -4.6010     1.3530    -2.1840 H     1 <1>   0.0800 
 31 H        0.1530     2.0140    -1.9380 H     1 <1>   0.1500 
 32 H       -3.6160    -2.4050    -0.6890 H     1 <1>   0.0800 
 33 H       -4.8180    -1.0910    -2.2480 H     1 <1>   0.0800 
 34 H       -6.3140    -0.3810    -1.6760 H     1 <1>   0.0800 
 35 H        2.2910     2.2240    -0.6900 H     1 <1>   0.1500 
 36 H       -0.6640    -1.0570     1.6390 H     1 <1>   0.1500 
 37 H       -1.9890    -1.2610    -2.4160 H     1 <1>   0.1500 
 38 H       -4.7040    -3.2450     1.3170 H     1 <1>   0.0800 
 39 H       -4.3940    -1.7370     2.1580 H     1 <1>   0.0800 
 40 H       -1.0420     1.7290     3.4510 H     1 <1>   0.4000 
 41 H        0.6020     1.3460     3.6420 H     1 <1>   0.4000 
 42 H        2.1500     2.1740     1.8010 H     1 <1>   0.1500 
 43 H        0.2160    -2.1180    -3.0790 H     1 <1>   0.1500 
 44 H       -2.4120    -3.5240     1.2020 H     1 <1>   0.4000 
 45 H        2.6960    -3.2860     2.3370 H     1 <1>   0.0800 
 46 H        2.4760    -3.7330     0.6480 H     1 <1>   0.0800 
 47 H        1.1150    -3.8190     1.7710 H     1 <1>   0.0800 
 48 H        4.1500    -2.0020    -1.9290 H     1 <1>   0.0800 
 49 H        3.5280    -1.4550    -0.3760 H     1 <1>   0.0800 
 50 H        3.0250    -0.6460    -1.8620 H     1 <1>   0.0800 
@<TRIPOS>BOND
  1   1   2  2   
  2   2   3  am  
  3   2   4  1   
  4   3   5  1   
  5   3   6  1   
  6   4   7  ar  
  7   4   8  ar  
  8   5   9  1   
  9   5  10  1   
 10   5  28  1   
 11   6  11  1   
 12   6  29  1   
 13   6  30  1   
 14   7  12  ar  
 15   8  13  ar  
 16   8  31  1   
 17   9  14  ar  
 18   9  15  ar  
 19  10  16  1   
 20  10  17  1   
 21  10  32  1   
 22  11  16  1   
 23  11  33  1   
 24  11  34  1   
 25  12  18  1   
 26  12  19  ar  
 27  13  19  ar  
 28  13  35  1   
 29  14  20  ar  
 30  14  36  1   
 31  15  21  ar  
 32  15  37  1   
 33  17  22  1   
 34  17  38  1   
 35  17  39  1   
 36  18  40  1   
 37  18  41  1   
 38  19  42  1   
 39  20  23  1   
 40  20  24  ar  
 41  21  24  ar  
 42  21  43  1   
 43  22  44  1   
 44  23  25  1   
 45  24  26  1   
 46  25  45  1   
 47  25  46  1   
 48  25  47  1   
 49  26  27  1   
 50  27  48  1   
 51  27  49  1   
 52  27  50  1   
@<TRIPOS>SUBSTRUCTURE
  1 ****   9 GROUP 4 **** **** 0

# MOE 2024.06 (io_trps.svl 2023.06)
