@<TRIPOS>MOLECULE
NONAME
40 41 1 0 0 
SMALL
USER_CHARGES


@<TRIPOS>ATOM
  1 N       -0.0720     0.1250    -0.0280 N.ar  1 <1>  -0.6200 
  2 C       -1.3030     0.5630    -0.1870 C.ar  1 <1>   0.4100 
  3 C        0.8030     1.0060     0.4070 C.ar  1 <1>   0.4760 
  4 N       -2.2270    -0.3430    -0.6380 N.pl3 1 <1>  -0.8690 
  5 C       -1.6510     1.8800     0.0900 C.ar  1 <1>  -0.1430 
  6 N        0.5970     2.2730     0.7090 N.ar  1 <1>  -0.6200 
  7 C        2.2180     0.5120     0.5910 C.3   1 <1>  -0.0970 
  8 C       -1.9760    -1.7920    -0.6780 C.3   1 <1>   0.3900 
  9 C       -0.6410     2.6940     0.5430 C.ar  1 <1>   0.1600 
 10 C       -3.0930     2.3560    -0.1140 C.3   1 <1>  -0.0160 
 11 C       -3.3020    -2.4770    -0.9220 C.2   1 <1>  -0.1810 
 12 C       -3.3350     3.8480     0.1500 C.3   1 <1>  -0.2400 
 13 C       -4.0350    -2.4240    -2.1010 C.2   1 <1>   0.1390 
 14 C       -4.0430    -3.2480    -0.0960 C.2   1 <1>  -0.3020 
 15 N       -5.1400    -3.1010    -2.0240 N.2   1 <1>  -0.7070 
 16 N       -5.1460    -3.6140    -0.7800 N.pl3 1 <1>   0.3140 
 17 C       -6.2490    -4.4620    -0.2880 C.3   1 <1>   0.0960 
 18 C       -7.2340    -3.6440     0.5580 C.3   1 <1>  -0.1600 
 19 C       -8.3860    -4.5150     1.0720 C.3   1 <1>  -0.2400 
 20 H       -3.2150    -0.1240    -0.5160 H     1 <1>   0.4000 
 21 H        2.3490    -0.4410     0.1130 H     1 <1>   0.0800 
 22 H        2.4250     0.4130     1.6400 H     1 <1>   0.0800 
 23 H        2.9050     1.2160     0.1600 H     1 <1>   0.0800 
 24 H       -1.5560    -2.1160     0.2590 H     1 <1>   0.0800 
 25 H       -1.2820    -2.0180    -1.4690 H     1 <1>   0.0800 
 26 H       -0.8270     3.7250     0.7810 H     1 <1>   0.1500 
 27 H       -3.7370     1.7870     0.5330 H     1 <1>   0.0800 
 28 H       -3.3810     2.1430    -1.1300 H     1 <1>   0.0800 
 29 H       -3.1140     4.0910     1.1740 H     1 <1>   0.0800 
 30 H       -4.3670     4.0870    -0.0380 H     1 <1>   0.0800 
 31 H       -2.7240     4.4500    -0.5000 H     1 <1>   0.0800 
 32 H       -3.7300    -1.8830    -2.9820 H     1 <1>   0.1500 
 33 H       -3.8540    -3.5490     0.9180 H     1 <1>   0.1500 
 34 H       -5.8300    -5.2630     0.2920 H     1 <1>   0.0800 
 35 H       -6.7530    -4.8810    -1.1400 H     1 <1>   0.0800 
 36 H       -7.6360    -2.8450    -0.0440 H     1 <1>   0.0800 
 37 H       -6.7170    -3.2110     1.3970 H     1 <1>   0.0800 
 38 H       -8.9330    -4.9410     0.2480 H     1 <1>   0.0800 
 39 H       -9.0650    -3.9180     1.6570 H     1 <1>   0.0800 
 40 H       -8.0130    -5.3120     1.6910 H     1 <1>   0.0800 
@<TRIPOS>BOND
  1   1   2  ar  
  2   1   3  ar  
  3   2   4  1   
  4   2   5  ar  
  5   3   6  ar  
  6   3   7  1   
  7   4   8  1   
  8   4  20  1   
  9   5   9  ar  
 10   5  10  1   
 11   6   9  ar  
 12   7  21  1   
 13   7  22  1   
 14   7  23  1   
 15   8  11  1   
 16   8  24  1   
 17   8  25  1   
 18   9  26  1   
 19  10  12  1   
 20  10  27  1   
 21  10  28  1   
 22  11  13  1   
 23  11  14  2   
 24  12  29  1   
 25  12  30  1   
 26  12  31  1   
 27  13  15  2   
 28  13  32  1   
 29  14  16  1   
 30  14  33  1   
 31  15  16  1   
 32  16  17  1   
 33  17  18  1   
 34  17  34  1   
 35  17  35  1   
 36  18  19  1   
 37  18  36  1   
 38  18  37  1   
 39  19  38  1   
 40  19  39  1   
 41  19  40  1   
@<TRIPOS>SUBSTRUCTURE
  1 ****   4 GROUP 4 **** **** 0

# MOE 2024.06 (io_trps.svl 2023.06)
