@<TRIPOS>MOLECULE
NONAME
53 55 1 0 0 
SMALL
USER_CHARGES


@<TRIPOS>ATOM
  1 O        1.9160     0.4910     0.0430 O.2   1 <1>  -0.5700 
  2 C        2.6580    -0.4650    -0.0460 C.2   1 <1>   0.5690 
  3 N        3.9840    -0.2880    -0.3710 N.am  1 <1>  -0.6600 
  4 C        2.0960    -1.8800     0.2510 C.3   1 <1>   0.2610 
  5 C        4.9810    -1.3930    -0.5570 C.3   1 <1>   0.1400 
  6 C        4.5420     1.0730    -0.6040 C.3   1 <1>   0.1400 
  7 O        2.0700    -2.6740    -0.9040 O.3   1 <1>  -0.5600 
  8 C        0.6440    -1.9300     0.7330 C.3   1 <1>  -0.1600 
  9 C        5.9510    -1.5170     0.6300 C.3   1 <1>   0.1400 
 10 C        5.0240     1.7060     0.7080 C.3   1 <1>  -0.1600 
 11 C        0.8890    -2.4440    -1.6040 C.3   1 <1>   0.1200 
 12 C       -0.1530    -2.0580    -0.5560 C.3   1 <1>  -0.1600 
 13 N        6.6230    -0.2170     0.9450 N.am  1 <1>  -0.6600 
 14 C        5.7440     0.7490     1.6690 C.3   1 <1>   0.1400 
 15 C        7.8990     0.0330     0.5040 C.2   1 <1>   0.5690 
 16 O        8.5430    -0.8080    -0.0790 O.2   1 <1>  -0.5700 
 17 C        8.5570     1.3870     0.6820 C.3   1 <1>  -0.0990 
 18 C        8.4950     2.1800    -0.6260 C.3   1 <1>   0.0210 
 19 C        8.8350     3.6340    -0.3750 C.2   1 <1>   0.1080 
 20 N        7.9460     4.4700     0.0630 N.2   1 <1>  -0.7070 
 21 C       10.0810     4.2320    -0.5600 C.2   1 <1>  -0.1810 
 22 N        8.6040     5.6380     0.1640 N.pl3 1 <1>   0.3000 
 23 C        9.8970     5.5240    -0.2050 C.2   1 <1>  -0.3320 
 24 C       11.3380     3.5380    -1.0530 C.3   1 <1>  -0.0590 
 25 C       10.8630     6.6970    -0.1830 C.3   1 <1>  -0.0600 
 26 H        2.7380    -2.3560     0.9680 H     1 <1>   0.0800 
 27 H        4.4850    -2.3350    -0.6990 H     1 <1>   0.0800 
 28 H        5.5520    -1.2090    -1.4500 H     1 <1>   0.0800 
 29 H        5.3660     1.0060    -1.2930 H     1 <1>   0.0800 
 30 H        3.7950     1.7040    -1.0550 H     1 <1>   0.0800 
 31 H        0.5110    -2.8110     1.3370 H     1 <1>   0.0800 
 32 H        0.3670    -1.0670     1.3120 H     1 <1>   0.0800 
 33 H        6.6880    -2.2650     0.3960 H     1 <1>   0.0800 
 34 H        5.4150    -1.8640     1.4960 H     1 <1>   0.0800 
 35 H        5.6690     2.5340     0.4770 H     1 <1>   0.0800 
 36 H        4.1730     2.1170     1.2190 H     1 <1>   0.0800 
 37 H        1.0610    -1.6360    -2.2950 H     1 <1>   0.0800 
 38 H        0.6230    -3.3390    -2.1380 H     1 <1>   0.0800 
 39 H       -0.6050    -1.1190    -0.8260 H     1 <1>   0.0800 
 40 H       -0.9200    -2.8080    -0.4750 H     1 <1>   0.0800 
 41 H        5.0000     0.1960     2.2160 H     1 <1>   0.0800 
 42 H        6.3080     1.3060     2.3950 H     1 <1>   0.0800 
 43 H        8.0940     1.9490     1.4660 H     1 <1>   0.0800 
 44 H        9.5840     1.2400     0.9580 H     1 <1>   0.0800 
 45 H        7.5040     2.1350    -1.0380 H     1 <1>   0.0800 
 46 H        9.1670     1.7530    -1.3480 H     1 <1>   0.0800 
 47 H        8.1440     6.4970     0.4870 H     1 <1>   0.2700 
 48 H       11.5490     2.6840    -0.4360 H     1 <1>   0.0800 
 49 H       12.1830     4.2000    -1.0190 H     1 <1>   0.0800 
 50 H       11.1990     3.2110    -2.0680 H     1 <1>   0.0800 
 51 H       11.8350     6.4010    -0.5320 H     1 <1>   0.0800 
 52 H       10.9620     7.0740     0.8190 H     1 <1>   0.0800 
 53 H       10.5010     7.4850    -0.8200 H     1 <1>   0.0800 
@<TRIPOS>BOND
  1   1   2  2   
  2   2   3  am  
  3   2   4  1   
  4   3   5  1   
  5   3   6  1   
  6   4   7  1   
  7   4   8  1   
  8   4  26  1   
  9   5   9  1   
 10   5  27  1   
 11   5  28  1   
 12   6  10  1   
 13   6  29  1   
 14   6  30  1   
 15   7  11  1   
 16   8  12  1   
 17   8  31  1   
 18   8  32  1   
 19   9  13  1   
 20   9  33  1   
 21   9  34  1   
 22  10  14  1   
 23  10  35  1   
 24  10  36  1   
 25  11  12  1   
 26  11  37  1   
 27  11  38  1   
 28  12  39  1   
 29  12  40  1   
 30  13  14  1   
 31  13  15  am  
 32  14  41  1   
 33  14  42  1   
 34  15  16  2   
 35  15  17  1   
 36  17  18  1   
 37  17  43  1   
 38  17  44  1   
 39  18  19  1   
 40  18  45  1   
 41  18  46  1   
 42  19  20  2   
 43  19  21  1   
 44  20  22  1   
 45  21  23  2   
 46  21  24  1   
 47  22  23  1   
 48  22  47  1   
 49  23  25  1   
 50  24  48  1   
 51  24  49  1   
 52  24  50  1   
 53  25  51  1   
 54  25  52  1   
 55  25  53  1   
@<TRIPOS>SUBSTRUCTURE
  1 ****  10 GROUP 4 **** **** 0

# MOE 2024.06 (io_trps.svl 2023.06)
