@<TRIPOS>MOLECULE
NONAME
57 61 1 0 0 
SMALL
USER_CHARGES


@<TRIPOS>ATOM
  1 O       -0.4720     0.5090     1.3030 O.3   1 <1>  -0.5600 
  2 C        0.1540     1.0140     0.1570 C.3   1 <1>   0.1200 
  3 C       -1.7160     1.1140     1.5010 C.3   1 <1>   0.1200 
  4 C       -0.6980     2.1800    -0.3440 C.3   1 <1>   0.2890 
  5 C       -2.0720     1.8260     0.1950 C.3   1 <1>  -0.0800 
  6 N       -0.2490     3.4460     0.2900 N.pl3 1 <1>  -0.8690 
  7 C       -2.8440     0.9130    -0.7790 C.3   1 <1>  -0.0170 
  8 C        0.0970     4.5860    -0.3930 C.ar  1 <1>   0.4100 
  9 C       -4.2350     0.5680    -0.2550 C.ar  1 <1>  -0.1430 
 10 N       -0.1940     4.6550    -1.6780 N.ar  1 <1>  -0.6200 
 11 C        0.7260     5.6220     0.2510 C.ar  1 <1>  -0.1500 
 12 C       -5.3090     1.4900    -0.2840 C.ar  1 <1>   0.0000 
 13 C       -4.4800    -0.6680     0.2670 C.ar  1 <1>  -0.1500 
 14 C        0.1710     5.7720    -2.2760 C.ar  1 <1>   0.4700 
 15 C        1.0540     6.7430    -0.4730 C.ar  1 <1>   0.4100 
 16 C       -6.5530     1.0670     0.2450 C.ar  1 <1>   0.3100 
 17 C       -5.2230     2.8010    -0.8080 C.ar  1 <1>  -0.1500 
 18 C       -5.7510    -0.9870     0.7590 C.ar  1 <1>   0.1600 
 19 N        0.7780     6.8220    -1.7620 N.ar  1 <1>  -0.6200 
 20 N        1.6780     7.8240     0.1220 N.pl3 1 <1>  -0.8380 
 21 N       -6.7570    -0.1710     0.7620 N.ar  1 <1>  -0.6200 
 22 C       -7.6330     1.9640     0.2390 C.ar  1 <1>  -0.1500 
 23 C       -6.2970     3.6500    -0.8000 C.ar  1 <1>  -0.1500 
 24 C        2.6260     8.6720    -0.6540 C.3   1 <1>   0.2090 
 25 C        1.0650     8.4730     1.3110 C.3   1 <1>   0.2090 
 26 C       -7.5180     3.2290    -0.2690 C.ar  1 <1>  -0.1500 
 27 C        1.9360     9.9680    -1.0810 C.3   1 <1>  -0.1600 
 28 C        0.3630     9.7630     0.8860 C.3   1 <1>  -0.1600 
 29 C        1.3310    10.6730     0.1310 C.3   1 <1>   0.2000 
 30 O        0.6380    11.7790    -0.3080 O.3   1 <1>  -0.6800 
 31 H        1.1580     1.3150     0.3960 H     1 <1>   0.0800 
 32 H        0.1760     0.2250    -0.5730 H     1 <1>   0.0800 
 33 H       -2.4330     0.3670     1.7910 H     1 <1>   0.0800 
 34 H       -1.6050     1.8280     2.2990 H     1 <1>   0.0800 
 35 H       -0.6750     2.2520    -1.4180 H     1 <1>   0.0800 
 36 H       -2.6490     2.7120     0.3900 H     1 <1>   0.0800 
 37 H        0.1050     3.3260     1.2410 H     1 <1>   0.4000 
 38 H       -2.2880     0.0050    -0.9380 H     1 <1>   0.0800 
 39 H       -2.9360     1.3930    -1.7380 H     1 <1>   0.0800 
 40 H        0.9640     5.5590     1.2900 H     1 <1>   0.1500 
 41 H       -3.7150    -1.4210     0.3190 H     1 <1>   0.1500 
 42 H       -0.0580     5.8350    -3.3260 H     1 <1>   0.1500 
 43 H       -4.2960     3.1460    -1.2250 H     1 <1>   0.1500 
 44 H       -5.9000    -1.9740     1.1630 H     1 <1>   0.1500 
 45 H       -8.5630     1.6170     0.6510 H     1 <1>   0.1500 
 46 H       -6.2150     4.6460    -1.2000 H     1 <1>   0.1500 
 47 H        3.4790     8.8960    -0.0370 H     1 <1>   0.0800 
 48 H        2.9770     8.1390    -1.5220 H     1 <1>   0.0800 
 49 H        0.3510     7.8130     1.7730 H     1 <1>   0.0800 
 50 H        1.8370     8.6910     2.0300 H     1 <1>   0.0800 
 51 H       -8.3550     3.9050    -0.2660 H     1 <1>   0.1500 
 52 H        1.1690     9.7220    -1.7940 H     1 <1>   0.0800 
 53 H        2.6560    10.6110    -1.5550 H     1 <1>   0.0800 
 54 H       -0.0040    10.2710     1.7590 H     1 <1>   0.0800 
 55 H       -0.4700     9.5040     0.2580 H     1 <1>   0.0800 
 56 H        2.1110    11.0160     0.7910 H     1 <1>   0.0800 
 57 H       -0.0560    11.4980    -0.9340 H     1 <1>   0.4000 
@<TRIPOS>BOND
  1   1   2  1   
  2   1   3  1   
  3   2   4  1   
  4   2  31  1   
  5   2  32  1   
  6   3   5  1   
  7   3  33  1   
  8   3  34  1   
  9   4   5  1   
 10   4   6  1   
 11   4  35  1   
 12   5   7  1   
 13   5  36  1   
 14   6   8  1   
 15   6  37  1   
 16   7   9  1   
 17   7  38  1   
 18   7  39  1   
 19   8  10  ar  
 20   8  11  ar  
 21   9  12  ar  
 22   9  13  ar  
 23  10  14  ar  
 24  11  15  ar  
 25  11  40  1   
 26  12  16  ar  
 27  12  17  ar  
 28  13  18  ar  
 29  13  41  1   
 30  14  19  ar  
 31  14  42  1   
 32  15  19  ar  
 33  15  20  1   
 34  16  21  ar  
 35  16  22  ar  
 36  17  23  ar  
 37  17  43  1   
 38  18  21  ar  
 39  18  44  1   
 40  20  24  1   
 41  20  25  1   
 42  22  26  ar  
 43  22  45  1   
 44  23  26  ar  
 45  23  46  1   
 46  24  27  1   
 47  24  47  1   
 48  24  48  1   
 49  25  28  1   
 50  25  49  1   
 51  25  50  1   
 52  26  51  1   
 53  27  29  1   
 54  27  52  1   
 55  27  53  1   
 56  28  29  1   
 57  28  54  1   
 58  28  55  1   
 59  29  30  1   
 60  29  56  1   
 61  30  57  1   
@<TRIPOS>SUBSTRUCTURE
  1 ****   6 GROUP 4 **** **** 0

# MOE 2024.06 (io_trps.svl 2023.06)
