@<TRIPOS>MOLECULE
NONAME
50 51 1 0 0 
SMALL
USER_CHARGES


@<TRIPOS>ATOM
  1 S        1.0150     1.5000    -0.1650 S.o2  1 <1>   1.3330 
  2 O        0.3570     0.5900    -1.0760 O.2   1 <1>  -0.6500 
  3 O        0.3420     2.7130     0.2410 O.2   1 <1>  -0.6500 
  4 N        1.3840     0.6330     1.2480 N.am  1 <1>  -0.8490 
  5 C        2.6120     1.9190    -0.8620 C.3   1 <1>  -0.0550 
  6 C        0.2440    -0.1660     1.7060 C.3   1 <1>   0.1160 
  7 C        1.8630     1.4860     2.3410 C.3   1 <1>   0.1160 
  8 C        3.4560     0.7180    -1.3440 C.3   1 <1>  -0.0800 
  9 C        4.7210     1.1010    -2.1030 C.3   1 <1>   0.2200 
 10 C        3.9900    -0.1810    -0.2210 C.3   1 <1>   0.1200 
 11 N        5.3670     2.2660    -1.4590 N.am  1 <1>  -0.7300 
 12 C        5.5790    -0.1340    -1.8710 C.3   1 <1>   0.1200 
 13 O        5.3010    -0.5270    -0.5630 O.3   1 <1>  -0.5600 
 14 C        5.2910     3.5460    -1.9010 C.2   1 <1>   0.5690 
 15 O        4.8340     3.8180    -2.9840 O.2   1 <1>  -0.5700 
 16 C        5.7510     4.6610    -0.9800 C.3   1 <1>   0.0440 
 17 C        5.1130     4.5300     0.4050 C.ar  1 <1>  -0.1440 
 18 C        3.8150     4.9620     0.6640 C.ar  1 <1>  -0.1440 
 19 C        5.8540     3.9500     1.4250 C.ar  1 <1>  -0.1500 
 20 C        3.2900     4.8130     1.9380 C.ar  1 <1>  -0.1500 
 21 C        2.9400     5.6010    -0.4080 C.3   1 <1>  -0.0970 
 22 C        5.3240     3.7960     2.6940 C.ar  1 <1>  -0.1440 
 23 C        4.0380     4.2370     2.9480 C.ar  1 <1>  -0.1500 
 24 C        6.1570     3.1570     3.7910 C.3   1 <1>  -0.0970 
 25 H        2.4480     2.5650    -1.7030 H     1 <1>   0.0800 
 26 H        3.1670     2.4780    -0.1370 H     1 <1>   0.0800 
 27 H        0.5090    -0.7220     2.5890 H     1 <1>   0.0800 
 28 H       -0.0460    -0.8670     0.9420 H     1 <1>   0.0800 
 29 H       -0.5960     0.4720     1.9260 H     1 <1>   0.0800 
 30 H        2.1240     0.8830     3.1940 H     1 <1>   0.0800 
 31 H        1.1040     2.1950     2.6310 H     1 <1>   0.0800 
 32 H        2.7410     2.0250     2.0320 H     1 <1>   0.0800 
 33 H        2.8490     0.1090    -1.9920 H     1 <1>   0.0800 
 34 H        4.5440     1.2900    -3.1490 H     1 <1>   0.0800 
 35 H        3.4050    -1.0790    -0.1160 H     1 <1>   0.0800 
 36 H        4.0320     0.3360     0.7220 H     1 <1>   0.0800 
 37 H        5.6940     2.0810    -0.5070 H     1 <1>   0.3700 
 38 H        6.6310     0.0630    -1.9780 H     1 <1>   0.0800 
 39 H        5.2830    -0.9340    -2.5270 H     1 <1>   0.0800 
 40 H        6.8210     4.6200    -0.9060 H     1 <1>   0.0800 
 41 H        5.4980     5.6090    -1.4160 H     1 <1>   0.0800 
 42 H        6.8590     3.6140     1.2360 H     1 <1>   0.1500 
 43 H        2.2900     5.1480     2.1520 H     1 <1>   0.1500 
 44 H        1.9190     5.6750    -0.0770 H     1 <1>   0.0800 
 45 H        2.9470     5.0170    -1.3100 H     1 <1>   0.0800 
 46 H        3.2970     6.5900    -0.6310 H     1 <1>   0.0800 
 47 H        3.6140     4.1390     3.9310 H     1 <1>   0.1500 
 48 H        5.5480     2.9110     4.6410 H     1 <1>   0.0800 
 49 H        6.9270     3.8390     4.1050 H     1 <1>   0.0800 
 50 H        6.6180     2.2560     3.4290 H     1 <1>   0.0800 
@<TRIPOS>BOND
  1   1   2  2   
  2   1   3  2   
  3   1   4  am  
  4   1   5  1   
  5   4   6  1   
  6   4   7  1   
  7   5   8  1   
  8   5  25  1   
  9   5  26  1   
 10   6  27  1   
 11   6  28  1   
 12   6  29  1   
 13   7  30  1   
 14   7  31  1   
 15   7  32  1   
 16   8   9  1   
 17   8  10  1   
 18   8  33  1   
 19   9  11  1   
 20   9  12  1   
 21   9  34  1   
 22  10  13  1   
 23  10  35  1   
 24  10  36  1   
 25  11  14  am  
 26  11  37  1   
 27  12  13  1   
 28  12  38  1   
 29  12  39  1   
 30  14  15  2   
 31  14  16  1   
 32  16  17  1   
 33  16  40  1   
 34  16  41  1   
 35  17  18  ar  
 36  17  19  ar  
 37  18  20  ar  
 38  18  21  1   
 39  19  22  ar  
 40  19  42  1   
 41  20  23  ar  
 42  20  43  1   
 43  21  44  1   
 44  21  45  1   
 45  21  46  1   
 46  22  23  ar  
 47  22  24  1   
 48  23  47  1   
 49  24  48  1   
 50  24  49  1   
 51  24  50  1   
@<TRIPOS>SUBSTRUCTURE
  1 ****   5 GROUP 4 **** **** 0

# MOE 2024.06 (io_trps.svl 2023.06)
