@<TRIPOS>MOLECULE
NONAME
30 31 1 0 0 
SMALL
USER_CHARGES


@<TRIPOS>ATOM
  1 CL      -2.4210    -1.5300    -2.7880 Cl    1 <1>  -0.1230 
  2 C       -2.6490    -0.3670    -1.4920 C.2   1 <1>   0.1230 
  3 C       -3.0980    -0.6460    -0.1970 C.2   1 <1>   0.2030 
  4 C       -2.4450     0.9570    -1.5760 C.2   1 <1>  -0.3020 
  5 N       -3.1710     0.4890     0.4860 N.2   1 <1>  -0.7070 
  6 C       -3.4260    -1.9840     0.2710 C.2   1 <1>   0.7160 
  7 N       -2.7670     1.4510    -0.3650 N.pl3 1 <1>   0.3000 
  8 O       -2.6990    -2.9250    -0.0120 O.2   1 <1>  -0.5700 
  9 N       -4.5700    -2.2640     0.9970 N.am  1 <1>  -0.6600 
 10 C       -4.8240    -3.6400     1.5120 C.3   1 <1>   0.3200 
 11 C       -5.7390    -1.3360     1.0700 C.3   1 <1>   0.1400 
 12 C       -5.4700    -4.4840     0.4290 C.2   1 <1>   0.0060 
 13 C       -6.4920    -1.2970    -0.2660 C.3   1 <1>   0.1200 
 14 N       -6.6910    -4.9160     0.4480 N.2   1 <1>  -0.5650 
 15 N       -4.7870    -4.8400    -0.6800 N.pl3 1 <1>   0.0330 
 16 O       -7.6380    -0.5300    -0.1250 O.3   1 <1>  -0.6800 
 17 C       -6.8090    -5.5930    -0.7110 C.2   1 <1>   0.0770 
 18 C       -5.6560    -5.5560    -1.4150 C.2   1 <1>  -0.3020 
 19 H       -2.1060     1.5550    -2.4010 H     1 <1>   0.1500 
 20 H       -2.7240     2.4420    -0.0910 H     1 <1>   0.2700 
 21 H       -5.4710    -3.5990     2.3710 H     1 <1>   0.0800 
 22 H       -3.8990    -4.0960     1.8210 H     1 <1>   0.0800 
 23 H       -5.4060    -0.3450     1.3250 H     1 <1>   0.0800 
 24 H       -6.4090    -1.6680     1.8440 H     1 <1>   0.0800 
 25 H       -6.7880    -2.2840    -0.5780 H     1 <1>   0.0800 
 26 H       -5.8850    -0.8410    -1.0280 H     1 <1>   0.0800 
 27 H       -3.8160    -4.5710    -0.8900 H     1 <1>   0.2700 
 28 H       -8.3230    -1.0280     0.3640 H     1 <1>   0.4000 
 29 H       -7.7320    -6.0790    -0.9830 H     1 <1>   0.1500 
 30 H       -5.4130    -5.9860    -2.3690 H     1 <1>   0.1500 
@<TRIPOS>BOND
  1   1   2  1   
  2   2   3  1   
  3   2   4  2   
  4   3   5  2   
  5   3   6  1   
  6   4   7  1   
  7   4  19  1   
  8   5   7  1   
  9   6   8  2   
 10   6   9  am  
 11   7  20  1   
 12   9  10  1   
 13   9  11  1   
 14  10  12  1   
 15  10  21  1   
 16  10  22  1   
 17  11  13  1   
 18  11  23  1   
 19  11  24  1   
 20  12  14  2   
 21  12  15  1   
 22  13  16  1   
 23  13  25  1   
 24  13  26  1   
 25  14  17  1   
 26  15  18  1   
 27  15  27  1   
 28  16  28  1   
 29  17  18  2   
 30  17  29  1   
 31  18  30  1   
@<TRIPOS>SUBSTRUCTURE
  1 ****   6 GROUP 4 **** **** 0

# MOE 2024.06 (io_trps.svl 2023.06)
