@<TRIPOS>MOLECULE
NONAME
35 36 1 0 0 
SMALL
USER_CHARGES


@<TRIPOS>ATOM
  1 N       -0.6140    -0.9700     1.5360 N.ar  1 <1>  -0.6200 
  2 C       -1.6470    -1.2380     0.7560 C.ar  1 <1>   0.4100 
  3 C       -0.1720    -2.0450     2.1750 C.ar  1 <1>   0.1600 
  4 N       -2.1940    -0.1510     0.0540 N.pl3 1 <1>  -0.8380 
  5 C       -2.2070    -2.5520     0.6240 C.ar  1 <1>   0.4100 
  6 C       -0.7150    -3.3100     2.0470 C.ar  1 <1>   0.1600 
  7 C       -3.3860     0.4640     0.6940 C.3   1 <1>   0.1290 
  8 C       -1.2430     0.8540    -0.4950 C.3   1 <1>   0.1290 
  9 N       -1.7470    -3.6120     1.2670 N.ar  1 <1>  -0.6200 
 10 N       -3.2920    -2.7520    -0.2220 N.pl3 1 <1>  -0.8690 
 11 C       -3.4200    -4.0070    -0.9990 C.3   1 <1>   0.2090 
 12 C       -4.3850    -4.9520    -0.2860 C.3   1 <1>   0.0200 
 13 C       -4.1710    -6.3760    -0.7630 C.2   1 <1>   0.0060 
 14 N       -4.8860    -6.9560    -1.6590 N.2   1 <1>  -0.5650 
 15 N       -3.2040    -7.1860    -0.3100 N.pl3 1 <1>   0.3140 
 16 C       -4.3040    -8.1600    -1.7240 C.2   1 <1>   0.3660 
 17 N       -3.2940    -8.3470    -0.9400 N.2   1 <1>  -0.7070 
 18 C       -2.1630    -6.9200     0.6950 C.3   1 <1>   0.0160 
 19 H        0.6660    -1.9030     2.8330 H     1 <1>   0.1500 
 20 H       -0.2830    -4.1150     2.6130 H     1 <1>   0.1500 
 21 H       -4.0230    -0.3000     1.1060 H     1 <1>   0.0800 
 22 H       -3.9440     1.0260    -0.0340 H     1 <1>   0.0800 
 23 H       -3.0750     1.1210     1.4890 H     1 <1>   0.0800 
 24 H       -0.3820     0.3540    -0.9060 H     1 <1>   0.0800 
 25 H       -0.9160     1.5180     0.2870 H     1 <1>   0.0800 
 26 H       -1.7180     1.4240    -1.2740 H     1 <1>   0.0800 
 27 H       -3.4220    -1.9020    -0.7880 H     1 <1>   0.4000 
 28 H       -2.4520    -4.4680    -1.0960 H     1 <1>   0.0800 
 29 H       -3.7860    -3.7940    -1.9880 H     1 <1>   0.0800 
 30 H       -5.3960    -4.6500    -0.4930 H     1 <1>   0.0800 
 31 H       -4.2310    -4.9050     0.7770 H     1 <1>   0.0800 
 32 H       -4.6750    -8.9130    -2.4000 H     1 <1>   0.1500 
 33 H       -2.6070    -6.4670     1.5610 H     1 <1>   0.0800 
 34 H       -1.4300    -6.2560     0.2750 H     1 <1>   0.0800 
 35 H       -1.6950    -7.8460     0.9720 H     1 <1>   0.0800 
@<TRIPOS>BOND
  1   1   2  ar  
  2   1   3  ar  
  3   2   4  1   
  4   2   5  ar  
  5   3   6  ar  
  6   3  19  1   
  7   4   7  1   
  8   4   8  1   
  9   5   9  ar  
 10   5  10  1   
 11   6   9  ar  
 12   6  20  1   
 13   7  21  1   
 14   7  22  1   
 15   7  23  1   
 16   8  24  1   
 17   8  25  1   
 18   8  26  1   
 19  10  11  1   
 20  10  27  1   
 21  11  12  1   
 22  11  28  1   
 23  11  29  1   
 24  12  13  1   
 25  12  30  1   
 26  12  31  1   
 27  13  14  2   
 28  13  15  1   
 29  14  16  1   
 30  15  17  1   
 31  15  18  1   
 32  16  17  2   
 33  16  32  1   
 34  18  33  1   
 35  18  34  1   
 36  18  35  1   
@<TRIPOS>SUBSTRUCTURE
  1 ****  10 GROUP 4 **** **** 0

# MOE 2024.06 (io_trps.svl 2023.06)
