@<TRIPOS>MOLECULE
NONAME
51 53 1 0 0 
SMALL
USER_CHARGES


@<TRIPOS>ATOM
  1 O        1.8430    -0.0370     2.0690 O.co2 1 <1>  -0.9000 
  2 C        1.8290     1.0270     1.4300 C.2   1 <1>   0.9060 
  3 O        1.4220     2.0730     1.9300 O.co2 1 <1>  -0.9000 
  4 C        2.3410     1.0160    -0.0240 C.3   1 <1>  -0.1060 
  5 C        3.5640     0.0720    -0.0960 C.3   1 <1>   0.4230 
  6 C        2.8130     2.4360    -0.4580 C.3   1 <1>  -0.1600 
  7 C        1.2030     0.5310    -0.9700 C.3   1 <1>  -0.1600 
  8 N        3.1360    -1.3400     0.1920 N.4   1 <1>  -0.9590 
  9 C        4.7050     0.5990     0.8000 C.3   1 <1>   0.1400 
 10 C        3.9960     2.9500     0.3800 C.3   1 <1>   0.1400 
 11 C        1.5420    -0.7880    -1.6850 C.3   1 <1>  -0.1600 
 12 C        2.0720    -1.8570    -0.7190 C.3   1 <1>   0.3430 
 13 C        4.2310    -2.3200     0.4190 C.3   1 <1>   0.2630 
 14 N        5.1040     1.9520     0.3140 N.am  1 <1>  -0.6600 
 15 C        6.3540     2.1860    -0.2120 C.2   1 <1>   0.5690 
 16 O        7.1120     1.2670    -0.4290 O.2   1 <1>  -0.5700 
 17 C        6.8230     3.5860    -0.6020 C.3   1 <1>   0.1810 
 18 O        6.7060     4.4960     0.4810 O.3   1 <1>  -0.3630 
 19 C        6.9050     5.8240     0.3000 C.ar  1 <1>   0.0830 
 20 C        7.4840     6.3710    -0.8420 C.ar  1 <1>  -0.1500 
 21 C        6.4970     6.6610     1.3240 C.ar  1 <1>  -0.1500 
 22 C        7.6400     7.7420    -0.9480 C.ar  1 <1>  -0.1500 
 23 C        6.6540     8.0310     1.2140 C.ar  1 <1>  -0.1500 
 24 C        7.2250     8.5790     0.0760 C.ar  1 <1>  -0.1430 
 25 C        7.4000    10.0830    -0.0440 C.3   1 <1>  -0.0970 
 26 H        3.9420     0.0970    -1.1040 H     1 <1>   0.0800 
 27 H        1.9970     3.1320    -0.3520 H     1 <1>   0.0800 
 28 H        3.1010     2.4340    -1.4940 H     1 <1>   0.0800 
 29 H        0.3050     0.3860    -0.3910 H     1 <1>   0.0800 
 30 H        0.9700     1.2800    -1.7070 H     1 <1>   0.0800 
 31 H        2.6350    -1.1850     1.1090 H     1 <1>   0.4500 
 32 H        5.5490    -0.0630     0.7570 H     1 <1>   0.0800 
 33 H        4.3860     0.6730     1.8250 H     1 <1>   0.0800 
 34 H        3.6970     3.0830     1.4080 H     1 <1>   0.0800 
 35 H        4.3060     3.9100     0.0070 H     1 <1>   0.0800 
 36 H        2.2770    -0.6090    -2.4510 H     1 <1>   0.0800 
 37 H        0.6610    -1.1640    -2.1740 H     1 <1>   0.0800 
 38 H        2.4500    -2.6880    -1.2920 H     1 <1>   0.0800 
 39 H        1.2530    -2.2150    -0.1160 H     1 <1>   0.0800 
 40 H        4.8310    -2.4220    -0.4700 H     1 <1>   0.0800 
 41 H        3.8190    -3.2810     0.6780 H     1 <1>   0.0800 
 42 H        4.8610    -1.9940     1.2310 H     1 <1>   0.0800 
 43 H        6.2260     3.9480    -1.4180 H     1 <1>   0.0800 
 44 H        7.8560     3.5480    -0.8930 H     1 <1>   0.0800 
 45 H        7.8230     5.7520    -1.6500 H     1 <1>   0.1500 
 46 H        6.0530     6.2330     2.2050 H     1 <1>   0.1500 
 47 H        8.0900     8.1580    -1.8320 H     1 <1>   0.1500 
 48 H        6.3310     8.6680     2.0190 H     1 <1>   0.1500 
 49 H        7.3500    10.3870    -1.0740 H     1 <1>   0.0800 
 50 H        8.3550    10.3710     0.3570 H     1 <1>   0.0800 
 51 H        6.6260    10.5960     0.4980 H     1 <1>   0.0800 
@<TRIPOS>BOND
  1   1   2  ar  
  2   2   3  ar  
  3   2   4  1   
  4   4   5  1   
  5   4   6  1   
  6   4   7  1   
  7   5   8  1   
  8   5   9  1   
  9   5  26  1   
 10   6  10  1   
 11   6  27  1   
 12   6  28  1   
 13   7  11  1   
 14   7  29  1   
 15   7  30  1   
 16   8  12  1   
 17   8  13  1   
 18   8  31  1   
 19   9  14  1   
 20   9  32  1   
 21   9  33  1   
 22  10  14  1   
 23  10  34  1   
 24  10  35  1   
 25  11  12  1   
 26  11  36  1   
 27  11  37  1   
 28  12  38  1   
 29  12  39  1   
 30  13  40  1   
 31  13  41  1   
 32  13  42  1   
 33  14  15  am  
 34  15  16  2   
 35  15  17  1   
 36  17  18  1   
 37  17  43  1   
 38  17  44  1   
 39  18  19  1   
 40  19  20  ar  
 41  19  21  ar  
 42  20  22  ar  
 43  20  45  1   
 44  21  23  ar  
 45  21  46  1   
 46  22  24  ar  
 47  22  47  1   
 48  23  24  ar  
 49  23  48  1   
 50  24  25  1   
 51  25  49  1   
 52  25  50  1   
 53  25  51  1   
@<TRIPOS>SUBSTRUCTURE
  1 ****  10 GROUP 4 **** **** 0

# MOE 2024.06 (io_trps.svl 2023.06)
