@<TRIPOS>MOLECULE
NONAME
37 39 1 0 0 
SMALL
USER_CHARGES


@<TRIPOS>ATOM
  1 F       -1.1560    -0.7370    -1.4100 F     1 <1>  -0.3400 
  2 C       -1.5630    -1.1000    -0.1980 C.3   1 <1>   1.1640 
  3 F       -0.6060    -1.8820     0.2910 F     1 <1>  -0.3400 
  4 F       -1.5530     0.0020     0.5400 F     1 <1>  -0.3400 
  5 C       -2.9450    -1.7720    -0.2070 C.ar  1 <1>  -0.1440 
  6 C       -3.9090    -1.4030    -1.1400 C.ar  1 <1>  -0.1500 
  7 C       -3.2680    -2.7590     0.7190 C.ar  1 <1>  -0.1500 
  8 C       -5.1570    -2.0030    -1.1470 C.ar  1 <1>  -0.1500 
  9 C       -4.5160    -3.3580     0.7100 C.ar  1 <1>  -0.1500 
 10 C       -5.4700    -2.9850    -0.2210 C.ar  1 <1>  -0.1440 
 11 C       -6.8520    -3.6410    -0.2130 C.3   1 <1>   0.0440 
 12 C       -6.8610    -5.1540    -0.4240 C.2   1 <1>   0.5690 
 13 O       -5.9280    -5.6750    -0.9960 O.2   1 <1>  -0.5700 
 14 N       -7.9240    -5.8840     0.0230 N.am  1 <1>  -0.6600 
 15 C       -9.1900    -5.3480     0.5990 C.3   1 <1>   0.2350 
 16 C       -8.0340    -7.3610    -0.1400 C.3   1 <1>   0.2350 
 17 C      -10.2430    -6.4010     0.3190 C.3   1 <1>  -0.2420 
 18 C       -9.5250    -7.6560    -0.1190 C.3   1 <1>  -0.2420 
 19 C      -11.4770    -6.1540     1.1920 C.2   1 <1>   0.9470 
 20 C      -10.4480    -6.9440    -1.0740 C.3   1 <1>  -0.2000 
 21 C       -9.7850    -9.1240     0.2240 C.2   1 <1>   0.9470 
 22 O      -12.5860    -6.0130     0.6590 O.co2 1 <1>  -0.9000 
 23 O      -11.3140    -5.9090     2.3960 O.co2 1 <1>  -0.9000 
 24 O      -10.3680    -9.8470    -0.5960 O.co2 1 <1>  -0.9000 
 25 O       -9.2720    -9.6000     1.2460 O.co2 1 <1>  -0.9000 
 26 H       -3.6950    -0.6420    -1.8720 H     1 <1>   0.1500 
 27 H       -2.5490    -3.0740     1.4570 H     1 <1>   0.1500 
 28 H       -5.8820    -1.7010    -1.8820 H     1 <1>   0.1500 
 29 H       -4.7440    -4.1270     1.4290 H     1 <1>   0.1500 
 30 H       -7.4680    -3.2060    -0.9760 H     1 <1>   0.0800 
 31 H       -7.3060    -3.4230     0.7360 H     1 <1>   0.0800 
 32 H       -9.0700    -5.2210     1.6620 H     1 <1>   0.0800 
 33 H       -9.4750    -4.4150     0.1470 H     1 <1>   0.0800 
 34 H       -7.5910    -7.6880    -1.0650 H     1 <1>   0.0800 
 35 H       -7.5460    -7.8470     0.6870 H     1 <1>   0.0800 
 36 H      -10.0370    -6.4200    -1.9150 H     1 <1>   0.1000 
 37 H      -11.3900    -7.4150    -1.2990 H     1 <1>   0.1000 
@<TRIPOS>BOND
  1   1   2  1   
  2   2   3  1   
  3   2   4  1   
  4   2   5  1   
  5   5   6  ar  
  6   5   7  ar  
  7   6   8  ar  
  8   6  26  1   
  9   7   9  ar  
 10   7  27  1   
 11   8  10  ar  
 12   8  28  1   
 13   9  10  ar  
 14   9  29  1   
 15  10  11  1   
 16  11  12  1   
 17  11  30  1   
 18  11  31  1   
 19  12  13  2   
 20  12  14  am  
 21  14  15  1   
 22  14  16  1   
 23  15  17  1   
 24  15  32  1   
 25  15  33  1   
 26  16  18  1   
 27  16  34  1   
 28  16  35  1   
 29  17  18  1   
 30  17  19  1   
 31  17  20  1   
 32  18  20  1   
 33  18  21  1   
 34  19  22  ar  
 35  19  23  ar  
 36  20  36  1   
 37  20  37  1   
 38  21  24  ar  
 39  21  25  ar  
@<TRIPOS>SUBSTRUCTURE
  1 ****  12 GROUP 4 **** **** 0

# MOE 2024.06 (io_trps.svl 2023.06)
