@<TRIPOS>MOLECULE
NONAME
51 54 1 0 0 
SMALL
USER_CHARGES


@<TRIPOS>ATOM
  1 O       -1.4950     0.8660    -2.3440 O.2   1 <1>  -0.5700 
  2 C       -2.0330     1.1110    -1.2790 C.2   1 <1>   0.5440 
  3 N       -1.4640     2.0560    -0.4550 N.am  1 <1>  -0.6600 
  4 C       -3.2320     0.3960    -0.9120 C.ar  1 <1>   0.0860 
  5 C       -1.6920     2.1550     1.0040 C.3   1 <1>   0.1400 
  6 C       -0.2460     2.8030    -0.8470 C.3   1 <1>   0.1400 
  7 C       -3.3170    -0.9790    -1.1110 C.ar  1 <1>   0.1600 
  8 C       -4.3470     1.0170    -0.3590 C.ar  1 <1>  -0.1500 
  9 C       -0.3970     2.7360     1.5600 C.3   1 <1>  -0.1600 
 10 C        0.1790     3.5550     0.4090 C.3   1 <1>  -0.1600 
 11 N       -4.3470    -1.7480    -0.8040 N.ar  1 <1>  -0.6200 
 12 C       -5.4290     0.2330    -0.0370 C.ar  1 <1>  -0.1500 
 13 C       -5.4030    -1.1410    -0.2720 C.ar  1 <1>   0.4100 
 14 N       -6.4970    -1.9200     0.0460 N.pl3 1 <1>  -0.8380 
 15 C       -7.8690    -1.4840    -0.3260 C.3   1 <1>   0.2090 
 16 C       -6.4230    -3.4090     0.0340 C.3   1 <1>   0.2090 
 17 C       -8.5950    -2.7590    -0.7560 C.3   1 <1>   0.2000 
 18 C       -7.8710    -3.8900    -0.0360 C.3   1 <1>  -0.0800 
 19 O       -9.9350    -2.7380    -0.3960 O.3   1 <1>  -0.6800 
 20 C       -8.0340    -5.2500    -0.7300 C.3   1 <1>   0.0210 
 21 C       -7.2190    -6.3170    -0.0270 C.2   1 <1>   0.1080 
 22 N       -7.4890    -6.7320     1.1710 N.2   1 <1>  -0.7070 
 23 C       -6.1040    -6.9520    -0.5650 C.2   1 <1>  -0.1500 
 24 N       -6.5450    -7.6550     1.4330 N.pl3 1 <1>   0.3000 
 25 C       -5.6930    -7.8050     0.3970 C.2   1 <1>  -0.3320 
 26 C       -4.5200    -8.7680     0.3890 C.3   1 <1>  -0.0600 
 27 H       -2.5090     2.8310     1.1890 H     1 <1>   0.0800 
 28 H       -1.9080     1.1920     1.4360 H     1 <1>   0.0800 
 29 H        0.5160     2.1030    -1.1460 H     1 <1>   0.0800 
 30 H       -0.4580     3.4730    -1.6640 H     1 <1>   0.0800 
 31 H       -2.4650    -1.4660    -1.5550 H     1 <1>   0.1500 
 32 H       -4.3550     2.0800    -0.1970 H     1 <1>   0.1500 
 33 H       -0.5700     3.3290     2.4410 H     1 <1>   0.0800 
 34 H        0.2710     1.9290     1.8050 H     1 <1>   0.0800 
 35 H        1.2480     3.6560     0.4700 H     1 <1>   0.0800 
 36 H       -0.2650     4.5350     0.3960 H     1 <1>   0.0800 
 37 H       -6.3040     0.6680     0.4030 H     1 <1>   0.1500 
 38 H       -8.3430    -1.0480     0.5350 H     1 <1>   0.0800 
 39 H       -7.8400    -0.7760    -1.1360 H     1 <1>   0.0800 
 40 H       -5.8790    -3.7410    -0.8350 H     1 <1>   0.0800 
 41 H       -5.9310    -3.7730     0.9200 H     1 <1>   0.0800 
 42 H       -8.5300    -2.8650    -1.8250 H     1 <1>   0.0800 
 43 H       -8.2260    -3.9650     0.9770 H     1 <1>   0.0800 
 44 H      -10.0240    -2.8340     0.5720 H     1 <1>   0.4000 
 45 H       -7.7230    -5.1830    -1.7570 H     1 <1>   0.0800 
 46 H       -9.0690    -5.5410    -0.7130 H     1 <1>   0.0800 
 47 H       -5.6820    -6.7790    -1.5380 H     1 <1>   0.1500 
 48 H       -6.5090    -8.1620     2.3250 H     1 <1>   0.2700 
 49 H       -3.9940    -8.7020    -0.5470 H     1 <1>   0.0800 
 50 H       -4.8670    -9.7790     0.5170 H     1 <1>   0.0800 
 51 H       -3.8360    -8.5280     1.1840 H     1 <1>   0.0800 
@<TRIPOS>BOND
  1   1   2  2   
  2   2   3  am  
  3   2   4  1   
  4   3   5  1   
  5   3   6  1   
  6   4   7  ar  
  7   4   8  ar  
  8   5   9  1   
  9   5  27  1   
 10   5  28  1   
 11   6  10  1   
 12   6  29  1   
 13   6  30  1   
 14   7  11  ar  
 15   7  31  1   
 16   8  12  ar  
 17   8  32  1   
 18   9  10  1   
 19   9  33  1   
 20   9  34  1   
 21  10  35  1   
 22  10  36  1   
 23  11  13  ar  
 24  12  13  ar  
 25  12  37  1   
 26  13  14  1   
 27  14  15  1   
 28  14  16  1   
 29  15  17  1   
 30  15  38  1   
 31  15  39  1   
 32  16  18  1   
 33  16  40  1   
 34  16  41  1   
 35  17  18  1   
 36  17  19  1   
 37  17  42  1   
 38  18  20  1   
 39  18  43  1   
 40  19  44  1   
 41  20  21  1   
 42  20  45  1   
 43  20  46  1   
 44  21  22  2   
 45  21  23  1   
 46  22  24  1   
 47  23  25  2   
 48  23  47  1   
 49  24  25  1   
 50  24  48  1   
 51  25  26  1   
 52  26  49  1   
 53  26  50  1   
 54  26  51  1   
@<TRIPOS>SUBSTRUCTURE
  1 ****  11 GROUP 4 **** **** 0

# MOE 2024.06 (io_trps.svl 2023.06)
