@<TRIPOS>MOLECULE
NONAME
46 48 1 0 0 
SMALL
USER_CHARGES


@<TRIPOS>ATOM
  1 S       -0.7750     0.9080     0.6610 S.o2  1 <1>   1.4470 
  2 O       -0.6860    -0.0280     1.7610 O.2   1 <1>  -0.6500 
  3 O       -1.5210     2.1360     0.8380 O.2   1 <1>  -0.6500 
  4 N       -1.4190     0.1100    -0.6910 N.am  1 <1>  -0.8490 
  5 C        0.8990     1.3330     0.1020 C.ar  1 <1>  -0.0090 
  6 C       -0.8030    -1.1970    -1.0110 C.3   1 <1>   0.1960 
  7 C       -2.8780     0.0880    -0.7680 C.3   1 <1>   0.1960 
  8 C        1.0940     2.0770    -1.0540 C.ar  1 <1>  -0.1500 
  9 C        2.0260     0.9230     0.8090 C.ar  1 <1>  -0.1500 
 10 C       -1.6830    -2.4490    -0.7460 C.3   1 <1>  -0.1060 
 11 C       -3.4780    -0.8810     0.2550 C.3   1 <1>  -0.1600 
 12 C        2.3760     2.3880    -1.4640 C.ar  1 <1>   0.1900 
 13 C        3.3090     1.2390     0.3880 C.ar  1 <1>  -0.1500 
 14 C       -2.4650    -2.7730    -2.0290 C.2   1 <1>   0.9060 
 15 C       -2.6350    -2.1530     0.4420 C.3   1 <1>   0.2000 
 16 C       -0.7830    -3.6850    -0.4590 C.3   1 <1>  -0.0650 
 17 F        2.5190     3.0920    -2.5550 F     1 <1>  -0.1900 
 18 C        3.5020     1.9830    -0.7650 C.ar  1 <1>  -0.1440 
 19 O       -3.6680    -3.0710    -1.9720 O.co2 1 <1>  -0.9000 
 20 O       -1.8660    -2.7700    -3.1100 O.co2 1 <1>  -0.9000 
 21 O       -3.5050    -3.2090     0.6240 O.3   1 <1>  -0.6800 
 22 C        0.1310    -3.5950     0.7770 C.3   1 <1>  -0.1950 
 23 C        4.9030     2.3390    -1.2400 C.3   1 <1>  -0.0970 
 24 C        1.5390    -3.0900     0.6950 C.3   1 <1>  -0.2000 
 25 C        1.2740    -4.5500     0.9150 C.3   1 <1>  -0.2000 
 26 H       -0.5000    -1.1790    -2.0450 H     1 <1>   0.0800 
 27 H        0.1060    -1.2810    -0.4490 H     1 <1>   0.0800 
 28 H       -3.2780     1.0770    -0.6210 H     1 <1>   0.0800 
 29 H       -3.1640    -0.2250    -1.7600 H     1 <1>   0.0800 
 30 H        0.2500     2.4100    -1.6330 H     1 <1>   0.1500 
 31 H        1.8970     0.3420     1.7080 H     1 <1>   0.1500 
 32 H       -4.4690    -1.1340    -0.0810 H     1 <1>   0.0800 
 33 H       -3.5690    -0.3840     1.2030 H     1 <1>   0.0800 
 34 H        4.1540     0.9020     0.9650 H     1 <1>   0.1500 
 35 H       -2.0690    -2.0510     1.3490 H     1 <1>   0.0800 
 36 H       -1.4210    -4.5440    -0.3370 H     1 <1>   0.0800 
 37 H       -0.1780    -3.8780    -1.3290 H     1 <1>   0.0800 
 38 H       -3.8690    -3.3960    -0.2910 H     1 <1>   0.4000 
 39 H       -0.4170    -3.4070     1.6840 H     1 <1>   0.1000 
 40 H        5.6500     1.9370    -0.5800 H     1 <1>   0.0800 
 41 H        5.0160     3.4080    -1.2750 H     1 <1>   0.0800 
 42 H        5.0670     1.9420    -2.2260 H     1 <1>   0.0800 
 43 H        1.9370    -2.7840    -0.2570 H     1 <1>   0.1000 
 44 H        1.9090    -2.4930     1.5100 H     1 <1>   0.1000 
 45 H        1.4700    -4.9760     1.8840 H     1 <1>   0.1000 
 46 H        1.4740    -5.2390     0.1130 H     1 <1>   0.1000 
@<TRIPOS>BOND
  1   1   2  2   
  2   1   3  2   
  3   1   4  am  
  4   1   5  1   
  5   4   6  1   
  6   4   7  1   
  7   5   8  ar  
  8   5   9  ar  
  9   6  10  1   
 10   6  26  1   
 11   6  27  1   
 12   7  11  1   
 13   7  28  1   
 14   7  29  1   
 15   8  12  ar  
 16   8  30  1   
 17   9  13  ar  
 18   9  31  1   
 19  10  14  1   
 20  10  15  1   
 21  10  16  1   
 22  11  15  1   
 23  11  32  1   
 24  11  33  1   
 25  12  17  1   
 26  12  18  ar  
 27  13  18  ar  
 28  13  34  1   
 29  14  19  ar  
 30  14  20  ar  
 31  15  21  1   
 32  15  35  1   
 33  16  22  1   
 34  16  36  1   
 35  16  37  1   
 36  18  23  1   
 37  21  38  1   
 38  22  24  1   
 39  22  25  1   
 40  22  39  1   
 41  23  40  1   
 42  23  41  1   
 43  23  42  1   
 44  24  25  1   
 45  24  43  1   
 46  24  44  1   
 47  25  45  1   
 48  25  46  1   
@<TRIPOS>SUBSTRUCTURE
  1 ****   6 GROUP 4 **** **** 0

# MOE 2024.06 (io_trps.svl 2023.06)
