@<TRIPOS>MOLECULE
NONAME
48 50 1 0 0 
SMALL
USER_CHARGES


@<TRIPOS>ATOM
  1 F        3.2350     1.6500    -0.1650 F     1 <1>  -0.1900 
  2 C        3.0750     2.9470    -0.2190 C.ar  1 <1>   0.1900 
  3 C        1.8140     3.4510    -0.4800 C.ar  1 <1>  -0.1500 
  4 C        4.1690     3.7640    -0.0120 C.ar  1 <1>  -0.1500 
  5 C        1.6430     4.8240    -0.5370 C.ar  1 <1>  -0.1500 
  6 C        3.9890     5.1360    -0.0700 C.ar  1 <1>  -0.1500 
  7 C        2.7330     5.6720    -0.3290 C.ar  1 <1>   0.0830 
  8 O        2.6440     7.0240    -0.3620 O.3   1 <1>  -0.3630 
  9 C        1.3820     7.6720    -0.2920 C.3   1 <1>   0.1810 
 10 C        1.5380     9.1880    -0.2130 C.2   1 <1>   0.5690 
 11 O        1.1640     9.8220    -1.1750 O.2   1 <1>  -0.5700 
 12 N        2.0500     9.8180     0.9000 N.am  1 <1>  -0.6600 
 13 C        2.5960     9.0950     2.1010 C.3   1 <1>   0.1400 
 14 C        2.2190    11.2970     0.8950 C.3   1 <1>   0.1400 
 15 C        3.9500     9.6440     2.5840 C.3   1 <1>   0.1400 
 16 C        3.5290    11.6760     0.1890 C.3   1 <1>  -0.1600 
 17 N        4.8560     9.9200     1.4320 N.am  1 <1>  -0.6600 
 18 C        4.8200    11.3280     0.9450 C.3   1 <1>   0.1400 
 19 C        5.5670     8.8830     0.8780 C.2   1 <1>   0.6300 
 20 O        5.6230     7.8050     1.4250 O.2   1 <1>  -0.5700 
 21 C        6.2800     9.0250    -0.4660 C.3   1 <1>  -0.0950 
 22 C        7.6790     8.4760    -0.5770 C.3   1 <1>  -0.2000 
 23 C        7.4590     9.9570    -0.6120 C.3   1 <1>  -0.2000 
 24 C        5.2860     8.7140    -1.5990 C.3   1 <1>   0.2150 
 25 O        5.8610     8.9340    -2.8440 O.3   1 <1>  -0.6800 
 26 H        0.9900     2.7780    -0.6380 H     1 <1>   0.1500 
 27 H        5.1360     3.3390     0.1890 H     1 <1>   0.1500 
 28 H        0.6640     5.2100    -0.7480 H     1 <1>   0.1500 
 29 H        4.8230     5.7960     0.0910 H     1 <1>   0.1500 
 30 H        0.8610     7.3140     0.5760 H     1 <1>   0.0800 
 31 H        0.8300     7.4230    -1.1790 H     1 <1>   0.0800 
 32 H        2.7350     8.0530     1.8810 H     1 <1>   0.0800 
 33 H        1.8850     9.1620     2.9040 H     1 <1>   0.0800 
 34 H        2.1990    11.6820     1.8990 H     1 <1>   0.0800 
 35 H        1.3940    11.7410     0.3630 H     1 <1>   0.0800 
 36 H        4.4060     8.9260     3.2440 H     1 <1>   0.0800 
 37 H        3.7970    10.5420     3.1540 H     1 <1>   0.0800 
 38 H        3.5220    12.7390     0.0320 H     1 <1>   0.0800 
 39 H        3.5450    11.2280    -0.7870 H     1 <1>   0.0800 
 40 H        4.9170    11.9830     1.7940 H     1 <1>   0.0800 
 41 H        5.6570    11.5260     0.3040 H     1 <1>   0.0800 
 42 H        7.9670     7.9690    -1.4820 H     1 <1>   0.1000 
 43 H        8.1220     8.0320     0.2980 H     1 <1>   0.1000 
 44 H        7.7940    10.5230     0.2400 H     1 <1>   0.1000 
 45 H        7.6400    10.4700    -1.5390 H     1 <1>   0.1000 
 46 H        4.4110     9.3330    -1.5240 H     1 <1>   0.0800 
 47 H        4.9780     7.6840    -1.5540 H     1 <1>   0.0800 
 48 H        6.2270     9.8360    -2.8800 H     1 <1>   0.4000 
@<TRIPOS>BOND
  1   1   2  1   
  2   2   3  ar  
  3   2   4  ar  
  4   3   5  ar  
  5   3  26  1   
  6   4   6  ar  
  7   4  27  1   
  8   5   7  ar  
  9   5  28  1   
 10   6   7  ar  
 11   6  29  1   
 12   7   8  1   
 13   8   9  1   
 14   9  10  1   
 15   9  30  1   
 16   9  31  1   
 17  10  11  2   
 18  10  12  am  
 19  12  13  1   
 20  12  14  1   
 21  13  15  1   
 22  13  32  1   
 23  13  33  1   
 24  14  16  1   
 25  14  34  1   
 26  14  35  1   
 27  15  17  1   
 28  15  36  1   
 29  15  37  1   
 30  16  18  1   
 31  16  38  1   
 32  16  39  1   
 33  17  18  1   
 34  17  19  am  
 35  18  40  1   
 36  18  41  1   
 37  19  20  2   
 38  19  21  1   
 39  21  22  1   
 40  21  23  1   
 41  21  24  1   
 42  22  23  1   
 43  22  42  1   
 44  22  43  1   
 45  23  44  1   
 46  23  45  1   
 47  24  25  1   
 48  24  46  1   
 49  24  47  1   
 50  25  48  1   
@<TRIPOS>SUBSTRUCTURE
  1 ****   8 GROUP 4 **** **** 0

# MOE 2024.06 (io_trps.svl 2023.06)
