@<TRIPOS>MOLECULE
NONAME
49 51 1 0 0 
SMALL
USER_CHARGES


@<TRIPOS>ATOM
  1 S       -1.8190    -0.1130    -0.5260 S.3   1 <1>  -0.0800 
  2 C       -2.4650    -1.7370    -0.7850 C.2   1 <1>  -0.0450 
  3 C       -3.2690     0.4120     0.3010 C.2   1 <1>  -0.1100 
  4 C       -1.6480    -2.7060    -1.4720 C.2   1 <1>   0.7150 
  5 C       -3.7140    -1.7940    -0.2520 C.2   1 <1>  -0.1500 
  6 C       -4.1650    -0.5890     0.3610 C.2   1 <1>  -0.1500 
  7 O       -0.8000    -2.3770    -2.2750 O.2   1 <1>  -0.5700 
  8 N       -1.8000    -4.0430    -1.2970 N.am  1 <1>  -0.7300 
  9 C       -1.3520    -4.8150    -0.1010 C.3   1 <1>   0.3610 
 10 C       -1.8480    -6.3040    -0.1530 C.2   1 <1>   0.5690 
 11 C       -1.8450    -4.1560     1.1970 C.3   1 <1>  -0.2400 
 12 C        0.1860    -4.7410    -0.1120 C.3   1 <1>  -0.2400 
 13 O       -1.0580    -7.1840     0.1140 O.2   1 <1>  -0.5700 
 14 N       -3.1430    -6.6500    -0.4790 N.am  1 <1>  -0.6600 
 15 C       -4.2720    -5.7510    -0.8390 C.3   1 <1>   0.1400 
 16 C       -3.6030    -8.0600    -0.4550 C.3   1 <1>   0.1400 
 17 C       -5.4720    -6.6710    -1.0650 C.3   1 <1>   0.2000 
 18 C       -5.1260    -7.9850    -0.3680 C.3   1 <1>  -0.0800 
 19 O       -6.6290    -6.1350    -0.5220 O.3   1 <1>  -0.6800 
 20 C       -5.8410    -9.1980    -0.9820 C.3   1 <1>  -0.0170 
 21 C       -5.4550   -10.4800    -0.2620 C.ar  1 <1>  -0.1430 
 22 C       -6.0410   -10.8410     0.9340 C.ar  1 <1>  -0.1500 
 23 C       -4.5010   -11.3450    -0.7590 C.ar  1 <1>  -0.1500 
 24 C       -5.6530   -12.0140     1.5600 C.ar  1 <1>   0.1600 
 25 C       -4.1840   -12.4940    -0.0530 C.ar  1 <1>   0.1600 
 26 N       -4.7370   -12.8490     1.0950 N.ar  1 <1>  -0.6200 
 27 H       -3.2980     1.4270     0.6580 H     1 <1>   0.1500 
 28 H       -4.3480    -2.6620    -0.2760 H     1 <1>   0.1500 
 29 H       -5.1390    -0.5240     0.8150 H     1 <1>   0.1500 
 30 H       -1.4690    -4.5340    -2.1280 H     1 <1>   0.3700 
 31 H       -1.5280    -4.7470     2.0380 H     1 <1>   0.0800 
 32 H       -2.9150    -4.1010     1.2230 H     1 <1>   0.0800 
 33 H       -1.4330    -3.1710     1.3190 H     1 <1>   0.0800 
 34 H        0.5890    -5.2620     0.7390 H     1 <1>   0.0800 
 35 H        0.5310    -3.7240    -0.0700 H     1 <1>   0.0800 
 36 H        0.5770    -5.2080    -0.9990 H     1 <1>   0.0800 
 37 H       -4.4650    -5.0700    -0.0310 H     1 <1>   0.0800 
 38 H       -4.0530    -5.2090    -1.7420 H     1 <1>   0.0800 
 39 H       -3.2910    -8.5420    -1.3660 H     1 <1>   0.0800 
 40 H       -3.1880    -8.5910     0.3870 H     1 <1>   0.0800 
 41 H       -5.6270    -6.8130    -2.1210 H     1 <1>   0.0800 
 42 H       -5.3780    -7.9140     0.6760 H     1 <1>   0.0800 
 43 H       -6.5610    -6.0890     0.4520 H     1 <1>   0.4000 
 44 H       -5.5970    -9.2800    -2.0270 H     1 <1>   0.0800 
 45 H       -6.9070    -9.0580    -0.9100 H     1 <1>   0.0800 
 46 H       -6.7950   -10.2230     1.3860 H     1 <1>   0.1500 
 47 H       -3.9980   -11.1400    -1.6870 H     1 <1>   0.1500 
 48 H       -6.1200   -12.2810     2.4920 H     1 <1>   0.1500 
 49 H       -3.4370   -13.1560    -0.4550 H     1 <1>   0.1500 
@<TRIPOS>BOND
  1   1   2  1   
  2   1   3  1   
  3   2   4  1   
  4   2   5  2   
  5   3   6  2   
  6   3  27  1   
  7   4   7  2   
  8   4   8  am  
  9   5   6  1   
 10   5  28  1   
 11   6  29  1   
 12   8   9  1   
 13   8  30  1   
 14   9  10  1   
 15   9  11  1   
 16   9  12  1   
 17  10  13  2   
 18  10  14  am  
 19  11  31  1   
 20  11  32  1   
 21  11  33  1   
 22  12  34  1   
 23  12  35  1   
 24  12  36  1   
 25  14  15  1   
 26  14  16  1   
 27  15  17  1   
 28  15  37  1   
 29  15  38  1   
 30  16  18  1   
 31  16  39  1   
 32  16  40  1   
 33  17  18  1   
 34  17  19  1   
 35  17  41  1   
 36  18  20  1   
 37  18  42  1   
 38  19  43  1   
 39  20  21  1   
 40  20  44  1   
 41  20  45  1   
 42  21  22  ar  
 43  21  23  ar  
 44  22  24  ar  
 45  22  46  1   
 46  23  25  ar  
 47  23  47  1   
 48  24  26  ar  
 49  24  48  1   
 50  25  26  ar  
 51  25  49  1   
@<TRIPOS>SUBSTRUCTURE
  1 ****  14 GROUP 4 **** **** 0

# MOE 2024.06 (io_trps.svl 2023.06)
