@<TRIPOS>MOLECULE
NONAME
51 53 1 0 0 
SMALL
USER_CHARGES


@<TRIPOS>ATOM
  1 S        0.6210     2.4120    -0.7610 S.o2  1 <1>   1.3330 
  2 O        1.9150     2.9790    -0.4380 O.2   1 <1>  -0.6500 
  3 O       -0.4040     3.3170    -1.2210 O.2   1 <1>  -0.6500 
  4 N        0.8080     1.1380    -1.8550 N.am  1 <1>  -0.8490 
  5 C        0.0220     1.6290     0.7430 C.3   1 <1>  -0.0550 
  6 C       -0.4390     0.7520    -2.5280 C.3   1 <1>   0.1160 
  7 C        1.8460     1.4000    -2.8600 C.3   1 <1>   0.1160 
  8 C       -0.1750     2.5550     1.9760 C.3   1 <1>  -0.0800 
  9 C       -1.1370     3.7230     1.7200 C.3   1 <1>   0.2000 
 10 C        1.1110     3.2500     2.4350 C.3   1 <1>   0.3430 
 11 O       -1.8300     3.9850     2.8950 O.3   1 <1>  -0.6800 
 12 C       -0.2560     4.9350     1.3710 C.3   1 <1>   0.3430 
 13 N        1.1590     4.5320     1.6840 N.4   1 <1>  -0.9590 
 14 C        2.0030     5.5950     2.2900 C.3   1 <1>   0.4860 
 15 C        2.0470     6.7890     1.3640 C.ar  1 <1>  -0.1440 
 16 C        1.4880     7.9920     1.7230 C.ar  1 <1>   0.1600 
 17 C        2.6440     6.7280     0.1270 C.ar  1 <1>   0.1600 
 18 N        1.5050     9.0310     0.9290 N.ar  1 <1>  -0.6200 
 19 N        2.6720     7.7570    -0.6810 N.ar  1 <1>  -0.6200 
 20 C        2.1020     8.8920    -0.2610 C.ar  1 <1>   0.6200 
 21 C        2.1320    10.0460    -1.1530 C.ar  1 <1>   0.0000 
 22 C        3.0610    10.1460    -2.1950 C.ar  1 <1>  -0.1500 
 23 C        1.2360    11.1110    -1.0110 C.ar  1 <1>  -0.1500 
 24 C        3.0950    11.2390    -3.0420 C.ar  1 <1>  -0.1500 
 25 C        1.2640    12.2080    -1.8540 C.ar  1 <1>  -0.1500 
 26 C        2.1950    12.2740    -2.8730 C.ar  1 <1>  -0.1500 
 27 H       -0.9180     1.1560     0.5270 H     1 <1>   0.0800 
 28 H        0.7060     0.8460     1.0110 H     1 <1>   0.0800 
 29 H       -0.2740    -0.1120    -3.1490 H     1 <1>   0.0800 
 30 H       -0.8020     1.5600    -3.1440 H     1 <1>   0.0800 
 31 H       -1.1950     0.5050    -1.8030 H     1 <1>   0.0800 
 32 H        1.9560     0.5510    -3.5130 H     1 <1>   0.0800 
 33 H        2.7940     1.5750    -2.3790 H     1 <1>   0.0800 
 34 H        1.5910     2.2660    -3.4490 H     1 <1>   0.0800 
 35 H       -0.5480     1.9310     2.7710 H     1 <1>   0.0800 
 36 H       -1.8670     3.5230     0.9530 H     1 <1>   0.0800 
 37 H        1.9830     2.6450     2.2390 H     1 <1>   0.0800 
 38 H        1.0490     3.4500     3.4930 H     1 <1>   0.0800 
 39 H       -1.2630     4.0430     3.6870 H     1 <1>   0.4000 
 40 H       -0.5660     5.7920     1.9460 H     1 <1>   0.0800 
 41 H       -0.3450     5.1660     0.3210 H     1 <1>   0.0800 
 42 H        1.6010     4.2960     0.7700 H     1 <1>   0.4500 
 43 H        1.5990     5.8880     3.2460 H     1 <1>   0.0800 
 44 H        3.0050     5.2270     2.4430 H     1 <1>   0.0800 
 45 H        1.0120     8.1180     2.6810 H     1 <1>   0.1500 
 46 H        3.1110     5.8200    -0.2200 H     1 <1>   0.1500 
 47 H        3.7740     9.3550    -2.3480 H     1 <1>   0.1500 
 48 H        0.5010    11.0850    -0.2260 H     1 <1>   0.1500 
 49 H        3.8220    11.2840    -3.8340 H     1 <1>   0.1500 
 50 H        0.5600    13.0110    -1.7170 H     1 <1>   0.1500 
 51 H        2.2180    13.1260    -3.5310 H     1 <1>   0.1500 
@<TRIPOS>BOND
  1   1   2  2   
  2   1   3  2   
  3   1   4  am  
  4   1   5  1   
  5   4   6  1   
  6   4   7  1   
  7   5   8  1   
  8   5  27  1   
  9   5  28  1   
 10   6  29  1   
 11   6  30  1   
 12   6  31  1   
 13   7  32  1   
 14   7  33  1   
 15   7  34  1   
 16   8   9  1   
 17   8  10  1   
 18   8  35  1   
 19   9  11  1   
 20   9  12  1   
 21   9  36  1   
 22  10  13  1   
 23  10  37  1   
 24  10  38  1   
 25  11  39  1   
 26  12  13  1   
 27  12  40  1   
 28  12  41  1   
 29  13  14  1   
 30  13  42  1   
 31  14  15  1   
 32  14  43  1   
 33  14  44  1   
 34  15  16  ar  
 35  15  17  ar  
 36  16  18  ar  
 37  16  45  1   
 38  17  19  ar  
 39  17  46  1   
 40  18  20  ar  
 41  19  20  ar  
 42  20  21  1   
 43  21  22  ar  
 44  21  23  ar  
 45  22  24  ar  
 46  22  47  1   
 47  23  25  ar  
 48  23  48  1   
 49  24  26  ar  
 50  24  49  1   
 51  25  26  ar  
 52  25  50  1   
 53  26  51  1   
@<TRIPOS>SUBSTRUCTURE
  1 ****  17 GROUP 4 **** **** 0

# MOE 2024.06 (io_trps.svl 2023.06)
