@<TRIPOS>MOLECULE
NONAME
47 48 1 0 0 
SMALL
USER_CHARGES


@<TRIPOS>ATOM
  1 O       -1.4220    -1.0340    -1.3830 O.2   1 <1>  -0.5700 
  2 C       -1.7650    -0.0330    -0.8010 C.2   1 <1>   0.5690 
  3 N       -2.5160    -0.1140     0.3420 N.am  1 <1>  -0.6600 
  4 C       -1.3790     1.3060    -1.4120 C.3   1 <1>  -0.0990 
  5 C       -2.5330    -1.3940     1.1020 C.3   1 <1>   0.3200 
  6 C       -3.5960     0.8540     0.7010 C.3   1 <1>   0.1400 
  7 C       -0.0520     1.8370    -0.8460 C.3   1 <1>  -0.0800 
  8 C       -3.7690    -2.1400     0.6660 C.2   1 <1>  -0.3320 
  9 C       -4.7400     0.7670    -0.3340 C.3   1 <1>   0.3430 
 10 C       -0.0890     2.1800     0.6420 C.3   1 <1>  -0.1600 
 11 C        0.3940     3.1430    -1.5020 C.3   1 <1>  -0.1600 
 12 N       -3.8970    -2.6440    -0.5760 N.pl3 1 <1>   0.0330 
 13 C       -4.9170    -2.4200     1.3190 C.2   1 <1>   0.0770 
 14 N       -6.0630     1.2570     0.1790 N.4   1 <1>  -0.9590 
 15 C        1.1080     3.1050     0.8480 C.3   1 <1>  -0.1600 
 16 C        1.3500     3.7950    -0.4990 C.3   1 <1>  -0.1600 
 17 C       -5.1450    -3.1570    -0.6130 C.2   1 <1>   0.0360 
 18 N       -5.7970    -3.0200     0.4990 N.2   1 <1>  -0.5650 
 19 C       -6.6990     0.2340     1.0720 C.3   1 <1>   0.2630 
 20 C       -6.9820     1.5410    -0.9660 C.3   1 <1>   0.2630 
 21 H       -2.1540     2.0330    -1.2740 H     1 <1>   0.0800 
 22 H       -1.2620     1.1630    -2.4710 H     1 <1>   0.0800 
 23 H       -2.5590    -1.1930     2.1600 H     1 <1>   0.0800 
 24 H       -1.6490    -1.9750     0.8930 H     1 <1>   0.0800 
 25 H       -3.1960     1.8520     0.7310 H     1 <1>   0.0800 
 26 H       -3.9660     0.6120     1.6810 H     1 <1>   0.0800 
 27 H        0.7190     1.0990    -1.0050 H     1 <1>   0.0800 
 28 H       -4.8500    -0.2600    -0.6400 H     1 <1>   0.0800 
 29 H       -4.4540     1.3400    -1.2000 H     1 <1>   0.0800 
 30 H       -0.0260     1.3040     1.2630 H     1 <1>   0.0800 
 31 H       -0.9890     2.7210     0.8750 H     1 <1>   0.0800 
 32 H       -0.4520     3.7920    -1.6490 H     1 <1>   0.0800 
 33 H        0.8710     2.9700    -2.4510 H     1 <1>   0.0800 
 34 H       -3.1820    -2.6220    -1.3180 H     1 <1>   0.2700 
 35 H       -5.1680    -2.2070     2.3460 H     1 <1>   0.1500 
 36 H       -5.9260     2.1320     0.7100 H     1 <1>   0.4500 
 37 H        1.9740     2.5190     1.1070 H     1 <1>   0.0800 
 38 H        0.9260     3.8180     1.6340 H     1 <1>   0.0800 
 39 H        1.1620     4.8530    -0.4320 H     1 <1>   0.0800 
 40 H        2.3710     3.6440    -0.8060 H     1 <1>   0.0800 
 41 H       -5.5400    -3.6330    -1.4950 H     1 <1>   0.1500 
 42 H       -6.8450    -0.6920     0.5370 H     1 <1>   0.0800 
 43 H       -7.6580     0.5820     1.4220 H     1 <1>   0.0800 
 44 H       -6.0740     0.0360     1.9270 H     1 <1>   0.0800 
 45 H       -7.1540     0.6440    -1.5390 H     1 <1>   0.0800 
 46 H       -6.5550     2.2890    -1.6150 H     1 <1>   0.0800 
 47 H       -7.9300     1.9040    -0.6040 H     1 <1>   0.0800 
@<TRIPOS>BOND
  1   1   2  2   
  2   2   3  am  
  3   2   4  1   
  4   3   5  1   
  5   3   6  1   
  6   4   7  1   
  7   4  21  1   
  8   4  22  1   
  9   5   8  1   
 10   5  23  1   
 11   5  24  1   
 12   6   9  1   
 13   6  25  1   
 14   6  26  1   
 15   7  10  1   
 16   7  11  1   
 17   7  27  1   
 18   8  12  1   
 19   8  13  2   
 20   9  14  1   
 21   9  28  1   
 22   9  29  1   
 23  10  15  1   
 24  10  30  1   
 25  10  31  1   
 26  11  16  1   
 27  11  32  1   
 28  11  33  1   
 29  12  17  1   
 30  12  34  1   
 31  13  18  1   
 32  13  35  1   
 33  14  19  1   
 34  14  20  1   
 35  14  36  1   
 36  15  16  1   
 37  15  37  1   
 38  15  38  1   
 39  16  39  1   
 40  16  40  1   
 41  17  18  2   
 42  17  41  1   
 43  19  42  1   
 44  19  43  1   
 45  19  44  1   
 46  20  45  1   
 47  20  46  1   
 48  20  47  1   
@<TRIPOS>SUBSTRUCTURE
  1 ****   3 GROUP 4 **** **** 0

# MOE 2024.06 (io_trps.svl 2023.06)
