@<TRIPOS>MOLECULE
NONAME
50 53 1 0 0 
SMALL
USER_CHARGES


@<TRIPOS>ATOM
  1 O       -0.8440     4.2650     2.2670 O.2   1 <1>  -0.5700 
  2 C       -0.5840     3.4130     1.4350 C.2   1 <1>   0.7160 
  3 N       -1.6040     2.8860     0.6690 N.am  1 <1>  -0.6600 
  4 C        0.7890     3.0010     1.2320 C.2   1 <1>  -0.0860 
  5 C       -3.0450     3.1580     0.9920 C.3   1 <1>   0.1400 
  6 C       -1.3130     2.3490    -0.6940 C.3   1 <1>   0.1400 
  7 C        1.3650     1.7510     1.2560 C.2   1 <1>  -0.3320 
  8 C        1.8490     3.8880     0.9580 C.2   1 <1>  -0.1500 
  9 C       -3.7310     3.8740    -0.1840 C.3   1 <1>   0.1440 
 10 C       -2.5900     1.9100    -1.4230 C.3   1 <1>  -0.1600 
 11 N        2.6910     1.8460     0.9990 N.pl3 1 <1>   0.0330 
 12 C        0.7000     0.4170     1.5520 C.3   1 <1>  -0.0600 
 13 C        2.9830     3.1590     0.8160 C.2   1 <1>  -0.3020 
 14 C       -5.1740     4.2030     0.1500 C.ar  1 <1>   0.1670 
 15 C       -3.6680     3.0110    -1.4730 C.3   1 <1>  -0.1600 
 16 C       -3.1220     5.2860    -0.4110 C.3   1 <1>  -0.1600 
 17 N       -6.0430     3.3620     0.6540 N.ar  1 <1>  -0.6200 
 18 C       -5.4770     5.4980    -0.1440 C.ar  1 <1>  -0.1430 
 19 C       -4.2930     6.2360    -0.7160 C.3   1 <1>  -0.0170 
 20 C       -7.2610     3.8640     0.8700 C.ar  1 <1>   0.7200 
 21 C       -6.7560     5.9250     0.1100 C.ar  1 <1>   0.1600 
 22 N       -7.6560     5.1160     0.6170 N.ar  1 <1>  -0.6200 
 23 N       -8.2030     3.0060     1.4060 N.pl3 1 <1>  -0.8380 
 24 C       -7.9990     1.5320     1.4480 C.3   1 <1>   0.1290 
 25 C       -9.4810     3.5010     1.9850 C.3   1 <1>   0.1290 
 26 H       -3.1360     3.7560     1.8820 H     1 <1>   0.0800 
 27 H       -3.5440     2.2240     1.1840 H     1 <1>   0.0800 
 28 H       -0.6440     1.5110    -0.6180 H     1 <1>   0.0800 
 29 H       -0.8200     3.1160    -1.2680 H     1 <1>   0.0800 
 30 H        1.7360     4.9570     0.8870 H     1 <1>   0.1500 
 31 H       -2.9860     1.0490    -0.9120 H     1 <1>   0.0800 
 32 H       -2.3450     1.5990    -2.4230 H     1 <1>   0.0800 
 33 H        3.3640     1.0720     0.9660 H     1 <1>   0.2700 
 34 H       -0.3430     0.5550     1.7740 H     1 <1>   0.0800 
 35 H        1.1660    -0.0460     2.4040 H     1 <1>   0.0800 
 36 H        0.7890    -0.2400     0.7050 H     1 <1>   0.0800 
 37 H        3.9790     3.5040     0.6030 H     1 <1>   0.1500 
 38 H       -3.5000     3.6420    -2.3280 H     1 <1>   0.0800 
 39 H       -4.6190     2.5290    -1.6290 H     1 <1>   0.0800 
 40 H       -2.3760     5.2990    -1.1850 H     1 <1>   0.0800 
 41 H       -2.6570     5.6200     0.5010 H     1 <1>   0.0800 
 42 H       -4.4200     6.3570    -1.7770 H     1 <1>   0.0800 
 43 H       -4.1550     7.1950    -0.2480 H     1 <1>   0.0800 
 44 H       -7.0440     6.9400    -0.1040 H     1 <1>   0.1500 
 45 H       -7.3660     1.2150     0.6370 H     1 <1>   0.0800 
 46 H       -8.9440     1.0250     1.3570 H     1 <1>   0.0800 
 47 H       -7.5360     1.2600     2.3800 H     1 <1>   0.0800 
 48 H       -9.3580     4.4970     2.3750 H     1 <1>   0.0800 
 49 H       -9.7960     2.8610     2.7900 H     1 <1>   0.0800 
 50 H      -10.2390     3.5160     1.2220 H     1 <1>   0.0800 
@<TRIPOS>BOND
  1   1   2  2   
  2   2   3  am  
  3   2   4  1   
  4   3   5  1   
  5   3   6  1   
  6   4   7  2   
  7   4   8  1   
  8   5   9  1   
  9   5  26  1   
 10   5  27  1   
 11   6  10  1   
 12   6  28  1   
 13   6  29  1   
 14   7  11  1   
 15   7  12  1   
 16   8  13  2   
 17   8  30  1   
 18   9  14  1   
 19   9  15  1   
 20   9  16  1   
 21  10  15  1   
 22  10  31  1   
 23  10  32  1   
 24  11  13  1   
 25  11  33  1   
 26  12  34  1   
 27  12  35  1   
 28  12  36  1   
 29  13  37  1   
 30  14  17  ar  
 31  14  18  ar  
 32  15  38  1   
 33  15  39  1   
 34  16  19  1   
 35  16  40  1   
 36  16  41  1   
 37  17  20  ar  
 38  18  19  1   
 39  18  21  ar  
 40  19  42  1   
 41  19  43  1   
 42  20  22  ar  
 43  20  23  1   
 44  21  22  ar  
 45  21  44  1   
 46  23  24  1   
 47  23  25  1   
 48  24  45  1   
 49  24  46  1   
 50  24  47  1   
 51  25  48  1   
 52  25  49  1   
 53  25  50  1   
@<TRIPOS>SUBSTRUCTURE
  1 ****   5 GROUP 4 **** **** 0

# MOE 2024.06 (io_trps.svl 2023.06)
