@<TRIPOS>MOLECULE
NONAME
47 49 1 0 0 
SMALL
USER_CHARGES


@<TRIPOS>ATOM
  1 O        0.9060     1.4510    -0.2300 O.co2 1 <1>  -0.9000 
  2 C       -0.2550     1.7950    -0.4620 C.2   1 <1>   0.9060 
  3 O       -0.7780     1.6300    -1.5780 O.co2 1 <1>  -0.9000 
  4 C       -1.1170     2.3210     0.7240 C.3   1 <1>   0.4600 
  5 N       -2.4270     1.5630     0.9830 N.4   1 <1>  -0.9590 
  6 C       -1.4070     3.8280     0.6610 C.ar  1 <1>  -0.1430 
  7 C       -3.3230     1.6080    -0.2180 C.3   1 <1>   0.3430 
  8 C       -3.1160     1.9920     2.2290 C.3   1 <1>   0.2630 
  9 C       -1.7500     4.4670    -0.5040 C.ar  1 <1>  -0.1500 
 10 C       -1.3150     4.5820     1.8420 C.ar  1 <1>  -0.1500 
 11 C       -3.7730     0.2160    -0.7150 C.3   1 <1>   0.0000 
 12 C       -2.0430     5.8440    -0.5400 C.ar  1 <1>   0.0000 
 13 C       -1.5940     5.9200     1.8380 C.ar  1 <1>  -0.1500 
 14 C       -4.4540    -0.6550     0.3520 C.3   1 <1>   0.2580 
 15 C       -2.7050    -0.8930    -0.6400 C.3   1 <1>   0.2580 
 16 C       -4.5230     0.2700    -2.0580 C.3   1 <1>  -0.2400 
 17 C       -1.9730     6.5860     0.6570 C.ar  1 <1>   0.0000 
 18 C       -2.4030     6.5110    -1.7290 C.ar  1 <1>  -0.1500 
 19 O       -3.1530    -1.1220     0.6970 O.3   1 <1>  -0.5160 
 20 C       -2.2790     7.9590     0.6210 C.ar  1 <1>  -0.1500 
 21 C       -2.6940     7.8470    -1.7380 C.ar  1 <1>  -0.1500 
 22 C       -2.6340     8.5880    -0.5420 C.ar  1 <1>   0.0830 
 23 O       -2.9110     9.9130    -0.4770 O.3   1 <1>  -0.3620 
 24 C       -3.2630    10.6560    -1.6230 C.3   1 <1>   0.0400 
 25 H       -0.4830     2.1680     1.5790 H     1 <1>   0.0800 
 26 H       -2.1560     0.5650     1.0730 H     1 <1>   0.4500 
 27 H       -2.8140     2.0920    -1.0320 H     1 <1>   0.0800 
 28 H       -4.1920     2.2050     0.0010 H     1 <1>   0.0800 
 29 H       -3.4420     3.0150     2.1390 H     1 <1>   0.0800 
 30 H       -2.4440     1.9140     3.0680 H     1 <1>   0.0800 
 31 H       -3.9730     1.3660     2.4140 H     1 <1>   0.0800 
 32 H       -1.7970     3.9310    -1.4380 H     1 <1>   0.1500 
 33 H       -1.0140     4.1020     2.7580 H     1 <1>   0.1500 
 34 H       -1.5220     6.4970     2.7430 H     1 <1>   0.1500 
 35 H       -5.0480    -1.4700    -0.0270 H     1 <1>   0.0000 
 36 H       -4.8970    -0.1220     1.1740 H     1 <1>   0.0000 
 37 H       -1.6800    -0.5750    -0.6410 H     1 <1>   0.0000 
 38 H       -2.9020    -1.7620    -1.2450 H     1 <1>   0.0000 
 39 H       -5.4010     0.8870    -1.9780 H     1 <1>   0.0800 
 40 H       -4.8250    -0.7150    -2.3690 H     1 <1>   0.0800 
 41 H       -3.8790     0.6800    -2.8180 H     1 <1>   0.0800 
 42 H       -2.4410     5.9410    -2.6400 H     1 <1>   0.1500 
 43 H       -2.2290     8.5270     1.5320 H     1 <1>   0.1500 
 44 H       -2.9640     8.3220    -2.6610 H     1 <1>   0.1500 
 45 H       -3.4260    11.6750    -1.3220 H     1 <1>   0.0800 
 46 H       -4.1680    10.2490    -2.0380 H     1 <1>   0.0800 
 47 H       -2.4560    10.6090    -2.3310 H     1 <1>   0.0800 
@<TRIPOS>BOND
  1   1   2  ar  
  2   2   3  ar  
  3   2   4  1   
  4   4   5  1   
  5   4   6  1   
  6   4  25  1   
  7   5   7  1   
  8   5   8  1   
  9   5  26  1   
 10   6   9  ar  
 11   6  10  ar  
 12   7  11  1   
 13   7  27  1   
 14   7  28  1   
 15   8  29  1   
 16   8  30  1   
 17   8  31  1   
 18   9  12  ar  
 19   9  32  1   
 20  10  13  ar  
 21  10  33  1   
 22  11  14  1   
 23  11  15  1   
 24  11  16  1   
 25  12  17  ar  
 26  12  18  ar  
 27  13  17  ar  
 28  13  34  1   
 29  14  19  1   
 30  14  35  1   
 31  14  36  1   
 32  15  19  1   
 33  15  37  1   
 34  15  38  1   
 35  16  39  1   
 36  16  40  1   
 37  16  41  1   
 38  17  20  ar  
 39  18  21  ar  
 40  18  42  1   
 41  20  22  ar  
 42  20  43  1   
 43  21  22  ar  
 44  21  44  1   
 45  22  23  1   
 46  23  24  1   
 47  24  45  1   
 48  24  46  1   
 49  24  47  1   
@<TRIPOS>SUBSTRUCTURE
  1 ****   9 GROUP 4 **** **** 0

# MOE 2024.06 (io_trps.svl 2023.06)
