@<TRIPOS>MOLECULE
NONAME
48 50 1 0 0 
SMALL
USER_CHARGES


@<TRIPOS>ATOM
  1 O       -0.7900     0.5370     1.7930 O.2   1 <1>  -0.5700 
  2 C       -1.4730     1.0110     0.9180 C.2   1 <1>   0.5690 
  3 N       -2.3520     0.2430     0.2110 N.am  1 <1>  -0.6600 
  4 C       -1.3460     2.4890     0.6030 C.3   1 <1>  -0.0990 
  5 C       -3.2820     0.6940    -0.8570 C.3   1 <1>   0.1400 
  6 C       -2.5330    -1.2070     0.4730 C.3   1 <1>   0.1400 
  7 C       -0.2050     3.1570     1.3820 C.3   1 <1>   0.0960 
  8 C       -4.3450    -0.4020    -0.9160 C.3   1 <1>   0.2000 
  9 C       -3.5720    -1.6760    -0.5540 C.3   1 <1>  -0.0800 
 10 N       -0.0600     4.5660     0.9640 N.pl3 1 <1>   0.0480 
 11 O       -5.2890    -0.1360     0.0640 O.3   1 <1>  -0.6800 
 12 C       -4.4460    -2.8490    -0.0690 C.3   1 <1>   0.0200 
 13 C        0.9120     5.1550     0.2200 C.2   1 <1>   0.0060 
 14 C       -0.9250     5.5600     1.2430 C.2   1 <1>  -0.3020 
 15 C       -3.6610    -4.1340     0.1390 C.2   1 <1>  -0.0400 
 16 N        0.7140     6.4170     0.0170 N.2   1 <1>  -0.5650 
 17 C        2.1340     4.4300    -0.3260 C.3   1 <1>   0.0200 
 18 C       -0.4390     6.6740     0.6590 C.2   1 <1>   0.0770 
 19 O       -4.2700    -5.1570     0.6770 O.3   1 <1>  -0.0190 
 20 C       -2.3950    -4.5030    -0.1190 C.2   1 <1>  -0.1500 
 21 C        1.7900     3.5650    -1.5430 C.3   1 <1>  -0.2400 
 22 N       -3.4820    -6.1870     0.7960 N.2   1 <1>  -0.4100 
 23 C       -2.3450    -5.8210     0.3250 C.2   1 <1>   0.1080 
 24 C       -1.1230    -6.7100     0.2660 C.3   1 <1>  -0.0590 
 25 H       -1.1680     2.5990    -0.4500 H     1 <1>   0.0800 
 26 H       -2.2740     2.9690     0.8530 H     1 <1>   0.0800 
 27 H       -3.7180     1.6550    -0.6430 H     1 <1>   0.0800 
 28 H       -2.7490     0.7360    -1.7900 H     1 <1>   0.0800 
 29 H       -1.5970    -1.7280     0.3640 H     1 <1>   0.0800 
 30 H       -2.8940    -1.3390     1.4790 H     1 <1>   0.0800 
 31 H        0.7170     2.6350     1.2060 H     1 <1>   0.0800 
 32 H       -0.4110     3.1280     2.4380 H     1 <1>   0.0800 
 33 H       -4.8450    -0.4580    -1.8670 H     1 <1>   0.0800 
 34 H       -3.0420    -1.9910    -1.4360 H     1 <1>   0.0800 
 35 H       -4.8300     0.0310     0.9120 H     1 <1>   0.4000 
 36 H       -5.2210    -3.0390    -0.7910 H     1 <1>   0.0800 
 37 H       -4.9250    -2.5920     0.8590 H     1 <1>   0.0800 
 38 H       -1.8160     5.4270     1.8270 H     1 <1>   0.1500 
 39 H        2.8600     5.1680    -0.6190 H     1 <1>   0.0800 
 40 H        2.5790     3.8300     0.4470 H     1 <1>   0.0800 
 41 H       -0.8620     7.6650     0.6670 H     1 <1>   0.1500 
 42 H       -1.5830    -3.9570    -0.5600 H     1 <1>   0.1500 
 43 H        1.3210     4.1720    -2.2980 H     1 <1>   0.0800 
 44 H        1.1220     2.7700    -1.2710 H     1 <1>   0.0800 
 45 H        2.6870     3.1370    -1.9530 H     1 <1>   0.0800 
 46 H       -0.3240    -6.2710     0.8340 H     1 <1>   0.0800 
 47 H       -0.8100    -6.8330    -0.7540 H     1 <1>   0.0800 
 48 H       -1.3530    -7.6760     0.6780 H     1 <1>   0.0800 
@<TRIPOS>BOND
  1   1   2  2   
  2   2   3  am  
  3   2   4  1   
  4   3   5  1   
  5   3   6  1   
  6   4   7  1   
  7   4  25  1   
  8   4  26  1   
  9   5   8  1   
 10   5  27  1   
 11   5  28  1   
 12   6   9  1   
 13   6  29  1   
 14   6  30  1   
 15   7  10  1   
 16   7  31  1   
 17   7  32  1   
 18   8   9  1   
 19   8  11  1   
 20   8  33  1   
 21   9  12  1   
 22   9  34  1   
 23  10  13  1   
 24  10  14  1   
 25  11  35  1   
 26  12  15  1   
 27  12  36  1   
 28  12  37  1   
 29  13  16  2   
 30  13  17  1   
 31  14  18  2   
 32  14  38  1   
 33  15  19  1   
 34  15  20  2   
 35  16  18  1   
 36  17  21  1   
 37  17  39  1   
 38  17  40  1   
 39  18  41  1   
 40  19  22  1   
 41  20  23  1   
 42  20  42  1   
 43  21  43  1   
 44  21  44  1   
 45  21  45  1   
 46  22  23  2   
 47  23  24  1   
 48  24  46  1   
 49  24  47  1   
 50  24  48  1   
@<TRIPOS>SUBSTRUCTURE
  1 ****   3 GROUP 4 **** **** 0

# MOE 2024.06 (io_trps.svl 2023.06)
