@<TRIPOS>MOLECULE
NONAME
41 44 1 0 0 
SMALL
USER_CHARGES


@<TRIPOS>ATOM
  1 S        0.2650     0.4980     1.8440 S.3   1 <1>  -0.0800 
  2 C        1.4940     1.5560     1.1810 C.2   1 <1>  -0.1400 
  3 C        0.7930    -0.8100     0.7940 C.2   1 <1>  -0.1100 
  4 C        2.2300     0.9340     0.2490 C.2   1 <1>  -0.1810 
  5 C        1.6580     2.9820     1.6450 C.3   1 <1>   0.0200 
  6 C        1.8280    -0.4220     0.0230 C.2   1 <1>  -0.1500 
  7 C        3.3790     1.6250    -0.4760 C.3   1 <1>   0.3900 
  8 C        2.4530     3.7560     0.5830 C.3   1 <1>   0.2090 
  9 N        3.6450     2.9830     0.1040 N.pl3 1 <1>  -0.8380 
 10 C        4.8900     3.5490    -0.1020 C.ar  1 <1>   0.4100 
 11 N        5.8970     2.8050     0.3560 N.ar  1 <1>  -0.6200 
 12 C        5.0860     4.7930    -0.7400 C.ar  1 <1>   0.0860 
 13 C        7.1160     3.2800     0.2060 C.ar  1 <1>   0.1600 
 14 C        3.9970     5.5840    -1.2520 C.2   1 <1>   0.5440 
 15 C        6.3860     5.2590    -0.8820 C.ar  1 <1>  -0.1500 
 16 C        7.4150     4.4870    -0.3970 C.ar  1 <1>  -0.1500 
 17 O        3.3870     5.2340    -2.2460 O.2   1 <1>  -0.5700 
 18 N        3.6330     6.7620    -0.6390 N.am  1 <1>  -0.6600 
 19 C        2.4960     7.5860    -1.1010 C.3   1 <1>   0.1400 
 20 C        4.1810     7.2700     0.6370 C.3   1 <1>   0.1400 
 21 C        2.4390     8.7560    -0.1240 C.3   1 <1>  -0.1600 
 22 C        3.1240     8.2440     1.1410 C.3   1 <1>  -0.1600 
 23 H        0.2650    -1.7440     0.8680 H     1 <1>   0.1500 
 24 H        2.1870     2.9960     2.5800 H     1 <1>   0.0800 
 25 H        0.6970     3.4430     1.7830 H     1 <1>   0.0800 
 26 H        2.3320    -1.0380    -0.7010 H     1 <1>   0.1500 
 27 H        3.1330     1.7320    -1.5170 H     1 <1>   0.0800 
 28 H        4.2620     1.0140    -0.3950 H     1 <1>   0.0800 
 29 H        2.7650     4.6970     0.9990 H     1 <1>   0.0800 
 30 H        1.8150     3.9540    -0.2620 H     1 <1>   0.0800 
 31 H        7.9230     2.6740     0.5820 H     1 <1>   0.1500 
 32 H        6.5740     6.2010    -1.3670 H     1 <1>   0.1500 
 33 H        8.4370     4.8080    -0.4860 H     1 <1>   0.1500 
 34 H        1.5940     7.0000    -1.0510 H     1 <1>   0.0800 
 35 H        2.6530     7.9160    -2.1140 H     1 <1>   0.0800 
 36 H        5.1040     7.7880     0.4400 H     1 <1>   0.0800 
 37 H        4.3540     6.4720     1.3390 H     1 <1>   0.0800 
 38 H        1.4280     9.0760     0.0560 H     1 <1>   0.0800 
 39 H        2.9970     9.5790    -0.5350 H     1 <1>   0.0800 
 40 H        3.5570     9.0380     1.7240 H     1 <1>   0.0800 
 41 H        2.4160     7.7080     1.7490 H     1 <1>   0.0800 
@<TRIPOS>BOND
  1   1   2  1   
  2   1   3  1   
  3   2   4  2   
  4   2   5  1   
  5   3   6  2   
  6   3  23  1   
  7   4   6  1   
  8   4   7  1   
  9   5   8  1   
 10   5  24  1   
 11   5  25  1   
 12   6  26  1   
 13   7   9  1   
 14   7  27  1   
 15   7  28  1   
 16   8   9  1   
 17   8  29  1   
 18   8  30  1   
 19   9  10  1   
 20  10  11  ar  
 21  10  12  ar  
 22  11  13  ar  
 23  12  14  1   
 24  12  15  ar  
 25  13  16  ar  
 26  13  31  1   
 27  14  17  2   
 28  14  18  am  
 29  15  16  ar  
 30  15  32  1   
 31  16  33  1   
 32  18  19  1   
 33  18  20  1   
 34  19  21  1   
 35  19  34  1   
 36  19  35  1   
 37  20  22  1   
 38  20  36  1   
 39  20  37  1   
 40  21  22  1   
 41  21  38  1   
 42  21  39  1   
 43  22  40  1   
 44  22  41  1   
@<TRIPOS>SUBSTRUCTURE
  1 ****   9 GROUP 4 **** **** 0

# MOE 2024.06 (io_trps.svl 2023.06)
