@<TRIPOS>MOLECULE
NONAME
58 60 1 0 0 
SMALL
USER_CHARGES


@<TRIPOS>ATOM
  1 O        1.2480     0.0040    -2.1310 O.2   1 <1>  -0.5700 
  2 C        1.6990    -0.5860    -1.1780 C.2   1 <1>   0.5690 
  3 N        2.5530     0.0610    -0.3090 N.am  1 <1>  -0.6600 
  4 C        1.3220    -2.0600    -1.0350 C.3   1 <1>   0.1810 
  5 C        3.4100    -0.6010     0.7270 C.3   1 <1>   0.1400 
  6 C        2.5880     1.5480    -0.2910 C.3   1 <1>   0.1400 
  7 O        0.9370    -2.3750     0.2950 O.3   1 <1>  -0.3620 
  8 C        4.9160    -0.5560     0.3810 C.3   1 <1>   0.3430 
  9 C        3.6600     2.0700    -1.2500 C.3   1 <1>  -0.1600 
 10 C        0.6460    -3.6480     0.6580 C.ar  1 <1>   0.0820 
 11 N        5.4250     0.7980    -0.0420 N.4   1 <1>  -0.9590 
 12 C        4.8850     1.1670    -1.3880 C.3   1 <1>   0.3430 
 13 C        0.6150    -4.7210    -0.2300 C.ar  1 <1>  -0.1500 
 14 C        0.3700    -3.8650     1.9990 C.ar  1 <1>  -0.1500 
 15 C        6.9140     0.8260    -0.0220 C.3   1 <1>   0.3430 
 16 C        0.3210    -5.9920     0.2320 C.ar  1 <1>  -0.1500 
 17 C        0.0760    -5.1360     2.4580 C.ar  1 <1>  -0.1500 
 18 C        7.4150     2.2700    -0.0230 C.3   1 <1>  -0.1600 
 19 C        0.0530    -6.2010     1.5740 C.ar  1 <1>  -0.1500 
 20 C        8.9440     2.3430     0.1120 C.3   1 <1>   0.1000 
 21 C        9.4030     3.7830     0.2790 C.2   1 <1>  -0.0400 
 22 C        9.6570     1.7180    -1.0970 C.3   1 <1>  -0.2400 
 23 O       10.6290     3.9830     0.7210 O.3   1 <1>  -0.2800 
 24 C        8.7870     4.9680     0.0640 C.2   1 <1>  -0.1500 
 25 C       10.8260     5.2830     0.7970 C.2   1 <1>  -0.0400 
 26 C        9.7230     5.9510     0.4040 C.2   1 <1>  -0.1500 
 27 C       12.1690     5.7840     1.2800 C.3   1 <1>  -0.0600 
 28 H        2.1600    -2.6740    -1.3040 H     1 <1>   0.0800 
 29 H        0.4890    -2.2770    -1.6800 H     1 <1>   0.0800 
 30 H        3.1340    -1.6320     0.8480 H     1 <1>   0.0800 
 31 H        3.2440    -0.1260     1.6780 H     1 <1>   0.0800 
 32 H        2.7820     1.8920     0.7110 H     1 <1>   0.0800 
 33 H        1.6250     1.9410    -0.5790 H     1 <1>   0.0800 
 34 H        5.1050    -1.2680    -0.4060 H     1 <1>   0.0800 
 35 H        5.4630    -0.8880     1.2490 H     1 <1>   0.0800 
 36 H        3.9590     3.0590    -0.9530 H     1 <1>   0.0800 
 37 H        3.2130     2.1640    -2.2240 H     1 <1>   0.0800 
 38 H        5.0820     1.4940     0.6310 H     1 <1>   0.4500 
 39 H        5.6320     1.6810    -1.9700 H     1 <1>   0.0800 
 40 H        4.6050     0.2750    -1.9250 H     1 <1>   0.0800 
 41 H        0.8110    -4.5940    -1.2770 H     1 <1>   0.1500 
 42 H        0.3830    -3.0340     2.6810 H     1 <1>   0.1500 
 43 H        7.3060     0.2950    -0.8750 H     1 <1>   0.0800 
 44 H        7.2730     0.3390     0.8720 H     1 <1>   0.0800 
 45 H        0.2970    -6.8230    -0.4520 H     1 <1>   0.1500 
 46 H       -0.1370    -5.2970     3.5010 H     1 <1>   0.1500 
 47 H        6.9820     2.7930     0.8120 H     1 <1>   0.0800 
 48 H        7.1270     2.7700    -0.9300 H     1 <1>   0.0800 
 49 H       -0.1770    -7.1910     1.9300 H     1 <1>   0.1500 
 50 H        9.2420     1.8130     1.0010 H     1 <1>   0.0800 
 51 H        9.3760     2.2250    -2.0030 H     1 <1>   0.0800 
 52 H        9.4380     0.6710    -1.1930 H     1 <1>   0.0800 
 53 H       10.7220     1.8220    -0.9780 H     1 <1>   0.0800 
 54 H        7.7950     5.1720    -0.2940 H     1 <1>   0.1500 
 55 H        9.5630     7.0140     0.3510 H     1 <1>   0.1500 
 56 H       12.3540     5.4210     2.2740 H     1 <1>   0.0800 
 57 H       12.1840     6.8580     1.2890 H     1 <1>   0.0800 
 58 H       12.9440     5.4270     0.6270 H     1 <1>   0.0800 
@<TRIPOS>BOND
  1   1   2  2   
  2   2   3  am  
  3   2   4  1   
  4   3   5  1   
  5   3   6  1   
  6   4   7  1   
  7   4  28  1   
  8   4  29  1   
  9   5   8  1   
 10   5  30  1   
 11   5  31  1   
 12   6   9  1   
 13   6  32  1   
 14   6  33  1   
 15   7  10  1   
 16   8  11  1   
 17   8  34  1   
 18   8  35  1   
 19   9  12  1   
 20   9  36  1   
 21   9  37  1   
 22  10  13  ar  
 23  10  14  ar  
 24  11  12  1   
 25  11  15  1   
 26  11  38  1   
 27  12  39  1   
 28  12  40  1   
 29  13  16  ar  
 30  13  41  1   
 31  14  17  ar  
 32  14  42  1   
 33  15  18  1   
 34  15  43  1   
 35  15  44  1   
 36  16  19  ar  
 37  16  45  1   
 38  17  19  ar  
 39  17  46  1   
 40  18  20  1   
 41  18  47  1   
 42  18  48  1   
 43  19  49  1   
 44  20  21  1   
 45  20  22  1   
 46  20  50  1   
 47  21  23  1   
 48  21  24  2   
 49  22  51  1   
 50  22  52  1   
 51  22  53  1   
 52  23  25  1   
 53  24  26  1   
 54  24  54  1   
 55  25  26  2   
 56  25  27  1   
 57  26  55  1   
 58  27  56  1   
 59  27  57  1   
 60  27  58  1   
@<TRIPOS>SUBSTRUCTURE
  1 ****  11 GROUP 4 **** **** 0

# MOE 2024.06 (io_trps.svl 2023.06)
