@<TRIPOS>MOLECULE
NONAME
49 50 1 0 0 
SMALL
USER_CHARGES


@<TRIPOS>ATOM
  1 O       -0.5190     0.0380    -1.2120 O.2   1 <1>  -0.5700 
  2 C       -1.4870     0.6870    -0.8880 C.2   1 <1>   0.5690 
  3 N       -2.6050     0.0800    -0.3610 N.am  1 <1>  -0.6600 
  4 C       -1.4120     2.1950    -1.1190 C.3   1 <1>   0.1810 
  5 C       -2.6060    -1.3990    -0.1690 C.3   1 <1>   0.3200 
  6 C       -3.7620     0.8450     0.2050 C.3   1 <1>   0.1400 
  7 O       -1.3540     2.9070     0.1060 O.3   1 <1>  -0.3630 
  8 C       -3.9740    -1.9860    -0.4570 C.2   1 <1>  -0.3320 
  9 C       -4.7950     1.1800    -0.8800 C.3   1 <1>   0.1200 
 10 C       -1.0380     4.2160    -0.0040 C.ar  1 <1>   0.0820 
 11 N       -4.8610    -2.3560     0.4870 N.pl3 1 <1>   0.0330 
 12 C       -4.5560    -2.2520    -1.6460 C.2   1 <1>   0.0770 
 13 O       -5.7740     2.0020    -0.3390 O.3   1 <1>  -0.6800 
 14 C        0.3010     4.6080    -0.0440 C.ar  1 <1>  -0.1430 
 15 C       -2.0660     5.1520    -0.0750 C.ar  1 <1>  -0.1430 
 16 C       -5.9350    -2.8100    -0.1940 C.2   1 <1>   0.0060 
 17 N       -5.7910    -2.7580    -1.4760 N.2   1 <1>  -0.5650 
 18 C        0.6060     5.9560    -0.2040 C.ar  1 <1>  -0.1430 
 19 C        1.4200     3.5720     0.0880 C.3   1 <1>  -0.0970 
 20 C       -1.7430     6.4890    -0.2250 C.ar  1 <1>  -0.1500 
 21 C       -3.5300     4.7410     0.0120 C.3   1 <1>  -0.0970 
 22 C       -7.1800    -3.3330     0.4890 C.3   1 <1>  -0.0600 
 23 C       -0.4200     6.8840    -0.2930 C.ar  1 <1>  -0.1500 
 24 C        2.0430     6.4550    -0.2820 C.3   1 <1>  -0.0970 
 25 H       -2.2670     2.5360    -1.6690 H     1 <1>   0.0800 
 26 H       -0.5260     2.4210    -1.6820 H     1 <1>   0.0800 
 27 H       -2.3020    -1.6270     0.8380 H     1 <1>   0.0800 
 28 H       -1.8960    -1.8590    -0.8370 H     1 <1>   0.0800 
 29 H       -3.4100     1.7570     0.6490 H     1 <1>   0.0800 
 30 H       -4.2300     0.2710     0.9830 H     1 <1>   0.0800 
 31 H       -5.2720     0.2950    -1.2630 H     1 <1>   0.0800 
 32 H       -4.3350     1.7170    -1.6890 H     1 <1>   0.0800 
 33 H       -4.7530    -2.3190     1.5050 H     1 <1>   0.2700 
 34 H       -4.1470    -2.0970    -2.6310 H     1 <1>   0.1500 
 35 H       -6.4590     1.4680     0.1100 H     1 <1>   0.4000 
 36 H        1.0620     2.6510     0.5090 H     1 <1>   0.0800 
 37 H        2.1950     3.9350     0.7360 H     1 <1>   0.0800 
 38 H        1.8400     3.3650    -0.8790 H     1 <1>   0.0800 
 39 H       -2.5180     7.2320    -0.2880 H     1 <1>   0.1500 
 40 H       -3.6830     4.1070     0.8660 H     1 <1>   0.0800 
 41 H       -3.8200     4.2080    -0.8750 H     1 <1>   0.0800 
 42 H       -4.1670     5.6000     0.1150 H     1 <1>   0.0800 
 43 H       -7.6170    -2.5670     1.1030 H     1 <1>   0.0800 
 44 H       -6.9380    -4.1860     1.0960 H     1 <1>   0.0800 
 45 H       -7.9000    -3.6330    -0.2520 H     1 <1>   0.0800 
 46 H       -0.1960     7.9290    -0.4130 H     1 <1>   0.1500 
 47 H        2.5940     5.8880    -1.0100 H     1 <1>   0.0800 
 48 H        2.5180     6.3540     0.6770 H     1 <1>   0.0800 
 49 H        2.0770     7.4900    -0.5710 H     1 <1>   0.0800 
@<TRIPOS>BOND
  1   1   2  2   
  2   2   3  am  
  3   2   4  1   
  4   3   5  1   
  5   3   6  1   
  6   4   7  1   
  7   4  25  1   
  8   4  26  1   
  9   5   8  1   
 10   5  27  1   
 11   5  28  1   
 12   6   9  1   
 13   6  29  1   
 14   6  30  1   
 15   7  10  1   
 16   8  11  1   
 17   8  12  2   
 18   9  13  1   
 19   9  31  1   
 20   9  32  1   
 21  10  14  ar  
 22  10  15  ar  
 23  11  16  1   
 24  11  33  1   
 25  12  17  1   
 26  12  34  1   
 27  13  35  1   
 28  14  18  ar  
 29  14  19  1   
 30  15  20  ar  
 31  15  21  1   
 32  16  17  2   
 33  16  22  1   
 34  18  23  ar  
 35  18  24  1   
 36  19  36  1   
 37  19  37  1   
 38  19  38  1   
 39  20  23  ar  
 40  20  39  1   
 41  21  40  1   
 42  21  41  1   
 43  21  42  1   
 44  22  43  1   
 45  22  44  1   
 46  22  45  1   
 47  23  46  1   
 48  24  47  1   
 49  24  48  1   
 50  24  49  1   
@<TRIPOS>SUBSTRUCTURE
  1 ****   4 GROUP 4 **** **** 0

# MOE 2024.06 (io_trps.svl 2023.06)
