@<TRIPOS>MOLECULE
NONAME
51 54 1 0 0 
SMALL
USER_CHARGES


@<TRIPOS>ATOM
  1 O       -6.0460    -3.0110    -0.6970 O.co2 1 <1>  -0.9000 
  2 C       -5.2080    -3.8360    -1.0820 C.2   1 <1>   0.9060 
  3 O       -5.6080    -4.9860    -1.3470 O.co2 1 <1>  -0.9000 
  4 C       -3.7000    -3.4550    -1.1480 C.3   1 <1>   0.1030 
  5 N       -2.9770    -3.2700     0.1870 N.pl3 1 <1>  -0.8690 
  6 C       -3.4580    -4.0710     1.1540 C.ar  1 <1>   0.7200 
  7 N       -3.3330    -5.3770     0.9680 N.ar  1 <1>  -0.6200 
  8 N       -4.2750    -3.4550     1.9910 N.ar  1 <1>  -0.6200 
  9 C       -4.4350    -6.0350     1.2140 C.ar  1 <1>   0.1600 
 10 C       -5.3750    -4.1300     2.2170 C.ar  1 <1>   0.1600 
 11 C       -5.5430    -5.4160     1.7500 C.ar  1 <1>  -0.1430 
 12 C       -6.8780    -6.0990     1.7380 C.3   1 <1>   0.4860 
 13 N       -7.5360    -5.8450     0.4250 N.4   1 <1>  -0.9590 
 14 C       -8.4310    -4.6310     0.4840 C.3   1 <1>   0.3430 
 15 C       -8.1450    -7.0950    -0.1010 C.3   1 <1>   0.3430 
 16 C       -9.4450    -4.4690    -0.6720 C.3   1 <1>   0.1440 
 17 C       -8.9960    -6.8470    -1.3430 C.3   1 <1>  -0.1600 
 18 C      -10.4580    -3.4550    -0.1840 C.ar  1 <1>   0.1670 
 19 C      -10.0900    -5.8150    -1.0470 C.3   1 <1>  -0.1600 
 20 C       -8.8660    -3.7590    -1.9230 C.3   1 <1>  -0.1600 
 21 N      -11.3920    -3.6880     0.7120 N.ar  1 <1>  -0.6200 
 22 C      -10.2690    -2.2370    -0.7640 C.ar  1 <1>  -0.1430 
 23 C       -9.1090    -2.2540    -1.7290 C.3   1 <1>  -0.0170 
 24 C      -12.1560    -2.6370     0.9860 C.ar  1 <1>   0.4770 
 25 C      -11.1100    -1.2170    -0.3970 C.ar  1 <1>   0.1600 
 26 N      -12.0680    -1.4120     0.4860 N.ar  1 <1>  -0.6200 
 27 C      -13.2540    -2.8590     1.9970 C.3   1 <1>  -0.0970 
 28 H       -3.6250    -2.5450    -1.7120 H     1 <1>   0.0800 
 29 H       -3.2000    -4.2290    -1.7000 H     1 <1>   0.0800 
 30 H       -3.0960    -2.3110     0.5080 H     1 <1>   0.4000 
 31 H       -4.4590    -7.0730     0.9310 H     1 <1>   0.1500 
 32 H       -6.1630    -3.6220     2.7450 H     1 <1>   0.1500 
 33 H       -7.4940    -5.7360     2.5430 H     1 <1>   0.0800 
 34 H       -6.7240    -7.1560     1.8740 H     1 <1>   0.0800 
 35 H       -6.7780    -5.5530    -0.2580 H     1 <1>   0.4500 
 36 H       -7.8220    -3.7420     0.5300 H     1 <1>   0.0800 
 37 H       -9.0050    -4.6760     1.3940 H     1 <1>   0.0800 
 38 H       -8.7710    -7.5330     0.6580 H     1 <1>   0.0800 
 39 H       -7.3640    -7.7970    -0.3440 H     1 <1>   0.0800 
 40 H       -9.4510    -7.7740    -1.6450 H     1 <1>   0.0800 
 41 H       -8.3630    -6.5170    -2.1500 H     1 <1>   0.0800 
 42 H      -10.7350    -5.6950    -1.9010 H     1 <1>   0.0800 
 43 H      -10.7000    -6.1640    -0.2310 H     1 <1>   0.0800 
 44 H       -9.4140    -4.0620    -2.7970 H     1 <1>   0.0800 
 45 H       -7.8330    -3.9870    -2.0960 H     1 <1>   0.0800 
 46 H       -9.3440    -1.7660    -2.6580 H     1 <1>   0.0800 
 47 H       -8.2500    -1.7860    -1.2780 H     1 <1>   0.0800 
 48 H      -10.9980    -0.2350    -0.8260 H     1 <1>   0.1500 
 49 H      -13.5690    -3.8850     1.9840 H     1 <1>   0.0800 
 50 H      -14.0960    -2.2340     1.7670 H     1 <1>   0.0800 
 51 H      -12.8890    -2.6120     2.9760 H     1 <1>   0.0800 
@<TRIPOS>BOND
  1   1   2  ar  
  2   2   3  ar  
  3   2   4  1   
  4   4   5  1   
  5   4  28  1   
  6   4  29  1   
  7   5   6  1   
  8   5  30  1   
  9   6   7  ar  
 10   6   8  ar  
 11   7   9  ar  
 12   8  10  ar  
 13   9  11  ar  
 14   9  31  1   
 15  10  11  ar  
 16  10  32  1   
 17  11  12  1   
 18  12  13  1   
 19  12  33  1   
 20  12  34  1   
 21  13  14  1   
 22  13  15  1   
 23  13  35  1   
 24  14  16  1   
 25  14  36  1   
 26  14  37  1   
 27  15  17  1   
 28  15  38  1   
 29  15  39  1   
 30  16  18  1   
 31  16  19  1   
 32  16  20  1   
 33  17  19  1   
 34  17  40  1   
 35  17  41  1   
 36  18  21  ar  
 37  18  22  ar  
 38  19  42  1   
 39  19  43  1   
 40  20  23  1   
 41  20  44  1   
 42  20  45  1   
 43  21  24  ar  
 44  22  23  1   
 45  22  25  ar  
 46  23  46  1   
 47  23  47  1   
 48  24  26  ar  
 49  24  27  1   
 50  25  26  ar  
 51  25  48  1   
 52  27  49  1   
 53  27  50  1   
 54  27  51  1   
@<TRIPOS>SUBSTRUCTURE
  1 ****  14 GROUP 4 **** **** 0

# MOE 2024.06 (io_trps.svl 2023.06)
