@<TRIPOS>MOLECULE
NONAME
48 50 1 0 0 
SMALL
USER_CHARGES


@<TRIPOS>ATOM
  1 CL      -1.3460    -0.1450     0.1670 Cl    1 <1>  -0.1240 
  2 C       -1.6490    -1.7450     0.7860 C.2   1 <1>   0.1640 
  3 S       -1.1820    -3.0830    -0.2410 S.3   1 <1>  -0.0800 
  4 C       -2.1940    -2.1630     1.9410 C.2   1 <1>  -0.1500 
  5 C       -1.7640    -4.2360     0.9600 C.2   1 <1>  -0.1400 
  6 C       -2.2550    -3.5920     2.0400 C.2   1 <1>  -0.1500 
  7 C       -1.6190    -5.7090     0.6350 C.3   1 <1>   0.5230 
  8 N       -2.8330    -6.1760    -0.0870 N.4   1 <1>  -0.9590 
  9 C       -2.9270    -7.6750    -0.1360 C.3   1 <1>   0.5660 
 10 C       -2.9920    -5.5670    -1.4500 C.3   1 <1>   0.3430 
 11 C       -1.6150    -8.2620    -0.6640 C.ar  1 <1>  -0.1430 
 12 C       -4.1870    -8.1550    -0.9210 C.3   1 <1>   0.2000 
 13 C       -4.1820    -6.1750    -2.2290 C.3   1 <1>   0.1200 
 14 C       -0.7350    -8.8110     0.2590 C.ar  1 <1>  -0.1500 
 15 C       -1.2610    -8.2680    -2.0100 C.ar  1 <1>  -0.1500 
 16 O       -4.9180    -7.0650    -1.4360 O.3   1 <1>  -0.5600 
 17 C       -5.1450    -8.9550    -0.0280 C.3   1 <1>   0.1200 
 18 C        0.4840    -9.3330    -0.1370 C.ar  1 <1>   0.0830 
 19 C       -0.0400    -8.7810    -2.4130 C.ar  1 <1>  -0.1500 
 20 O       -4.4190    -9.8020     0.8000 O.3   1 <1>  -0.6800 
 21 O        1.2690    -9.8620     0.8310 O.3   1 <1>  -0.3630 
 22 C        0.8480    -9.2960    -1.4860 C.ar  1 <1>   0.0830 
 23 C        1.5200   -11.2500     0.7530 C.3   1 <1>   0.0400 
 24 O        2.0390    -9.7450    -1.9500 O.3   1 <1>  -0.3630 
 25 C        3.1970    -9.0700    -1.5050 C.3   1 <1>   0.0400 
 26 H       -2.5530    -1.5210     2.7270 H     1 <1>   0.1500 
 27 H       -2.6640    -4.0510     2.9260 H     1 <1>   0.1500 
 28 H       -1.5140    -6.2580     1.5570 H     1 <1>   0.0800 
 29 H       -0.7340    -5.8750     0.0410 H     1 <1>   0.0800 
 30 H       -3.6560    -5.8710     0.4460 H     1 <1>   0.4500 
 31 H       -3.0300    -8.0310     0.8750 H     1 <1>   0.0800 
 32 H       -3.1520    -4.5050    -1.3570 H     1 <1>   0.0800 
 33 H       -2.0900    -5.7050    -2.0230 H     1 <1>   0.0800 
 34 H       -3.8990    -8.7830    -1.7460 H     1 <1>   0.0800 
 35 H       -3.8430    -6.6960    -3.1080 H     1 <1>   0.0800 
 36 H       -4.8490    -5.3920    -2.5480 H     1 <1>   0.0800 
 37 H       -0.9790    -8.8570     1.3070 H     1 <1>   0.1500 
 38 H       -1.9170    -7.8860    -2.7700 H     1 <1>   0.1500 
 39 H       -5.8050    -9.5530    -0.6340 H     1 <1>   0.0800 
 40 H       -5.7230    -8.2970     0.5980 H     1 <1>   0.0800 
 41 H        0.2380    -8.7850    -3.4530 H     1 <1>   0.1500 
 42 H       -5.0130   -10.4400     1.2530 H     1 <1>   0.4000 
 43 H        2.0650   -11.5440     1.6320 H     1 <1>   0.0800 
 44 H        2.1030   -11.4610    -0.1250 H     1 <1>   0.0800 
 45 H        0.5800   -11.7730     0.7100 H     1 <1>   0.0800 
 46 H        4.0420    -9.4710    -2.0350 H     1 <1>   0.0800 
 47 H        3.3220    -9.2280    -0.4490 H     1 <1>   0.0800 
 48 H        3.0930    -8.0220    -1.7190 H     1 <1>   0.0800 
@<TRIPOS>BOND
  1   1   2  1   
  2   2   3  1   
  3   2   4  2   
  4   3   5  1   
  5   4   6  1   
  6   4  26  1   
  7   5   6  2   
  8   5   7  1   
  9   6  27  1   
 10   7   8  1   
 11   7  28  1   
 12   7  29  1   
 13   8   9  1   
 14   8  10  1   
 15   8  30  1   
 16   9  11  1   
 17   9  12  1   
 18   9  31  1   
 19  10  13  1   
 20  10  32  1   
 21  10  33  1   
 22  11  14  ar  
 23  11  15  ar  
 24  12  16  1   
 25  12  17  1   
 26  12  34  1   
 27  13  16  1   
 28  13  35  1   
 29  13  36  1   
 30  14  18  ar  
 31  14  37  1   
 32  15  19  ar  
 33  15  38  1   
 34  17  20  1   
 35  17  39  1   
 36  17  40  1   
 37  18  21  1   
 38  18  22  ar  
 39  19  22  ar  
 40  19  41  1   
 41  20  42  1   
 42  21  23  1   
 43  22  24  1   
 44  23  43  1   
 45  23  44  1   
 46  23  45  1   
 47  24  25  1   
 48  25  46  1   
 49  25  47  1   
 50  25  48  1   
@<TRIPOS>SUBSTRUCTURE
  1 ****  11 GROUP 4 **** **** 0

# MOE 2024.06 (io_trps.svl 2023.06)
