@<TRIPOS>MOLECULE
NONAME
34 35 1 0 0 
SMALL
USER_CHARGES


@<TRIPOS>ATOM
  1 CL      -0.6190    -1.0620    -1.8960 Cl    1 <1>  -0.1770 
  2 C       -2.0830    -1.4670    -1.0300 C.ar  1 <1>   0.1770 
  3 C       -3.0580    -0.5150    -0.7850 C.ar  1 <1>   0.1900 
  4 C       -2.2630    -2.7660    -0.5900 C.ar  1 <1>  -0.1500 
  5 F       -2.8950     0.7130    -1.2030 F     1 <1>  -0.1900 
  6 C       -4.2170    -0.8330    -0.1030 C.ar  1 <1>  -0.1500 
  7 C       -3.4270    -3.1060     0.0910 C.ar  1 <1>  -0.1440 
  8 C       -4.3950    -2.1370     0.3360 C.ar  1 <1>  -0.1500 
  9 C       -3.6590    -4.5270     0.5770 C.3   1 <1>   0.4870 
 10 N       -4.0100    -5.3930    -0.5960 N.4   1 <1>  -0.9590 
 11 C       -3.9940    -6.8420    -0.1690 C.3   1 <1>   0.3430 
 12 C       -5.3280    -4.9400    -1.1630 C.3   1 <1>   0.3430 
 13 C       -5.3670    -7.3260     0.2850 C.3   1 <1>  -0.1860 
 14 C       -6.0260    -6.0910    -1.8770 C.3   1 <1>  -0.1600 
 15 C       -5.6320    -6.5430     1.5430 C.2   1 <1>   0.9060 
 16 C       -6.3760    -7.2020    -0.8790 C.3   1 <1>   0.2000 
 17 O       -4.7780    -6.6120     2.4260 O.co2 1 <1>  -0.9000 
 18 O       -6.5160    -5.6790     1.5590 O.co2 1 <1>  -0.9000 
 19 O       -7.6290    -6.9410    -0.3830 O.3   1 <1>  -0.6800 
 20 H       -1.4900    -3.4890    -0.7810 H     1 <1>   0.1500 
 21 H       -4.9600    -0.0770     0.0820 H     1 <1>   0.1500 
 22 H       -5.2960    -2.3940     0.8760 H     1 <1>   0.1500 
 23 H       -4.4570    -4.5280     1.3020 H     1 <1>   0.0800 
 24 H       -2.7730    -4.8990     1.0650 H     1 <1>   0.0800 
 25 H       -3.2830    -5.2480    -1.3010 H     1 <1>   0.4500 
 26 H       -3.6780    -7.4530    -0.9970 H     1 <1>   0.0800 
 27 H       -3.2870    -6.9830     0.6350 H     1 <1>   0.0800 
 28 H       -5.9700    -4.6000    -0.3650 H     1 <1>   0.0800 
 29 H       -5.1750    -4.1150    -1.8390 H     1 <1>   0.0800 
 30 H       -5.2950    -8.3580     0.5690 H     1 <1>   0.0800 
 31 H       -5.3770    -6.4760    -2.6420 H     1 <1>   0.0800 
 32 H       -6.9200    -5.7380    -2.3600 H     1 <1>   0.0800 
 33 H       -6.4470    -8.1370    -1.4100 H     1 <1>   0.0800 
 34 H       -7.5170    -6.3610     0.4310 H     1 <1>   0.4000 
@<TRIPOS>BOND
  1   1   2  1   
  2   2   3  ar  
  3   2   4  ar  
  4   3   5  1   
  5   3   6  ar  
  6   4   7  ar  
  7   4  20  1   
  8   6   8  ar  
  9   6  21  1   
 10   7   8  ar  
 11   7   9  1   
 12   8  22  1   
 13   9  10  1   
 14   9  23  1   
 15   9  24  1   
 16  10  11  1   
 17  10  12  1   
 18  10  25  1   
 19  11  13  1   
 20  11  26  1   
 21  11  27  1   
 22  12  14  1   
 23  12  28  1   
 24  12  29  1   
 25  13  15  1   
 26  13  16  1   
 27  13  30  1   
 28  14  16  1   
 29  14  31  1   
 30  14  32  1   
 31  15  17  ar  
 32  15  18  ar  
 33  16  19  1   
 34  16  33  1   
 35  19  34  1   
@<TRIPOS>SUBSTRUCTURE
  1 ****   9 GROUP 4 **** **** 0

# MOE 2024.06 (io_trps.svl 2023.06)
