@<TRIPOS>MOLECULE
NONAME
58 60 1 0 0 
SMALL
USER_CHARGES


@<TRIPOS>ATOM
  1 O       -0.6440     0.6220     0.0350 O.2   1 <1>  -0.5700 
  2 C       -0.5550     1.8320    -0.0310 C.2   1 <1>   0.7800 
  3 O        0.3900     2.3870    -0.7890 O.3   1 <1>  -0.4300 
  4 N       -1.4130     2.6700     0.6370 N.am  1 <1>  -0.6600 
  5 C        1.3110     1.5890    -1.4960 C.3   1 <1>   0.1200 
  6 C       -1.3750     4.1420     0.5160 C.3   1 <1>   0.1400 
  7 C       -2.4910     2.1470     1.5020 C.3   1 <1>   0.1400 
  8 C        2.2520     2.5150    -2.2610 C.3   1 <1>  -0.2400 
  9 C       -2.6940     4.6050    -0.1010 C.3   1 <1>  -0.1600 
 10 C       -3.8320     2.5670     0.9040 C.3   1 <1>  -0.1600 
 11 C       -3.9170     4.0900     0.6840 C.3   1 <1>   0.4230 
 12 N       -5.1800     4.4330    -0.0480 N.4   1 <1>  -0.9590 
 13 C       -5.3130     5.9040    -0.3050 C.3   1 <1>   0.3430 
 14 C       -6.4040     3.9480     0.6690 C.3   1 <1>   0.3430 
 15 C       -6.5550     6.2000    -1.1380 C.3   1 <1>  -0.1600 
 16 C       -7.6530     4.2160    -0.1610 C.3   1 <1>  -0.1600 
 17 C       -7.8300     5.7170    -0.4260 C.3   1 <1>   0.2800 
 18 O       -7.8300     6.3200     0.8470 O.3   1 <1>  -0.5600 
 19 C       -9.1540     5.9950    -1.2290 C.3   1 <1>   0.2000 
 20 C       -8.5180     7.5280     0.9670 C.3   1 <1>   0.1200 
 21 O       -8.9920     7.0900    -2.0930 O.3   1 <1>  -0.6800 
 22 C      -10.3640     6.2460    -0.2850 C.3   1 <1>   0.2800 
 23 C      -10.0260     7.3020     0.7870 C.3   1 <1>  -0.1600 
 24 O      -10.6540     5.0630     0.3650 O.3   1 <1>  -0.6800 
 25 C      -11.6550     6.6030    -1.0340 C.3   1 <1>  -0.2400 
 26 H        1.8540     0.9850    -0.7880 H     1 <1>   0.0800 
 27 H        0.7650     0.9500    -2.1700 H     1 <1>   0.0800 
 28 H       -1.2410     4.5730     1.4950 H     1 <1>   0.0800 
 29 H       -0.5500     4.4600    -0.1000 H     1 <1>   0.0800 
 30 H       -2.4390     1.0720     1.5710 H     1 <1>   0.0800 
 31 H       -2.3740     2.5470     2.4950 H     1 <1>   0.0800 
 32 H        2.7810     3.1530    -1.5760 H     1 <1>   0.0800 
 33 H        1.6950     3.1160    -2.9580 H     1 <1>   0.0800 
 34 H        2.9690     1.9310    -2.8080 H     1 <1>   0.0800 
 35 H       -2.7290     4.2520    -1.1170 H     1 <1>   0.0800 
 36 H       -2.6710     5.6780    -0.1100 H     1 <1>   0.0800 
 37 H       -4.5910     2.2350     1.5860 H     1 <1>   0.0800 
 38 H       -3.9560     2.0470    -0.0310 H     1 <1>   0.0800 
 39 H       -3.9250     4.5700     1.6500 H     1 <1>   0.0800 
 40 H       -5.1420     3.9580    -0.9570 H     1 <1>   0.4500 
 41 H       -5.3870     6.4310     0.6330 H     1 <1>   0.0800 
 42 H       -4.4530     6.2730    -0.8370 H     1 <1>   0.0800 
 43 H       -6.3410     2.8890     0.8530 H     1 <1>   0.0800 
 44 H       -6.4980     4.4540     1.6170 H     1 <1>   0.0800 
 45 H       -6.4710     5.7390    -2.1050 H     1 <1>   0.0800 
 46 H       -6.6060     7.2620    -1.2980 H     1 <1>   0.0800 
 47 H       -8.4980     3.8360     0.3810 H     1 <1>   0.0800 
 48 H       -7.6010     3.6730    -1.0870 H     1 <1>   0.0800 
 49 H       -9.3720     5.1530    -1.8620 H     1 <1>   0.0800 
 50 H       -8.3140     7.9350     1.9430 H     1 <1>   0.0800 
 51 H       -8.1420     8.2120     0.2240 H     1 <1>   0.0800 
 52 H       -9.8060     7.2270    -2.6180 H     1 <1>   0.4000 
 53 H      -10.4440     8.2500     0.5020 H     1 <1>   0.0800 
 54 H      -10.4650     7.0410     1.7330 H     1 <1>   0.0800 
 55 H      -11.4070     5.2000     0.9720 H     1 <1>   0.4000 
 56 H      -11.5500     7.5430    -1.5440 H     1 <1>   0.0800 
 57 H      -12.4780     6.6950    -0.3470 H     1 <1>   0.0800 
 58 H      -11.8880     5.8460    -1.7620 H     1 <1>   0.0800 
@<TRIPOS>BOND
  1   1   2  2   
  2   2   3  1   
  3   2   4  am  
  4   3   5  1   
  5   4   6  1   
  6   4   7  1   
  7   5   8  1   
  8   5  26  1   
  9   5  27  1   
 10   6   9  1   
 11   6  28  1   
 12   6  29  1   
 13   7  10  1   
 14   7  30  1   
 15   7  31  1   
 16   8  32  1   
 17   8  33  1   
 18   8  34  1   
 19   9  11  1   
 20   9  35  1   
 21   9  36  1   
 22  10  11  1   
 23  10  37  1   
 24  10  38  1   
 25  11  12  1   
 26  11  39  1   
 27  12  13  1   
 28  12  14  1   
 29  12  40  1   
 30  13  15  1   
 31  13  41  1   
 32  13  42  1   
 33  14  16  1   
 34  14  43  1   
 35  14  44  1   
 36  15  17  1   
 37  15  45  1   
 38  15  46  1   
 39  16  17  1   
 40  16  47  1   
 41  16  48  1   
 42  17  18  1   
 43  17  19  1   
 44  18  20  1   
 45  19  21  1   
 46  19  22  1   
 47  19  49  1   
 48  20  23  1   
 49  20  50  1   
 50  20  51  1   
 51  21  52  1   
 52  22  23  1   
 53  22  24  1   
 54  22  25  1   
 55  23  53  1   
 56  23  54  1   
 57  24  55  1   
 58  25  56  1   
 59  25  57  1   
 60  25  58  1   
@<TRIPOS>SUBSTRUCTURE
  1 ****  12 GROUP 4 **** **** 0

# MOE 2024.06 (io_trps.svl 2023.06)
