@<TRIPOS>MOLECULE
NONAME
52 54 1 0 0 
SMALL
USER_CHARGES


@<TRIPOS>ATOM
  1 F       -1.3620    -1.5890    -2.2980 F     1 <1>  -0.1900 
  2 C       -1.1820    -2.4730    -1.3530 C.ar  1 <1>   0.1900 
  3 C       -2.2740    -2.8850    -0.6130 C.ar  1 <1>  -0.1500 
  4 C        0.0910    -2.9630    -1.1340 C.ar  1 <1>  -0.1500 
  5 C       -2.0890    -3.8310     0.3850 C.ar  1 <1>  -0.1440 
  6 C        0.2720    -3.9000    -0.1320 C.ar  1 <1>  -0.1500 
  7 C       -0.8120    -4.3280     0.6210 C.ar  1 <1>  -0.1500 
  8 C       -3.2720    -4.3270     1.2130 C.3   1 <1>   0.0450 
  9 C       -3.3230    -5.8460     1.3230 C.2   1 <1>   0.5690 
 10 O       -3.1570    -6.3230     2.4210 O.2   1 <1>  -0.5700 
 11 N       -3.5420    -6.6300     0.2210 N.am  1 <1>  -0.6600 
 12 C       -3.4870    -8.1280     0.3360 C.3   1 <1>   0.3640 
 13 C       -3.8170    -6.0840    -1.1480 C.3   1 <1>   0.1400 
 14 C       -2.0910    -8.6780    -0.0110 C.ar  1 <1>  -0.1430 
 15 C       -4.5970    -8.8170    -0.5220 C.3   1 <1>   0.2000 
 16 C       -4.0980    -7.1900    -2.1760 C.3   1 <1>   0.1200 
 17 C       -1.8360   -10.0170     0.2620 C.ar  1 <1>  -0.1500 
 18 C       -1.0700    -7.9140    -0.5700 C.ar  1 <1>  -0.1500 
 19 O       -5.0280    -8.0810    -1.6470 O.3   1 <1>  -0.5600 
 20 C       -5.8480    -9.1040     0.3150 C.3   1 <1>   0.1200 
 21 C       -0.6130   -10.5940    -0.0330 C.ar  1 <1>   0.0830 
 22 C        0.1650    -8.4750    -0.8510 C.ar  1 <1>  -0.1500 
 23 O       -5.5940   -10.1240     1.2280 O.3   1 <1>  -0.6800 
 24 O       -0.4730   -11.9190     0.2210 O.3   1 <1>  -0.3630 
 25 C        0.4090    -9.8070    -0.5740 C.ar  1 <1>   0.0830 
 26 C       -0.2330   -12.7550    -0.8900 C.3   1 <1>   0.0400 
 27 O        1.6500   -10.2840    -0.8350 O.3   1 <1>  -0.3630 
 28 C        2.4200   -10.6510     0.2880 C.3   1 <1>   0.0400 
 29 H       -3.2420    -2.4670    -0.8240 H     1 <1>   0.1500 
 30 H        0.9150    -2.6160    -1.7310 H     1 <1>   0.1500 
 31 H        1.2520    -4.2980     0.0660 H     1 <1>   0.1500 
 32 H       -0.6540    -5.0590     1.3990 H     1 <1>   0.1500 
 33 H       -4.1990    -3.9810     0.7980 H     1 <1>   0.0800 
 34 H       -3.1910    -3.9150     2.2030 H     1 <1>   0.0800 
 35 H       -3.6590    -8.4020     1.3630 H     1 <1>   0.0800 
 36 H       -4.6740    -5.4350    -1.1030 H     1 <1>   0.0800 
 37 H       -2.9760    -5.5070    -1.4870 H     1 <1>   0.0800 
 38 H       -4.2280    -9.7530    -0.9010 H     1 <1>   0.0800 
 39 H       -3.2020    -7.7280    -2.4330 H     1 <1>   0.0800 
 40 H       -4.5160    -6.7680    -3.0730 H     1 <1>   0.0800 
 41 H       -2.5920   -10.6360     0.7120 H     1 <1>   0.1500 
 42 H       -1.2090    -6.8720    -0.7850 H     1 <1>   0.1500 
 43 H       -6.6640    -9.4160    -0.3140 H     1 <1>   0.0800 
 44 H       -6.1330    -8.2260     0.8680 H     1 <1>   0.0800 
 45 H        0.9480    -7.8760    -1.2780 H     1 <1>   0.1500 
 46 H       -5.6200   -10.9980     0.7900 H     1 <1>   0.4000 
 47 H       -0.2980   -13.7760    -0.5620 H     1 <1>   0.0800 
 48 H        0.7490   -12.5590    -1.2800 H     1 <1>   0.0800 
 49 H       -0.9790   -12.5590    -1.6400 H     1 <1>   0.0800 
 50 H        3.4010   -10.9290    -0.0520 H     1 <1>   0.0800 
 51 H        1.9540   -11.4830     0.7840 H     1 <1>   0.0800 
 52 H        2.4850    -9.8090     0.9540 H     1 <1>   0.0800 
@<TRIPOS>BOND
  1   1   2  1   
  2   2   3  ar  
  3   2   4  ar  
  4   3   5  ar  
  5   3  29  1   
  6   4   6  ar  
  7   4  30  1   
  8   5   7  ar  
  9   5   8  1   
 10   6   7  ar  
 11   6  31  1   
 12   7  32  1   
 13   8   9  1   
 14   8  33  1   
 15   8  34  1   
 16   9  10  2   
 17   9  11  am  
 18  11  12  1   
 19  11  13  1   
 20  12  14  1   
 21  12  15  1   
 22  12  35  1   
 23  13  16  1   
 24  13  36  1   
 25  13  37  1   
 26  14  17  ar  
 27  14  18  ar  
 28  15  19  1   
 29  15  20  1   
 30  15  38  1   
 31  16  19  1   
 32  16  39  1   
 33  16  40  1   
 34  17  21  ar  
 35  17  41  1   
 36  18  22  ar  
 37  18  42  1   
 38  20  23  1   
 39  20  43  1   
 40  20  44  1   
 41  21  24  1   
 42  21  25  ar  
 43  22  25  ar  
 44  22  45  1   
 45  23  46  1   
 46  24  26  1   
 47  25  27  1   
 48  26  47  1   
 49  26  48  1   
 50  26  49  1   
 51  27  28  1   
 52  28  50  1   
 53  28  51  1   
 54  28  52  1   
@<TRIPOS>SUBSTRUCTURE
  1 ****  18 GROUP 4 **** **** 0

# MOE 2024.06 (io_trps.svl 2023.06)
