@<TRIPOS>MOLECULE
NONAME
46 48 1 0 0 
SMALL
USER_CHARGES


@<TRIPOS>ATOM
  1 CL       0.4600     0.6820    -1.9910 Cl    1 <1>  -0.1770 
  2 C        1.6710     1.2720    -0.8810 C.ar  1 <1>   0.1770 
  3 C        2.5110     0.3810    -0.2360 C.ar  1 <1>   0.1600 
  4 C        1.7860     2.6240    -0.6550 C.ar  1 <1>  -0.1500 
  5 N        3.4550     0.7440     0.6230 N.ar  1 <1>  -0.6200 
  6 C        2.7710     3.0390     0.2320 C.ar  1 <1>   0.0860 
  7 C        3.5490     2.0500     0.8370 C.ar  1 <1>   0.1600 
  8 C        2.9820     4.4370     0.5320 C.2   1 <1>   0.5440 
  9 O        2.0230     5.1210     0.8310 O.2   1 <1>  -0.5700 
 10 N        4.2320     5.0200     0.4840 N.am  1 <1>  -0.6600 
 11 C        5.3740     4.4610    -0.3120 C.3   1 <1>   0.1400 
 12 C        4.4730     6.3360     1.1450 C.3   1 <1>   0.1400 
 13 C        5.8380     5.4140    -1.4240 C.3   1 <1>   0.1400 
 14 C        4.3360     7.4750     0.1260 C.3   1 <1>  -0.1600 
 15 N        6.5050     6.6210    -0.8510 N.am  1 <1>  -0.6600 
 16 C        5.6120     7.8020    -0.6660 C.3   1 <1>   0.1400 
 17 C        7.8380     6.5470    -0.5080 C.2   1 <1>   0.5690 
 18 O        8.4400     5.5040    -0.6280 O.2   1 <1>  -0.5700 
 19 C        8.6000     7.7640     0.0410 C.3   1 <1>  -0.0190 
 20 C        8.9210     8.7810    -1.0700 C.3   1 <1>  -0.1600 
 21 C        9.9170     7.3930     0.7540 C.3   1 <1>  -0.1600 
 22 C        9.7330     9.9580    -0.5170 C.3   1 <1>   0.1200 
 23 C       10.6690     8.6500     1.2030 C.3   1 <1>   0.1200 
 24 O       10.8850     9.4800     0.1040 O.3   1 <1>  -0.5600 
 25 H        2.3980    -0.6700    -0.4370 H     1 <1>   0.1500 
 26 H        1.1390     3.3330    -1.1410 H     1 <1>   0.1500 
 27 H        4.2980     2.3690     1.5430 H     1 <1>   0.1500 
 28 H        5.0840     3.5380    -0.7790 H     1 <1>   0.0800 
 29 H        6.2020     4.2480     0.3420 H     1 <1>   0.0800 
 30 H        5.4460     6.3460     1.6070 H     1 <1>   0.0800 
 31 H        3.7430     6.4750     1.9250 H     1 <1>   0.0800 
 32 H        5.0010     5.7000    -2.0370 H     1 <1>   0.0800 
 33 H        6.5370     4.8930    -2.0560 H     1 <1>   0.0800 
 34 H        4.0440     8.3660     0.6520 H     1 <1>   0.0800 
 35 H        3.5320     7.2480    -0.5510 H     1 <1>   0.0800 
 36 H        6.1310     8.5860    -0.1490 H     1 <1>   0.0800 
 37 H        5.3390     8.1870    -1.6330 H     1 <1>   0.0800 
 38 H        7.9830     8.2370     0.7800 H     1 <1>   0.0800 
 39 H        8.0170     9.1520    -1.5150 H     1 <1>   0.0800 
 40 H        9.4940     8.3010    -1.8450 H     1 <1>   0.0800 
 41 H       10.5540     6.8350     0.0890 H     1 <1>   0.0800 
 42 H        9.7090     6.7710     1.6060 H     1 <1>   0.0800 
 43 H        9.1660    10.5250     0.2030 H     1 <1>   0.0800 
 44 H       10.0400    10.6120    -1.3150 H     1 <1>   0.0800 
 45 H       11.6310     8.3870     1.6090 H     1 <1>   0.0800 
 46 H       10.1140     9.1990     1.9450 H     1 <1>   0.0800 
@<TRIPOS>BOND
  1   1   2  1   
  2   2   3  ar  
  3   2   4  ar  
  4   3   5  ar  
  5   3  25  1   
  6   4   6  ar  
  7   4  26  1   
  8   5   7  ar  
  9   6   7  ar  
 10   6   8  1   
 11   7  27  1   
 12   8   9  2   
 13   8  10  am  
 14  10  11  1   
 15  10  12  1   
 16  11  13  1   
 17  11  28  1   
 18  11  29  1   
 19  12  14  1   
 20  12  30  1   
 21  12  31  1   
 22  13  15  1   
 23  13  32  1   
 24  13  33  1   
 25  14  16  1   
 26  14  34  1   
 27  14  35  1   
 28  15  16  1   
 29  15  17  am  
 30  16  36  1   
 31  16  37  1   
 32  17  18  2   
 33  17  19  1   
 34  19  20  1   
 35  19  21  1   
 36  19  38  1   
 37  20  22  1   
 38  20  39  1   
 39  20  40  1   
 40  21  23  1   
 41  21  41  1   
 42  21  42  1   
 43  22  24  1   
 44  22  43  1   
 45  22  44  1   
 46  23  24  1   
 47  23  45  1   
 48  23  46  1   
@<TRIPOS>SUBSTRUCTURE
  1 ****  11 GROUP 4 **** **** 0

# MOE 2024.06 (io_trps.svl 2023.06)
