@<TRIPOS>MOLECULE
NONAME
38 40 1 0 0 
SMALL
USER_CHARGES


@<TRIPOS>ATOM
  1 N       -2.0610     0.0380    -0.1500 N.pl3 1 <1>   0.3000 
  2 N       -2.0900    -1.0170     0.6790 N.2   1 <1>  -0.7070 
  3 C       -1.2650     1.0260     0.3250 C.2   1 <1>  -0.3320 
  4 C       -1.3220    -0.6870     1.6680 C.2   1 <1>   0.1390 
  5 C       -0.7760     0.5810     1.5070 C.2   1 <1>  -0.1500 
  6 C       -1.0490     2.3390    -0.4150 C.3   1 <1>   0.1000 
  7 C        0.2780     3.0150     0.0100 C.3   1 <1>   0.3430 
  8 C       -2.2610     3.2590    -0.1930 C.3   1 <1>  -0.1600 
  9 N        0.1630     4.5060     0.1630 N.4   1 <1>  -0.9590 
 10 C       -2.0750     4.6260    -0.8830 C.3   1 <1>  -0.1600 
 11 C       -0.6240     5.1220    -0.9420 C.3   1 <1>   0.3430 
 12 C        1.4800     5.1560     0.3380 C.3   1 <1>   0.5230 
 13 C        1.2500     6.5700     0.8170 C.2   1 <1>  -0.3320 
 14 N        2.1220     7.5770     0.5740 N.pl3 1 <1>   0.3140 
 15 C        0.2330     7.1060     1.5370 C.2   1 <1>  -0.1500 
 16 N        1.6870     8.7290     1.0960 N.2   1 <1>  -0.7070 
 17 C        3.4060     7.5380    -0.1480 C.3   1 <1>   0.0160 
 18 C        0.5640     8.4470     1.6750 C.2   1 <1>   0.1390 
 19 H       -2.5990     0.0410    -1.0260 H     1 <1>   0.2700 
 20 H       -1.1380    -1.3310     2.5130 H     1 <1>   0.1500 
 21 H       -0.1160     1.0450     2.2170 H     1 <1>   0.1500 
 22 H       -0.9720     2.1200    -1.4670 H     1 <1>   0.0800 
 23 H        1.0290     2.7760    -0.7250 H     1 <1>   0.0800 
 24 H        0.5990     2.5950     0.9480 H     1 <1>   0.0800 
 25 H       -2.3900     3.4090     0.8660 H     1 <1>   0.0800 
 26 H       -3.1590     2.7890    -0.5570 H     1 <1>   0.0800 
 27 H       -0.3570     4.6960     1.0280 H     1 <1>   0.4500 
 28 H       -2.6790     5.3600    -0.3770 H     1 <1>   0.0800 
 29 H       -2.4440     4.5710    -1.8930 H     1 <1>   0.0800 
 30 H       -0.1870     4.8470    -1.8890 H     1 <1>   0.0800 
 31 H       -0.6090     6.1990    -0.8670 H     1 <1>   0.0800 
 32 H        2.0130     5.1610    -0.6000 H     1 <1>   0.0800 
 33 H        2.0690     4.6240     1.0680 H     1 <1>   0.0800 
 34 H       -0.6560     6.6620     1.9480 H     1 <1>   0.1500 
 35 H        4.0620     6.8290     0.3210 H     1 <1>   0.0800 
 36 H        3.8580     8.5130    -0.1080 H     1 <1>   0.0800 
 37 H        3.2350     7.2730    -1.1730 H     1 <1>   0.0800 
 38 H       -0.0310     9.1790     2.1980 H     1 <1>   0.1500 
@<TRIPOS>BOND
  1   1   2  1   
  2   1   3  1   
  3   1  19  1   
  4   2   4  2   
  5   3   5  2   
  6   3   6  1   
  7   4   5  1   
  8   4  20  1   
  9   5  21  1   
 10   6   7  1   
 11   6   8  1   
 12   6  22  1   
 13   7   9  1   
 14   7  23  1   
 15   7  24  1   
 16   8  10  1   
 17   8  25  1   
 18   8  26  1   
 19   9  11  1   
 20   9  12  1   
 21   9  27  1   
 22  10  11  1   
 23  10  28  1   
 24  10  29  1   
 25  11  30  1   
 26  11  31  1   
 27  12  13  1   
 28  12  32  1   
 29  12  33  1   
 30  13  14  1   
 31  13  15  2   
 32  14  16  1   
 33  14  17  1   
 34  15  18  1   
 35  15  34  1   
 36  16  18  2   
 37  17  35  1   
 38  17  36  1   
 39  17  37  1   
 40  18  38  1   
@<TRIPOS>SUBSTRUCTURE
  1 ****   9 GROUP 4 **** **** 0

# MOE 2024.06 (io_trps.svl 2023.06)
