@<TRIPOS>MOLECULE
NONAME
40 41 1 0 0 
SMALL
USER_CHARGES


@<TRIPOS>ATOM
  1 S       -0.7380    -1.0340     2.2350 S.3   1 <1>  -0.0800 
  2 C       -1.3690    -2.6170     1.8180 C.2   1 <1>  -0.1100 
  3 C        0.5410    -1.1850     1.0450 C.2   1 <1>  -0.1100 
  4 C       -0.6360    -3.1840     0.8370 C.2   1 <1>  -0.1810 
  5 C        0.4570    -2.3630     0.4010 C.2   1 <1>  -0.1500 
  6 C       -0.8820    -4.5460     0.2120 C.3   1 <1>   0.5240 
  7 N       -2.3250    -4.7450     0.0060 N.4   1 <1>  -0.9590 
  8 C       -2.7090    -6.1540    -0.3660 C.3   1 <1>   0.3430 
  9 C       -2.9950    -3.7300    -0.8470 C.3   1 <1>   0.3430 
 10 C       -4.1820    -6.2660    -0.8430 C.3   1 <1>   0.2000 
 11 C       -4.5170    -3.7810    -0.6140 C.3   1 <1>  -0.1600 
 12 O       -4.2190    -6.1040    -2.2290 O.3   1 <1>  -0.6800 
 13 C       -5.0500    -5.1820    -0.1630 C.3   1 <1>  -0.1060 
 14 C       -4.8150    -5.4340     1.3390 C.2   1 <1>   0.9060 
 15 C       -6.5520    -5.3450    -0.5270 C.3   1 <1>  -0.1600 
 16 O       -4.1430    -4.6180     1.9890 O.co2 1 <1>  -0.9000 
 17 O       -5.0750    -6.5480     1.7900 O.co2 1 <1>  -0.9000 
 18 C       -7.4720    -4.3490     0.1980 C.3   1 <1>  -0.1600 
 19 C       -8.9360    -4.5790    -0.1850 C.3   1 <1>  -0.2400 
 20 H       -2.2370    -2.9550     2.3650 H     1 <1>   0.1500 
 21 H        1.2290    -0.3630     0.9560 H     1 <1>   0.1500 
 22 H        1.1340    -2.6840    -0.3730 H     1 <1>   0.1500 
 23 H       -0.4950    -5.3100     0.8660 H     1 <1>   0.0800 
 24 H       -0.3720    -4.6100    -0.7340 H     1 <1>   0.0800 
 25 H       -2.7790    -4.5930     0.9450 H     1 <1>   0.4500 
 26 H       -2.0670    -6.5360    -1.1400 H     1 <1>   0.0800 
 27 H       -2.5980    -6.7760     0.5090 H     1 <1>   0.0800 
 28 H       -2.6320    -2.7410    -0.6190 H     1 <1>   0.0800 
 29 H       -2.7850    -3.9450    -1.8820 H     1 <1>   0.0800 
 30 H       -4.5540    -7.2530    -0.6200 H     1 <1>   0.0800 
 31 H       -4.7810    -3.0390     0.1200 H     1 <1>   0.0800 
 32 H       -4.9900    -3.4850    -1.5330 H     1 <1>   0.0800 
 33 H       -5.1430    -6.2050    -2.5370 H     1 <1>   0.4000 
 34 H       -6.6880    -5.2310    -1.5870 H     1 <1>   0.0800 
 35 H       -6.8600    -6.3430    -0.2630 H     1 <1>   0.0800 
 36 H       -7.3680    -4.4690     1.2650 H     1 <1>   0.0800 
 37 H       -7.2010    -3.3380    -0.0500 H     1 <1>   0.0800 
 38 H       -9.2400    -5.5750     0.0840 H     1 <1>   0.0800 
 39 H       -9.0770    -4.4440    -1.2430 H     1 <1>   0.0800 
 40 H       -9.5650    -3.8790     0.3370 H     1 <1>   0.0800 
@<TRIPOS>BOND
  1   1   2  1   
  2   1   3  1   
  3   2   4  2   
  4   2  20  1   
  5   3   5  2   
  6   3  21  1   
  7   4   5  1   
  8   4   6  1   
  9   5  22  1   
 10   6   7  1   
 11   6  23  1   
 12   6  24  1   
 13   7   8  1   
 14   7   9  1   
 15   7  25  1   
 16   8  10  1   
 17   8  26  1   
 18   8  27  1   
 19   9  11  1   
 20   9  28  1   
 21   9  29  1   
 22  10  12  1   
 23  10  13  1   
 24  10  30  1   
 25  11  13  1   
 26  11  31  1   
 27  11  32  1   
 28  12  33  1   
 29  13  14  1   
 30  13  15  1   
 31  14  16  ar  
 32  14  17  ar  
 33  15  18  1   
 34  15  34  1   
 35  15  35  1   
 36  18  19  1   
 37  18  36  1   
 38  18  37  1   
 39  19  38  1   
 40  19  39  1   
 41  19  40  1   
@<TRIPOS>SUBSTRUCTURE
  1 ****   7 GROUP 4 **** **** 0

# MOE 2024.06 (io_trps.svl 2023.06)
