@<TRIPOS>MOLECULE
NONAME
50 52 1 0 0 
SMALL
USER_CHARGES


@<TRIPOS>ATOM
  1 CL       0.8270     2.2680    -2.5580 Cl    1 <1>  -0.1770 
  2 C        1.9510     1.9010    -1.2620 C.ar  1 <1>   0.1770 
  3 C        1.6120     1.1770    -0.1110 C.ar  1 <1>   0.0820 
  4 C        3.2300     2.3920    -1.4380 C.ar  1 <1>  -0.1500 
  5 O        0.4110     0.6310     0.2090 O.3   1 <1>  -0.3630 
  6 C        2.6040     0.9740     0.8370 C.ar  1 <1>  -0.1500 
  7 C        4.2250     2.2010    -0.4820 C.ar  1 <1>   0.0860 
  8 C       -0.6900     0.5440    -0.6650 C.3   1 <1>   0.0400 
  9 C        3.8820     1.4690     0.6560 C.ar  1 <1>  -0.1500 
 10 C        5.5590     2.7390    -0.6760 C.2   1 <1>   0.5440 
 11 O        6.0610     2.7390    -1.7840 O.2   1 <1>  -0.5700 
 12 N        6.2920     3.3020     0.3500 N.am  1 <1>  -0.6600 
 13 C        7.7780     3.3860     0.2350 C.3   1 <1>   0.1400 
 14 C        5.6630     4.0620     1.4610 C.3   1 <1>   0.1400 
 15 C        8.2030     4.5020    -0.7370 C.3   1 <1>   0.3430 
 16 C        6.1440     5.5180     1.4870 C.3   1 <1>  -0.1600 
 17 N        7.8570     5.8920    -0.2800 N.4   1 <1>  -0.9590 
 18 C        6.4260     6.1030     0.0990 C.3   1 <1>   0.3430 
 19 C        8.2990     6.8900    -1.2870 C.3   1 <1>   0.4860 
 20 C        8.2760     8.2660    -0.6550 C.ar  1 <1>  -0.1430 
 21 C        8.9860     8.5100     0.5220 C.ar  1 <1>   0.4100 
 22 C        7.5430     9.2890    -1.2170 C.ar  1 <1>  -0.1500 
 23 N        8.9870     9.6530     1.1670 N.ar  1 <1>  -0.6200 
 24 N        9.7430     7.5660     1.1380 N.pl3 1 <1>  -0.9000 
 25 C        7.5530    10.5010    -0.5550 C.ar  1 <1>  -0.1500 
 26 C        8.2790    10.6260     0.6170 C.ar  1 <1>   0.1600 
 27 H        3.4620     2.9350    -2.3370 H     1 <1>   0.1500 
 28 H        2.3630     0.4130     1.7240 H     1 <1>   0.1500 
 29 H       -1.4520    -0.0420    -0.1830 H     1 <1>   0.0800 
 30 H       -0.3810     0.0590    -1.5740 H     1 <1>   0.0800 
 31 H       -1.0650     1.5340    -0.8560 H     1 <1>   0.0800 
 32 H        4.6300     1.2790     1.4060 H     1 <1>   0.1500 
 33 H        8.1410     2.4470    -0.1490 H     1 <1>   0.0800 
 34 H        8.2250     3.5350     1.2030 H     1 <1>   0.0800 
 35 H        5.8860     3.5810     2.4000 H     1 <1>   0.0800 
 36 H        4.5930     4.0570     1.3380 H     1 <1>   0.0800 
 37 H        7.7380     4.3090    -1.6900 H     1 <1>   0.0800 
 38 H        9.2680     4.4350    -0.8800 H     1 <1>   0.0800 
 39 H        7.0080     5.6160     2.1190 H     1 <1>   0.0800 
 40 H        5.3650     6.1010     1.9460 H     1 <1>   0.0800 
 41 H        8.4330     6.1350     0.5490 H     1 <1>   0.4500 
 42 H        6.2210     7.1610     0.1380 H     1 <1>   0.0800 
 43 H        5.7710     5.6610    -0.6350 H     1 <1>   0.0800 
 44 H        7.6540     6.8610    -2.1490 H     1 <1>   0.0800 
 45 H        9.3060     6.6710    -1.6020 H     1 <1>   0.0800 
 46 H        6.9790     9.1720    -2.1280 H     1 <1>   0.1500 
 47 H        9.8100     7.8300     2.1300 H     1 <1>   0.4000 
 48 H       10.7140     7.6030     0.8100 H     1 <1>   0.4000 
 49 H        7.0040    11.3430    -0.9400 H     1 <1>   0.1500 
 50 H        8.2770    11.5750     1.1270 H     1 <1>   0.1500 
@<TRIPOS>BOND
  1   1   2  1   
  2   2   3  ar  
  3   2   4  ar  
  4   3   5  1   
  5   3   6  ar  
  6   4   7  ar  
  7   4  27  1   
  8   5   8  1   
  9   6   9  ar  
 10   6  28  1   
 11   7   9  ar  
 12   7  10  1   
 13   8  29  1   
 14   8  30  1   
 15   8  31  1   
 16   9  32  1   
 17  10  11  2   
 18  10  12  am  
 19  12  13  1   
 20  12  14  1   
 21  13  15  1   
 22  13  33  1   
 23  13  34  1   
 24  14  16  1   
 25  14  35  1   
 26  14  36  1   
 27  15  17  1   
 28  15  37  1   
 29  15  38  1   
 30  16  18  1   
 31  16  39  1   
 32  16  40  1   
 33  17  18  1   
 34  17  19  1   
 35  17  41  1   
 36  18  42  1   
 37  18  43  1   
 38  19  20  1   
 39  19  44  1   
 40  19  45  1   
 41  20  21  ar  
 42  20  22  ar  
 43  21  23  ar  
 44  21  24  1   
 45  22  25  ar  
 46  22  46  1   
 47  23  26  ar  
 48  24  47  1   
 49  24  48  1   
 50  25  26  ar  
 51  25  49  1   
 52  26  50  1   
@<TRIPOS>SUBSTRUCTURE
  1 ****  18 GROUP 4 **** **** 0

# MOE 2024.06 (io_trps.svl 2023.06)
