@<TRIPOS>MOLECULE
NONAME
44 46 1 0 0 
SMALL
USER_CHARGES


@<TRIPOS>ATOM
  1 S       -3.5750    -1.0700    -3.1010 S.3   1 <1>  -0.0800 
  2 C       -2.7690    -2.5340    -2.5690 C.2   1 <1>  -0.1100 
  3 C       -3.0750    -0.2170    -1.6520 C.2   1 <1>  -0.1100 
  4 C       -2.1780    -2.3460    -1.3730 C.2   1 <1>  -0.1810 
  5 C       -2.3520    -1.0210    -0.8510 C.2   1 <1>  -0.1500 
  6 C       -1.4080    -3.4080    -0.6170 C.3   1 <1>   0.5240 
  7 N       -2.3630    -4.4530    -0.2110 N.4   1 <1>  -0.9590 
  8 C       -1.7150    -5.7000     0.2600 C.3   1 <1>   0.3430 
  9 C       -3.5140    -4.0000     0.6200 C.3   1 <1>   0.3430 
 10 C       -2.6990    -6.8710     0.1190 C.3   1 <1>  -0.1060 
 11 C       -4.1480    -5.1670     1.3880 C.3   1 <1>  -0.1600 
 12 C       -2.8200    -7.1680    -1.3660 C.2   1 <1>   0.9060 
 13 C       -4.1300    -6.4460     0.5480 C.3   1 <1>   0.2000 
 14 C       -2.1150    -8.0730     0.9200 C.3   1 <1>  -0.0170 
 15 O       -2.7160    -6.2170    -2.1570 O.co2 1 <1>  -0.9000 
 16 O       -3.1280    -8.2980    -1.7370 O.co2 1 <1>  -0.9000 
 17 O       -4.7570    -7.4350     1.2770 O.3   1 <1>  -0.6800 
 18 C       -0.6030    -8.2100     0.7690 C.ar  1 <1>  -0.1440 
 19 C        0.2430    -7.8590     1.8120 C.ar  1 <1>  -0.1500 
 20 C       -0.0580    -8.6770    -0.4170 C.ar  1 <1>  -0.1500 
 21 C        1.6160    -7.9580     1.6640 C.ar  1 <1>  -0.1500 
 22 C        1.3140    -8.7750    -0.5670 C.ar  1 <1>  -0.1500 
 23 C        2.1520    -8.4140     0.4730 C.ar  1 <1>  -0.1500 
 24 H       -2.8300    -3.3950    -3.2180 H     1 <1>   0.1500 
 25 H       -3.3790     0.8110    -1.5580 H     1 <1>   0.1500 
 26 H       -1.9300    -0.7220     0.0940 H     1 <1>   0.1500 
 27 H       -0.9220    -2.9830     0.2440 H     1 <1>   0.0800 
 28 H       -0.6620    -3.8350    -1.2680 H     1 <1>   0.0800 
 29 H       -2.7500    -4.7890    -1.1310 H     1 <1>   0.4500 
 30 H       -0.8410    -5.9140    -0.3360 H     1 <1>   0.0800 
 31 H       -1.4130    -5.5940     1.2880 H     1 <1>   0.0800 
 32 H       -3.1920    -3.2500     1.3230 H     1 <1>   0.0800 
 33 H       -4.2520    -3.5540    -0.0280 H     1 <1>   0.0800 
 34 H       -5.1610    -4.9100     1.6390 H     1 <1>   0.0800 
 35 H       -3.6090    -5.3280     2.3040 H     1 <1>   0.0800 
 36 H       -4.7420    -6.2770    -0.3260 H     1 <1>   0.0800 
 37 H       -2.3380    -7.9470     1.9650 H     1 <1>   0.0800 
 38 H       -2.5850    -8.9920     0.6130 H     1 <1>   0.0800 
 39 H       -4.8420    -8.2340     0.7120 H     1 <1>   0.4000 
 40 H       -0.1600    -7.5120     2.7470 H     1 <1>   0.1500 
 41 H       -0.7020    -8.9700    -1.2330 H     1 <1>   0.1500 
 42 H        2.2670    -7.6870     2.4760 H     1 <1>   0.1500 
 43 H        1.7240    -9.1370    -1.4940 H     1 <1>   0.1500 
 44 H        3.2190    -8.4930     0.3550 H     1 <1>   0.1500 
@<TRIPOS>BOND
  1   1   2  1   
  2   1   3  1   
  3   2   4  2   
  4   2  24  1   
  5   3   5  2   
  6   3  25  1   
  7   4   5  1   
  8   4   6  1   
  9   5  26  1   
 10   6   7  1   
 11   6  27  1   
 12   6  28  1   
 13   7   8  1   
 14   7   9  1   
 15   7  29  1   
 16   8  10  1   
 17   8  30  1   
 18   8  31  1   
 19   9  11  1   
 20   9  32  1   
 21   9  33  1   
 22  10  12  1   
 23  10  13  1   
 24  10  14  1   
 25  11  13  1   
 26  11  34  1   
 27  11  35  1   
 28  12  15  ar  
 29  12  16  ar  
 30  13  17  1   
 31  13  36  1   
 32  14  18  1   
 33  14  37  1   
 34  14  38  1   
 35  17  39  1   
 36  18  19  ar  
 37  18  20  ar  
 38  19  21  ar  
 39  19  40  1   
 40  20  22  ar  
 41  20  41  1   
 42  21  23  ar  
 43  21  42  1   
 44  22  23  ar  
 45  22  43  1   
 46  23  44  1   
@<TRIPOS>SUBSTRUCTURE
  1 ****   8 GROUP 4 **** **** 0

# MOE 2024.06 (io_trps.svl 2023.06)
