@<TRIPOS>MOLECULE
NONAME
46 49 1 0 0 
SMALL
USER_CHARGES


@<TRIPOS>ATOM
  1 S       -0.1530     1.2660     2.3520 S.3   1 <1>  -0.0800 
  2 C       -0.9970     1.3170     0.8120 C.2   1 <1>  -0.1400 
  3 C       -1.2650     0.0440     2.9560 C.2   1 <1>  -0.1100 
  4 C       -2.0350     0.4700     0.8120 C.2   1 <1>  -0.1810 
  5 C       -0.5650     2.2220    -0.3370 C.3   1 <1>   0.4600 
  6 C       -2.1920    -0.2650     2.0290 C.2   1 <1>  -0.1500 
  7 C       -2.9120     0.3670    -0.4140 C.3   1 <1>   0.0210 
  8 O       -1.3510     1.9140    -1.4730 O.3   1 <1>  -0.5600 
  9 C       -0.7530     3.7060     0.0090 C.3   1 <1>  -0.1600 
 10 C        0.8890     1.9440    -0.7360 C.3   1 <1>  -0.1600 
 11 C       -2.7170     1.6280    -1.2790 C.3   1 <1>   0.1200 
 12 C       -0.2770     4.6050    -1.1330 C.3   1 <1>   0.1400 
 13 C        1.3570     2.8760    -1.8560 C.3   1 <1>   0.1400 
 14 N        1.1480     4.2890    -1.4320 N.am  1 <1>  -0.6600 
 15 C        2.2020     5.1610    -1.3150 C.2   1 <1>   0.5690 
 16 O        3.3300     4.8390    -1.6090 O.2   1 <1>  -0.5700 
 17 C        1.9680     6.5780    -0.8040 C.3   1 <1>  -0.0990 
 18 C        3.2600     7.3750    -0.5220 C.3   1 <1>  -0.1600 
 19 C        2.9860     8.8300    -0.1180 C.3   1 <1>   0.2810 
 20 N        4.2670     9.4910     0.2260 N.am  1 <1>  -0.7300 
 21 C        2.2290     9.0140     1.2050 C.2   1 <1>   0.5690 
 22 C        4.2540     9.8780     1.5170 C.2   1 <1>   0.6900 
 23 O        1.0890     8.6930     1.4300 O.2   1 <1>  -0.5700 
 24 N        3.0550     9.6250     2.0810 N.am  1 <1>  -0.4900 
 25 O        5.1960    10.3520     2.1040 O.2   1 <1>  -0.5700 
 26 H       -1.1030    -0.3180     3.9560 H     1 <1>   0.1500 
 27 H       -2.9840    -0.9830     2.1500 H     1 <1>   0.1500 
 28 H       -3.9450     0.2890    -0.1260 H     1 <1>   0.0800 
 29 H       -2.6480    -0.5090    -0.9790 H     1 <1>   0.0800 
 30 H       -1.7830     3.9050     0.2350 H     1 <1>   0.0800 
 31 H       -0.1830     3.9390     0.8900 H     1 <1>   0.0800 
 32 H        1.5330     2.0840     0.1120 H     1 <1>   0.0800 
 33 H        0.9810     0.9200    -1.0480 H     1 <1>   0.0800 
 34 H       -3.1800     2.4780    -0.8100 H     1 <1>   0.0800 
 35 H       -3.1620     1.4850    -2.2480 H     1 <1>   0.0800 
 36 H       -0.4090     5.6360    -0.8620 H     1 <1>   0.0800 
 37 H       -0.8680     4.4190    -2.0140 H     1 <1>   0.0800 
 38 H        0.7920     2.6880    -2.7530 H     1 <1>   0.0800 
 39 H        2.3950     2.6870    -2.0720 H     1 <1>   0.0800 
 40 H        1.3790     7.1000    -1.5360 H     1 <1>   0.0800 
 41 H        1.4020     6.5060     0.1050 H     1 <1>   0.0800 
 42 H        3.8660     7.3760    -1.4120 H     1 <1>   0.0800 
 43 H        3.8090     6.8770     0.2590 H     1 <1>   0.0800 
 44 H        2.4890     9.3700    -0.9050 H     1 <1>   0.0800 
 45 H        5.1370     9.3460    -0.2870 H     1 <1>   0.3700 
 46 H        2.8330     9.8600     3.0410 H     1 <1>   0.3700 
@<TRIPOS>BOND
  1   1   2  1   
  2   1   3  1   
  3   2   4  2   
  4   2   5  1   
  5   3   6  2   
  6   3  26  1   
  7   4   6  1   
  8   4   7  1   
  9   5   8  1   
 10   5   9  1   
 11   5  10  1   
 12   6  27  1   
 13   7  11  1   
 14   7  28  1   
 15   7  29  1   
 16   8  11  1   
 17   9  12  1   
 18   9  30  1   
 19   9  31  1   
 20  10  13  1   
 21  10  32  1   
 22  10  33  1   
 23  11  34  1   
 24  11  35  1   
 25  12  14  1   
 26  12  36  1   
 27  12  37  1   
 28  13  14  1   
 29  13  38  1   
 30  13  39  1   
 31  14  15  am  
 32  15  16  2   
 33  15  17  1   
 34  17  18  1   
 35  17  40  1   
 36  17  41  1   
 37  18  19  1   
 38  18  42  1   
 39  18  43  1   
 40  19  20  1   
 41  19  21  1   
 42  19  44  1   
 43  20  22  am  
 44  20  45  1   
 45  21  23  2   
 46  21  24  am  
 47  22  24  am  
 48  22  25  2   
 49  24  46  1   
@<TRIPOS>SUBSTRUCTURE
  1 ****  14 GROUP 4 **** **** 0

# MOE 2024.06 (io_trps.svl 2023.06)
