@<TRIPOS>MOLECULE
NONAME
46 49 1 0 0 
SMALL
USER_CHARGES


@<TRIPOS>ATOM
  1 S       -1.3110     1.7670     2.6450 S.3   1 <1>  -0.0800 
  2 C       -1.8510     0.5570     1.5000 C.2   1 <1>   0.1980 
  3 C        0.2880     1.6510     1.9710 C.2   1 <1>  -0.1100 
  4 N       -0.9360     0.1320     0.7180 N.2   1 <1>  -0.5650 
  5 C       -3.3180     0.1580     1.5650 C.3   1 <1>   0.3200 
  6 C        0.2760     0.7470     0.9800 C.2   1 <1>   0.0460 
  7 N       -3.5950    -0.9260     0.6000 N.am  1 <1>  -0.7300 
  8 C        1.4520     0.3330     0.1250 C.3   1 <1>  -0.0590 
  9 C       -4.7130    -1.6880     0.5700 C.2   1 <1>   0.5690 
 10 O       -5.6210    -1.4740     1.3380 O.2   1 <1>  -0.5700 
 11 C       -4.8190    -2.8320    -0.4500 C.3   1 <1>   0.2610 
 12 O       -3.5250    -3.2160    -0.8830 O.3   1 <1>  -0.5600 
 13 C       -5.6240    -4.0210     0.1450 C.3   1 <1>   0.3640 
 14 C       -3.5140    -4.2570    -1.8250 C.3   1 <1>   0.1810 
 15 N       -5.1590    -5.3690    -0.3140 N.am  1 <1>  -0.5090 
 16 C       -7.1080    -3.8660    -0.1930 C.ar  1 <1>  -0.1430 
 17 C       -4.2310    -5.5030    -1.3130 C.2   1 <1>   0.5690 
 18 C       -5.8480    -6.5300     0.3000 C.3   1 <1>   0.0490 
 19 C       -7.9920    -3.3890     0.7660 C.ar  1 <1>   0.1600 
 20 C       -7.6070    -4.1920    -1.4420 C.ar  1 <1>  -0.1500 
 21 O       -3.9680    -6.5610    -1.8370 O.2   1 <1>  -0.5700 
 22 C       -5.7430    -6.7260     1.7800 C.3   1 <1>  -0.2000 
 23 C       -5.0400    -7.6620     0.8500 C.3   1 <1>  -0.2000 
 24 N       -9.2930    -3.2240     0.5860 N.ar  1 <1>  -0.6200 
 25 C       -8.9590    -4.0230    -1.6470 C.ar  1 <1>  -0.1500 
 26 C       -9.7460    -3.5440    -0.6150 C.ar  1 <1>   0.1600 
 27 H        1.0600     2.2700     2.3890 H     1 <1>   0.1500 
 28 H       -3.9330     1.0090     1.3290 H     1 <1>   0.0800 
 29 H       -3.5580    -0.1780     2.5580 H     1 <1>   0.0800 
 30 H       -2.7810    -1.1860     0.0260 H     1 <1>   0.3700 
 31 H        2.3370     0.8690     0.4160 H     1 <1>   0.0800 
 32 H        1.2390     0.5420    -0.9080 H     1 <1>   0.0800 
 33 H        1.6270    -0.7210     0.2370 H     1 <1>   0.0800 
 34 H       -5.3380    -2.4470    -1.3080 H     1 <1>   0.0800 
 35 H       -5.5090    -3.9950     1.2140 H     1 <1>   0.0800 
 36 H       -3.9800    -3.9110    -2.7300 H     1 <1>   0.0800 
 37 H       -2.4880    -4.5000    -2.0320 H     1 <1>   0.0800 
 38 H       -6.7810    -6.7640    -0.1870 H     1 <1>   0.1000 
 39 H       -7.6130    -3.1230     1.7390 H     1 <1>   0.1500 
 40 H       -6.9770    -4.5730    -2.2280 H     1 <1>   0.1500 
 41 H       -5.1360    -6.0650     2.3720 H     1 <1>   0.1000 
 42 H       -6.6000    -7.0950     2.3160 H     1 <1>   0.1000 
 43 H       -5.4200    -8.6620     0.7390 H     1 <1>   0.1000 
 44 H       -3.9690    -7.6150     0.7610 H     1 <1>   0.1000 
 45 H       -9.4040    -4.2620    -2.5950 H     1 <1>   0.1500 
 46 H      -10.8020    -3.4170    -0.7840 H     1 <1>   0.1500 
@<TRIPOS>BOND
  1   1   2  1   
  2   1   3  1   
  3   2   4  2   
  4   2   5  1   
  5   3   6  2   
  6   3  27  1   
  7   4   6  1   
  8   5   7  1   
  9   5  28  1   
 10   5  29  1   
 11   6   8  1   
 12   7   9  am  
 13   7  30  1   
 14   8  31  1   
 15   8  32  1   
 16   8  33  1   
 17   9  10  2   
 18   9  11  1   
 19  11  12  1   
 20  11  13  1   
 21  11  34  1   
 22  12  14  1   
 23  13  15  1   
 24  13  16  1   
 25  13  35  1   
 26  14  17  1   
 27  14  36  1   
 28  14  37  1   
 29  15  17  am  
 30  15  18  1   
 31  16  19  ar  
 32  16  20  ar  
 33  17  21  2   
 34  18  22  1   
 35  18  23  1   
 36  18  38  1   
 37  19  24  ar  
 38  19  39  1   
 39  20  25  ar  
 40  20  40  1   
 41  22  23  1   
 42  22  41  1   
 43  22  42  1   
 44  23  43  1   
 45  23  44  1   
 46  24  26  ar  
 47  25  26  ar  
 48  25  45  1   
 49  26  46  1   
@<TRIPOS>SUBSTRUCTURE
  1 ****  11 GROUP 4 **** **** 0

# MOE 2024.06 (io_trps.svl 2023.06)
