@<TRIPOS>MOLECULE
NONAME
49 53 1 0 0 
SMALL
USER_CHARGES


@<TRIPOS>ATOM
  1 S       -0.1410     1.0030    -2.0330 S.3   1 <1>  -0.0800 
  2 C       -1.1380     1.4750    -0.6650 C.2   1 <1>  -0.1400 
  3 C       -1.3510    -0.1630    -2.5530 C.2   1 <1>  -0.1100 
  4 C       -2.2870     0.7870    -0.6570 C.2   1 <1>  -0.1810 
  5 C       -0.7060     2.5320     0.3460 C.3   1 <1>   0.4600 
  6 C       -2.4150    -0.1550    -1.7260 C.2   1 <1>  -0.1500 
  7 C       -3.3040     1.0490     0.4300 C.3   1 <1>   0.0210 
  8 O       -1.6550     2.5650     1.3960 O.3   1 <1>  -0.5600 
  9 C        0.6350     2.1620     0.9870 C.3   1 <1>  -0.1600 
 10 C       -0.6240     3.9240    -0.2950 C.3   1 <1>  -0.1600 
 11 C       -3.0170     2.4230     1.0660 C.3   1 <1>   0.1200 
 12 C        1.1000     3.2310     1.9770 C.3   1 <1>   0.1400 
 13 C       -0.1530     4.9800     0.7070 C.3   1 <1>   0.1400 
 14 N        1.1490     4.5540     1.2920 N.am  1 <1>  -0.6600 
 15 C        2.3380     5.2300     1.1000 C.2   1 <1>   0.5440 
 16 O        3.3870     4.6460     1.2940 O.2   1 <1>  -0.5700 
 17 C        2.3740     6.6130     0.6640 C.ar  1 <1>   0.0860 
 18 C        1.6770     7.6150     1.3370 C.ar  1 <1>  -0.1500 
 19 C        3.1180     6.9980    -0.4490 C.ar  1 <1>  -0.1500 
 20 C        1.7090     8.9290     0.9100 C.ar  1 <1>  -0.1500 
 21 C        3.1490     8.3110    -0.8760 C.ar  1 <1>  -0.1500 
 22 C        2.4430     9.3170    -0.2130 C.ar  1 <1>   0.0540 
 23 C        2.4780    10.6950    -0.6730 C.2   1 <1>   0.4620 
 24 N        1.8230    11.6840    -0.0500 N.2   1 <1>  -0.2270 
 25 N        3.1280    11.1100    -1.7130 N.2   1 <1>  -0.7070 
 26 N        2.0580    12.7480    -0.7030 N.2   1 <1>  -0.4180 
 27 N        2.8440    12.3890    -1.6980 N.pl3 1 <1>   0.5800 
 28 C        3.3510    13.3290    -2.7010 C.3   1 <1>   0.0160 
 29 H       -1.1330    -0.7390    -3.4350 H     1 <1>   0.1500 
 30 H       -3.2890    -0.7740    -1.8240 H     1 <1>   0.1500 
 31 H       -3.2440     0.2790     1.1780 H     1 <1>   0.0800 
 32 H       -4.2960     1.0480     0.0170 H     1 <1>   0.0800 
 33 H        1.3870     2.0570     0.2260 H     1 <1>   0.0800 
 34 H        0.5410     1.2150     1.4850 H     1 <1>   0.0800 
 35 H       -1.5760     4.2010    -0.7050 H     1 <1>   0.0800 
 36 H        0.0760     3.8940    -1.1100 H     1 <1>   0.0800 
 37 H       -3.5870     2.5390     1.9710 H     1 <1>   0.0800 
 38 H       -3.2870     3.2130     0.3870 H     1 <1>   0.0800 
 39 H        2.0670     2.9660     2.3690 H     1 <1>   0.0800 
 40 H        0.4130     3.2880     2.8030 H     1 <1>   0.0800 
 41 H       -0.8760     5.0860     1.4980 H     1 <1>   0.0800 
 42 H       -0.0610     5.9260     0.2040 H     1 <1>   0.0800 
 43 H        1.1080     7.3500     2.2120 H     1 <1>   0.1500 
 44 H        3.6800     6.2460    -0.9770 H     1 <1>   0.1500 
 45 H        1.1540     9.6700     1.4610 H     1 <1>   0.1500 
 46 H        3.7350     8.5680    -1.7420 H     1 <1>   0.1500 
 47 H        4.3590    13.0610    -2.9530 H     1 <1>   0.0800 
 48 H        3.3280    14.3230    -2.2970 H     1 <1>   0.0800 
 49 H        2.7290    13.2730    -3.5730 H     1 <1>   0.0800 
@<TRIPOS>BOND
  1   1   2  1   
  2   1   3  1   
  3   2   4  2   
  4   2   5  1   
  5   3   6  2   
  6   3  29  1   
  7   4   6  1   
  8   4   7  1   
  9   5   8  1   
 10   5   9  1   
 11   5  10  1   
 12   6  30  1   
 13   7  11  1   
 14   7  31  1   
 15   7  32  1   
 16   8  11  1   
 17   9  12  1   
 18   9  33  1   
 19   9  34  1   
 20  10  13  1   
 21  10  35  1   
 22  10  36  1   
 23  11  37  1   
 24  11  38  1   
 25  12  14  1   
 26  12  39  1   
 27  12  40  1   
 28  13  14  1   
 29  13  41  1   
 30  13  42  1   
 31  14  15  am  
 32  15  16  2   
 33  15  17  1   
 34  17  18  ar  
 35  17  19  ar  
 36  18  20  ar  
 37  18  43  1   
 38  19  21  ar  
 39  19  44  1   
 40  20  22  ar  
 41  20  45  1   
 42  21  22  ar  
 43  21  46  1   
 44  22  23  1   
 45  23  24  1   
 46  23  25  2   
 47  24  26  2   
 48  25  27  1   
 49  26  27  1   
 50  27  28  1   
 51  28  47  1   
 52  28  48  1   
 53  28  49  1   
@<TRIPOS>SUBSTRUCTURE
  1 ****  13 GROUP 4 **** **** 0

# MOE 2024.06 (io_trps.svl 2023.06)
