@<TRIPOS>MOLECULE
NONAME
42 44 1 0 0 
SMALL
USER_CHARGES


@<TRIPOS>ATOM
  1 O       -0.6980    -0.5810    -0.0210 O.co2 1 <1>  -0.9000 
  2 C       -0.6370    -1.8210    -0.0440 C.2   1 <1>   1.0330 
  3 O       -1.6210    -2.4650     0.3720 O.co2 1 <1>  -0.9000 
  4 C        0.5310    -2.5040    -0.5140 C.2   1 <1>  -0.2330 
  5 C        0.5350    -3.8280    -0.9490 C.2   1 <1>   0.3720 
  6 C        1.8310    -2.1250    -0.6600 C.2   1 <1>   0.0870 
  7 N        1.7070    -4.2070    -1.3170 N.2   1 <1>  -0.4100 
  8 N       -0.5850    -4.6440    -0.9710 N.pl3 1 <1>  -0.8520 
  9 O        2.4740    -3.1650    -1.1420 O.3   1 <1>  -0.0190 
 10 C        2.5750    -0.9160    -0.3890 C.ar  1 <1>   0.0530 
 11 C       -0.4070    -5.9890    -0.3720 C.3   1 <1>   0.2090 
 12 C        3.7020    -0.5910    -1.1460 C.ar  1 <1>  -0.1500 
 13 C        2.2290    -0.0410     0.6400 C.ar  1 <1>  -0.1500 
 14 C       -1.7280    -6.6670     0.0610 C.3   1 <1>   0.0000 
 15 C        4.4460     0.5470    -0.8910 C.ar  1 <1>  -0.1500 
 16 C        2.9650     1.1000     0.9000 C.ar  1 <1>  -0.1500 
 17 C       -2.8180    -6.7610    -1.0470 C.3   1 <1>   0.0000 
 18 C       -2.7040    -5.7760     0.8840 C.3   1 <1>   0.0000 
 19 C       -1.4650    -8.0070     0.7650 C.3   1 <1>   0.1200 
 20 C        4.0790     1.3970     0.1360 C.ar  1 <1>  -0.1500 
 21 C       -3.5290    -5.5380    -0.4080 C.3   1 <1>   0.0000 
 22 O       -0.7760    -8.8620    -0.0920 O.3   1 <1>  -0.5600 
 23 C       -0.5060   -10.1130     0.4510 C.3   1 <1>   0.0400 
 24 H       -1.3320    -4.1130    -0.4720 H     1 <1>   0.4000 
 25 H        0.2380    -5.9020     0.4860 H     1 <1>   0.0800 
 26 H        0.0910    -6.6160    -1.0920 H     1 <1>   0.0800 
 27 H        3.9940    -1.2430    -1.9500 H     1 <1>   0.1500 
 28 H        1.3640    -0.2560     1.2430 H     1 <1>   0.1500 
 29 H        5.3090     0.7710    -1.4920 H     1 <1>   0.1500 
 30 H        2.6620     1.7560     1.6980 H     1 <1>   0.1500 
 31 H       -3.4160    -7.6530    -0.9770 H     1 <1>   0.0000 
 32 H       -2.4550    -6.5750    -2.0420 H     1 <1>   0.0000 
 33 H       -2.2600    -4.8870     1.2910 H     1 <1>   0.0000 
 34 H       -3.2670    -6.3300     1.6160 H     1 <1>   0.0000 
 35 H       -2.3940    -8.4760     1.0410 H     1 <1>   0.0800 
 36 H       -0.8670    -7.8490     1.6460 H     1 <1>   0.0800 
 37 H        4.6510     2.2850     0.3380 H     1 <1>   0.1500 
 38 H       -4.5860    -5.6820    -0.2720 H     1 <1>   0.0000 
 39 H       -3.2880    -4.6110    -0.8960 H     1 <1>   0.0000 
 40 H        0.0270   -10.6880    -0.2850 H     1 <1>   0.0800 
 41 H       -1.4340   -10.6030     0.6920 H     1 <1>   0.0800 
 42 H        0.1030    -9.9960     1.3310 H     1 <1>   0.0800 
@<TRIPOS>BOND
  1   1   2  ar  
  2   2   3  ar  
  3   2   4  1   
  4   4   5  1   
  5   4   6  2   
  6   5   7  2   
  7   5   8  1   
  8   6   9  1   
  9   6  10  1   
 10   7   9  1   
 11   8  11  1   
 12   8  24  1   
 13  10  12  ar  
 14  10  13  ar  
 15  11  14  1   
 16  11  25  1   
 17  11  26  1   
 18  12  15  ar  
 19  12  27  1   
 20  13  16  ar  
 21  13  28  1   
 22  14  17  1   
 23  14  18  1   
 24  14  19  1   
 25  15  20  ar  
 26  15  29  1   
 27  16  20  ar  
 28  16  30  1   
 29  17  21  1   
 30  17  31  1   
 31  17  32  1   
 32  18  21  1   
 33  18  33  1   
 34  18  34  1   
 35  19  22  1   
 36  19  35  1   
 37  19  36  1   
 38  20  37  1   
 39  21  38  1   
 40  21  39  1   
 41  22  23  1   
 42  23  40  1   
 43  23  41  1   
 44  23  42  1   
@<TRIPOS>SUBSTRUCTURE
  1 ****   5 GROUP 4 **** **** 0

# MOE 2024.06 (io_trps.svl 2023.06)
