@<TRIPOS>MOLECULE
NONAME
55 57 1 0 0 
SMALL
USER_CHARGES


@<TRIPOS>ATOM
  1 O        0.7070    -1.6300    -2.6270 O.2   1 <1>  -0.5700 
  2 C        1.3030    -1.4620    -1.5900 C.2   1 <1>   0.5690 
  3 N        0.8770    -2.0100    -0.4070 N.am  1 <1>  -0.6600 
  4 C        2.5420    -0.5830    -1.6330 C.3   1 <1>  -0.0990 
  5 C        1.6080    -1.8790     0.8830 C.3   1 <1>   0.1400 
  6 C       -0.3120    -2.9050    -0.3670 C.3   1 <1>   0.1400 
  7 C        3.4510    -0.7340    -0.4060 C.3   1 <1>  -0.1600 
  8 C        2.5990    -0.7100     0.8650 C.3   1 <1>  -0.1600 
  9 C       -1.5860    -2.0650    -0.2570 C.3   1 <1>  -0.0990 
 10 C       -2.8370    -2.9070    -0.0670 C.2   1 <1>   0.5690 
 11 O       -2.7150    -4.1080     0.0200 O.2   1 <1>  -0.5700 
 12 N       -4.0650    -2.3000     0.0230 N.am  1 <1>  -0.6600 
 13 C       -5.2850    -3.1210     0.2950 C.3   1 <1>   0.1400 
 14 C       -4.2740    -0.8250    -0.1070 C.3   1 <1>   0.1400 
 15 C       -6.2960    -2.3210     1.1210 C.3   1 <1>  -0.1600 
 16 C       -5.6920    -0.5370    -0.5990 C.3   1 <1>  -0.1600 
 17 C       -6.7520    -1.0190     0.4190 C.3   1 <1>   0.2800 
 18 O       -6.7570    -0.0310     1.4270 O.3   1 <1>  -0.5600 
 19 C       -8.1660    -1.2030    -0.2260 C.3   1 <1>   0.2000 
 20 C       -7.9230     0.6990     1.6790 C.3   1 <1>   0.1200 
 21 O       -8.1260    -2.1030    -1.3030 O.3   1 <1>  -0.6800 
 22 C       -8.8670     0.1450    -0.5930 C.3   1 <1>   0.2800 
 23 C       -8.4440     1.2740     0.3620 C.3   1 <1>  -0.1600 
 24 O      -10.2250    -0.0330    -0.4140 O.3   1 <1>  -0.6800 
 25 C       -8.7050     0.5870    -2.0550 C.3   1 <1>  -0.2400 
 26 H        3.0980    -0.8120    -2.5240 H     1 <1>   0.0800 
 27 H        2.2100     0.4360    -1.7080 H     1 <1>   0.0800 
 28 H        0.9030    -1.7340     1.6830 H     1 <1>   0.0800 
 29 H        2.1410    -2.7970     1.0660 H     1 <1>   0.0800 
 30 H       -0.3510    -3.5000    -1.2650 H     1 <1>   0.0800 
 31 H       -0.2360    -3.5780     0.4700 H     1 <1>   0.0800 
 32 H        3.9810    -1.6700    -0.4660 H     1 <1>   0.0800 
 33 H        4.1740     0.0630    -0.3870 H     1 <1>   0.0800 
 34 H        2.0550     0.2160     0.9250 H     1 <1>   0.0800 
 35 H        3.2340    -0.7740     1.7310 H     1 <1>   0.0800 
 36 H       -1.6860    -1.4950    -1.1610 H     1 <1>   0.0800 
 37 H       -1.4990    -1.3970     0.5790 H     1 <1>   0.0800 
 38 H       -5.7260    -3.4190    -0.6410 H     1 <1>   0.0800 
 39 H       -5.0150    -4.0140     0.8330 H     1 <1>   0.0800 
 40 H       -4.1210    -0.3600     0.8530 H     1 <1>   0.0800 
 41 H       -3.5720    -0.4070    -0.8060 H     1 <1>   0.0800 
 42 H       -5.8350    -2.0920     2.0650 H     1 <1>   0.0800 
 43 H       -7.1420    -2.9530     1.3240 H     1 <1>   0.0800 
 44 H       -5.8110    -1.0320    -1.5440 H     1 <1>   0.0800 
 45 H       -5.7990     0.5180    -0.7700 H     1 <1>   0.0800 
 46 H       -8.7780    -1.6800     0.5210 H     1 <1>   0.0800 
 47 H       -8.6480     0.0520     2.1440 H     1 <1>   0.0800 
 48 H       -7.6700     1.4890     2.3650 H     1 <1>   0.0800 
 49 H       -7.8170    -1.6500    -2.1080 H     1 <1>   0.4000 
 50 H       -7.6530     1.8580    -0.0710 H     1 <1>   0.0800 
 51 H       -9.2650     1.9420     0.5530 H     1 <1>   0.0800 
 52 H      -10.7130     0.7190    -0.7950 H     1 <1>   0.4000 
 53 H       -7.6650     0.6920    -2.3040 H     1 <1>   0.0800 
 54 H       -9.1790     1.5390    -2.2160 H     1 <1>   0.0800 
 55 H       -9.1450    -0.1340    -2.7220 H     1 <1>   0.0800 
@<TRIPOS>BOND
  1   1   2  2   
  2   2   3  am  
  3   2   4  1   
  4   3   5  1   
  5   3   6  1   
  6   4   7  1   
  7   4  26  1   
  8   4  27  1   
  9   5   8  1   
 10   5  28  1   
 11   5  29  1   
 12   6   9  1   
 13   6  30  1   
 14   6  31  1   
 15   7   8  1   
 16   7  32  1   
 17   7  33  1   
 18   8  34  1   
 19   8  35  1   
 20   9  10  1   
 21   9  36  1   
 22   9  37  1   
 23  10  11  2   
 24  10  12  am  
 25  12  13  1   
 26  12  14  1   
 27  13  15  1   
 28  13  38  1   
 29  13  39  1   
 30  14  16  1   
 31  14  40  1   
 32  14  41  1   
 33  15  17  1   
 34  15  42  1   
 35  15  43  1   
 36  16  17  1   
 37  16  44  1   
 38  16  45  1   
 39  17  18  1   
 40  17  19  1   
 41  18  20  1   
 42  19  21  1   
 43  19  22  1   
 44  19  46  1   
 45  20  23  1   
 46  20  47  1   
 47  20  48  1   
 48  21  49  1   
 49  22  23  1   
 50  22  24  1   
 51  22  25  1   
 52  23  50  1   
 53  23  51  1   
 54  24  52  1   
 55  25  53  1   
 56  25  54  1   
 57  25  55  1   
@<TRIPOS>SUBSTRUCTURE
  1 ****  14 GROUP 4 **** **** 0

# MOE 2024.06 (io_trps.svl 2023.06)
