@<TRIPOS>MOLECULE
NONAME
51 53 1 0 0 
SMALL
USER_CHARGES


@<TRIPOS>ATOM
  1 O        1.6430     0.4470     1.9560 O.co2 1 <1>  -0.9000 
  2 C        1.5890    -0.0060     0.8060 C.2   1 <1>   0.9060 
  3 O        1.1710    -1.1510     0.5780 O.co2 1 <1>  -0.9000 
  4 C        2.1450     0.7970    -0.3720 C.3   1 <1>  -0.1060 
  5 C        3.4180     0.0020    -0.7580 C.3   1 <1>   0.2000 
  6 C        2.5360     2.2580     0.0130 C.3   1 <1>  -0.1600 
  7 C        1.1020     0.8520    -1.5280 C.3   1 <1>  -0.0160 
  8 O        3.0820    -1.0910    -1.5420 O.3   1 <1>  -0.6800 
  9 C        4.4860     0.8650    -1.4400 C.3   1 <1>   0.1400 
 10 C        3.9630     2.3640     0.5510 C.3   1 <1>   0.1400 
 11 C       -0.0550     1.8230    -1.2950 C.ar  1 <1>  -0.1440 
 12 N        4.9340     1.9750    -0.5270 N.am  1 <1>  -0.6600 
 13 C       -1.0220     1.5450    -0.3410 C.ar  1 <1>  -0.1500 
 14 C       -0.1560     2.9900    -2.0390 C.ar  1 <1>  -0.1500 
 15 C        6.1580     2.5650    -0.7290 C.2   1 <1>   0.5690 
 16 C       -2.0700     2.4230    -0.1280 C.ar  1 <1>  -0.1500 
 17 C       -1.2050     3.8680    -1.8290 C.ar  1 <1>  -0.1500 
 18 O        6.8270     2.2920    -1.7010 O.2   1 <1>  -0.5700 
 19 C        6.7160     3.5970     0.2630 C.3   1 <1>  -0.0190 
 20 C       -2.1640     3.5860    -0.8720 C.ar  1 <1>  -0.1500 
 21 C        6.3230     5.0280    -0.1550 C.3   1 <1>  -0.1600 
 22 C        8.2480     3.4960     0.4260 C.3   1 <1>  -0.1600 
 23 C        6.8520     6.0730     0.8380 C.3   1 <1>  -0.1600 
 24 C        8.7790     4.5350     1.4240 C.3   1 <1>  -0.1600 
 25 C        8.3720     5.9550     1.0100 C.3   1 <1>  -0.1600 
 26 H        3.8690    -0.4030     0.1350 H     1 <1>   0.0800 
 27 H        1.8440     2.6370     0.7460 H     1 <1>   0.0800 
 28 H        2.4700     2.9040    -0.8440 H     1 <1>   0.0800 
 29 H        1.6070     1.1260    -2.4360 H     1 <1>   0.0800 
 30 H        0.6830    -0.1260    -1.6950 H     1 <1>   0.0800 
 31 H        2.3650    -1.5620    -1.0420 H     1 <1>   0.4000 
 32 H        4.0850     1.2930    -2.3410 H     1 <1>   0.0800 
 33 H        5.3300     0.2470    -1.6920 H     1 <1>   0.0800 
 34 H        4.0780     1.7100     1.4010 H     1 <1>   0.0800 
 35 H        4.1310     3.3740     0.8720 H     1 <1>   0.0800 
 36 H       -0.9560     0.6420     0.2440 H     1 <1>   0.1500 
 37 H        0.5850     3.2180    -2.7840 H     1 <1>   0.1500 
 38 H       -2.8080     2.1940     0.6210 H     1 <1>   0.1500 
 39 H       -1.2740     4.7710    -2.4100 H     1 <1>   0.1500 
 40 H        6.2960     3.3950     1.2300 H     1 <1>   0.0800 
 41 H       -2.9780     4.2670    -0.7050 H     1 <1>   0.1500 
 42 H        6.7270     5.2290    -1.1330 H     1 <1>   0.0800 
 43 H        5.2530     5.1080    -0.2230 H     1 <1>   0.0800 
 44 H        8.5060     2.5070     0.7610 H     1 <1>   0.0800 
 45 H        8.7200     3.6510    -0.5290 H     1 <1>   0.0800 
 46 H        6.6060     7.0610     0.4870 H     1 <1>   0.0800 
 47 H        6.3730     5.9330     1.7920 H     1 <1>   0.0800 
 48 H        8.3880     4.3220     2.4040 H     1 <1>   0.0800 
 49 H        9.8520     4.4680     1.4740 H     1 <1>   0.0800 
 50 H        8.7080     6.6580     1.7530 H     1 <1>   0.0800 
 51 H        8.8550     6.2050     0.0800 H     1 <1>   0.0800 
@<TRIPOS>BOND
  1   1   2  ar  
  2   2   3  ar  
  3   2   4  1   
  4   4   5  1   
  5   4   6  1   
  6   4   7  1   
  7   5   8  1   
  8   5   9  1   
  9   5  26  1   
 10   6  10  1   
 11   6  27  1   
 12   6  28  1   
 13   7  11  1   
 14   7  29  1   
 15   7  30  1   
 16   8  31  1   
 17   9  12  1   
 18   9  32  1   
 19   9  33  1   
 20  10  12  1   
 21  10  34  1   
 22  10  35  1   
 23  11  13  ar  
 24  11  14  ar  
 25  12  15  am  
 26  13  16  ar  
 27  13  36  1   
 28  14  17  ar  
 29  14  37  1   
 30  15  18  2   
 31  15  19  1   
 32  16  20  ar  
 33  16  38  1   
 34  17  20  ar  
 35  17  39  1   
 36  19  21  1   
 37  19  22  1   
 38  19  40  1   
 39  20  41  1   
 40  21  23  1   
 41  21  42  1   
 42  21  43  1   
 43  22  24  1   
 44  22  44  1   
 45  22  45  1   
 46  23  25  1   
 47  23  46  1   
 48  23  47  1   
 49  24  25  1   
 50  24  48  1   
 51  24  49  1   
 52  25  50  1   
 53  25  51  1   
@<TRIPOS>SUBSTRUCTURE
  1 ****   6 GROUP 4 **** **** 0

# MOE 2024.06 (io_trps.svl 2023.06)
