@<TRIPOS>MOLECULE
NONAME
51 53 1 0 0 
SMALL
USER_CHARGES


@<TRIPOS>ATOM
  1 O        1.1030     0.7490     1.3430 O.2   1 <1>  -0.5700 
  2 C        1.9430    -0.1250     1.2380 C.2   1 <1>   0.5440 
  3 N        3.2540     0.2500     1.1480 N.am  1 <1>  -0.7300 
  4 C        1.5620    -1.5230     1.1950 C.ar  1 <1>   0.0860 
  5 C        3.7830     1.6290     1.3260 C.3   1 <1>   0.1400 
  6 C        2.2710    -2.4580     0.4370 C.ar  1 <1>  -0.1500 
  7 C        0.4600    -1.9840     1.9160 C.ar  1 <1>  -0.1500 
  8 C        4.3240     2.1990     0.0080 C.3   1 <1>   0.0200 
  9 C        1.9020    -3.7890     0.4140 C.ar  1 <1>  -0.1500 
 10 C        0.0830    -3.3130     1.8970 C.ar  1 <1>  -0.1500 
 11 C        3.2680     2.5000    -1.0450 C.2   1 <1>   0.0060 
 12 C        0.8080    -4.2280     1.1400 C.ar  1 <1>   0.0830 
 13 N        3.5220     3.0600    -2.1740 N.2   1 <1>  -0.3380 
 14 N        1.9610     2.2280    -0.9290 N.pl3 1 <1>   0.0330 
 15 O        0.5090    -5.5420     1.0570 O.3   1 <1>  -0.3630 
 16 N        2.3600     3.1650    -2.8380 N.2   1 <1>  -0.3380 
 17 C        1.4450     2.6630    -2.0780 C.2   1 <1>   0.2700 
 18 C       -0.6380    -6.0860     1.6940 C.3   1 <1>   0.1810 
 19 N        0.1110     2.5980    -2.4180 N.pl3 1 <1>  -0.8840 
 20 C       -0.8090    -7.5650     1.3630 C.2   1 <1>   0.5690 
 21 O       -0.7520    -8.3390     2.2920 O.2   1 <1>  -0.5700 
 22 N       -1.0510    -7.9950     0.0770 N.am  1 <1>  -0.6600 
 23 C       -1.2220    -9.4420    -0.2330 C.3   1 <1>   0.1400 
 24 C       -1.1170    -7.1100    -1.1210 C.3   1 <1>   0.1400 
 25 C       -2.5620    -9.6650    -0.9420 C.3   1 <1>  -0.1600 
 26 C       -2.4560    -7.3100    -1.8380 C.3   1 <1>  -0.1600 
 27 C       -2.6940    -8.7850    -2.1930 C.3   1 <1>  -0.1600 
 28 H        3.9640    -0.4830     1.0840 H     1 <1>   0.3700 
 29 H        4.5780     1.6000     2.0520 H     1 <1>   0.0800 
 30 H        3.0140     2.2770     1.7130 H     1 <1>   0.0800 
 31 H        3.1160    -2.1410    -0.1480 H     1 <1>   0.1500 
 32 H       -0.1070    -1.2790     2.5010 H     1 <1>   0.1500 
 33 H        5.0500     1.5230    -0.4070 H     1 <1>   0.0800 
 34 H        4.8350     3.1210     0.2230 H     1 <1>   0.0800 
 35 H        2.4570    -4.5000    -0.1720 H     1 <1>   0.1500 
 36 H       -0.7700    -3.6150     2.4760 H     1 <1>   0.1500 
 37 H        1.4740     1.7620    -0.1560 H     1 <1>   0.2700 
 38 H       -1.5050    -5.5460     1.3650 H     1 <1>   0.0800 
 39 H       -0.5160    -5.9710     2.7550 H     1 <1>   0.0800 
 40 H       -0.0790     3.1130    -3.2820 H     1 <1>   0.4000 
 41 H       -0.5440     2.8580    -1.6780 H     1 <1>   0.4000 
 42 H       -1.1900   -10.0330     0.6670 H     1 <1>   0.0800 
 43 H       -0.4130    -9.7610    -0.8670 H     1 <1>   0.0800 
 44 H       -0.3080    -7.3640    -1.7840 H     1 <1>   0.0800 
 45 H       -1.0110    -6.0740    -0.8550 H     1 <1>   0.0800 
 46 H       -3.3580    -9.4420    -0.2530 H     1 <1>   0.0800 
 47 H       -2.6490   -10.7010    -1.2180 H     1 <1>   0.0800 
 48 H       -2.4710    -6.7180    -2.7360 H     1 <1>   0.0800 
 49 H       -3.2490    -6.9590    -1.2010 H     1 <1>   0.0800 
 50 H       -3.6750    -8.9040    -2.6210 H     1 <1>   0.0800 
 51 H       -1.9700    -9.0970    -2.9260 H     1 <1>   0.0800 
@<TRIPOS>BOND
  1   1   2  2   
  2   2   3  am  
  3   2   4  1   
  4   3   5  1   
  5   3  28  1   
  6   4   6  ar  
  7   4   7  ar  
  8   5   8  1   
  9   5  29  1   
 10   5  30  1   
 11   6   9  ar  
 12   6  31  1   
 13   7  10  ar  
 14   7  32  1   
 15   8  11  1   
 16   8  33  1   
 17   8  34  1   
 18   9  12  ar  
 19   9  35  1   
 20  10  12  ar  
 21  10  36  1   
 22  11  13  2   
 23  11  14  1   
 24  12  15  1   
 25  13  16  1   
 26  14  17  1   
 27  14  37  1   
 28  15  18  1   
 29  16  17  2   
 30  17  19  1   
 31  18  20  1   
 32  18  38  1   
 33  18  39  1   
 34  19  40  1   
 35  19  41  1   
 36  20  21  2   
 37  20  22  am  
 38  22  23  1   
 39  22  24  1   
 40  23  25  1   
 41  23  42  1   
 42  23  43  1   
 43  24  26  1   
 44  24  44  1   
 45  24  45  1   
 46  25  27  1   
 47  25  46  1   
 48  25  47  1   
 49  26  27  1   
 50  26  48  1   
 51  26  49  1   
 52  27  50  1   
 53  27  51  1   
@<TRIPOS>SUBSTRUCTURE
  1 ****   6 GROUP 4 **** **** 0

# MOE 2024.06 (io_trps.svl 2023.06)
