@<TRIPOS>MOLECULE
NONAME
60 63 1 0 0 
SMALL
USER_CHARGES


@<TRIPOS>ATOM
  1 O        0.5060     0.3310    -0.3650 O.3   1 <1>  -0.5600 
  2 C        0.2670     1.5870     0.2060 C.3   1 <1>   0.2950 
  3 C        1.5800    -0.3680     0.2020 C.3   1 <1>   0.2000 
  4 C       -1.0130     2.1390    -0.4490 C.3   1 <1>  -0.1950 
  5 C        1.5140     2.4890     0.0490 C.3   1 <1>   0.2090 
  6 C        2.8900     0.4400     0.0540 C.3   1 <1>   0.2090 
  7 C        1.6310    -1.7340    -0.4940 C.3   1 <1>  -0.1600 
  8 C       -1.0470     2.7660    -1.8090 C.3   1 <1>  -0.2000 
  9 C       -1.3150     3.6010    -0.5870 C.3   1 <1>  -0.2000 
 10 N        2.7410     1.8310     0.5880 N.pl3 1 <1>  -0.8380 
 11 C        2.6760    -2.6840     0.1150 C.3   1 <1>  -0.1600 
 12 C        3.8700     2.6110     0.7230 C.ar  1 <1>   0.4100 
 13 C        2.6210    -4.0620    -0.5550 C.3   1 <1>  -0.1600 
 14 N        4.8820     2.3770    -0.1030 N.ar  1 <1>  -0.6200 
 15 C        3.9070     3.6030     1.6980 C.ar  1 <1>  -0.1500 
 16 C        3.6650    -5.0070     0.0450 C.3   1 <1>  -0.2400 
 17 C        5.9440     3.1420     0.0400 C.ar  1 <1>   0.1600 
 18 C        5.0150     4.4060     1.8330 C.ar  1 <1>  -0.1500 
 19 C        6.0640     4.1690     0.9620 C.ar  1 <1>  -0.1430 
 20 C        7.3210     5.0110     1.0050 C.3   1 <1>   0.4860 
 21 N        7.2680     6.0140    -0.0970 N.4   1 <1>  -0.9590 
 22 C        8.5620     6.7720    -0.2210 C.3   1 <1>   0.3430 
 23 C        6.1080     6.9650     0.0600 C.3   1 <1>   0.3430 
 24 C        8.4660     7.8850    -1.2830 C.3   1 <1>   0.1200 
 25 C        6.1320     8.0700    -1.0120 C.3   1 <1>   0.1200 
 26 O        7.3730     8.7140    -1.0150 O.3   1 <1>  -0.5600 
 27 H        0.0780     1.4440     1.2550 H     1 <1>   0.0800 
 28 H        1.3670    -0.5110     1.2480 H     1 <1>   0.0800 
 29 H       -1.8500     1.5100    -0.2000 H     1 <1>   0.1000 
 30 H        1.3460     3.4150     0.5670 H     1 <1>   0.0800 
 31 H        1.6670     2.7090    -0.9920 H     1 <1>   0.0800 
 32 H        3.1640     0.4830    -0.9860 H     1 <1>   0.0800 
 33 H        3.6830    -0.0540     0.5860 H     1 <1>   0.0800 
 34 H        0.6590    -2.1880    -0.4100 H     1 <1>   0.0800 
 35 H        1.8440    -1.5880    -1.5390 H     1 <1>   0.0800 
 36 H       -0.1280     2.9020    -2.3510 H     1 <1>   0.1000 
 37 H       -1.8660     2.5140    -2.4610 H     1 <1>   0.1000 
 38 H       -2.3230     3.9350    -0.4070 H     1 <1>   0.1000 
 39 H       -0.5890     4.3480    -0.3210 H     1 <1>   0.1000 
 40 H        3.6630    -2.2750    -0.0110 H     1 <1>   0.0800 
 41 H        2.4890    -2.7940     1.1700 H     1 <1>   0.0800 
 42 H        1.6410    -4.4890    -0.4270 H     1 <1>   0.0800 
 43 H        2.8030    -3.9580    -1.6120 H     1 <1>   0.0800 
 44 H        3.0560     3.7180     2.3440 H     1 <1>   0.1500 
 45 H        3.4880    -5.1450     1.0970 H     1 <1>   0.0800 
 46 H        4.6550    -4.6100    -0.0910 H     1 <1>   0.0800 
 47 H        3.6120    -5.9670    -0.4380 H     1 <1>   0.0800 
 48 H        6.7620     2.9290    -0.6280 H     1 <1>   0.1500 
 49 H        5.0460     5.1710     2.5900 H     1 <1>   0.1500 
 50 H        8.1810     4.3720     0.8850 H     1 <1>   0.0800 
 51 H        7.3960     5.5080     1.9580 H     1 <1>   0.0800 
 52 H        7.1100     5.5030    -0.9740 H     1 <1>   0.4500 
 53 H        8.8080     7.2310     0.7230 H     1 <1>   0.0800 
 54 H        9.3630     6.1000    -0.4820 H     1 <1>   0.0800 
 55 H        5.1760     6.4260    -0.0080 H     1 <1>   0.0800 
 56 H        6.1480     7.4340     1.0290 H     1 <1>   0.0800 
 57 H        8.3570     7.4740    -2.2720 H     1 <1>   0.0800 
 58 H        9.3520     8.4960    -1.2620 H     1 <1>   0.0800 
 59 H        5.3810     8.8110    -0.7980 H     1 <1>   0.0800 
 60 H        5.9450     7.6680    -1.9930 H     1 <1>   0.0800 
@<TRIPOS>BOND
  1   1   2  1   
  2   1   3  1   
  3   2   4  1   
  4   2   5  1   
  5   2  27  1   
  6   3   6  1   
  7   3   7  1   
  8   3  28  1   
  9   4   8  1   
 10   4   9  1   
 11   4  29  1   
 12   5  10  1   
 13   5  30  1   
 14   5  31  1   
 15   6  10  1   
 16   6  32  1   
 17   6  33  1   
 18   7  11  1   
 19   7  34  1   
 20   7  35  1   
 21   8   9  1   
 22   8  36  1   
 23   8  37  1   
 24   9  38  1   
 25   9  39  1   
 26  10  12  1   
 27  11  13  1   
 28  11  40  1   
 29  11  41  1   
 30  12  14  ar  
 31  12  15  ar  
 32  13  16  1   
 33  13  42  1   
 34  13  43  1   
 35  14  17  ar  
 36  15  18  ar  
 37  15  44  1   
 38  16  45  1   
 39  16  46  1   
 40  16  47  1   
 41  17  19  ar  
 42  17  48  1   
 43  18  19  ar  
 44  18  49  1   
 45  19  20  1   
 46  20  21  1   
 47  20  50  1   
 48  20  51  1   
 49  21  22  1   
 50  21  23  1   
 51  21  52  1   
 52  22  24  1   
 53  22  53  1   
 54  22  54  1   
 55  23  25  1   
 56  23  55  1   
 57  23  56  1   
 58  24  26  1   
 59  24  57  1   
 60  24  58  1   
 61  25  26  1   
 62  25  59  1   
 63  25  60  1   
@<TRIPOS>SUBSTRUCTURE
  1 ****  12 GROUP 4 **** **** 0

# MOE 2024.06 (io_trps.svl 2023.06)
