@<TRIPOS>MOLECULE
NONAME
56 59 1 0 0 
SMALL
USER_CHARGES


@<TRIPOS>ATOM
  1 F       -0.0130     0.9810    -2.3560 F     1 <1>  -0.3400 
  2 C       -0.2790     2.2500    -2.6530 C.3   1 <1>   1.1640 
  3 F       -1.3150     2.2120    -3.4910 F     1 <1>  -0.3400 
  4 F        0.7480     2.6870    -3.3760 F     1 <1>  -0.3400 
  5 C       -0.5500     3.1180    -1.3950 C.ar  1 <1>   0.1660 
  6 N        0.4240     3.3260    -0.5220 N.ar  1 <1>  -0.6200 
  7 C       -1.7970     3.6720    -1.1810 C.ar  1 <1>  -0.1500 
  8 C        0.1490     4.0780     0.5400 C.ar  1 <1>   0.7200 
  9 C       -1.9870     4.4350    -0.0540 C.ar  1 <1>   0.1660 
 10 N       -1.0240     4.6440     0.8030 N.ar  1 <1>  -0.6200 
 11 N        1.1680     4.2960     1.4380 N.pl3 1 <1>  -0.8380 
 12 C       -3.3250     5.0740     0.2500 C.3   1 <1>  -0.0970 
 13 C        1.2580     5.5740     2.2180 C.3   1 <1>   0.2090 
 14 C        2.5000     3.6190     1.3250 C.3   1 <1>   0.2090 
 15 C        2.3160     6.5200     1.6170 C.3   1 <1>   0.2090 
 16 C        3.5480     4.5610     0.7030 C.3   1 <1>   0.2090 
 17 N        3.6490     5.8490     1.4600 N.pl3 1 <1>  -0.8380 
 18 C        4.7590     6.6360     1.2320 C.ar  1 <1>   0.4100 
 19 N        4.5910     7.7850     0.6410 N.ar  1 <1>  -0.6200 
 20 C        6.0200     6.1640     1.6410 C.ar  1 <1>  -0.1500 
 21 C        5.6940     8.5330     0.4040 C.ar  1 <1>   0.3100 
 22 C        7.1490     6.8900     1.4200 C.ar  1 <1>  -0.1430 
 23 C        7.0010     8.1340     0.7670 C.ar  1 <1>   0.0000 
 24 C        5.5150     9.7670    -0.2360 C.ar  1 <1>  -0.1500 
 25 C        8.5100     6.3790     1.8670 C.3   1 <1>  -0.0970 
 26 C        8.0710     8.9950     0.4550 C.ar  1 <1>  -0.1500 
 27 C        6.5680    10.6030    -0.5290 C.ar  1 <1>   0.0820 
 28 C        7.8770    10.1910    -0.1840 C.ar  1 <1>   0.0820 
 29 O        6.3950    11.8150    -1.1240 O.3   1 <1>  -0.3630 
 30 O        8.9860    10.9340    -0.4420 O.3   1 <1>  -0.3630 
 31 C        5.1110    12.3500    -1.3630 C.3   1 <1>   0.0400 
 32 C        9.1960    11.4070    -1.7550 C.3   1 <1>   0.0400 
 33 H       -2.6090     3.5200    -1.8680 H     1 <1>   0.1500 
 34 H       -4.0500     4.8390    -0.5060 H     1 <1>   0.0800 
 35 H       -3.2100     6.1410     0.3030 H     1 <1>   0.0800 
 36 H       -3.6840     4.7180     1.1990 H     1 <1>   0.0800 
 37 H        1.5310     5.3450     3.2330 H     1 <1>   0.0800 
 38 H        0.3110     6.0820     2.2470 H     1 <1>   0.0800 
 39 H        2.4300     2.7200     0.7400 H     1 <1>   0.0800 
 40 H        2.8300     3.3350     2.3090 H     1 <1>   0.0800 
 41 H        2.4240     7.3810     2.2520 H     1 <1>   0.0800 
 42 H        1.9750     6.8590     0.6540 H     1 <1>   0.0800 
 43 H        3.2670     4.7710    -0.3150 H     1 <1>   0.0800 
 44 H        4.5030     4.0690     0.6890 H     1 <1>   0.0800 
 45 H        6.0480     5.2150     2.1400 H     1 <1>   0.1500 
 46 H        4.5030    10.0190    -0.4810 H     1 <1>   0.1500 
 47 H        8.4210     5.4230     2.3520 H     1 <1>   0.0800 
 48 H        8.9530     7.0700     2.5620 H     1 <1>   0.0800 
 49 H        9.1600     6.2690     1.0170 H     1 <1>   0.0800 
 50 H        9.0730     8.7150     0.7200 H     1 <1>   0.1500 
 51 H        5.2310    13.3320    -1.7830 H     1 <1>   0.0800 
 52 H        4.5800    12.4150    -0.4290 H     1 <1>   0.0800 
 53 H        4.5920    11.7150    -2.0590 H     1 <1>   0.0800 
 54 H       10.2500    11.5700    -1.8870 H     1 <1>   0.0800 
 55 H        8.6680    12.3350    -1.8790 H     1 <1>   0.0800 
 56 H        8.8440    10.6730    -2.4570 H     1 <1>   0.0800 
@<TRIPOS>BOND
  1   1   2  1   
  2   2   3  1   
  3   2   4  1   
  4   2   5  1   
  5   5   6  ar  
  6   5   7  ar  
  7   6   8  ar  
  8   7   9  ar  
  9   7  33  1   
 10   8  10  ar  
 11   8  11  1   
 12   9  10  ar  
 13   9  12  1   
 14  11  13  1   
 15  11  14  1   
 16  12  34  1   
 17  12  35  1   
 18  12  36  1   
 19  13  15  1   
 20  13  37  1   
 21  13  38  1   
 22  14  16  1   
 23  14  39  1   
 24  14  40  1   
 25  15  17  1   
 26  15  41  1   
 27  15  42  1   
 28  16  17  1   
 29  16  43  1   
 30  16  44  1   
 31  17  18  1   
 32  18  19  ar  
 33  18  20  ar  
 34  19  21  ar  
 35  20  22  ar  
 36  20  45  1   
 37  21  23  ar  
 38  21  24  ar  
 39  22  23  ar  
 40  22  25  1   
 41  23  26  ar  
 42  24  27  ar  
 43  24  46  1   
 44  25  47  1   
 45  25  48  1   
 46  25  49  1   
 47  26  28  ar  
 48  26  50  1   
 49  27  28  ar  
 50  27  29  1   
 51  28  30  1   
 52  29  31  1   
 53  30  32  1   
 54  31  51  1   
 55  31  52  1   
 56  31  53  1   
 57  32  54  1   
 58  32  55  1   
 59  32  56  1   
@<TRIPOS>SUBSTRUCTURE
  1 ****  17 GROUP 4 **** **** 0

# MOE 2024.06 (io_trps.svl 2023.06)
