@<TRIPOS>MOLECULE
NONAME
45 46 1 0 0 
SMALL
USER_CHARGES


@<TRIPOS>ATOM
  1 O       -0.7130    -0.3940    -1.4330 O.2   1 <1>  -0.5700 
  2 C       -1.6700     0.3440    -1.4350 C.2   1 <1>   0.5690 
  3 N       -2.9340    -0.1300    -1.6860 N.am  1 <1>  -0.6600 
  4 C       -1.3960     1.8070    -1.1250 C.3   1 <1>  -0.0990 
  5 C       -3.1770    -1.6040    -1.7810 C.3   1 <1>   0.3210 
  6 C       -4.1510     0.7250    -1.9020 C.3   1 <1>   0.1400 
  7 C       -0.8050     1.9700     0.2810 C.3   1 <1>  -0.0170 
  8 C       -4.0450    -2.0750    -0.6210 C.2   1 <1>   0.0460 
  9 C       -4.9640     1.0050    -0.6210 C.3   1 <1>   0.1200 
 10 C       -0.6490     3.4480     0.6210 C.ar  1 <1>  -0.1440 
 11 N       -5.3540    -2.3510    -0.8040 N.2   1 <1>  -0.5650 
 12 C       -3.6900    -2.2590     0.6740 C.2   1 <1>  -0.3320 
 13 O       -4.1520     0.9900     0.5030 O.3   1 <1>  -0.6800 
 14 C        0.5270     4.1570     0.3900 C.ar  1 <1>  -0.1440 
 15 C       -1.7410     4.0980     1.1770 C.ar  1 <1>  -0.1500 
 16 C       -5.7640    -2.6970     0.3720 C.2   1 <1>   0.0360 
 17 N       -4.8020    -2.6610     1.3160 N.pl3 1 <1>   0.0330 
 18 C       -2.3520    -2.0780     1.3710 C.3   1 <1>  -0.0600 
 19 C        0.5870     5.5020     0.7230 C.ar  1 <1>  -0.1500 
 20 C        1.7590     3.5000    -0.2180 C.3   1 <1>  -0.0970 
 21 C       -1.6730     5.4400     1.5060 C.ar  1 <1>  -0.1500 
 22 C       -0.5060     6.1430     1.2780 C.ar  1 <1>  -0.1500 
 23 H       -2.2830     2.4020    -1.1820 H     1 <1>   0.0800 
 24 H       -0.7010     2.1840    -1.8510 H     1 <1>   0.0800 
 25 H       -2.2510    -2.1500    -1.7610 H     1 <1>   0.0800 
 26 H       -3.6670    -1.8310    -2.7110 H     1 <1>   0.0800 
 27 H       -4.8000     0.2450    -2.6150 H     1 <1>   0.0800 
 28 H       -3.8660     1.6600    -2.3480 H     1 <1>   0.0800 
 29 H        0.1360     1.4560     0.3490 H     1 <1>   0.0800 
 30 H       -1.4640     1.5120     0.9970 H     1 <1>   0.0800 
 31 H       -5.7190     0.2510    -0.4890 H     1 <1>   0.0800 
 32 H       -5.4470     1.9640    -0.6790 H     1 <1>   0.0800 
 33 H       -3.7020     0.1160     0.5190 H     1 <1>   0.4000 
 34 H       -2.6560     3.5570     1.3550 H     1 <1>   0.1500 
 35 H       -6.7750    -2.9890     0.5990 H     1 <1>   0.1500 
 36 H       -4.9030    -2.8920     2.3090 H     1 <1>   0.2700 
 37 H       -1.5910    -1.7970     0.6660 H     1 <1>   0.0800 
 38 H       -2.0500    -2.9970     1.8410 H     1 <1>   0.0800 
 39 H       -2.4220    -1.3090     2.1210 H     1 <1>   0.0800 
 40 H        1.4890     6.0630     0.5530 H     1 <1>   0.1500 
 41 H        1.5020     3.0000    -1.1340 H     1 <1>   0.0800 
 42 H        2.1680     2.7840     0.4710 H     1 <1>   0.0800 
 43 H        2.5170     4.2300    -0.4370 H     1 <1>   0.0800 
 44 H       -2.5270     5.9320     1.9370 H     1 <1>   0.1500 
 45 H       -0.4480     7.1870     1.5320 H     1 <1>   0.1500 
@<TRIPOS>BOND
  1   1   2  2   
  2   2   3  am  
  3   2   4  1   
  4   3   5  1   
  5   3   6  1   
  6   4   7  1   
  7   4  23  1   
  8   4  24  1   
  9   5   8  1   
 10   5  25  1   
 11   5  26  1   
 12   6   9  1   
 13   6  27  1   
 14   6  28  1   
 15   7  10  1   
 16   7  29  1   
 17   7  30  1   
 18   8  11  1   
 19   8  12  2   
 20   9  13  1   
 21   9  31  1   
 22   9  32  1   
 23  10  14  ar  
 24  10  15  ar  
 25  11  16  2   
 26  12  17  1   
 27  12  18  1   
 28  13  33  1   
 29  14  19  ar  
 30  14  20  1   
 31  15  21  ar  
 32  15  34  1   
 33  16  17  1   
 34  16  35  1   
 35  17  36  1   
 36  18  37  1   
 37  18  38  1   
 38  18  39  1   
 39  19  22  ar  
 40  19  40  1   
 41  20  41  1   
 42  20  42  1   
 43  20  43  1   
 44  21  22  ar  
 45  21  44  1   
 46  22  45  1   
@<TRIPOS>SUBSTRUCTURE
  1 ****   4 GROUP 4 **** **** 0

# MOE 2024.06 (io_trps.svl 2023.06)
