@<TRIPOS>MOLECULE
NONAME
47 49 1 0 0 
SMALL
USER_CHARGES


@<TRIPOS>ATOM
  1 O        0.3340     3.3530    -1.8910 O.co2 1 <1>  -0.9000 
  2 C        1.4180     2.9600    -1.4140 C.2   1 <1>   1.0320 
  3 O        1.6580     1.7370    -1.4310 O.co2 1 <1>  -0.9000 
  4 C        2.3570     3.9280    -0.8640 C.2   1 <1>  -0.0920 
  5 O        3.5340     3.5810    -0.3380 O.3   1 <1>  -0.2800 
  6 C        2.2410     5.2820    -0.7800 C.2   1 <1>  -0.1500 
  7 C        4.1610     4.6630     0.0690 C.2   1 <1>  -0.0400 
  8 C        3.4070     5.7580    -0.1770 C.2   1 <1>  -0.1500 
  9 C        5.5320     4.4960     0.6950 C.3   1 <1>   0.3200 
 10 N        6.1990     5.8070     0.8150 N.am  1 <1>  -0.7300 
 11 C        6.9500     6.2370     1.8540 C.2   1 <1>   0.5690 
 12 O        7.2460     5.5200     2.7790 O.2   1 <1>  -0.5700 
 13 C        7.4290     7.6920     1.8420 C.3   1 <1>   0.1710 
 14 N        7.5780     8.2690     0.4720 N.3   1 <1>  -0.8100 
 15 C        7.6430     9.7500     0.4820 C.3   1 <1>   0.3700 
 16 C        8.7560     7.7410    -0.2350 C.3   1 <1>   0.1100 
 17 C        6.2710    10.4290     0.3470 C.2   1 <1>   0.2980 
 18 C        8.6060    10.0940    -0.6510 C.3   1 <1>  -0.1600 
 19 C        9.5980     8.9440    -0.6380 C.3   1 <1>  -0.1600 
 20 O        5.2680     9.9390     1.0360 O.3   1 <1>  -0.0190 
 21 N        5.9900    11.4530    -0.3630 N.2   1 <1>  -0.5650 
 22 N        4.2680    10.7080     0.7340 N.2   1 <1>  -0.4100 
 23 C        4.7000    11.5850    -0.0840 C.2   1 <1>   0.3350 
 24 C        3.8770    12.7110    -0.7150 C.3   1 <1>   0.1010 
 25 C        4.0200    14.0050     0.0980 C.3   1 <1>  -0.2400 
 26 C        2.3920    12.3420    -0.8610 C.3   1 <1>  -0.2400 
 27 H        1.4060     5.8700    -1.1160 H     1 <1>   0.1500 
 28 H        3.6200     6.7900     0.0350 H     1 <1>   0.1500 
 29 H        6.1280     3.8540     0.0700 H     1 <1>   0.0800 
 30 H        5.4340     4.0360     1.6630 H     1 <1>   0.0800 
 31 H        6.0330     6.4640     0.0480 H     1 <1>   0.3700 
 32 H        8.3640     7.7530     2.3700 H     1 <1>   0.0800 
 33 H        6.7030     8.2590     2.3950 H     1 <1>   0.0800 
 34 H        8.0900    10.0730     1.4060 H     1 <1>   0.0800 
 35 H        9.3260     7.0560     0.3720 H     1 <1>   0.0800 
 36 H        8.4190     7.2200    -1.1170 H     1 <1>   0.0800 
 37 H        8.0710    10.1040    -1.5850 H     1 <1>   0.0800 
 38 H        9.0730    11.0510    -0.5020 H     1 <1>   0.0800 
 39 H       10.3560     9.1130     0.1070 H     1 <1>   0.0800 
 40 H       10.0710     8.7990    -1.5940 H     1 <1>   0.0800 
 41 H        4.2730    12.8840    -1.7010 H     1 <1>   0.0800 
 42 H        3.6410    13.8620     1.0940 H     1 <1>   0.0800 
 43 H        3.4790    14.8070    -0.3710 H     1 <1>   0.0800 
 44 H        5.0580    14.2820     0.1630 H     1 <1>   0.0800 
 45 H        1.9480    12.1800     0.1050 H     1 <1>   0.0800 
 46 H        2.2940    11.4390    -1.4370 H     1 <1>   0.0800 
 47 H        1.8570    13.1280    -1.3620 H     1 <1>   0.0800 
@<TRIPOS>BOND
  1   1   2  ar  
  2   2   3  ar  
  3   2   4  1   
  4   4   5  1   
  5   4   6  2   
  6   5   7  1   
  7   6   8  1   
  8   6  27  1   
  9   7   8  2   
 10   7   9  1   
 11   8  28  1   
 12   9  10  1   
 13   9  29  1   
 14   9  30  1   
 15  10  11  am  
 16  10  31  1   
 17  11  12  2   
 18  11  13  1   
 19  13  14  1   
 20  13  32  1   
 21  13  33  1   
 22  14  15  1   
 23  14  16  1   
 24  15  17  1   
 25  15  18  1   
 26  15  34  1   
 27  16  19  1   
 28  16  35  1   
 29  16  36  1   
 30  17  20  1   
 31  17  21  2   
 32  18  19  1   
 33  18  37  1   
 34  18  38  1   
 35  19  39  1   
 36  19  40  1   
 37  20  22  1   
 38  21  23  1   
 39  22  23  2   
 40  23  24  1   
 41  24  25  1   
 42  24  26  1   
 43  24  41  1   
 44  25  42  1   
 45  25  43  1   
 46  25  44  1   
 47  26  45  1   
 48  26  46  1   
 49  26  47  1   
@<TRIPOS>SUBSTRUCTURE
  1 ****  10 GROUP 4 **** **** 0

# MOE 2024.06 (io_trps.svl 2023.06)
