@<TRIPOS>MOLECULE
NONAME
45 45 1 0 0 
SMALL
USER_CHARGES


@<TRIPOS>ATOM
  1 O       -0.7390     0.0660     1.0990 O.2   1 <1>  -0.5700 
  2 C       -1.6520    -0.5470     0.5870 C.2   1 <1>   0.7800 
  3 O       -1.4360    -1.7010    -0.0490 O.3   1 <1>  -0.4300 
  4 N       -2.9390    -0.0740     0.6100 N.am  1 <1>  -0.6600 
  5 C       -0.2030    -2.3660    -0.2190 C.3   1 <1>   0.2800 
  6 C       -3.3040     1.1880     1.3210 C.3   1 <1>   0.1400 
  7 C       -4.0590    -0.7030    -0.1340 C.3   1 <1>   0.1400 
  8 C        0.3770    -2.7660     1.1430 C.3   1 <1>  -0.2400 
  9 C       -0.5390    -3.6290    -1.0130 C.3   1 <1>  -0.2400 
 10 C        0.7620    -1.4990    -1.0360 C.3   1 <1>  -0.2400 
 11 C       -3.7890     2.2560     0.3130 C.3   1 <1>   0.0610 
 12 C       -4.5860     0.2930    -1.1720 C.3   1 <1>  -0.1600 
 13 C       -4.3340     3.4710     1.0760 C.2   1 <1>   0.6590 
 14 C       -4.9420     1.6510    -0.5360 C.3   1 <1>  -0.1600 
 15 C       -2.6140     2.6960    -0.6010 C.3   1 <1>   0.0400 
 16 O       -4.5570     3.4470     2.2590 O.2   1 <1>  -0.5700 
 17 O       -4.5670     4.5550     0.3450 O.3   1 <1>  -0.4300 
 18 C       -1.5710     3.4810     0.1210 C.1   1 <1>   0.3570 
 19 C       -5.0220     5.7530     0.9300 C.3   1 <1>   0.1200 
 20 N       -0.8070     4.1210     0.6650 N.1   1 <1>  -0.5570 
 21 C       -5.1520     6.7970    -0.1740 C.3   1 <1>  -0.2400 
 22 H       -2.4680     1.5610     1.8910 H     1 <1>   0.0800 
 23 H       -4.0900     0.9630     2.0230 H     1 <1>   0.0800 
 24 H       -4.8400    -0.9600     0.5620 H     1 <1>   0.0800 
 25 H       -3.7420    -1.6070    -0.6260 H     1 <1>   0.0800 
 26 H       -0.3520    -3.3100     1.7160 H     1 <1>   0.0800 
 27 H        0.6910    -1.9020     1.7000 H     1 <1>   0.0800 
 28 H        1.2400    -3.3920     1.0050 H     1 <1>   0.0800 
 29 H       -1.2340    -4.2400    -0.4650 H     1 <1>   0.0800 
 30 H        0.3500    -4.2060    -1.1920 H     1 <1>   0.0800 
 31 H       -0.9720    -3.3690    -1.9620 H     1 <1>   0.0800 
 32 H        1.0760    -0.6360    -0.4780 H     1 <1>   0.0800 
 33 H        0.2960    -1.1790    -1.9500 H     1 <1>   0.0800 
 34 H        1.6430    -2.0630    -1.2810 H     1 <1>   0.0800 
 35 H       -5.4610    -0.1220    -1.6410 H     1 <1>   0.0800 
 36 H       -3.8440     0.4220    -1.9400 H     1 <1>   0.0800 
 37 H       -5.2370     2.3430    -1.3060 H     1 <1>   0.0800 
 38 H       -5.7970     1.5060     0.1040 H     1 <1>   0.0800 
 39 H       -2.9860     3.3130    -1.3970 H     1 <1>   0.0800 
 40 H       -2.1350     1.8460    -1.0500 H     1 <1>   0.0800 
 41 H       -4.3050     6.0630     1.6730 H     1 <1>   0.0800 
 42 H       -5.9720     5.5640     1.4020 H     1 <1>   0.0800 
 43 H       -4.1960     6.9660    -0.6360 H     1 <1>   0.0800 
 44 H       -5.4970     7.7240     0.2450 H     1 <1>   0.0800 
 45 H       -5.8600     6.4710    -0.9140 H     1 <1>   0.0800 
@<TRIPOS>BOND
  1   1   2  2   
  2   2   3  1   
  3   2   4  am  
  4   3   5  1   
  5   4   6  1   
  6   4   7  1   
  7   5   8  1   
  8   5   9  1   
  9   5  10  1   
 10   6  11  1   
 11   6  22  1   
 12   6  23  1   
 13   7  12  1   
 14   7  24  1   
 15   7  25  1   
 16   8  26  1   
 17   8  27  1   
 18   8  28  1   
 19   9  29  1   
 20   9  30  1   
 21   9  31  1   
 22  10  32  1   
 23  10  33  1   
 24  10  34  1   
 25  11  13  1   
 26  11  14  1   
 27  11  15  1   
 28  12  14  1   
 29  12  35  1   
 30  12  36  1   
 31  13  16  2   
 32  13  17  1   
 33  14  37  1   
 34  14  38  1   
 35  15  18  1   
 36  15  39  1   
 37  15  40  1   
 38  17  19  1   
 39  18  20  3   
 40  19  21  1   
 41  19  41  1   
 42  19  42  1   
 43  21  43  1   
 44  21  44  1   
 45  21  45  1   
@<TRIPOS>SUBSTRUCTURE
  1 ****   6 GROUP 4 **** **** 0

# MOE 2024.06 (io_trps.svl 2023.06)
