@<TRIPOS>MOLECULE
NONAME
56 59 1 0 0 
SMALL
USER_CHARGES


@<TRIPOS>ATOM
  1 O       -1.0410     0.5340     0.8940 O.2   1 <1>  -0.5700 
  2 C       -1.8580     1.0120     0.1380 C.2   1 <1>   0.5690 
  3 N       -2.8330     0.1790    -0.3720 N.am  1 <1>  -0.6600 
  4 C       -1.7680     2.5410    -0.1680 C.3   1 <1>   0.2040 
  5 C       -4.2230     0.5370    -0.7640 C.3   1 <1>   0.1400 
  6 C       -2.7440    -1.2980    -0.1960 C.3   1 <1>   0.1400 
  7 C       -0.2870     3.0200    -0.1630 C.ar  1 <1>  -0.1440 
  8 C       -2.3310     2.9810    -1.5500 C.3   1 <1>  -0.1600 
  9 C       -2.6600     3.2870     0.8550 C.3   1 <1>  -0.1600 
 10 C       -5.0680    -0.6450    -0.2960 C.3   1 <1>   0.2000 
 11 C       -4.1420    -1.8440    -0.5060 C.3   1 <1>  -0.0800 
 12 C        0.1510     4.1890     0.4580 C.ar  1 <1>  -0.1500 
 13 C        0.6580     2.2650    -0.8520 C.ar  1 <1>  -0.1500 
 14 C       -3.4990     3.9430    -1.3040 C.3   1 <1>  -0.1600 
 15 C       -3.2890     4.4650     0.1120 C.3   1 <1>  -0.1600 
 16 O       -5.3190    -0.4820     1.0580 O.3   1 <1>  -0.6800 
 17 C       -4.5060    -3.1100     0.2920 C.3   1 <1>  -0.0170 
 18 C        1.4780     4.5790     0.4040 C.ar  1 <1>  -0.1500 
 19 C        1.9850     2.6510    -0.9100 C.ar  1 <1>  -0.1500 
 20 C       -3.5590    -4.2520    -0.0450 C.ar  1 <1>  -0.1440 
 21 C        2.4080     3.8080    -0.2830 C.ar  1 <1>   0.0820 
 22 C       -2.4490    -4.5340     0.7260 C.ar  1 <1>  -0.1500 
 23 C       -3.7600    -5.0620    -1.1450 C.ar  1 <1>  -0.1500 
 24 O        3.7250     4.1180    -0.3850 O.3   1 <1>  -0.3620 
 25 C       -1.6140    -5.5780     0.3660 C.ar  1 <1>   0.1600 
 26 C       -2.8630    -6.0820    -1.4150 C.ar  1 <1>   0.1600 
 27 C        4.2620     5.2440     0.2710 C.3   1 <1>   0.0400 
 28 N       -1.7930    -6.3580    -0.6870 N.ar  1 <1>  -0.6200 
 29 H       -4.5600     1.4500    -0.3090 H     1 <1>   0.0800 
 30 H       -4.2800     0.6190    -1.8350 H     1 <1>   0.0800 
 31 H       -2.0040    -1.7150    -0.8580 H     1 <1>   0.0800 
 32 H       -2.4690    -1.5180     0.8220 H     1 <1>   0.0800 
 33 H       -1.5770     3.5220    -2.0970 H     1 <1>   0.0800 
 34 H       -2.6160     2.1540    -2.1710 H     1 <1>   0.0800 
 35 H       -3.4540     2.6390     1.1790 H     1 <1>   0.0800 
 36 H       -2.1270     3.5800     1.7410 H     1 <1>   0.0800 
 37 H       -6.0080    -0.7280    -0.8140 H     1 <1>   0.0800 
 38 H       -4.1620    -2.0910    -1.5530 H     1 <1>   0.0800 
 39 H       -0.5260     4.8260     0.9920 H     1 <1>   0.1500 
 40 H        0.3670     1.3580    -1.3520 H     1 <1>   0.1500 
 41 H       -3.5130     4.7450    -2.0220 H     1 <1>   0.0800 
 42 H       -4.4340     3.4160    -1.3600 H     1 <1>   0.0800 
 43 H       -4.2110     4.7860     0.5660 H     1 <1>   0.0800 
 44 H       -2.6030     5.2940     0.0870 H     1 <1>   0.0800 
 45 H       -4.4720    -0.3000     1.5140 H     1 <1>   0.4000 
 46 H       -5.5150    -3.4020     0.0590 H     1 <1>   0.0800 
 47 H       -4.4650    -2.9140     1.3490 H     1 <1>   0.0800 
 48 H        1.7670     5.4850     0.9000 H     1 <1>   0.1500 
 49 H        2.7020     2.0520    -1.4420 H     1 <1>   0.1500 
 50 H       -2.2240    -3.9530     1.6010 H     1 <1>   0.1500 
 51 H       -4.6030    -4.9100    -1.7930 H     1 <1>   0.1500 
 52 H       -0.7520    -5.7830     0.9790 H     1 <1>   0.1500 
 53 H       -3.0350    -6.7050    -2.2770 H     1 <1>   0.1500 
 54 H        5.3170     5.2750     0.0700 H     1 <1>   0.0800 
 55 H        4.0920     5.1450     1.3280 H     1 <1>   0.0800 
 56 H        3.7890     6.1300    -0.1150 H     1 <1>   0.0800 
@<TRIPOS>BOND
  1   1   2  2   
  2   2   3  am  
  3   2   4  1   
  4   3   5  1   
  5   3   6  1   
  6   4   7  1   
  7   4   8  1   
  8   4   9  1   
  9   5  10  1   
 10   5  29  1   
 11   5  30  1   
 12   6  11  1   
 13   6  31  1   
 14   6  32  1   
 15   7  12  ar  
 16   7  13  ar  
 17   8  14  1   
 18   8  33  1   
 19   8  34  1   
 20   9  15  1   
 21   9  35  1   
 22   9  36  1   
 23  10  11  1   
 24  10  16  1   
 25  10  37  1   
 26  11  17  1   
 27  11  38  1   
 28  12  18  ar  
 29  12  39  1   
 30  13  19  ar  
 31  13  40  1   
 32  14  15  1   
 33  14  41  1   
 34  14  42  1   
 35  15  43  1   
 36  15  44  1   
 37  16  45  1   
 38  17  20  1   
 39  17  46  1   
 40  17  47  1   
 41  18  21  ar  
 42  18  48  1   
 43  19  21  ar  
 44  19  49  1   
 45  20  22  ar  
 46  20  23  ar  
 47  21  24  1   
 48  22  25  ar  
 49  22  50  1   
 50  23  26  ar  
 51  23  51  1   
 52  24  27  1   
 53  25  28  ar  
 54  25  52  1   
 55  26  28  ar  
 56  26  53  1   
 57  27  54  1   
 58  27  55  1   
 59  27  56  1   
@<TRIPOS>SUBSTRUCTURE
  1 ****   2 GROUP 4 **** **** 0

# MOE 2024.06 (io_trps.svl 2023.06)
