@<TRIPOS>MOLECULE
NONAME
49 51 1 0 0 
SMALL
USER_CHARGES


@<TRIPOS>ATOM
  1 F       -1.3660     1.1760     0.6470 F     1 <1>  -0.1900 
  2 C       -0.7650     2.1020    -0.0570 C.ar  1 <1>   0.1900 
  3 C        0.5580     2.4520     0.2280 C.ar  1 <1>   0.0820 
  4 C       -1.5160     2.7220    -1.0570 C.ar  1 <1>   0.0860 
  5 O        1.3510     1.8760     1.1820 O.3   1 <1>  -0.3630 
  6 C        1.1010     3.4840    -0.5300 C.ar  1 <1>   0.1900 
  7 C       -2.8760     2.3310    -1.3390 C.2   1 <1>   0.5440 
  8 C       -0.9090     3.7460    -1.7870 C.ar  1 <1>  -0.1500 
  9 C        1.1760     0.5350     1.5890 C.3   1 <1>   0.0400 
 10 F        2.3300     3.8720    -0.3120 F     1 <1>  -0.1900 
 11 C        0.3930     4.1320    -1.5260 C.ar  1 <1>  -0.1500 
 12 O       -3.0790     1.4860    -2.1900 O.2   1 <1>  -0.5700 
 13 N       -3.9440     2.9170    -0.6940 N.am  1 <1>  -0.6600 
 14 C       -5.3460     2.5850    -1.0900 C.3   1 <1>   0.1400 
 15 C       -3.7710     3.8850     0.4280 C.3   1 <1>   0.1400 
 16 C       -6.2720     3.7840    -0.8650 C.3   1 <1>  -0.1600 
 17 C       -4.9970     3.8530     1.3390 C.3   1 <1>  -0.1600 
 18 C       -6.2630     4.3080     0.5930 C.3   1 <1>   0.2800 
 19 O       -6.1590     5.7100     0.5270 O.3   1 <1>  -0.5600 
 20 C       -7.5070     3.8870     1.4090 C.3   1 <1>  -0.1600 
 21 C       -7.3010     6.5270     0.6460 C.3   1 <1>   0.1200 
 22 C       -8.8290     4.5340     0.9460 C.3   1 <1>   0.2800 
 23 C       -8.5570     5.8250     0.1260 C.3   1 <1>   0.2000 
 24 O       -9.4910     3.6430     0.1230 O.3   1 <1>  -0.6800 
 25 C       -9.7560     4.7330     2.1550 C.3   1 <1>  -0.2400 
 26 O       -9.6340     6.7090     0.1560 O.3   1 <1>  -0.6800 
 27 H       -1.4730     4.2340    -2.5650 H     1 <1>   0.1500 
 28 H        2.0700     0.2220     2.0980 H     1 <1>   0.0800 
 29 H        1.0130    -0.0800     0.7220 H     1 <1>   0.0800 
 30 H        0.3400     0.4800     2.2640 H     1 <1>   0.0800 
 31 H        0.8610     4.9230    -2.0870 H     1 <1>   0.1500 
 32 H       -5.3760     2.3050    -2.1300 H     1 <1>   0.0800 
 33 H       -5.6820     1.7430    -0.5100 H     1 <1>   0.0800 
 34 H       -2.8980     3.6330     1.0050 H     1 <1>   0.0800 
 35 H       -3.6430     4.8770     0.0260 H     1 <1>   0.0800 
 36 H       -7.2600     3.4920    -1.1620 H     1 <1>   0.0800 
 37 H       -5.9550     4.5650    -1.5330 H     1 <1>   0.0800 
 38 H       -4.8330     4.4890     2.1910 H     1 <1>   0.0800 
 39 H       -5.1160     2.8490     1.7050 H     1 <1>   0.0800 
 40 H       -7.5950     2.8150     1.4160 H     1 <1>   0.0800 
 41 H       -7.3190     4.1860     2.4250 H     1 <1>   0.0800 
 42 H       -7.4190     6.7780     1.6850 H     1 <1>   0.0800 
 43 H       -7.1160     7.4240     0.0820 H     1 <1>   0.0800 
 44 H       -8.3910     5.5750    -0.9080 H     1 <1>   0.0800 
 45 H       -9.7840     2.8730     0.6440 H     1 <1>   0.4000 
 46 H       -9.3530     5.4920     2.8020 H     1 <1>   0.0800 
 47 H       -9.8480     3.8240     2.7220 H     1 <1>   0.0800 
 48 H      -10.7350     5.0500     1.8430 H     1 <1>   0.0800 
 49 H      -10.4250     6.2440    -0.1850 H     1 <1>   0.4000 
@<TRIPOS>BOND
  1   1   2  1   
  2   2   3  ar  
  3   2   4  ar  
  4   3   5  1   
  5   3   6  ar  
  6   4   7  1   
  7   4   8  ar  
  8   5   9  1   
  9   6  10  1   
 10   6  11  ar  
 11   7  12  2   
 12   7  13  am  
 13   8  11  ar  
 14   8  27  1   
 15   9  28  1   
 16   9  29  1   
 17   9  30  1   
 18  11  31  1   
 19  13  14  1   
 20  13  15  1   
 21  14  16  1   
 22  14  32  1   
 23  14  33  1   
 24  15  17  1   
 25  15  34  1   
 26  15  35  1   
 27  16  18  1   
 28  16  36  1   
 29  16  37  1   
 30  17  18  1   
 31  17  38  1   
 32  17  39  1   
 33  18  19  1   
 34  18  20  1   
 35  19  21  1   
 36  20  22  1   
 37  20  40  1   
 38  20  41  1   
 39  21  23  1   
 40  21  42  1   
 41  21  43  1   
 42  22  23  1   
 43  22  24  1   
 44  22  25  1   
 45  23  26  1   
 46  23  44  1   
 47  24  45  1   
 48  25  46  1   
 49  25  47  1   
 50  25  48  1   
 51  26  49  1   
@<TRIPOS>SUBSTRUCTURE
  1 ****  15 GROUP 4 **** **** 0

# MOE 2024.06 (io_trps.svl 2023.06)
