@<TRIPOS>MOLECULE
NONAME
47 49 1 0 0 
SMALL
USER_CHARGES


@<TRIPOS>ATOM
  1 O       -0.0760     0.0730    -0.9500 O.2   1 <1>  -0.5700 
  2 C        0.4360     0.0960     0.1440 C.2   1 <1>   0.5690 
  3 N        0.9190     1.2620     0.6770 N.am  1 <1>  -0.6600 
  4 C        0.5480    -1.2080     0.9280 C.3   1 <1>  -0.0990 
  5 C        0.9730     2.5020    -0.1640 C.3   1 <1>   0.3200 
  6 C        1.5230     1.4030     2.0340 C.3   1 <1>   0.0600 
  7 C        0.1830    -2.4660     0.1160 C.3   1 <1>  -0.1600 
  8 C        2.4080     2.8870    -0.4900 C.2   1 <1>   0.2980 
  9 C        0.3940    -3.7460     0.9370 C.3   1 <1>   0.0960 
 10 O        3.0930     2.1180    -1.2950 O.3   1 <1>  -0.0190 
 11 N        3.0330     3.8980    -0.0390 N.2   1 <1>  -0.5650 
 12 N       -0.0180    -4.9420     0.1770 N.pl3 1 <1>   0.3140 
 13 N        4.2560     2.6860    -1.3600 N.2   1 <1>  -0.4100 
 14 C        4.2260     3.7390    -0.6220 C.2   1 <1>   0.4620 
 15 N       -1.0870    -5.6750     0.5370 N.2   1 <1>  -0.7070 
 16 C        0.5830    -5.4580    -0.9140 C.2   1 <1>  -0.3020 
 17 C        5.3300     4.6610    -0.4150 C.ar  1 <1>   0.0540 
 18 C       -1.1420    -6.6340    -0.3360 C.2   1 <1>   0.1390 
 19 C       -0.1190    -6.5520    -1.2730 C.2   1 <1>  -0.1500 
 20 C        6.5740     4.4470    -1.0150 C.ar  1 <1>  -0.1500 
 21 C        5.2010     5.7950     0.3890 C.ar  1 <1>  -0.1500 
 22 C        7.6350     5.3140    -0.8240 C.ar  1 <1>  -0.1500 
 23 C        6.2560     6.6670     0.5850 C.ar  1 <1>  -0.1500 
 24 C        7.4800     6.4360    -0.0170 C.ar  1 <1>   0.0820 
 25 O        8.4630     7.3360     0.2250 O.3   1 <1>  -0.3620 
 26 C        9.7470     7.1930    -0.3410 C.3   1 <1>   0.0400 
 27 H       -0.1000    -1.1420     1.7820 H     1 <1>   0.0800 
 28 H        1.5610    -1.3030     1.2740 H     1 <1>   0.0800 
 29 H        0.5060     3.3090     0.3710 H     1 <1>   0.0800 
 30 H        0.4350     2.3700    -1.0860 H     1 <1>   0.0800 
 31 H        1.1760     0.6310     2.6970 H     1 <1>   0.0800 
 32 H        1.2540     2.3550     2.4580 H     1 <1>   0.0800 
 33 H        2.5960     1.3480     1.9610 H     1 <1>   0.0800 
 34 H        0.7920    -2.5030    -0.7720 H     1 <1>   0.0800 
 35 H       -0.8500    -2.4040    -0.1860 H     1 <1>   0.0800 
 36 H       -0.1920    -3.7080     1.8370 H     1 <1>   0.0800 
 37 H        1.4290    -3.8570     1.2040 H     1 <1>   0.0800 
 38 H        1.4570    -5.0250    -1.3650 H     1 <1>   0.1500 
 39 H       -1.8990    -7.4010    -0.3250 H     1 <1>   0.1500 
 40 H        0.0480    -7.2280    -2.0920 H     1 <1>   0.1500 
 41 H        6.7120     3.5840    -1.6430 H     1 <1>   0.1500 
 42 H        4.2600     6.0000     0.8700 H     1 <1>   0.1500 
 43 H        8.5680     5.1020    -1.3090 H     1 <1>   0.1500 
 44 H        6.1370     7.5350     1.2090 H     1 <1>   0.1500 
 45 H       10.3510     8.0180    -0.0100 H     1 <1>   0.0800 
 46 H        9.6600     7.2100    -1.4120 H     1 <1>   0.0800 
 47 H       10.1760     6.2670    -0.0020 H     1 <1>   0.0800 
@<TRIPOS>BOND
  1   1   2  2   
  2   2   3  am  
  3   2   4  1   
  4   3   5  1   
  5   3   6  1   
  6   4   7  1   
  7   4  27  1   
  8   4  28  1   
  9   5   8  1   
 10   5  29  1   
 11   5  30  1   
 12   6  31  1   
 13   6  32  1   
 14   6  33  1   
 15   7   9  1   
 16   7  34  1   
 17   7  35  1   
 18   8  10  1   
 19   8  11  2   
 20   9  12  1   
 21   9  36  1   
 22   9  37  1   
 23  10  13  1   
 24  11  14  1   
 25  12  15  1   
 26  12  16  1   
 27  13  14  2   
 28  14  17  1   
 29  15  18  2   
 30  16  19  2   
 31  16  38  1   
 32  17  20  ar  
 33  17  21  ar  
 34  18  19  1   
 35  18  39  1   
 36  19  40  1   
 37  20  22  ar  
 38  20  41  1   
 39  21  23  ar  
 40  21  42  1   
 41  22  24  ar  
 42  22  43  1   
 43  23  24  ar  
 44  23  44  1   
 45  24  25  1   
 46  25  26  1   
 47  26  45  1   
 48  26  46  1   
 49  26  47  1   
@<TRIPOS>SUBSTRUCTURE
  1 ****  10 GROUP 4 **** **** 0

# MOE 2024.06 (io_trps.svl 2023.06)
