@<TRIPOS>MOLECULE
NONAME
40 42 1 0 0 
SMALL
USER_CHARGES


@<TRIPOS>ATOM
  1 CL      -0.0280     0.2190    -1.2890 Cl    1 <1>  -0.1240 
  2 C        1.0150     1.4170    -0.5780 C.2   1 <1>   0.1640 
  3 S        0.5230     3.0840    -0.7330 S.3   1 <1>  -0.0800 
  4 C        2.1730     1.2960     0.0920 C.2   1 <1>  -0.1500 
  5 C        1.9570     3.6410     0.1480 C.2   1 <1>  -0.0450 
  6 C        2.7000     2.5560     0.5040 C.2   1 <1>  -0.1500 
  7 C        2.1250     5.0580     0.3600 C.2   1 <1>   0.7150 
  8 O        1.1470     5.7690     0.5050 O.2   1 <1>  -0.5700 
  9 N        3.3760     5.6410     0.4190 N.am  1 <1>  -0.6600 
 10 C        4.5610     5.0910    -0.3120 C.3   1 <1>   0.1400 
 11 C        3.5630     6.9520     1.1060 C.3   1 <1>   0.1400 
 12 C        5.1010     6.0560    -1.3780 C.3   1 <1>   0.1400 
 13 C        3.5760     8.0960     0.0860 C.3   1 <1>  -0.1600 
 14 N        5.7980     7.2180    -0.7530 N.am  1 <1>  -0.6600 
 15 C        4.9720     8.4250    -0.4590 C.3   1 <1>   0.1400 
 16 C        7.1570     7.1580    -0.4880 C.2   1 <1>   0.7150 
 17 O        7.6610     6.0440    -0.4490 O.2   1 <1>  -0.5700 
 18 C        7.9840     8.3370    -0.2460 C.2   1 <1>   0.1010 
 19 N        7.7550     9.5560    -0.6970 N.2   1 <1>  -0.5650 
 20 N        9.1370     8.2960     0.4940 N.pl3 1 <1>   0.0480 
 21 C        8.7710    10.2920    -0.2380 C.2   1 <1>   0.0770 
 22 C        9.6230     9.5440     0.4910 C.2   1 <1>  -0.3020 
 23 C        9.7690     7.1510     1.1840 C.3   1 <1>   0.0160 
 24 H        2.6690     0.3680     0.3110 H     1 <1>   0.1500 
 25 H        3.6190     2.6070     1.0630 H     1 <1>   0.1500 
 26 H        4.2900     4.1820    -0.8160 H     1 <1>   0.0800 
 27 H        5.3440     4.8560     0.3890 H     1 <1>   0.0800 
 28 H        4.4750     6.9410     1.6780 H     1 <1>   0.0800 
 29 H        2.7490     7.1070     1.7950 H     1 <1>   0.0800 
 30 H        4.3020     6.3930    -2.0140 H     1 <1>   0.0800 
 31 H        5.8020     5.5240    -1.9990 H     1 <1>   0.0800 
 32 H        3.2060     8.9830     0.5690 H     1 <1>   0.0800 
 33 H        2.8960     7.8800    -0.7180 H     1 <1>   0.0800 
 34 H        5.4750     9.0210     0.2820 H     1 <1>   0.0800 
 35 H        4.8860     9.0210    -1.3520 H     1 <1>   0.0800 
 36 H        8.8470    11.3450    -0.4560 H     1 <1>   0.1500 
 37 H       10.5280     9.8350     0.9920 H     1 <1>   0.1500 
 38 H        9.0420     6.6620     1.8070 H     1 <1>   0.0800 
 39 H       10.5860     7.4970     1.7900 H     1 <1>   0.0800 
 40 H       10.1360     6.4560     0.4510 H     1 <1>   0.0800 
@<TRIPOS>BOND
  1   1   2  1   
  2   2   3  1   
  3   2   4  2   
  4   3   5  1   
  5   4   6  1   
  6   4  24  1   
  7   5   6  2   
  8   5   7  1   
  9   6  25  1   
 10   7   8  2   
 11   7   9  am  
 12   9  10  1   
 13   9  11  1   
 14  10  12  1   
 15  10  26  1   
 16  10  27  1   
 17  11  13  1   
 18  11  28  1   
 19  11  29  1   
 20  12  14  1   
 21  12  30  1   
 22  12  31  1   
 23  13  15  1   
 24  13  32  1   
 25  13  33  1   
 26  14  15  1   
 27  14  16  am  
 28  15  34  1   
 29  15  35  1   
 30  16  17  2   
 31  16  18  1   
 32  18  19  2   
 33  18  20  1   
 34  19  21  1   
 35  20  22  1   
 36  20  23  1   
 37  21  22  2   
 38  21  36  1   
 39  22  37  1   
 40  23  38  1   
 41  23  39  1   
 42  23  40  1   
@<TRIPOS>SUBSTRUCTURE
  1 ****  10 GROUP 4 **** **** 0

# MOE 2024.06 (io_trps.svl 2023.06)
