@<TRIPOS>MOLECULE
NONAME
52 55 1 0 0 
SMALL
USER_CHARGES


@<TRIPOS>ATOM
  1 O        0.7970    -0.3410    -1.6340 O.3   1 <1>  -0.6800 
  2 C        1.4950    -0.6010    -0.4700 C.3   1 <1>   0.2000 
  3 C        2.9280    -0.0350    -0.6290 C.3   1 <1>  -0.0800 
  4 C        1.4560    -2.1200    -0.2340 C.3   1 <1>  -0.1600 
  5 C        3.7900    -0.2570     0.6320 C.3   1 <1>  -0.1600 
  6 C        2.9270     1.4690    -0.9820 C.3   1 <1>  -0.1600 
  7 C        0.0350    -2.7040    -0.2030 C.3   1 <1>  -0.0170 
  8 C        5.1900     0.3410     0.4900 C.3   1 <1>   0.3430 
  9 C        4.3410     2.0340    -1.1050 C.3   1 <1>   0.3430 
 10 C        0.0860    -4.1740     0.1800 C.ar  1 <1>  -0.1440 
 11 N        5.0870     1.7840     0.1580 N.4   1 <1>  -0.9590 
 12 C        0.3310    -5.1360    -0.7870 C.ar  1 <1>  -0.1500 
 13 C       -0.1030    -4.5660     1.4960 C.ar  1 <1>  -0.1500 
 14 C        6.4200     2.4740     0.1390 C.3   1 <1>   0.5240 
 15 C        0.3870    -6.4760    -0.4440 C.ar  1 <1>  -0.1500 
 16 C       -0.0470    -5.9060     1.8410 C.ar  1 <1>  -0.1500 
 17 C        6.2430     3.9820     0.3460 C.2   1 <1>   0.3350 
 18 C        0.1980    -6.8610     0.8710 C.ar  1 <1>  -0.1500 
 19 N        5.2190     4.4870     0.9750 N.2   1 <1>  -0.7070 
 20 N        7.1450     4.8320    -0.1320 N.2   1 <1>  -0.5650 
 21 N        5.4850     5.7930     0.9190 N.pl3 1 <1>   0.6010 
 22 C        6.6550     5.9740     0.2390 C.2   1 <1>   0.3120 
 23 C        4.7920     6.8790     1.4060 C.2   1 <1>  -0.1810 
 24 N        7.2020     7.2080    -0.0030 N.2   1 <1>  -0.5760 
 25 C        5.3230     8.1100     1.1770 C.2   1 <1>  -0.1360 
 26 C        6.5470     8.2240     0.4570 C.2   1 <1>   0.3760 
 27 H        0.3880     0.5450    -1.6090 H     1 <1>   0.4000 
 28 H        0.9800    -0.1040     0.3350 H     1 <1>   0.0800 
 29 H        3.3920    -0.5710    -1.4420 H     1 <1>   0.0800 
 30 H        1.9160    -2.3450     0.7100 H     1 <1>   0.0800 
 31 H        2.0250    -2.6180    -1.0000 H     1 <1>   0.0800 
 32 H        3.9070    -1.3090     0.8170 H     1 <1>   0.0800 
 33 H        3.3050     0.1700     1.4930 H     1 <1>   0.0800 
 34 H        2.3840     2.0260    -0.2390 H     1 <1>   0.0800 
 35 H        2.4320     1.6210    -1.9260 H     1 <1>   0.0800 
 36 H       -0.4290    -2.6040    -1.1690 H     1 <1>   0.0800 
 37 H       -0.5690    -2.1650     0.5060 H     1 <1>   0.0800 
 38 H        5.7220    -0.1770    -0.2920 H     1 <1>   0.0800 
 39 H        5.7300     0.2100     1.4150 H     1 <1>   0.0800 
 40 H        4.2870     3.0940    -1.2990 H     1 <1>   0.0800 
 41 H        4.8470     1.5610    -1.9310 H     1 <1>   0.0800 
 42 H        4.5680     2.2770     0.9040 H     1 <1>   0.4500 
 43 H        0.4790    -4.8440    -1.8120 H     1 <1>   0.1500 
 44 H       -0.2950    -3.8320     2.2580 H     1 <1>   0.1500 
 45 H        6.9230     2.2990    -0.7970 H     1 <1>   0.0800 
 46 H        7.0410     2.1010     0.9350 H     1 <1>   0.0800 
 47 H        0.5770    -7.2170    -1.2000 H     1 <1>   0.1500 
 48 H       -0.1960    -6.2040     2.8640 H     1 <1>   0.1500 
 49 H        0.2420    -7.9020     1.1390 H     1 <1>   0.1500 
 50 H        3.8780     6.6820     1.9360 H     1 <1>   0.1500 
 51 H        4.8520     9.0140     1.5200 H     1 <1>   0.1500 
 52 H        6.9380     9.2140     0.2930 H     1 <1>   0.0600 
@<TRIPOS>BOND
  1   1   2  1   
  2   1  27  1   
  3   2   3  1   
  4   2   4  1   
  5   2  28  1   
  6   3   5  1   
  7   3   6  1   
  8   3  29  1   
  9   4   7  1   
 10   4  30  1   
 11   4  31  1   
 12   5   8  1   
 13   5  32  1   
 14   5  33  1   
 15   6   9  1   
 16   6  34  1   
 17   6  35  1   
 18   7  10  1   
 19   7  36  1   
 20   7  37  1   
 21   8  11  1   
 22   8  38  1   
 23   8  39  1   
 24   9  11  1   
 25   9  40  1   
 26   9  41  1   
 27  10  12  ar  
 28  10  13  ar  
 29  11  14  1   
 30  11  42  1   
 31  12  15  ar  
 32  12  43  1   
 33  13  16  ar  
 34  13  44  1   
 35  14  17  1   
 36  14  45  1   
 37  14  46  1   
 38  15  18  ar  
 39  15  47  1   
 40  16  18  ar  
 41  16  48  1   
 42  17  19  2   
 43  17  20  1   
 44  18  49  1   
 45  19  21  1   
 46  20  22  2   
 47  21  22  1   
 48  21  23  1   
 49  22  24  1   
 50  23  25  2   
 51  23  50  1   
 52  24  26  2   
 53  25  26  1   
 54  25  51  1   
 55  26  52  1   
@<TRIPOS>SUBSTRUCTURE
  1 ****   5 GROUP 4 **** **** 0

# MOE 2024.06 (io_trps.svl 2023.06)
