@<TRIPOS>MOLECULE
NONAME
53 56 1 0 0 
SMALL
USER_CHARGES


@<TRIPOS>ATOM
  1 O       -1.7870    -2.0550    -1.9360 O.3   1 <1>  -0.6800 
  2 C       -1.1020    -2.4520    -0.8080 C.3   1 <1>   0.2000 
  3 C        0.1650    -3.1890    -1.2440 C.3   1 <1>  -0.1600 
  4 C       -2.0260    -3.3520     0.0090 C.3   1 <1>  -0.1600 
  5 C        0.8830    -3.8000    -0.0380 C.3   1 <1>   0.2090 
  6 C       -1.2750    -3.9440     1.2000 C.3   1 <1>   0.2090 
  7 N       -0.0660    -4.6750     0.7090 N.pl3 1 <1>  -0.8380 
  8 C        0.0130    -6.0320     0.7320 C.ar  1 <1>   0.4100 
  9 N       -1.1170    -6.7150     0.7200 N.ar  1 <1>  -0.6200 
 10 C        1.2590    -6.6890     0.7640 C.ar  1 <1>  -0.1500 
 11 C       -1.0570    -8.0360     0.6950 C.ar  1 <1>   0.7710 
 12 C        1.2940    -8.0420     0.7490 C.ar  1 <1>   0.2110 
 13 N        0.1120    -8.7000     0.7080 N.ar  1 <1>  -0.1790 
 14 N       -2.2070    -8.7450     0.6530 N.pl3 1 <1>  -0.8380 
 15 C       -3.5580    -8.1020     0.6010 C.3   1 <1>   0.2090 
 16 C       -2.3700   -10.2250     0.5850 C.3   1 <1>   0.2090 
 17 C       -4.5400    -9.2170     0.9640 C.3   1 <1>   0.2000 
 18 C       -3.8690   -10.4790     0.4140 C.3   1 <1>  -0.0800 
 19 O       -4.6250    -9.2990     2.3470 O.3   1 <1>  -0.6800 
 20 C       -4.3250   -11.8100     1.0410 C.3   1 <1>   0.0210 
 21 C       -3.6230   -12.9970     0.4030 C.2   1 <1>   0.1080 
 22 N       -2.3420   -13.2100     0.4890 N.2   1 <1>  -0.7070 
 23 C       -4.2710   -13.9830    -0.3310 C.2   1 <1>  -0.1500 
 24 N       -2.1480   -14.3650    -0.1840 N.pl3 1 <1>   0.3000 
 25 C       -3.2990   -14.8450    -0.6940 C.2   1 <1>  -0.3320 
 26 C       -3.4050   -16.1240    -1.5050 C.3   1 <1>  -0.0600 
 27 H       -1.2310    -1.4760    -2.4900 H     1 <1>   0.4000 
 28 H       -0.8500    -1.5700    -0.2420 H     1 <1>   0.0800 
 29 H       -0.0940    -3.9810    -1.9250 H     1 <1>   0.0800 
 30 H        0.8310    -2.5090    -1.7420 H     1 <1>   0.0800 
 31 H       -2.8650    -2.7810     0.3640 H     1 <1>   0.0800 
 32 H       -2.3920    -4.1570    -0.6030 H     1 <1>   0.0800 
 33 H        1.2370    -3.0210     0.6160 H     1 <1>   0.0800 
 34 H        1.7330    -4.3580    -0.3880 H     1 <1>   0.0800 
 35 H       -1.9260    -4.6000     1.7520 H     1 <1>   0.0800 
 36 H       -0.9660    -3.1560     1.8660 H     1 <1>   0.0800 
 37 H        2.1570    -6.1040     0.8150 H     1 <1>   0.1500 
 38 H        2.2130    -8.6070     0.7730 H     1 <1>   0.1500 
 39 H        0.0370    -9.7120     0.6900 H     1 <1>   0.4570 
 40 H       -3.6410    -7.2670     1.2770 H     1 <1>   0.0800 
 41 H       -3.7470    -7.7620    -0.4030 H     1 <1>   0.0800 
 42 H       -1.8270   -10.6460    -0.2450 H     1 <1>   0.0800 
 43 H       -2.0270   -10.6690     1.5060 H     1 <1>   0.0800 
 44 H       -5.5290    -9.0540     0.5710 H     1 <1>   0.0800 
 45 H       -4.0680   -10.5230    -0.6420 H     1 <1>   0.0800 
 46 H       -3.7320    -9.2240     2.7360 H     1 <1>   0.4000 
 47 H       -5.3880   -11.9170     0.9190 H     1 <1>   0.0800 
 48 H       -4.1160   -11.8260     2.0960 H     1 <1>   0.0800 
 49 H       -5.3240   -14.0290    -0.5450 H     1 <1>   0.1500 
 50 H       -1.2250   -14.8080    -0.2730 H     1 <1>   0.2700 
 51 H       -4.4270   -16.2950    -1.7950 H     1 <1>   0.0800 
 52 H       -3.0710   -16.9640    -0.9220 H     1 <1>   0.0800 
 53 H       -2.8050   -16.0540    -2.3950 H     1 <1>   0.0800 
@<TRIPOS>BOND
  1   1   2  1   
  2   1  27  1   
  3   2   3  1   
  4   2   4  1   
  5   2  28  1   
  6   3   5  1   
  7   3  29  1   
  8   3  30  1   
  9   4   6  1   
 10   4  31  1   
 11   4  32  1   
 12   5   7  1   
 13   5  33  1   
 14   5  34  1   
 15   6   7  1   
 16   6  35  1   
 17   6  36  1   
 18   7   8  1   
 19   8   9  ar  
 20   8  10  ar  
 21   9  11  ar  
 22  10  12  ar  
 23  10  37  1   
 24  11  13  ar  
 25  11  14  1   
 26  12  13  ar  
 27  12  38  1   
 28  13  39  1   
 29  14  15  1   
 30  14  16  1   
 31  15  17  1   
 32  15  40  1   
 33  15  41  1   
 34  16  18  1   
 35  16  42  1   
 36  16  43  1   
 37  17  18  1   
 38  17  19  1   
 39  17  44  1   
 40  18  20  1   
 41  18  45  1   
 42  19  46  1   
 43  20  21  1   
 44  20  47  1   
 45  20  48  1   
 46  21  22  2   
 47  21  23  1   
 48  22  24  1   
 49  23  25  2   
 50  23  49  1   
 51  24  25  1   
 52  24  50  1   
 53  25  26  1   
 54  26  51  1   
 55  26  52  1   
 56  26  53  1   
@<TRIPOS>SUBSTRUCTURE
  1 ****  14 GROUP 4 **** **** 0

# MOE 2024.06 (io_trps.svl 2023.06)
