@<TRIPOS>MOLECULE
NONAME
56 59 1 0 0 
SMALL
USER_CHARGES


@<TRIPOS>ATOM
  1 S        1.2830    -0.7170     2.6680 S.3   1 <1>  -0.0800 
  2 C        1.7070    -1.0080     0.9890 C.2   1 <1>  -0.1400 
  3 C        1.6520     0.9880     2.5180 C.2   1 <1>  -0.1100 
  4 C        2.0760     0.1440     0.3930 C.2   1 <1>  -0.1500 
  5 C        1.6210    -2.4500     0.5150 C.3   1 <1>   0.5230 
  6 C        2.0510     1.2860     1.2670 C.2   1 <1>  -0.1810 
  7 N        0.2510    -2.9590     0.7630 N.4   1 <1>  -0.9590 
  8 C        2.4770     2.6720     0.8090 C.3   1 <1>   0.5240 
  9 C       -0.8220    -2.3620    -0.0670 C.3   1 <1>   0.3430 
 10 C        0.0910    -4.4320     0.6300 C.3   1 <1>   0.3430 
 11 N        1.4050     3.2620    -0.0330 N.4   1 <1>  -0.9590 
 12 C       -2.0110    -3.2860     0.1920 C.3   1 <1>   0.2000 
 13 C       -1.3800    -4.6820     0.2440 C.3   1 <1>  -0.0800 
 14 C        1.8880     4.4860    -0.7360 C.3   1 <1>   0.3430 
 15 C        0.1720     3.5360     0.7660 C.3   1 <1>   0.3430 
 16 O       -2.4990    -2.9860     1.4580 O.3   1 <1>  -0.6800 
 17 C       -1.5080    -5.4120    -1.1100 C.3   1 <1>  -0.0170 
 18 C        0.8070     4.9930    -1.6920 C.3   1 <1>  -0.1600 
 19 C       -0.9450     4.0240    -0.1590 C.3   1 <1>  -0.1600 
 20 C       -0.9090    -6.8120    -1.0700 C.ar  1 <1>   0.1670 
 21 C       -0.5170     5.2580    -0.9640 C.3   1 <1>  -0.1600 
 22 N        0.4130    -6.8840    -1.0540 N.ar  1 <1>  -0.6200 
 23 C       -1.7420    -7.9310    -1.0570 C.ar  1 <1>   0.1600 
 24 C        0.8420    -8.1380    -1.0370 C.ar  1 <1>   0.1600 
 25 N       -1.3130    -9.1800    -1.0250 N.ar  1 <1>  -0.6200 
 26 C        0.0060    -9.2480    -1.0220 C.ar  1 <1>   0.1600 
 27 H        1.5340     1.5850     3.4090 H     1 <1>   0.1500 
 28 H        2.3910     0.2350    -0.6340 H     1 <1>   0.1500 
 29 H        2.3330    -3.0410     1.0700 H     1 <1>   0.0800 
 30 H        1.8640    -2.5180    -0.5320 H     1 <1>   0.0800 
 31 H       -0.0060    -2.7180     1.7340 H     1 <1>   0.4500 
 32 H        3.3940     2.5930     0.2470 H     1 <1>   0.0800 
 33 H        2.6580     3.3000     1.6660 H     1 <1>   0.0800 
 34 H       -1.0440    -1.3490     0.2230 H     1 <1>   0.0800 
 35 H       -0.5510    -2.3980    -1.1090 H     1 <1>   0.0800 
 36 H        0.7440    -4.7990    -0.1450 H     1 <1>   0.0800 
 37 H        0.3360    -4.9310     1.5550 H     1 <1>   0.0800 
 38 H        1.1540     2.5690    -0.7450 H     1 <1>   0.4500 
 39 H       -2.8050    -3.1700    -0.5280 H     1 <1>   0.0800 
 40 H       -1.8550    -5.2890     0.9960 H     1 <1>   0.0800 
 41 H        2.1160     5.2570    -0.0160 H     1 <1>   0.0800 
 42 H        2.7840     4.2680    -1.2950 H     1 <1>   0.0800 
 43 H       -0.1520     2.6400     1.2730 H     1 <1>   0.0800 
 44 H        0.3760     4.2900     1.5090 H     1 <1>   0.0800 
 45 H       -3.3480    -3.4450     1.6370 H     1 <1>   0.4000 
 46 H       -1.0150    -4.8540    -1.8870 H     1 <1>   0.0800 
 47 H       -2.5470    -5.4840    -1.3780 H     1 <1>   0.0800 
 48 H        1.1450     5.9050    -2.1540 H     1 <1>   0.0800 
 49 H        0.6570     4.2740    -2.4780 H     1 <1>   0.0800 
 50 H       -1.2300     3.2300    -0.8270 H     1 <1>   0.0800 
 51 H       -1.8090     4.2700     0.4330 H     1 <1>   0.0800 
 52 H       -1.2840     5.5130    -1.6790 H     1 <1>   0.0800 
 53 H       -0.4000     6.0980    -0.2990 H     1 <1>   0.0800 
 54 H       -2.8080    -7.7930    -1.0730 H     1 <1>   0.1500 
 55 H        1.9060    -8.3000    -1.0350 H     1 <1>   0.1500 
 56 H        0.4470   -10.2300    -1.0060 H     1 <1>   0.1500 
@<TRIPOS>BOND
  1   1   2  1   
  2   1   3  1   
  3   2   4  2   
  4   2   5  1   
  5   3   6  2   
  6   3  27  1   
  7   4   6  1   
  8   4  28  1   
  9   5   7  1   
 10   5  29  1   
 11   5  30  1   
 12   6   8  1   
 13   7   9  1   
 14   7  10  1   
 15   7  31  1   
 16   8  11  1   
 17   8  32  1   
 18   8  33  1   
 19   9  12  1   
 20   9  34  1   
 21   9  35  1   
 22  10  13  1   
 23  10  36  1   
 24  10  37  1   
 25  11  14  1   
 26  11  15  1   
 27  11  38  1   
 28  12  13  1   
 29  12  16  1   
 30  12  39  1   
 31  13  17  1   
 32  13  40  1   
 33  14  18  1   
 34  14  41  1   
 35  14  42  1   
 36  15  19  1   
 37  15  43  1   
 38  15  44  1   
 39  16  45  1   
 40  17  20  1   
 41  17  46  1   
 42  17  47  1   
 43  18  21  1   
 44  18  48  1   
 45  18  49  1   
 46  19  21  1   
 47  19  50  1   
 48  19  51  1   
 49  20  22  ar  
 50  20  23  ar  
 51  21  52  1   
 52  21  53  1   
 53  22  24  ar  
 54  23  25  ar  
 55  23  54  1   
 56  24  26  ar  
 57  24  55  1   
 58  25  26  ar  
 59  26  56  1   
@<TRIPOS>SUBSTRUCTURE
  1 ****   9 GROUP 4 **** **** 0

# MOE 2024.06 (io_trps.svl 2023.06)
