@<TRIPOS>MOLECULE
NONAME
34 36 1 0 0 
SMALL
USER_CHARGES


@<TRIPOS>ATOM
  1 O       -0.7050     0.2240    -0.0560 O.2   1 <1>  -0.5700 
  2 C       -1.7050     0.8620     0.2480 C.2   1 <1>   0.7160 
  3 N       -2.8040     0.1560     0.6850 N.am  1 <1>  -0.6600 
  4 C       -1.6670     2.3210     0.1230 C.2   1 <1>   0.2030 
  5 C       -4.1750     0.7130     0.8710 C.3   1 <1>   0.2350 
  6 C       -2.8490    -1.3320     0.7680 C.3   1 <1>   0.2350 
  7 N       -2.4790     3.2160     0.6630 N.2   1 <1>  -0.7070 
  8 C       -0.6890     2.9840    -0.6320 C.2   1 <1>  -0.1500 
  9 C       -5.1200    -0.4420     0.5850 C.3   1 <1>  -0.2420 
 10 C       -4.2990    -1.7080     0.5150 C.3   1 <1>  -0.2420 
 11 N       -2.0410     4.4100     0.2600 N.pl3 1 <1>   0.3140 
 12 C       -0.9520     4.3010    -0.5280 C.2   1 <1>  -0.3320 
 13 C       -6.5110    -0.1620     1.1620 C.2   1 <1>   0.9470 
 14 C       -5.0130    -1.2020    -0.7120 C.3   1 <1>  -0.2000 
 15 C       -4.5810    -3.1350     0.9930 C.2   1 <1>   0.9470 
 16 C       -2.7220     5.6440     0.6680 C.3   1 <1>   0.0160 
 17 C       -0.2030     5.4670    -1.1510 C.3   1 <1>  -0.0600 
 18 O       -7.4830    -0.0850     0.3960 O.co2 1 <1>  -0.9000 
 19 O       -6.6190     0.1380     2.3580 O.co2 1 <1>  -0.9000 
 20 O       -4.2130    -3.4730     2.1270 O.co2 1 <1>  -0.9000 
 21 O       -5.0220    -3.9730     0.1930 O.co2 1 <1>  -0.9000 
 22 H       -4.2890     1.0490     1.8880 H     1 <1>   0.0800 
 23 H       -4.3710     1.5260     0.1950 H     1 <1>   0.0800 
 24 H       -2.2060    -1.7900     0.0370 H     1 <1>   0.0800 
 25 H       -2.5510    -1.6390     1.7560 H     1 <1>   0.0800 
 26 H        0.0990     2.4900    -1.1720 H     1 <1>   0.1500 
 27 H       -4.4450    -0.7900    -1.5240 H     1 <1>   0.1000 
 28 H       -5.8820    -1.7440    -1.0480 H     1 <1>   0.1000 
 29 H       -3.0520     6.1700    -0.2060 H     1 <1>   0.0800 
 30 H       -2.0410     6.2510     1.2330 H     1 <1>   0.0800 
 31 H       -3.5700     5.3910     1.2780 H     1 <1>   0.0800 
 32 H        0.6280     5.1040    -1.7300 H     1 <1>   0.0800 
 33 H        0.1750     6.1190    -0.3830 H     1 <1>   0.0800 
 34 H       -0.8540     6.0250    -1.7990 H     1 <1>   0.0800 
@<TRIPOS>BOND
  1   1   2  2   
  2   2   3  am  
  3   2   4  1   
  4   3   5  1   
  5   3   6  1   
  6   4   7  2   
  7   4   8  1   
  8   5   9  1   
  9   5  22  1   
 10   5  23  1   
 11   6  10  1   
 12   6  24  1   
 13   6  25  1   
 14   7  11  1   
 15   8  12  2   
 16   8  26  1   
 17   9  10  1   
 18   9  13  1   
 19   9  14  1   
 20  10  14  1   
 21  10  15  1   
 22  11  12  1   
 23  11  16  1   
 24  12  17  1   
 25  13  18  ar  
 26  13  19  ar  
 27  14  27  1   
 28  14  28  1   
 29  15  20  ar  
 30  15  21  ar  
 31  16  29  1   
 32  16  30  1   
 33  16  31  1   
 34  17  32  1   
 35  17  33  1   
 36  17  34  1   
@<TRIPOS>SUBSTRUCTURE
  1 ****   5 GROUP 4 **** **** 0

# MOE 2024.06 (io_trps.svl 2023.06)
