@<TRIPOS>MOLECULE
NONAME
47 50 1 0 0 
SMALL
USER_CHARGES


@<TRIPOS>ATOM
  1 O       -0.5850     0.3520     0.0160 O.2   1 <1>  -0.5700 
  2 C       -1.5620     0.9630     0.4150 C.2   1 <1>   0.5440 
  3 N       -2.7170     0.2280     0.6350 N.am  1 <1>  -0.6600 
  4 C       -1.4650     2.4170     0.6080 C.ar  1 <1>   0.3960 
  5 C       -2.7130    -1.2680     0.7210 C.3   1 <1>   0.1400 
  6 C       -4.0940     0.8090     0.6970 C.3   1 <1>   0.1400 
  7 N       -2.1710     3.0280     1.5800 N.ar  1 <1>  -0.6200 
  8 C       -0.6230     3.1460    -0.2290 C.ar  1 <1>  -0.1500 
  9 C       -3.7410    -1.8860    -0.2440 C.3   1 <1>   0.3440 
 10 C       -5.0580     0.0630    -0.2500 C.3   1 <1>   0.2950 
 11 C       -2.0270     4.3340     1.7050 C.ar  1 <1>   0.1600 
 12 C       -0.4860     4.5090    -0.0940 C.ar  1 <1>   0.0830 
 13 O       -5.0060    -1.3160    -0.0300 O.3   1 <1>  -0.5600 
 14 C       -3.8200    -3.3980    -0.0520 C.ar  1 <1>  -0.1440 
 15 C       -6.5080     0.5080    -0.0390 C.3   1 <1>  -0.1950 
 16 C       -1.2140     5.1170     0.9100 C.ar  1 <1>  -0.1500 
 17 O        0.3430     5.1540    -0.9420 O.3   1 <1>  -0.3630 
 18 C       -2.9950    -4.2270    -0.8000 C.ar  1 <1>  -0.1500 
 19 C       -4.6900    -3.9690     0.8670 C.ar  1 <1>  -0.1500 
 20 C       -7.5380     0.3290    -1.1090 C.3   1 <1>  -0.2000 
 21 C       -7.0600     1.7070    -0.7460 C.3   1 <1>  -0.2000 
 22 C        0.5720     6.5420    -0.8420 C.3   1 <1>   0.0400 
 23 C       -3.0390    -5.6000    -0.6340 C.ar  1 <1>  -0.1500 
 24 C       -4.7360    -5.3420     1.0350 C.ar  1 <1>  -0.1500 
 25 C       -3.9100    -6.1590     0.2850 C.ar  1 <1>  -0.1500 
 26 H       -1.7390    -1.6650     0.4950 H     1 <1>   0.0800 
 27 H       -2.9570    -1.5630     1.7260 H     1 <1>   0.0800 
 28 H       -4.4590     0.7420     1.7070 H     1 <1>   0.0800 
 29 H       -4.0840     1.8450     0.4150 H     1 <1>   0.0800 
 30 H       -0.0650     2.6390    -0.9940 H     1 <1>   0.1500 
 31 H       -3.4510    -1.6750    -1.2590 H     1 <1>   0.0800 
 32 H       -4.7730     0.2480    -1.2710 H     1 <1>   0.0800 
 33 H       -2.5910     4.8110     2.4900 H     1 <1>   0.1500 
 34 H       -6.8300     0.3510     0.9770 H     1 <1>   0.1000 
 35 H       -1.1640     6.1740     1.0870 H     1 <1>   0.1500 
 36 H       -2.3120    -3.8070    -1.5180 H     1 <1>   0.1500 
 37 H       -5.3400    -3.3410     1.4540 H     1 <1>   0.1500 
 38 H       -7.2340    -0.1050    -2.0460 H     1 <1>   0.1000 
 39 H       -8.5270     0.0220    -0.8170 H     1 <1>   0.1000 
 40 H       -7.7300     2.3600    -0.2140 H     1 <1>   0.1000 
 41 H       -6.4490     2.2350    -1.4570 H     1 <1>   0.1000 
 42 H        1.2730     6.8210    -1.6080 H     1 <1>   0.0800 
 43 H        0.9850     6.7590     0.1280 H     1 <1>   0.0800 
 44 H       -0.3570     7.0630    -0.9910 H     1 <1>   0.0800 
 45 H       -2.3970    -6.2350    -1.2190 H     1 <1>   0.1500 
 46 H       -5.4160    -5.7730     1.7490 H     1 <1>   0.1500 
 47 H       -3.9450    -7.2260     0.4150 H     1 <1>   0.1500 
@<TRIPOS>BOND
  1   1   2  2   
  2   2   3  am  
  3   2   4  1   
  4   3   5  1   
  5   3   6  1   
  6   4   7  ar  
  7   4   8  ar  
  8   5   9  1   
  9   5  26  1   
 10   5  27  1   
 11   6  10  1   
 12   6  28  1   
 13   6  29  1   
 14   7  11  ar  
 15   8  12  ar  
 16   8  30  1   
 17   9  13  1   
 18   9  14  1   
 19   9  31  1   
 20  10  13  1   
 21  10  15  1   
 22  10  32  1   
 23  11  16  ar  
 24  11  33  1   
 25  12  16  ar  
 26  12  17  1   
 27  14  18  ar  
 28  14  19  ar  
 29  15  20  1   
 30  15  21  1   
 31  15  34  1   
 32  16  35  1   
 33  17  22  1   
 34  18  23  ar  
 35  18  36  1   
 36  19  24  ar  
 37  19  37  1   
 38  20  21  1   
 39  20  38  1   
 40  20  39  1   
 41  21  40  1   
 42  21  41  1   
 43  22  42  1   
 44  22  43  1   
 45  22  44  1   
 46  23  25  ar  
 47  23  45  1   
 48  24  25  ar  
 49  24  46  1   
 50  25  47  1   
@<TRIPOS>SUBSTRUCTURE
  1 ****   3 GROUP 4 **** **** 0

# MOE 2024.06 (io_trps.svl 2023.06)
