@<TRIPOS>MOLECULE
NONAME
47 50 1 0 0 
SMALL
USER_CHARGES


@<TRIPOS>ATOM
  1 O        0.5810    -3.2830     1.5960 O.3   1 <1>  -0.6800 
  2 C        0.4360    -2.3200     0.6080 C.3   1 <1>   0.2000 
  3 C        1.8130    -1.9620     0.0120 C.3   1 <1>   0.0000 
  4 C       -0.3520    -2.9450    -0.5430 C.3   1 <1>  -0.1600 
  5 C        2.9160    -1.8640     1.0910 C.3   1 <1>   0.2090 
  6 C        1.7180    -0.6030    -0.7330 C.3   1 <1>  -0.1600 
  7 C        2.0610    -3.1190    -0.9770 C.3   1 <1>  -0.1600 
  8 C        0.6840    -3.5360    -1.5090 C.3   1 <1>  -0.1600 
  9 N        4.2340    -1.4740     0.4710 N.pl3 1 <1>  -0.8380 
 10 C        3.0880    -0.0810    -1.2070 C.3   1 <1>  -0.1600 
 11 C        5.2990    -2.3060     0.3690 C.ar  1 <1>   0.4610 
 12 C        4.1260    -0.0860    -0.0810 C.3   1 <1>   0.2090 
 13 N        6.4460    -1.8430    -0.1330 N.ar  1 <1>  -0.1790 
 14 C        5.3010    -3.6740     0.7560 C.ar  1 <1>  -0.1500 
 15 C        7.6060    -2.5790    -0.2850 C.ar  1 <1>   0.3610 
 16 C        6.4010    -4.4690     0.6380 C.ar  1 <1>  -0.1440 
 17 C        7.6110    -3.9290     0.1060 C.ar  1 <1>   0.0000 
 18 C        8.7620    -1.9960    -0.8170 C.ar  1 <1>  -0.1500 
 19 C        6.3400    -5.9300     1.0690 C.3   1 <1>  -0.0970 
 20 C        8.8030    -4.6550    -0.0560 C.ar  1 <1>  -0.1500 
 21 C        9.9130    -2.7320    -0.9630 C.ar  1 <1>  -0.1500 
 22 C        9.9300    -4.0700    -0.5790 C.ar  1 <1>  -0.1500 
 23 H       -0.2950    -3.6300     1.8550 H     1 <1>   0.4000 
 24 H       -0.0690    -1.4720     1.0400 H     1 <1>   0.0800 
 25 H       -1.0580    -3.6840    -0.2050 H     1 <1>   0.0800 
 26 H       -0.8950    -2.1690    -1.0530 H     1 <1>   0.0800 
 27 H        2.9870    -2.7840     1.6380 H     1 <1>   0.0800 
 28 H        2.6320    -1.1140     1.8100 H     1 <1>   0.0800 
 29 H        1.0580    -0.6810    -1.5800 H     1 <1>   0.0800 
 30 H        1.2960     0.1280    -0.0660 H     1 <1>   0.0800 
 31 H        2.7350    -2.8610    -1.7730 H     1 <1>   0.0800 
 32 H        2.4760    -3.9560    -0.4430 H     1 <1>   0.0800 
 33 H        0.6080    -4.6100    -1.5450 H     1 <1>   0.0800 
 34 H        0.5290    -3.1450    -2.5000 H     1 <1>   0.0800 
 35 H        2.9720     0.9230    -1.5760 H     1 <1>   0.0800 
 36 H        3.4490    -0.6810    -2.0230 H     1 <1>   0.0800 
 37 H        3.8100     0.5850     0.7020 H     1 <1>   0.0800 
 38 H        5.0620     0.2770    -0.4610 H     1 <1>   0.0800 
 39 H        6.4570    -0.8710    -0.4060 H     1 <1>   0.4570 
 40 H        4.3980    -4.0990     1.1460 H     1 <1>   0.1500 
 41 H        8.7610    -0.9640    -1.1170 H     1 <1>   0.1500 
 42 H        5.3640    -6.1860     1.4430 H     1 <1>   0.0800 
 43 H        7.0550    -6.1190     1.8510 H     1 <1>   0.0800 
 44 H        6.5550    -6.5740     0.2350 H     1 <1>   0.0800 
 45 H        8.8440    -5.6910     0.2330 H     1 <1>   0.1500 
 46 H       10.8080    -2.2910    -1.3720 H     1 <1>   0.1500 
 47 H       10.8370    -4.6410    -0.6960 H     1 <1>   0.1500 
@<TRIPOS>BOND
  1   1   2  1   
  2   1  23  1   
  3   2   3  1   
  4   2   4  1   
  5   2  24  1   
  6   3   5  1   
  7   3   6  1   
  8   3   7  1   
  9   4   8  1   
 10   4  25  1   
 11   4  26  1   
 12   5   9  1   
 13   5  27  1   
 14   5  28  1   
 15   6  10  1   
 16   6  29  1   
 17   6  30  1   
 18   7   8  1   
 19   7  31  1   
 20   7  32  1   
 21   8  33  1   
 22   8  34  1   
 23   9  11  1   
 24   9  12  1   
 25  10  12  1   
 26  10  35  1   
 27  10  36  1   
 28  11  13  ar  
 29  11  14  ar  
 30  12  37  1   
 31  12  38  1   
 32  13  15  ar  
 33  13  39  1   
 34  14  16  ar  
 35  14  40  1   
 36  15  17  ar  
 37  15  18  ar  
 38  16  17  ar  
 39  16  19  1   
 40  17  20  ar  
 41  18  21  ar  
 42  18  41  1   
 43  19  42  1   
 44  19  43  1   
 45  19  44  1   
 46  20  22  ar  
 47  20  45  1   
 48  21  22  ar  
 49  21  46  1   
 50  22  47  1   
@<TRIPOS>SUBSTRUCTURE
  1 ****  11 GROUP 4 **** **** 0

# MOE 2024.06 (io_trps.svl 2023.06)
