@<TRIPOS>MOLECULE
NONAME
46 49 1 0 0 
SMALL
USER_CHARGES


@<TRIPOS>ATOM
  1 CL       0.1350    -0.2170    -0.5470 Cl    1 <1>  -0.1770 
  2 C       -0.0940    -1.9410    -0.3970 C.ar  1 <1>   0.1770 
  3 C       -1.1460    -2.4260     0.3440 C.ar  1 <1>  -0.1500 
  4 C        0.7960    -2.7930    -1.0330 C.ar  1 <1>  -0.1500 
  5 C       -1.3410    -3.8060     0.4720 C.ar  1 <1>   0.0860 
  6 C        0.6210    -4.1550    -0.9180 C.ar  1 <1>  -0.1500 
  7 C       -2.4220    -4.3750     1.2330 C.2   1 <1>   0.4690 
  8 C       -0.4390    -4.6730    -0.1720 C.ar  1 <1>   0.1000 
  9 O       -3.2350    -3.6700     1.8170 O.2   1 <1>  -0.5700 
 10 C       -2.5270    -5.7870     1.2930 C.2   1 <1>  -0.1360 
 11 N       -0.6130    -6.0470    -0.0600 N.pl3 1 <1>  -0.6000 
 12 C       -1.6480    -6.6040     0.6590 C.2   1 <1>  -0.0380 
 13 C       -1.7360    -8.1290     0.7100 C.3   1 <1>   0.2480 
 14 N       -3.1280    -8.6010     0.8000 N.3   1 <1>  -0.8100 
 15 C       -3.9270    -8.3040    -0.3970 C.3   1 <1>   0.1100 
 16 C       -3.2320   -10.0520     1.0210 C.3   1 <1>   0.1100 
 17 C       -5.1100    -9.2600    -0.2970 C.3   1 <1>   0.2000 
 18 C       -4.4760   -10.5370     0.2520 C.3   1 <1>  -0.0800 
 19 O       -5.9650    -8.7630     0.6660 O.3   1 <1>  -0.6800 
 20 C       -4.1150   -11.5070    -0.8890 C.3   1 <1>   0.0200 
 21 C       -3.3880   -12.7370    -0.3780 C.2   1 <1>  -0.0400 
 22 O       -3.9370   -13.4920     0.5360 O.3   1 <1>  -0.0190 
 23 C       -2.1930   -13.2630    -0.6850 C.2   1 <1>  -0.1500 
 24 N       -3.1710   -14.4930     0.8600 N.2   1 <1>  -0.4100 
 25 C       -2.1140   -14.3830     0.1390 C.2   1 <1>   0.1080 
 26 C       -0.9480   -15.3450     0.1880 C.3   1 <1>  -0.0590 
 27 H       -1.8240    -1.7460     0.8280 H     1 <1>   0.1500 
 28 H        1.6080    -2.3790    -1.6040 H     1 <1>   0.1500 
 29 H        1.3040    -4.8260    -1.4060 H     1 <1>   0.1500 
 30 H       -3.3440    -6.1770     1.8710 H     1 <1>   0.1500 
 31 H        0.0650    -6.6530    -0.5330 H     1 <1>   0.4000 
 32 H       -1.1890    -8.4720     1.5720 H     1 <1>   0.0800 
 33 H       -1.2780    -8.5490    -0.1680 H     1 <1>   0.0800 
 34 H       -4.2460    -7.2760    -0.4220 H     1 <1>   0.0800 
 35 H       -3.3600    -8.5230    -1.2860 H     1 <1>   0.0800 
 36 H       -2.3450   -10.5550     0.6750 H     1 <1>   0.0800 
 37 H       -3.3450   -10.2450     2.0750 H     1 <1>   0.0800 
 38 H       -5.6560    -9.3850    -1.2160 H     1 <1>   0.0800 
 39 H       -5.1550   -11.0420     0.9190 H     1 <1>   0.0800 
 40 H       -5.4030    -8.4760     1.4180 H     1 <1>   0.4000 
 41 H       -3.4950   -11.0120    -1.6140 H     1 <1>   0.0800 
 42 H       -5.0160   -11.8250    -1.3820 H     1 <1>   0.0800 
 43 H       -1.4500   -12.9350    -1.3870 H     1 <1>   0.1500 
 44 H       -0.0490   -14.8180     0.4470 H     1 <1>   0.0800 
 45 H       -0.8230   -15.8150    -0.7700 H     1 <1>   0.0800 
 46 H       -1.1310   -16.1050     0.9260 H     1 <1>   0.0800 
@<TRIPOS>BOND
  1   1   2  1   
  2   2   3  ar  
  3   2   4  ar  
  4   3   5  ar  
  5   3  27  1   
  6   4   6  ar  
  7   4  28  1   
  8   5   7  1   
  9   5   8  ar  
 10   6   8  ar  
 11   6  29  1   
 12   7   9  2   
 13   7  10  1   
 14   8  11  1   
 15  10  12  2   
 16  10  30  1   
 17  11  12  1   
 18  11  31  1   
 19  12  13  1   
 20  13  14  1   
 21  13  32  1   
 22  13  33  1   
 23  14  15  1   
 24  14  16  1   
 25  15  17  1   
 26  15  34  1   
 27  15  35  1   
 28  16  18  1   
 29  16  36  1   
 30  16  37  1   
 31  17  18  1   
 32  17  19  1   
 33  17  38  1   
 34  18  20  1   
 35  18  39  1   
 36  19  40  1   
 37  20  21  1   
 38  20  41  1   
 39  20  42  1   
 40  21  22  1   
 41  21  23  2   
 42  22  24  1   
 43  23  25  1   
 44  23  43  1   
 45  24  25  2   
 46  25  26  1   
 47  26  44  1   
 48  26  45  1   
 49  26  46  1   
@<TRIPOS>SUBSTRUCTURE
  1 ****  13 GROUP 4 **** **** 0

# MOE 2024.06 (io_trps.svl 2023.06)
