@<TRIPOS>MOLECULE
NONAME
47 50 1 0 0 
SMALL
USER_CHARGES


@<TRIPOS>ATOM
  1 O       -0.4420     0.4440     1.8830 O.3   1 <1>  -0.5600 
  2 C        0.4530     0.5980     0.8240 C.3   1 <1>   0.1200 
  3 C       -1.6850     1.0020     1.5670 C.3   1 <1>   0.1200 
  4 C       -0.0330     1.8190     0.0520 C.3   1 <1>   0.2890 
  5 C       -1.5410     1.6870     0.2000 C.3   1 <1>  -0.0800 
  6 N        0.4160     3.0480     0.7580 N.pl3 1 <1>  -0.8690 
  7 C       -2.1530     0.8470    -0.9390 C.3   1 <1>  -0.0170 
  8 C        1.0770     4.1070     0.2400 C.ar  1 <1>   0.4100 
  9 C       -3.6580     0.6920    -0.7780 C.ar  1 <1>  -0.1430 
 10 N        1.3180     4.1090    -1.0680 N.ar  1 <1>  -0.6200 
 11 C        1.4830     5.1430     1.0670 C.ar  1 <1>  -0.1500 
 12 C       -4.5290     1.7340    -1.0230 C.ar  1 <1>  -0.1500 
 13 C       -4.2330    -0.4990    -0.3810 C.ar  1 <1>  -0.1500 
 14 C        1.9630     5.1360    -1.5510 C.ar  1 <1>   0.7710 
 15 C        2.1560     6.2090     0.5290 C.ar  1 <1>   0.4610 
 16 C       -5.8910     1.5430    -0.8590 C.ar  1 <1>   0.1600 
 17 C       -5.6090    -0.5860    -0.2460 C.ar  1 <1>   0.1600 
 18 N        2.3800     6.1690    -0.7950 N.ar  1 <1>  -0.1790 
 19 N        2.2060     5.1350    -2.8650 N.pl3 1 <1>  -0.9000 
 20 N        2.6000     7.2750     1.2470 N.pl3 1 <1>  -0.6690 
 21 N       -6.4520     0.4080    -0.4740 N.ar  1 <1>  -0.6200 
 22 C        3.3350     8.4540     0.7540 C.3   1 <1>   0.0690 
 23 C        2.7700     9.7910     1.0960 C.3   1 <1>  -0.2000 
 24 C        2.7210     9.3020    -0.3160 C.3   1 <1>  -0.2000 
 25 H        1.4510     0.7200     1.2070 H     1 <1>   0.0800 
 26 H        0.4000    -0.2880     0.2170 H     1 <1>   0.0800 
 27 H       -2.4240     0.2210     1.5720 H     1 <1>   0.0800 
 28 H       -1.9240     1.7190     2.3320 H     1 <1>   0.0800 
 29 H        0.2980     1.8090    -0.9730 H     1 <1>   0.0800 
 30 H       -2.0140     2.6530     0.2060 H     1 <1>   0.0800 
 31 H        0.2660     2.9630     1.7700 H     1 <1>   0.4000 
 32 H       -1.6950    -0.1270    -0.9710 H     1 <1>   0.0800 
 33 H       -1.9570     1.3260    -1.8820 H     1 <1>   0.0800 
 34 H        1.2660     5.1000     2.1170 H     1 <1>   0.1500 
 35 H       -4.1630     2.6930    -1.3410 H     1 <1>   0.1500 
 36 H       -3.6270    -1.3630    -0.1720 H     1 <1>   0.1500 
 37 H       -6.5550     2.3680    -1.0540 H     1 <1>   0.1500 
 38 H       -6.0380    -1.5220     0.0650 H     1 <1>   0.1500 
 39 H        2.8640     6.9460    -1.2230 H     1 <1>   0.4570 
 40 H        2.6960     5.8360    -3.4220 H     1 <1>   0.4000 
 41 H        1.8770     4.3290    -3.4060 H     1 <1>   0.4000 
 42 H        2.4570     7.2930     2.2670 H     1 <1>   0.4000 
 43 H        4.4080     8.3470     0.8130 H     1 <1>   0.1000 
 44 H        1.8500     9.8520     1.6520 H     1 <1>   0.1000 
 45 H        3.4410    10.6020     1.3240 H     1 <1>   0.1000 
 46 H        3.3500     9.8160    -1.0240 H     1 <1>   0.1000 
 47 H        1.7380     9.1020    -0.7080 H     1 <1>   0.1000 
@<TRIPOS>BOND
  1   1   2  1   
  2   1   3  1   
  3   2   4  1   
  4   2  25  1   
  5   2  26  1   
  6   3   5  1   
  7   3  27  1   
  8   3  28  1   
  9   4   5  1   
 10   4   6  1   
 11   4  29  1   
 12   5   7  1   
 13   5  30  1   
 14   6   8  1   
 15   6  31  1   
 16   7   9  1   
 17   7  32  1   
 18   7  33  1   
 19   8  10  ar  
 20   8  11  ar  
 21   9  12  ar  
 22   9  13  ar  
 23  10  14  ar  
 24  11  15  ar  
 25  11  34  1   
 26  12  16  ar  
 27  12  35  1   
 28  13  17  ar  
 29  13  36  1   
 30  14  18  ar  
 31  14  19  1   
 32  15  18  ar  
 33  15  20  1   
 34  16  21  ar  
 35  16  37  1   
 36  17  21  ar  
 37  17  38  1   
 38  18  39  1   
 39  19  40  1   
 40  19  41  1   
 41  20  22  1   
 42  20  42  1   
 43  22  23  1   
 44  22  24  1   
 45  22  43  1   
 46  23  24  1   
 47  23  44  1   
 48  23  45  1   
 49  24  46  1   
 50  24  47  1   
@<TRIPOS>SUBSTRUCTURE
  1 ****   6 GROUP 4 **** **** 0

# MOE 2024.06 (io_trps.svl 2023.06)
