@<TRIPOS>MOLECULE
NONAME
46 47 1 0 0 
SMALL
USER_CHARGES


@<TRIPOS>ATOM
  1 O        0.7600     0.1040     1.2250 O.3   1 <1>  -0.6800 
  2 C        1.3380    -0.3420     0.0420 C.3   1 <1>   0.2000 
  3 C        2.1300    -1.6150     0.3540 C.3   1 <1>  -0.0800 
  4 C        2.4180     0.6630    -0.3540 C.3   1 <1>   0.3430 
  5 C        3.5330    -1.1120     0.7490 C.3   1 <1>   0.3430 
  6 C        2.1770    -2.5640    -0.8630 C.3   1 <1>  -0.0170 
  7 N        3.5250     0.3710     0.5950 N.4   1 <1>  -0.9590 
  8 C        2.9200    -3.8580    -0.5570 C.ar  1 <1>   0.1670 
  9 C        4.8520     0.9360     0.2360 C.3   1 <1>   0.3430 
 10 N        4.2360    -3.7670    -0.4490 N.ar  1 <1>  -0.6200 
 11 C        2.2160    -5.0540    -0.4120 C.ar  1 <1>   0.1600 
 12 C        4.8190     2.4630     0.3190 C.3   1 <1>  -0.1600 
 13 C        4.7960    -4.9420    -0.1990 C.ar  1 <1>   0.1600 
 14 N        2.7740    -6.2220    -0.1510 N.ar  1 <1>  -0.6200 
 15 C        6.2060     3.0550     0.0350 C.3   1 <1>  -0.1600 
 16 C        4.0880    -6.1290    -0.0540 C.ar  1 <1>   0.1600 
 17 C        6.1830     4.5870     0.1160 C.3   1 <1>  -0.1600 
 18 C        7.5710     5.1760    -0.1730 C.3   1 <1>  -0.1600 
 19 C        7.5480     6.7040    -0.1040 C.3   1 <1>   0.1200 
 20 O        8.8120     7.1710    -0.4010 O.3   1 <1>  -0.6800 
 21 H       -0.0380    -0.4170     1.4560 H     1 <1>   0.4000 
 22 H        0.5700    -0.4540    -0.7050 H     1 <1>   0.0800 
 23 H        1.6890    -2.1490     1.1780 H     1 <1>   0.0800 
 24 H        2.0620     1.6760    -0.2640 H     1 <1>   0.0800 
 25 H        2.7400     0.4770    -1.3650 H     1 <1>   0.0800 
 26 H        4.2760    -1.5380     0.0950 H     1 <1>   0.0800 
 27 H        3.7670    -1.3890     1.7640 H     1 <1>   0.0800 
 28 H        2.6600    -2.0840    -1.6970 H     1 <1>   0.0800 
 29 H        1.1730    -2.8010    -1.1680 H     1 <1>   0.0800 
 30 H        3.2110     0.7560     1.5000 H     1 <1>   0.4500 
 31 H        5.5970     0.5650     0.9210 H     1 <1>   0.0800 
 32 H        5.1280     0.6290    -0.7600 H     1 <1>   0.0800 
 33 H        1.1450    -5.0500    -0.5160 H     1 <1>   0.1500 
 34 H        4.1230     2.8570    -0.4010 H     1 <1>   0.0800 
 35 H        4.5070     2.7630     1.3050 H     1 <1>   0.0800 
 36 H        5.8680    -4.9720    -0.1050 H     1 <1>   0.1500 
 37 H        6.9170     2.6750     0.7510 H     1 <1>   0.0800 
 38 H        6.5340     2.7590    -0.9480 H     1 <1>   0.0800 
 39 H        4.6310    -7.0360     0.1510 H     1 <1>   0.1500 
 40 H        5.8650     4.8930     1.0990 H     1 <1>   0.0800 
 41 H        5.4780     4.9760    -0.6000 H     1 <1>   0.0800 
 42 H        7.8860     4.8790    -1.1590 H     1 <1>   0.0800 
 43 H        8.2760     4.7980     0.5460 H     1 <1>   0.0800 
 44 H        7.2790     7.0510     0.8800 H     1 <1>   0.0800 
 45 H        6.8650     7.1150    -0.8290 H     1 <1>   0.0800 
 46 H        9.4660     6.8220     0.2350 H     1 <1>   0.4000 
@<TRIPOS>BOND
  1   1   2  1   
  2   1  21  1   
  3   2   3  1   
  4   2   4  1   
  5   2  22  1   
  6   3   5  1   
  7   3   6  1   
  8   3  23  1   
  9   4   7  1   
 10   4  24  1   
 11   4  25  1   
 12   5   7  1   
 13   5  26  1   
 14   5  27  1   
 15   6   8  1   
 16   6  28  1   
 17   6  29  1   
 18   7   9  1   
 19   7  30  1   
 20   8  10  ar  
 21   8  11  ar  
 22   9  12  1   
 23   9  31  1   
 24   9  32  1   
 25  10  13  ar  
 26  11  14  ar  
 27  11  33  1   
 28  12  15  1   
 29  12  34  1   
 30  12  35  1   
 31  13  16  ar  
 32  13  36  1   
 33  14  16  ar  
 34  15  17  1   
 35  15  37  1   
 36  15  38  1   
 37  16  39  1   
 38  17  18  1   
 39  17  40  1   
 40  17  41  1   
 41  18  19  1   
 42  18  42  1   
 43  18  43  1   
 44  19  20  1   
 45  19  44  1   
 46  19  45  1   
 47  20  46  1   
@<TRIPOS>SUBSTRUCTURE
  1 ****   7 GROUP 4 **** **** 0

# MOE 2024.06 (io_trps.svl 2023.06)
