@<TRIPOS>MOLECULE
NONAME
44 45 1 0 0 
SMALL
USER_CHARGES


@<TRIPOS>ATOM
  1 S        0.2270     0.0400     0.6140 S.o2  1 <1>   1.3330 
  2 O        0.7190    -0.8080     1.6760 O.2   1 <1>  -0.6500 
  3 O       -0.5710     1.1990     0.9400 O.2   1 <1>  -0.6500 
  4 N       -0.6640    -0.9350    -0.4530 N.am  1 <1>  -0.8490 
  5 C        1.5910     0.5920    -0.4120 C.3   1 <1>  -0.0550 
  6 C       -0.1590    -2.3100    -0.5430 C.3   1 <1>   0.1160 
  7 C       -2.0930    -0.9490    -0.1300 C.3   1 <1>   0.1160 
  8 C        2.5500     1.5640     0.3040 C.3   1 <1>  -0.0800 
  9 C        3.5300     2.1850    -0.6760 C.3   1 <1>   0.2200 
 10 C        3.4970     0.8320     1.2590 C.3   1 <1>   0.1200 
 11 N        4.0490     3.4490    -0.1100 N.am  1 <1>  -0.7300 
 12 C        4.6460     1.1450    -0.7200 C.3   1 <1>   0.1200 
 13 O        4.6080     0.4600     0.4990 O.3   1 <1>  -0.5600 
 14 C        3.9990     4.6590    -0.7200 C.2   1 <1>   0.5690 
 15 O        3.4680     4.8090    -1.7930 O.2   1 <1>  -0.5700 
 16 C        4.6280     5.8550    -0.0290 C.3   1 <1>   0.0440 
 17 C        6.1160     5.6410     0.2430 C.ar  1 <1>  -0.1440 
 18 C        6.5690     4.9600     1.3690 C.ar  1 <1>   0.1900 
 19 C        7.0670     6.1220    -0.6480 C.ar  1 <1>  -0.1500 
 20 F        5.6980     4.4820     2.2190 F     1 <1>  -0.1900 
 21 C        7.9120     4.7490     1.6370 C.ar  1 <1>  -0.1500 
 22 C        8.4090     5.9120    -0.3790 C.ar  1 <1>   0.1900 
 23 C        8.8530     5.2360     0.7440 C.ar  1 <1>  -0.1500 
 24 F        9.2950     6.3710    -1.2220 F     1 <1>  -0.1900 
 25 H        2.1400    -0.2580    -0.7670 H     1 <1>   0.0800 
 26 H        1.1750     1.0910    -1.2660 H     1 <1>   0.0800 
 27 H       -0.7000    -2.8530    -1.2990 H     1 <1>   0.0800 
 28 H       -0.2740    -2.8160     0.4020 H     1 <1>   0.0800 
 29 H        0.8840    -2.3070    -0.8070 H     1 <1>   0.0800 
 30 H       -2.6300    -1.5640    -0.8320 H     1 <1>   0.0800 
 31 H       -2.4940     0.0490    -0.1840 H     1 <1>   0.0800 
 32 H       -2.2480    -1.3300     0.8670 H     1 <1>   0.0800 
 33 H        1.9740     2.3190     0.8140 H     1 <1>   0.0800 
 34 H        3.1040     2.3600    -1.6500 H     1 <1>   0.0800 
 35 H        3.0710    -0.0480     1.7080 H     1 <1>   0.0800 
 36 H        3.8410     1.4940     2.0350 H     1 <1>   0.0800 
 37 H        4.5650     3.3500     0.7690 H     1 <1>   0.3700 
 38 H        5.6170     1.5880    -0.8540 H     1 <1>   0.0800 
 39 H        4.4640     0.4270    -1.4990 H     1 <1>   0.0800 
 40 H        4.4940     6.7210    -0.6510 H     1 <1>   0.0800 
 41 H        4.1030     6.0370     0.8900 H     1 <1>   0.0800 
 42 H        6.7820     6.6510    -1.5410 H     1 <1>   0.1500 
 43 H        8.2100     4.2160     2.5220 H     1 <1>   0.1500 
 44 H        9.9070     5.0970     0.9100 H     1 <1>   0.1500 
@<TRIPOS>BOND
  1   1   2  2   
  2   1   3  2   
  3   1   4  am  
  4   1   5  1   
  5   4   6  1   
  6   4   7  1   
  7   5   8  1   
  8   5  25  1   
  9   5  26  1   
 10   6  27  1   
 11   6  28  1   
 12   6  29  1   
 13   7  30  1   
 14   7  31  1   
 15   7  32  1   
 16   8   9  1   
 17   8  10  1   
 18   8  33  1   
 19   9  11  1   
 20   9  12  1   
 21   9  34  1   
 22  10  13  1   
 23  10  35  1   
 24  10  36  1   
 25  11  14  am  
 26  11  37  1   
 27  12  13  1   
 28  12  38  1   
 29  12  39  1   
 30  14  15  2   
 31  14  16  1   
 32  16  17  1   
 33  16  40  1   
 34  16  41  1   
 35  17  18  ar  
 36  17  19  ar  
 37  18  20  1   
 38  18  21  ar  
 39  19  22  ar  
 40  19  42  1   
 41  21  23  ar  
 42  21  43  1   
 43  22  23  ar  
 44  22  24  1   
 45  23  44  1   
@<TRIPOS>SUBSTRUCTURE
  1 ****  11 GROUP 4 **** **** 0

# MOE 2024.06 (io_trps.svl 2023.06)
