@<TRIPOS>MOLECULE
NONAME
41 43 1 0 0 
SMALL
USER_CHARGES


@<TRIPOS>ATOM
  1 O        0.1860    -0.2000    -1.0590 O.2   1 <1>  -0.5700 
  2 C        1.1640    -0.7380    -0.5780 C.2   1 <1>   0.5440 
  3 N        2.2060     0.0190    -0.0940 N.am  1 <1>  -0.4940 
  4 C        1.2380    -2.1820    -0.4990 C.ar  1 <1>   0.0860 
  5 C        2.4440     1.4160    -0.1060 C.2   1 <1>  -0.0880 
  6 C        0.0980    -2.9380    -0.2220 C.ar  1 <1>  -0.1500 
  7 C        2.4410    -2.8710    -0.6900 C.ar  1 <1>  -0.1500 
  8 N        1.5350     2.4200     0.0480 N.pl3 1 <1>   0.3140 
  9 C        3.6510     2.0180    -0.2440 C.2   1 <1>  -0.1810 
 10 C        0.1560    -4.3140    -0.1180 C.ar  1 <1>   0.0830 
 11 C        2.5090    -4.2500    -0.5950 C.ar  1 <1>  -0.1500 
 12 N        2.1310     3.6320     0.0180 N.2   1 <1>  -0.7070 
 13 C        0.0960     2.3310     0.3310 C.3   1 <1>   0.0160 
 14 C        3.3880     3.3830    -0.1610 C.2   1 <1>   0.1080 
 15 C        5.0130     1.3790    -0.4490 C.3   1 <1>  -0.0590 
 16 O       -0.9770    -4.9990     0.1800 O.3   1 <1>  -0.3620 
 17 C        1.3680    -4.9790    -0.3130 C.ar  1 <1>   0.0830 
 18 C        4.4170     4.4960    -0.2570 C.3   1 <1>   0.0210 
 19 C       -0.8250    -6.3440     0.5960 C.3   1 <1>   0.1200 
 20 O        1.4490    -6.3270    -0.2390 O.3   1 <1>  -0.3620 
 21 C        5.0050     4.8280     1.1180 C.3   1 <1>  -0.2400 
 22 C        0.2330    -7.0520    -0.2620 C.3   1 <1>   0.1200 
 23 H        2.9800    -0.5240     0.2820 H     1 <1>   0.3700 
 24 H       -0.8460    -2.4420    -0.0820 H     1 <1>   0.1500 
 25 H        3.3370    -2.3250    -0.9290 H     1 <1>   0.1500 
 26 H        3.4380    -4.7700    -0.7450 H     1 <1>   0.1500 
 27 H       -0.0940     1.4730     0.9470 H     1 <1>   0.0800 
 28 H       -0.4350     2.2420    -0.5970 H     1 <1>   0.0800 
 29 H       -0.2180     3.2210     0.8430 H     1 <1>   0.0800 
 30 H        4.9310     0.3100    -0.5000 H     1 <1>   0.0800 
 31 H        5.6660     1.6390     0.3640 H     1 <1>   0.0800 
 32 H        5.4440     1.7310    -1.3690 H     1 <1>   0.0800 
 33 H        3.9380     5.3700    -0.6620 H     1 <1>   0.0800 
 34 H        5.2000     4.2070    -0.9330 H     1 <1>   0.0800 
 35 H       -1.7800    -6.8290     0.5030 H     1 <1>   0.0800 
 36 H       -0.5280    -6.3430     1.6300 H     1 <1>   0.0800 
 37 H        4.2160     5.1310     1.7840 H     1 <1>   0.0800 
 38 H        5.7170     5.6290     1.0350 H     1 <1>   0.0800 
 39 H        5.4930     3.9650     1.5330 H     1 <1>   0.0800 
 40 H       -0.0980    -7.1170    -1.2840 H     1 <1>   0.0800 
 41 H        0.4290    -8.0410     0.1090 H     1 <1>   0.0800 
@<TRIPOS>BOND
  1   1   2  2   
  2   2   3  am  
  3   2   4  1   
  4   3   5  1   
  5   3  23  1   
  6   4   6  ar  
  7   4   7  ar  
  8   5   8  1   
  9   5   9  2   
 10   6  10  ar  
 11   6  24  1   
 12   7  11  ar  
 13   7  25  1   
 14   8  12  1   
 15   8  13  1   
 16   9  14  1   
 17   9  15  1   
 18  10  16  1   
 19  10  17  ar  
 20  11  17  ar  
 21  11  26  1   
 22  12  14  2   
 23  13  27  1   
 24  13  28  1   
 25  13  29  1   
 26  14  18  1   
 27  15  30  1   
 28  15  31  1   
 29  15  32  1   
 30  16  19  1   
 31  17  20  1   
 32  18  21  1   
 33  18  33  1   
 34  18  34  1   
 35  19  22  1   
 36  19  35  1   
 37  19  36  1   
 38  20  22  1   
 39  21  37  1   
 40  21  38  1   
 41  21  39  1   
 42  22  40  1   
 43  22  41  1   
@<TRIPOS>SUBSTRUCTURE
  1 ****   2 GROUP 4 **** **** 0

# MOE 2024.06 (io_trps.svl 2023.06)
