@<TRIPOS>MOLECULE
NONAME
49 52 1 0 0 
SMALL
USER_CHARGES


@<TRIPOS>ATOM
  1 CL       0.6640    -0.9510     1.1000 Cl    1 <1>  -0.1770 
  2 C       -0.4290    -2.2580     0.7300 C.ar  1 <1>   0.1770 
  3 C       -0.2090    -3.0320    -0.3930 C.ar  1 <1>  -0.1500 
  4 C       -1.5030    -2.5070     1.5630 C.ar  1 <1>  -0.1500 
  5 C       -1.0800    -4.0680    -0.6810 C.ar  1 <1>  -0.1500 
  6 C       -2.3640    -3.5470     1.2640 C.ar  1 <1>  -0.1500 
  7 C       -2.1790    -4.3520     0.1360 C.ar  1 <1>   0.0530 
  8 C       -3.0700    -5.4410    -0.1900 C.2   1 <1>   0.0870 
  9 O       -2.6320    -6.4470    -0.9100 O.3   1 <1>  -0.0190 
 10 C       -4.3750    -5.6980     0.0840 C.2   1 <1>  -0.2330 
 11 N       -3.5490    -7.3500    -1.1350 N.2   1 <1>  -0.4100 
 12 C       -4.6140    -6.9200    -0.5500 C.2   1 <1>   0.3720 
 13 C       -5.3180    -4.9360     0.8350 C.2   1 <1>   1.0330 
 14 N       -5.8280    -7.6220    -0.5680 N.pl3 1 <1>  -0.8210 
 15 O       -6.1460    -4.2050     0.2610 O.co2 1 <1>  -0.9000 
 16 O       -5.2950    -4.9440     2.0790 O.co2 1 <1>  -0.9000 
 17 C       -5.8030    -9.0650    -0.9460 C.3   1 <1>   0.2090 
 18 C       -7.0560    -6.8430    -0.9150 C.3   1 <1>   0.2090 
 19 C       -7.1380    -9.6990    -0.5450 C.3   1 <1>  -0.0190 
 20 C       -7.9960    -7.6410    -1.8290 C.3   1 <1>  -0.1600 
 21 C       -7.1100   -11.2110    -0.7510 C.2   1 <1>   0.5690 
 22 C       -8.3290    -9.0420    -1.2820 C.3   1 <1>  -0.1600 
 23 O       -6.5660   -11.6500    -1.7380 O.2   1 <1>  -0.5700 
 24 N       -7.7090   -12.0490     0.1530 N.am  1 <1>  -0.6600 
 25 C       -8.4510   -11.6560     1.3720 C.3   1 <1>   0.1400 
 26 C       -7.6970   -13.5180    -0.0100 C.3   1 <1>   0.1400 
 27 C       -9.1330   -12.9360     1.8410 C.3   1 <1>  -0.1600 
 28 C       -8.2550   -14.0610     1.3000 C.3   1 <1>  -0.1600 
 29 H        0.6310    -2.8240    -1.0290 H     1 <1>   0.1500 
 30 H       -1.6650    -1.8980     2.4330 H     1 <1>   0.1500 
 31 H       -0.9120    -4.6690    -1.5570 H     1 <1>   0.1500 
 32 H       -3.1940    -3.7370     1.9230 H     1 <1>   0.1500 
 33 H       -4.9950    -9.5540    -0.4280 H     1 <1>   0.0800 
 34 H       -5.6360    -9.1630    -2.0050 H     1 <1>   0.0800 
 35 H       -6.7790    -5.9290    -1.4130 H     1 <1>   0.0800 
 36 H       -7.5650    -6.5800    -0.0030 H     1 <1>   0.0800 
 37 H       -7.2360    -9.4990     0.5050 H     1 <1>   0.0800 
 38 H       -7.5150    -7.7370    -2.7870 H     1 <1>   0.0800 
 39 H       -8.9010    -7.0810    -1.9810 H     1 <1>   0.0800 
 40 H       -9.1580    -8.9730    -0.6000 H     1 <1>   0.0800 
 41 H       -8.6350    -9.6620    -2.1080 H     1 <1>   0.0800 
 42 H       -9.1690   -10.8830     1.1590 H     1 <1>   0.0800 
 43 H       -7.7500   -11.3110     2.1140 H     1 <1>   0.0800 
 44 H       -6.6980   -13.8740    -0.2000 H     1 <1>   0.0800 
 45 H       -8.3350   -13.7830    -0.8360 H     1 <1>   0.0800 
 46 H      -10.1120   -12.9930     1.3980 H     1 <1>   0.0800 
 47 H       -9.2300   -12.9690     2.9120 H     1 <1>   0.0800 
 48 H       -7.4380   -14.2460     1.9760 H     1 <1>   0.0800 
 49 H       -8.8010   -14.9760     1.1520 H     1 <1>   0.0800 
@<TRIPOS>BOND
  1   1   2  1   
  2   2   3  ar  
  3   2   4  ar  
  4   3   5  ar  
  5   3  29  1   
  6   4   6  ar  
  7   4  30  1   
  8   5   7  ar  
  9   5  31  1   
 10   6   7  ar  
 11   6  32  1   
 12   7   8  1   
 13   8   9  1   
 14   8  10  2   
 15   9  11  1   
 16  10  12  1   
 17  10  13  1   
 18  11  12  2   
 19  12  14  1   
 20  13  15  ar  
 21  13  16  ar  
 22  14  17  1   
 23  14  18  1   
 24  17  19  1   
 25  17  33  1   
 26  17  34  1   
 27  18  20  1   
 28  18  35  1   
 29  18  36  1   
 30  19  21  1   
 31  19  22  1   
 32  19  37  1   
 33  20  22  1   
 34  20  38  1   
 35  20  39  1   
 36  21  23  2   
 37  21  24  am  
 38  22  40  1   
 39  22  41  1   
 40  24  25  1   
 41  24  26  1   
 42  25  27  1   
 43  25  42  1   
 44  25  43  1   
 45  26  28  1   
 46  26  44  1   
 47  26  45  1   
 48  27  28  1   
 49  27  46  1   
 50  27  47  1   
 51  28  48  1   
 52  28  49  1   
@<TRIPOS>SUBSTRUCTURE
  1 ****  12 GROUP 4 **** **** 0

# MOE 2024.06 (io_trps.svl 2023.06)
