@<TRIPOS>MOLECULE
NONAME
51 52 1 0 0 
SMALL
USER_CHARGES


@<TRIPOS>ATOM
  1 O        0.9510    -0.4000     0.9790 O.co2 1 <1>  -0.9000 
  2 C        2.1310    -0.5760     0.6770 C.2   1 <1>   0.9060 
  3 O        2.6490    -1.7020     0.6940 O.co2 1 <1>  -0.9000 
  4 C        2.9850     0.5850     0.1340 C.3   1 <1>  -0.1060 
  5 C        3.1700     0.2880    -1.3760 C.3   1 <1>   0.2000 
  6 C        4.3900     0.6020     0.8080 C.3   1 <1>  -0.1600 
  7 C        2.2800     1.9740     0.3000 C.3   1 <1>  -0.1600 
  8 O        3.7480    -0.9710    -1.5400 O.3   1 <1>  -0.6800 
  9 C        4.1470     1.2830    -2.0180 C.3   1 <1>   0.3430 
 10 C        5.3730     1.5300     0.0960 C.3   1 <1>   0.3430 
 11 C        2.0860     2.4550     1.7500 C.3   1 <1>  -0.1600 
 12 N        5.4720     1.1410    -1.3390 N.4   1 <1>  -0.9590 
 13 C        1.2670     3.7480     1.7910 C.3   1 <1>  -0.2400 
 14 C        6.5920     1.8190    -2.0470 C.3   1 <1>   0.4860 
 15 C        6.3070     3.2980    -2.2580 C.ar  1 <1>  -0.1440 
 16 C        6.6780     4.2310    -1.2950 C.ar  1 <1>   0.0820 
 17 C        5.6900     3.7240    -3.4270 C.ar  1 <1>  -0.1500 
 18 O        7.2980     3.7670    -0.1780 O.3   1 <1>  -0.3620 
 19 C        6.4090     5.5820    -1.5040 C.ar  1 <1>  -0.1500 
 20 C        5.4270     5.0670    -3.6290 C.ar  1 <1>  -0.1500 
 21 C        7.5940     4.6250     0.9080 C.3   1 <1>   0.1200 
 22 C        5.7840     5.9940    -2.6670 C.ar  1 <1>  -0.1500 
 23 C        8.1880     3.7890     2.0410 C.3   1 <1>   0.1200 
 24 O        8.3510     4.5890     3.1600 O.3   1 <1>  -0.6800 
 25 H        2.2170     0.2870    -1.8800 H     1 <1>   0.0800 
 26 H        4.8080    -0.3900     0.8080 H     1 <1>   0.0800 
 27 H        4.3070     0.8780     1.8420 H     1 <1>   0.0800 
 28 H        2.8120     2.7470    -0.2210 H     1 <1>   0.0800 
 29 H        1.3040     1.9040    -0.1540 H     1 <1>   0.0800 
 30 H        3.3640    -1.5580    -0.8110 H     1 <1>   0.4000 
 31 H        3.7800     2.2910    -1.9260 H     1 <1>   0.0800 
 32 H        4.2350     1.0470    -3.0650 H     1 <1>   0.0800 
 33 H        6.3400     1.4550     0.5660 H     1 <1>   0.0800 
 34 H        5.0370     2.5520     0.1760 H     1 <1>   0.0800 
 35 H        1.5690     1.7000     2.3200 H     1 <1>   0.0800 
 36 H        3.0330     2.6400     2.2230 H     1 <1>   0.0800 
 37 H        5.6110     0.1160    -1.3440 H     1 <1>   0.4500 
 38 H        0.2930     3.5820     1.3630 H     1 <1>   0.0800 
 39 H        1.7610     4.5310     1.2430 H     1 <1>   0.0800 
 40 H        1.1380     4.0670     2.8100 H     1 <1>   0.0800 
 41 H        7.5010     1.7100    -1.4780 H     1 <1>   0.0800 
 42 H        6.7450     1.3520    -3.0060 H     1 <1>   0.0800 
 43 H        5.4120     3.0210    -4.1940 H     1 <1>   0.1500 
 44 H        6.6800     6.3310    -0.7840 H     1 <1>   0.1500 
 45 H        4.9480     5.3960    -4.5360 H     1 <1>   0.1500 
 46 H        8.2990     5.3650     0.5740 H     1 <1>   0.0800 
 47 H        6.6770     5.0860     1.2320 H     1 <1>   0.0800 
 48 H        5.5790     7.0390    -2.8280 H     1 <1>   0.1500 
 49 H        9.1480     3.3840     1.7680 H     1 <1>   0.0800 
 50 H        7.5160     2.9930     2.3110 H     1 <1>   0.0800 
 51 H        9.1030     5.2060     3.0560 H     1 <1>   0.4000 
@<TRIPOS>BOND
  1   1   2  ar  
  2   2   3  ar  
  3   2   4  1   
  4   4   5  1   
  5   4   6  1   
  6   4   7  1   
  7   5   8  1   
  8   5   9  1   
  9   5  25  1   
 10   6  10  1   
 11   6  26  1   
 12   6  27  1   
 13   7  11  1   
 14   7  28  1   
 15   7  29  1   
 16   8  30  1   
 17   9  12  1   
 18   9  31  1   
 19   9  32  1   
 20  10  12  1   
 21  10  33  1   
 22  10  34  1   
 23  11  13  1   
 24  11  35  1   
 25  11  36  1   
 26  12  14  1   
 27  12  37  1   
 28  13  38  1   
 29  13  39  1   
 30  13  40  1   
 31  14  15  1   
 32  14  41  1   
 33  14  42  1   
 34  15  16  ar  
 35  15  17  ar  
 36  16  18  1   
 37  16  19  ar  
 38  17  20  ar  
 39  17  43  1   
 40  18  21  1   
 41  19  22  ar  
 42  19  44  1   
 43  20  22  ar  
 44  20  45  1   
 45  21  23  1   
 46  21  46  1   
 47  21  47  1   
 48  22  48  1   
 49  23  24  1   
 50  23  49  1   
 51  23  50  1   
 52  24  51  1   
@<TRIPOS>SUBSTRUCTURE
  1 ****  10 GROUP 4 **** **** 0

# MOE 2024.06 (io_trps.svl 2023.06)
