@<TRIPOS>MOLECULE
NONAME
56 58 1 0 0 
SMALL
USER_CHARGES


@<TRIPOS>ATOM
  1 CL      -5.0550    -0.4490     4.0480 Cl    1 <1>  -0.1230 
  2 C       -4.8680     0.3150     2.4830 C.2   1 <1>   0.3500 
  3 N       -5.2670     1.5770     2.2870 N.2   1 <1>  -0.5650 
  4 C       -4.3370    -0.2460     1.3810 C.2   1 <1>  -0.3320 
  5 C       -4.9600     1.7880     1.0470 C.2   1 <1>   0.0060 
  6 N       -4.3990     0.7170     0.4340 N.pl3 1 <1>   0.0330 
  7 C       -3.7540    -1.6300     1.2260 C.3   1 <1>   0.5230 
  8 C       -5.1880     3.1110     0.3370 C.3   1 <1>   0.0200 
  9 N       -4.7940    -2.5780     0.7760 N.4   1 <1>  -0.9590 
 10 C       -3.8720     3.8820     0.1740 C.3   1 <1>  -0.1600 
 11 C       -5.3580    -2.2920    -0.5710 C.3   1 <1>   0.3430 
 12 C       -5.9060    -2.7460     1.7470 C.3   1 <1>   0.3430 
 13 C       -4.0930     5.2260    -0.5310 C.3   1 <1>  -0.1600 
 14 C       -6.0450    -3.5750    -1.0640 C.3   1 <1>   0.2000 
 15 C       -6.7520    -3.9590     1.3550 C.3   1 <1>  -0.1600 
 16 C       -2.7730     5.9860    -0.6890 C.3   1 <1>  -0.2400 
 17 O       -5.0510    -4.5500    -1.0560 O.3   1 <1>  -0.6800 
 18 C       -7.2100    -4.0260    -0.1360 C.3   1 <1>  -0.1060 
 19 C       -7.6120    -5.4780    -0.4350 C.2   1 <1>   0.9060 
 20 C       -8.5030    -3.1970    -0.3900 C.3   1 <1>  -0.0170 
 21 O       -7.0750    -6.0840    -1.3720 O.co2 1 <1>  -0.9000 
 22 O       -8.4510    -6.0090     0.2940 O.co2 1 <1>  -0.9000 
 23 C       -8.3570    -1.6800    -0.4230 C.ar  1 <1>  -0.1430 
 24 C       -8.4370    -0.9350     0.7430 C.ar  1 <1>  -0.1500 
 25 C       -8.1600    -1.0290    -1.6320 C.ar  1 <1>  -0.1500 
 26 C       -8.2800     0.4390     0.7070 C.ar  1 <1>  -0.1500 
 27 C       -8.0150     0.3470    -1.6710 C.ar  1 <1>  -0.1500 
 28 C       -8.0720     1.0810    -0.5000 C.ar  1 <1>  -0.1500 
 29 H       -4.0770     0.6960    -0.5390 H     1 <1>   0.2700 
 30 H       -3.3660    -1.9570     2.1780 H     1 <1>   0.0800 
 31 H       -2.9380    -1.6120     0.5220 H     1 <1>   0.0800 
 32 H       -5.6330     2.9330    -0.6250 H     1 <1>   0.0800 
 33 H       -5.8770     3.7000     0.9180 H     1 <1>   0.0800 
 34 H       -4.3830    -3.5200     0.6380 H     1 <1>   0.4500 
 35 H       -3.4490     4.0550     1.1490 H     1 <1>   0.0800 
 36 H       -3.1740     3.2920    -0.3930 H     1 <1>   0.0800 
 37 H       -6.0450    -1.4680    -0.5190 H     1 <1>   0.0800 
 38 H       -4.5730    -2.0420    -1.2620 H     1 <1>   0.0800 
 39 H       -5.5120    -2.8990     2.7390 H     1 <1>   0.0800 
 40 H       -6.5090    -1.8560     1.7620 H     1 <1>   0.0800 
 41 H       -4.5240     5.0640    -1.5050 H     1 <1>   0.0800 
 42 H       -4.7780     5.8280     0.0420 H     1 <1>   0.0800 
 43 H       -6.3910    -3.4700    -2.0780 H     1 <1>   0.0800 
 44 H       -6.1690    -4.8390     1.5670 H     1 <1>   0.0800 
 45 H       -7.6130    -4.0150     1.9980 H     1 <1>   0.0800 
 46 H       -2.0760     5.4170    -1.2780 H     1 <1>   0.0800 
 47 H       -2.3350     6.1830     0.2740 H     1 <1>   0.0800 
 48 H       -2.9470     6.9270    -1.1810 H     1 <1>   0.0800 
 49 H       -5.5350    -5.4040    -1.2910 H     1 <1>   0.4000 
 50 H       -8.9200    -3.5080    -1.3330 H     1 <1>   0.0800 
 51 H       -9.2410    -3.4610     0.3490 H     1 <1>   0.0800 
 52 H       -8.6290    -1.4200     1.6840 H     1 <1>   0.1500 
 53 H       -8.1290    -1.5900    -2.5510 H     1 <1>   0.1500 
 54 H       -8.3280     1.0130     1.6190 H     1 <1>   0.1500 
 55 H       -7.8710     0.8470    -2.6140 H     1 <1>   0.1500 
 56 H       -7.9710     2.1510    -0.5240 H     1 <1>   0.1500 
@<TRIPOS>BOND
  1   1   2  1   
  2   2   3  1   
  3   2   4  2   
  4   3   5  2   
  5   4   6  1   
  6   4   7  1   
  7   5   6  1   
  8   5   8  1   
  9   6  29  1   
 10   7   9  1   
 11   7  30  1   
 12   7  31  1   
 13   8  10  1   
 14   8  32  1   
 15   8  33  1   
 16   9  11  1   
 17   9  12  1   
 18   9  34  1   
 19  10  13  1   
 20  10  35  1   
 21  10  36  1   
 22  11  14  1   
 23  11  37  1   
 24  11  38  1   
 25  12  15  1   
 26  12  39  1   
 27  12  40  1   
 28  13  16  1   
 29  13  41  1   
 30  13  42  1   
 31  14  17  1   
 32  14  18  1   
 33  14  43  1   
 34  15  18  1   
 35  15  44  1   
 36  15  45  1   
 37  16  46  1   
 38  16  47  1   
 39  16  48  1   
 40  17  49  1   
 41  18  19  1   
 42  18  20  1   
 43  19  21  ar  
 44  19  22  ar  
 45  20  23  1   
 46  20  50  1   
 47  20  51  1   
 48  23  24  ar  
 49  23  25  ar  
 50  24  26  ar  
 51  24  52  1   
 52  25  27  ar  
 53  25  53  1   
 54  26  28  ar  
 55  26  54  1   
 56  27  28  ar  
 57  27  55  1   
 58  28  56  1   
@<TRIPOS>SUBSTRUCTURE
  1 ****  11 GROUP 4 **** **** 0

# MOE 2024.06 (io_trps.svl 2023.06)
