@<TRIPOS>MOLECULE
NONAME
50 51 1 0 0 
SMALL
USER_CHARGES


@<TRIPOS>ATOM
  1 O       -0.9320     0.0820    -2.4580 O.2   1 <1>  -0.5700 
  2 C       -1.5910     0.6570    -1.6140 C.2   1 <1>   0.5440 
  3 N       -2.7380     0.0620    -1.1320 N.am  1 <1>  -0.6600 
  4 C       -1.1710     1.9670    -1.1620 C.ar  1 <1>   0.0860 
  5 C       -3.0090    -1.3790    -1.4080 C.3   1 <1>   0.3200 
  6 C       -3.9010     0.8720    -0.6560 C.3   1 <1>   0.1400 
  7 C       -0.9190     2.2220     0.1820 C.ar  1 <1>  -0.1500 
  8 C       -1.0050     3.0210    -2.0570 C.ar  1 <1>  -0.1500 
  9 C       -3.2230    -2.1300    -0.1080 C.2   1 <1>  -0.3320 
 10 C       -3.9930     0.9440     0.8750 C.3   1 <1>   0.1200 
 11 C       -0.5570     3.4760     0.6360 C.ar  1 <1>   0.0830 
 12 C       -0.6430     4.2840    -1.6260 C.ar  1 <1>  -0.1500 
 13 N       -4.4100    -2.4400     0.4550 N.pl3 1 <1>   0.0480 
 14 C       -2.2700    -2.6250     0.7130 C.2   1 <1>   0.0770 
 15 O       -5.2580     1.4020     1.2220 O.3   1 <1>  -0.6800 
 16 O       -0.3640     3.5710     1.9800 O.3   1 <1>  -0.3620 
 17 C       -0.4280     4.5390    -0.2730 C.ar  1 <1>   0.0830 
 18 C       -4.0860    -3.1010     1.5900 C.2   1 <1>   0.0360 
 19 C       -5.7750    -2.1240    -0.0050 C.3   1 <1>   0.0160 
 20 N       -2.8150    -3.2360     1.7800 N.2   1 <1>  -0.5650 
 21 C        0.6970     4.3460     2.4930 C.3   1 <1>   0.0400 
 22 O       -0.1120     5.7810     0.1880 O.3   1 <1>  -0.3630 
 23 C       -0.1120     6.9540    -0.5950 C.3   1 <1>   0.2000 
 24 C        0.6800     8.0040     0.1810 C.3   1 <1>  -0.2400 
 25 C       -1.5580     7.4080    -0.8100 C.3   1 <1>  -0.2400 
 26 H       -2.1730    -1.8270    -1.9160 H     1 <1>   0.0800 
 27 H       -3.8630    -1.4720    -2.0540 H     1 <1>   0.0800 
 28 H       -4.8040     0.4340    -1.0420 H     1 <1>   0.0800 
 29 H       -3.8290     1.8710    -1.0490 H     1 <1>   0.0800 
 30 H       -1.0030     1.4180     0.8910 H     1 <1>   0.1500 
 31 H       -1.1660     2.8360    -3.1050 H     1 <1>   0.1500 
 32 H       -3.2670     1.6190     1.2880 H     1 <1>   0.0800 
 33 H       -3.8660    -0.0250     1.3210 H     1 <1>   0.0800 
 34 H       -0.5360     5.0540    -2.3640 H     1 <1>   0.1500 
 35 H       -1.2010    -2.5690     0.5870 H     1 <1>   0.1500 
 36 H       -5.2890     2.3790     1.1950 H     1 <1>   0.4000 
 37 H       -4.8360    -3.4740     2.2650 H     1 <1>   0.1500 
 38 H       -5.8200    -2.1770    -1.0760 H     1 <1>   0.0800 
 39 H       -6.0410    -1.1360     0.3230 H     1 <1>   0.0800 
 40 H       -6.4670    -2.8330     0.4130 H     1 <1>   0.0800 
 41 H        0.9380     3.9770     3.4730 H     1 <1>   0.0800 
 42 H        0.3790     5.3710     2.5610 H     1 <1>   0.0800 
 43 H        1.5490     4.2540     1.8430 H     1 <1>   0.0800 
 44 H        0.3870     6.7560    -1.5260 H     1 <1>   0.0800 
 45 H        0.2190     8.1930     1.1340 H     1 <1>   0.0800 
 46 H        0.7150     8.9240    -0.3740 H     1 <1>   0.0800 
 47 H        1.6880     7.6610     0.3350 H     1 <1>   0.0800 
 48 H       -2.0380     7.5810     0.1370 H     1 <1>   0.0800 
 49 H       -2.1140     6.6670    -1.3550 H     1 <1>   0.0800 
 50 H       -1.5750     8.3220    -1.3750 H     1 <1>   0.0800 
@<TRIPOS>BOND
  1   1   2  2   
  2   2   3  am  
  3   2   4  1   
  4   3   5  1   
  5   3   6  1   
  6   4   7  ar  
  7   4   8  ar  
  8   5   9  1   
  9   5  26  1   
 10   5  27  1   
 11   6  10  1   
 12   6  28  1   
 13   6  29  1   
 14   7  11  ar  
 15   7  30  1   
 16   8  12  ar  
 17   8  31  1   
 18   9  13  1   
 19   9  14  2   
 20  10  15  1   
 21  10  32  1   
 22  10  33  1   
 23  11  16  1   
 24  11  17  ar  
 25  12  17  ar  
 26  12  34  1   
 27  13  18  1   
 28  13  19  1   
 29  14  20  1   
 30  14  35  1   
 31  15  36  1   
 32  16  21  1   
 33  17  22  1   
 34  18  20  2   
 35  18  37  1   
 36  19  38  1   
 37  19  39  1   
 38  19  40  1   
 39  21  41  1   
 40  21  42  1   
 41  21  43  1   
 42  22  23  1   
 43  23  24  1   
 44  23  25  1   
 45  23  44  1   
 46  24  45  1   
 47  24  46  1   
 48  24  47  1   
 49  25  48  1   
 50  25  49  1   
 51  25  50  1   
@<TRIPOS>SUBSTRUCTURE
  1 ****   7 GROUP 4 **** **** 0

# MOE 2024.06 (io_trps.svl 2023.06)
