@<TRIPOS>MOLECULE
NONAME
46 48 1 0 0 
SMALL
USER_CHARGES


@<TRIPOS>ATOM
  1 O       -4.0800    -0.1340    -1.6390 O.2   1 <1>  -0.5700 
  2 C       -3.1680    -0.5330    -0.9460 C.2   1 <1>   0.5690 
  3 N       -3.2060    -0.4530     0.4190 N.am  1 <1>  -0.6600 
  4 C       -2.0970    -1.3470    -1.6400 C.3   1 <1>  -0.0190 
  5 C       -2.4600    -1.4440     1.2810 C.3   1 <1>   0.2200 
  6 C       -4.1510     0.4500     1.1340 C.3   1 <1>   0.0600 
  7 C       -0.6830    -1.0140    -1.1380 C.3   1 <1>   0.1200 
  8 C       -2.4640    -2.8400    -1.5480 C.3   1 <1>   0.2090 
  9 C       -0.9430    -1.1900     1.2080 C.3   1 <1>   0.1200 
 10 C       -2.8100    -2.9320     0.9610 C.3   1 <1>   0.2090 
 11 O       -0.3800    -1.6990     0.0350 O.3   1 <1>  -0.5600 
 12 N       -3.4020    -3.1330    -0.4100 N.pl3 1 <1>  -0.8380 
 13 C       -4.7360    -3.3350    -0.5380 C.ar  1 <1>   0.7710 
 14 N       -5.3210    -4.2340     0.2320 N.ar  1 <1>  -0.6200 
 15 N       -5.4270    -2.5800    -1.4090 N.ar  1 <1>  -0.1790 
 16 C       -6.6130    -4.4480     0.0690 C.ar  1 <1>   0.4100 
 17 C       -6.7590    -2.7300    -1.5700 C.ar  1 <1>   0.2110 
 18 N       -7.1560    -5.4410     0.8190 N.pl3 1 <1>  -0.8380 
 19 C       -7.3920    -3.6770    -0.8340 C.ar  1 <1>  -0.1440 
 20 C       -7.8640    -6.6030     0.2150 C.3   1 <1>   0.1290 
 21 C       -6.7320    -5.6670     2.2310 C.3   1 <1>   0.1290 
 22 C       -8.9060    -3.8510    -0.9500 C.3   1 <1>  -0.0970 
 23 H       -2.1080    -1.0690    -2.6780 H     1 <1>   0.0800 
 24 H       -2.7390    -1.2690     2.3050 H     1 <1>   0.0800 
 25 H       -3.6220     1.0160     1.8800 H     1 <1>   0.0800 
 26 H       -4.9240    -0.1280     1.6100 H     1 <1>   0.0800 
 27 H       -4.6080     1.1420     0.4450 H     1 <1>   0.0800 
 28 H       -0.5560     0.0440    -0.9790 H     1 <1>   0.0800 
 29 H        0.0390    -1.3330    -1.8700 H     1 <1>   0.0800 
 30 H       -1.5720    -3.4360    -1.4360 H     1 <1>   0.0800 
 31 H       -2.9270    -3.1460    -2.4720 H     1 <1>   0.0800 
 32 H       -0.4610    -1.6980     2.0240 H     1 <1>   0.0800 
 33 H       -0.7190    -0.1400     1.2880 H     1 <1>   0.0800 
 34 H       -3.5060    -3.2730     1.7080 H     1 <1>   0.0800 
 35 H       -1.9330    -3.5490     1.0640 H     1 <1>   0.0800 
 36 H       -4.9210    -1.7760    -1.7980 H     1 <1>   0.4570 
 37 H       -7.2710    -2.0810    -2.2630 H     1 <1>   0.1500 
 38 H       -7.3920    -7.5210     0.5210 H     1 <1>   0.0800 
 39 H       -7.8280    -6.5500    -0.8590 H     1 <1>   0.0800 
 40 H       -8.8910    -6.6130     0.5360 H     1 <1>   0.0800 
 41 H       -7.5800    -5.9520     2.8280 H     1 <1>   0.0800 
 42 H       -6.3090    -4.7670     2.6420 H     1 <1>   0.0800 
 43 H       -5.9910    -6.4470     2.2680 H     1 <1>   0.0800 
 44 H       -9.3600    -3.0100    -1.4430 H     1 <1>   0.0800 
 45 H       -9.3430    -3.9370     0.0310 H     1 <1>   0.0800 
 46 H       -9.1410    -4.7380    -1.5100 H     1 <1>   0.0800 
@<TRIPOS>BOND
  1   1   2  2   
  2   2   3  am  
  3   2   4  1   
  4   3   5  1   
  5   3   6  1   
  6   4   7  1   
  7   4   8  1   
  8   4  23  1   
  9   5   9  1   
 10   5  10  1   
 11   5  24  1   
 12   6  25  1   
 13   6  26  1   
 14   6  27  1   
 15   7  11  1   
 16   7  28  1   
 17   7  29  1   
 18   8  12  1   
 19   8  30  1   
 20   8  31  1   
 21   9  11  1   
 22   9  32  1   
 23   9  33  1   
 24  10  12  1   
 25  10  34  1   
 26  10  35  1   
 27  12  13  1   
 28  13  14  ar  
 29  13  15  ar  
 30  14  16  ar  
 31  15  17  ar  
 32  15  36  1   
 33  16  18  1   
 34  16  19  ar  
 35  17  19  ar  
 36  17  37  1   
 37  18  20  1   
 38  18  21  1   
 39  19  22  1   
 40  20  38  1   
 41  20  39  1   
 42  20  40  1   
 43  21  41  1   
 44  21  42  1   
 45  21  43  1   
 46  22  44  1   
 47  22  45  1   
 48  22  46  1   
@<TRIPOS>SUBSTRUCTURE
  1 ****  13 GROUP 4 **** **** 0

# MOE 2024.06 (io_trps.svl 2023.06)
