@<TRIPOS>MOLECULE
NONAME
54 56 1 0 0 
SMALL
USER_CHARGES


@<TRIPOS>ATOM
  1 F       -0.3900     0.4700    -0.9120 F     1 <1>  -0.1900 
  2 C       -1.6590     0.7290    -0.7250 C.ar  1 <1>   0.1900 
  3 C       -2.0890     1.8600    -0.0210 C.ar  1 <1>   0.0830 
  4 C       -2.5560    -0.1730    -1.2630 C.ar  1 <1>  -0.1500 
  5 O       -1.3060     2.8190     0.5520 O.3   1 <1>  -0.3630 
  6 C       -3.4550     2.0460     0.1200 C.ar  1 <1>  -0.1500 
  7 C       -3.9120     0.0440    -1.1030 C.ar  1 <1>  -0.1500 
  8 C        0.1030     2.7670     0.5440 C.3   1 <1>   0.0400 
  9 C       -4.3910     1.1540    -0.4060 C.ar  1 <1>   0.0530 
 10 C       -5.8020     1.3980    -0.2410 C.2   1 <1>   0.0870 
 11 O       -6.2600     2.6110    -0.4210 O.3   1 <1>  -0.0190 
 12 C       -6.8690     0.6130     0.0780 C.2   1 <1>  -0.0860 
 13 N       -7.5520     2.7000    -0.2600 N.2   1 <1>  -0.4100 
 14 C       -7.9450     1.5130     0.0390 C.2   1 <1>   0.3720 
 15 C       -6.9440    -0.7820     0.4030 C.2   1 <1>   0.7160 
 16 N       -9.2910     1.2080     0.2980 N.pl3 1 <1>  -0.8210 
 17 O       -5.9460    -1.4690     0.5030 O.2   1 <1>  -0.5700 
 18 N       -8.1540    -1.3710     0.6030 N.am  1 <1>  -0.7300 
 19 C      -10.2120     1.6490    -0.7870 C.3   1 <1>   0.1290 
 20 C       -9.7400     1.7160     1.6240 C.3   1 <1>   0.1290 
 21 C       -8.4250    -2.7870     0.9120 C.3   1 <1>   0.1400 
 22 C       -9.2510    -3.3870    -0.2280 C.3   1 <1>  -0.1600 
 23 C       -9.6410    -4.8550     0.0260 C.3   1 <1>  -0.0800 
 24 C       -8.4100    -5.7790     0.1060 C.3   1 <1>   0.1200 
 25 C      -10.5910    -5.3440    -1.0790 C.3   1 <1>  -0.1600 
 26 O       -8.8210    -7.1010     0.2860 O.3   1 <1>  -0.5600 
 27 C      -10.8750    -6.8400    -0.9050 C.3   1 <1>  -0.1600 
 28 C       -9.5680    -7.6290    -0.7660 C.3   1 <1>   0.1200 
 29 H       -2.1960    -1.0340    -1.7970 H     1 <1>   0.1500 
 30 H       -3.8000     2.9120     0.6570 H     1 <1>   0.1500 
 31 H       -4.6110    -0.6570    -1.5240 H     1 <1>   0.1500 
 32 H        0.4720     3.6230     1.0800 H     1 <1>   0.0800 
 33 H        0.4490     2.7980    -0.4740 H     1 <1>   0.0800 
 34 H        0.4230     1.8640     1.0340 H     1 <1>   0.0800 
 35 H       -8.9610    -0.7330     0.5280 H     1 <1>   0.3700 
 36 H       -9.8280     1.3330    -1.7420 H     1 <1>   0.0800 
 37 H      -10.3000     2.7220    -0.7890 H     1 <1>   0.0800 
 38 H      -11.1860     1.2130    -0.6440 H     1 <1>   0.0800 
 39 H       -9.0660     1.3770     2.3920 H     1 <1>   0.0800 
 40 H      -10.7280     1.3530     1.8440 H     1 <1>   0.0800 
 41 H       -9.7490     2.7940     1.6240 H     1 <1>   0.0800 
 42 H       -8.9670    -2.8500     1.8400 H     1 <1>   0.0800 
 43 H       -7.4940    -3.3180     1.0240 H     1 <1>   0.0800 
 44 H       -8.6870    -3.3190    -1.1420 H     1 <1>   0.0800 
 45 H      -10.1490    -2.8050    -0.3410 H     1 <1>   0.0800 
 46 H      -10.1560    -4.9130     0.9700 H     1 <1>   0.0800 
 47 H       -7.7900    -5.5240     0.9470 H     1 <1>   0.0800 
 48 H       -7.8190    -5.7230    -0.7920 H     1 <1>   0.0800 
 49 H      -10.1370    -5.1830    -2.0420 H     1 <1>   0.0800 
 50 H      -11.5150    -4.7930    -1.0470 H     1 <1>   0.0800 
 51 H      -11.4300    -7.2090    -1.7490 H     1 <1>   0.0800 
 52 H      -11.4700    -7.0010    -0.0230 H     1 <1>   0.0800 
 53 H       -9.7710    -8.6610    -0.5390 H     1 <1>   0.0800 
 54 H       -8.9800    -7.5760    -1.6670 H     1 <1>   0.0800 
@<TRIPOS>BOND
  1   1   2  1   
  2   2   3  ar  
  3   2   4  ar  
  4   3   5  1   
  5   3   6  ar  
  6   4   7  ar  
  7   4  29  1   
  8   5   8  1   
  9   6   9  ar  
 10   6  30  1   
 11   7   9  ar  
 12   7  31  1   
 13   8  32  1   
 14   8  33  1   
 15   8  34  1   
 16   9  10  1   
 17  10  11  1   
 18  10  12  2   
 19  11  13  1   
 20  12  14  1   
 21  12  15  1   
 22  13  14  2   
 23  14  16  1   
 24  15  17  2   
 25  15  18  am  
 26  16  19  1   
 27  16  20  1   
 28  18  21  1   
 29  18  35  1   
 30  19  36  1   
 31  19  37  1   
 32  19  38  1   
 33  20  39  1   
 34  20  40  1   
 35  20  41  1   
 36  21  22  1   
 37  21  42  1   
 38  21  43  1   
 39  22  23  1   
 40  22  44  1   
 41  22  45  1   
 42  23  24  1   
 43  23  25  1   
 44  23  46  1   
 45  24  26  1   
 46  24  47  1   
 47  24  48  1   
 48  25  27  1   
 49  25  49  1   
 50  25  50  1   
 51  26  28  1   
 52  27  28  1   
 53  27  51  1   
 54  27  52  1   
 55  28  53  1   
 56  28  54  1   
@<TRIPOS>SUBSTRUCTURE
  1 ****  15 GROUP 4 **** **** 0

# MOE 2024.06 (io_trps.svl 2023.06)
