@<TRIPOS>MOLECULE
NONAME
57 59 1 0 0 
SMALL
USER_CHARGES


@<TRIPOS>ATOM
  1 O        0.4310    -0.1260     0.9280 O.2   1 <1>  -0.5700 
  2 C        1.3580    -0.6900     0.4000 C.2   1 <1>   0.5690 
  3 N        2.6300    -0.2630     0.5460 N.am  1 <1>  -0.7300 
  4 C        1.0950    -1.9080    -0.4610 C.3   1 <1>  -0.0990 
  5 C        3.0400     0.9400     1.2990 C.3   1 <1>   0.3200 
  6 C       -0.2240    -2.6070    -0.1090 C.3   1 <1>   0.2000 
  7 C        4.1050     1.6710     0.5110 C.2   1 <1>  -0.0400 
  8 O       -0.2590    -3.8020    -0.8370 O.3   1 <1>  -0.5600 
  9 C       -1.4800    -1.7610    -0.4450 C.3   1 <1>   0.3430 
 10 O        5.2510     1.0900     0.2780 O.3   1 <1>  -0.0190 
 11 C        4.1370     2.8880    -0.0550 C.2   1 <1>  -0.1500 
 12 C       -1.3700    -4.6170    -0.5920 C.3   1 <1>   0.1200 
 13 N       -2.7520    -2.5420    -0.2670 N.4   1 <1>  -0.9590 
 14 N        6.0470     1.8490    -0.4150 N.2   1 <1>  -0.4100 
 15 C        5.4050     2.9430    -0.6290 C.2   1 <1>   0.1080 
 16 C       -2.6700    -3.8750    -0.9570 C.3   1 <1>   0.3430 
 17 C       -3.9430    -1.7600    -0.6960 C.3   1 <1>   0.4860 
 18 C        5.9600     4.1230    -1.4080 C.3   1 <1>   0.0210 
 19 C       -5.1880    -2.5440    -0.3320 C.ar  1 <1>  -0.1440 
 20 C        6.1720     5.3710    -0.5280 C.3   1 <1>  -0.0800 
 21 C       -5.9070    -3.2090    -1.3160 C.ar  1 <1>  -0.1500 
 22 C       -5.6140    -2.6100     0.9880 C.ar  1 <1>  -0.1500 
 23 C        6.6280     6.5580    -1.3860 C.3   1 <1>  -0.2400 
 24 C        7.2010     5.1120     0.5820 C.3   1 <1>  -0.2400 
 25 C       -7.0320    -3.9420    -0.9810 C.ar  1 <1>  -0.1500 
 26 C       -6.7380    -3.3450     1.3200 C.ar  1 <1>  -0.1500 
 27 C       -7.4460    -4.0130     0.3370 C.ar  1 <1>  -0.1500 
 28 H        3.4050    -0.7230     0.0590 H     1 <1>   0.3700 
 29 H        1.9020    -2.6040    -0.3160 H     1 <1>   0.0800 
 30 H        1.0870    -1.6040    -1.4920 H     1 <1>   0.0800 
 31 H        3.4360     0.6480     2.2560 H     1 <1>   0.0800 
 32 H        2.1930     1.5870     1.4580 H     1 <1>   0.0800 
 33 H       -0.2170    -2.8540     0.9390 H     1 <1>   0.0800 
 34 H       -1.3960    -1.4270    -1.4660 H     1 <1>   0.0800 
 35 H       -1.5050    -0.8870     0.1840 H     1 <1>   0.0800 
 36 H        3.3880     3.6580    -0.0810 H     1 <1>   0.1500 
 37 H       -1.3670    -4.9100     0.4440 H     1 <1>   0.0800 
 38 H       -1.2680    -5.5010    -1.1970 H     1 <1>   0.0800 
 39 H       -2.8760    -2.7300     0.7350 H     1 <1>   0.4500 
 40 H       -3.5170    -4.4850    -0.6850 H     1 <1>   0.0800 
 41 H       -2.6930    -3.7360    -2.0250 H     1 <1>   0.0800 
 42 H       -3.9140    -1.5860    -1.7590 H     1 <1>   0.0800 
 43 H       -3.9630    -0.8060    -0.1930 H     1 <1>   0.0800 
 44 H        5.2730     4.3540    -2.2020 H     1 <1>   0.0800 
 45 H        6.8940     3.8350    -1.8580 H     1 <1>   0.0800 
 46 H        5.2340     5.6300    -0.0670 H     1 <1>   0.0800 
 47 H       -5.6090    -3.1630    -2.3500 H     1 <1>   0.1500 
 48 H       -5.0860    -2.0920     1.7710 H     1 <1>   0.1500 
 49 H        7.5690     6.3430    -1.8620 H     1 <1>   0.0800 
 50 H        6.7470     7.4360    -0.7750 H     1 <1>   0.0800 
 51 H        5.8990     6.7750    -2.1460 H     1 <1>   0.0800 
 52 H        8.1510     4.8320     0.1620 H     1 <1>   0.0800 
 53 H        6.8700     4.3190     1.2300 H     1 <1>   0.0800 
 54 H        7.3380     5.9960     1.1800 H     1 <1>   0.0800 
 55 H       -7.5910    -4.4580    -1.7440 H     1 <1>   0.1500 
 56 H       -7.0700    -3.3970     2.3440 H     1 <1>   0.1500 
 57 H       -8.3220    -4.5830     0.5970 H     1 <1>   0.1500 
@<TRIPOS>BOND
  1   1   2  2   
  2   2   3  am  
  3   2   4  1   
  4   3   5  1   
  5   3  28  1   
  6   4   6  1   
  7   4  29  1   
  8   4  30  1   
  9   5   7  1   
 10   5  31  1   
 11   5  32  1   
 12   6   8  1   
 13   6   9  1   
 14   6  33  1   
 15   7  10  1   
 16   7  11  2   
 17   8  12  1   
 18   9  13  1   
 19   9  34  1   
 20   9  35  1   
 21  10  14  1   
 22  11  15  1   
 23  11  36  1   
 24  12  16  1   
 25  12  37  1   
 26  12  38  1   
 27  13  16  1   
 28  13  17  1   
 29  13  39  1   
 30  14  15  2   
 31  15  18  1   
 32  16  40  1   
 33  16  41  1   
 34  17  19  1   
 35  17  42  1   
 36  17  43  1   
 37  18  20  1   
 38  18  44  1   
 39  18  45  1   
 40  19  21  ar  
 41  19  22  ar  
 42  20  23  1   
 43  20  24  1   
 44  20  46  1   
 45  21  25  ar  
 46  21  47  1   
 47  22  26  ar  
 48  22  48  1   
 49  23  49  1   
 50  23  50  1   
 51  23  51  1   
 52  24  52  1   
 53  24  53  1   
 54  24  54  1   
 55  25  27  ar  
 56  25  55  1   
 57  26  27  ar  
 58  26  56  1   
 59  27  57  1   
@<TRIPOS>SUBSTRUCTURE
  1 ****   1 GROUP 4 **** **** 0

# MOE 2024.06 (io_trps.svl 2023.06)
