@<TRIPOS>MOLECULE
NONAME
44 46 1 0 0 
SMALL
USER_CHARGES


@<TRIPOS>ATOM
  1 O       -0.5180     0.2890     1.2210 O.2   1 <1>  -0.5700 
  2 C       -1.4840     0.9610     0.9150 C.2   1 <1>   0.5440 
  3 N       -2.6870     0.3340     0.6850 N.am  1 <1>  -0.6600 
  4 C       -1.3470     2.3940     0.7780 C.ar  1 <1>   0.0860 
  5 C       -3.7660     0.8740    -0.1850 C.3   1 <1>   0.1400 
  6 C       -2.8940    -1.1200     0.8850 C.3   1 <1>   0.1400 
  7 C       -2.2590     3.2610     1.3730 C.ar  1 <1>   0.1600 
  8 C       -0.3100     2.9660     0.0540 C.ar  1 <1>  -0.1500 
  9 C       -4.6920    -0.3110    -0.4970 C.3   1 <1>   0.2000 
 10 C       -3.8100    -1.5410    -0.2650 C.3   1 <1>  -0.0800 
 11 N       -2.2480     4.5810     1.2810 N.ar  1 <1>  -0.6200 
 12 C       -0.2630     4.3410    -0.0490 C.ar  1 <1>  -0.1430 
 13 O       -5.7510    -0.3370     0.4180 O.3   1 <1>  -0.5600 
 14 C       -4.5820    -2.8440     0.0090 C.3   1 <1>   0.0200 
 15 C       -1.2510     5.0890     0.5740 C.ar  1 <1>   0.1600 
 16 C        0.8500     5.0160    -0.8330 C.3   1 <1>  -0.0970 
 17 C       -6.8520     0.4470     0.0780 C.3   1 <1>   0.0400 
 18 C       -3.6860    -4.0710     0.0610 C.2   1 <1>  -0.0400 
 19 O       -4.2180    -5.2250     0.3670 O.3   1 <1>  -0.0190 
 20 C       -2.3750    -4.2720    -0.1530 C.2   1 <1>  -0.1500 
 21 N       -3.3380    -6.1830     0.3720 N.2   1 <1>  -0.4100 
 22 C       -2.2170    -5.6380     0.0630 C.2   1 <1>   0.1080 
 23 C       -0.9070    -6.3860    -0.0470 C.3   1 <1>  -0.0590 
 24 H       -4.3010     1.6670     0.3070 H     1 <1>   0.0800 
 25 H       -3.3280     1.2440    -1.0960 H     1 <1>   0.0800 
 26 H       -1.9630    -1.6590     0.8750 H     1 <1>   0.0800 
 27 H       -3.3840    -1.2710     1.8320 H     1 <1>   0.0800 
 28 H       -3.0480     2.8260     1.9620 H     1 <1>   0.1500 
 29 H        0.4320     2.3370    -0.4070 H     1 <1>   0.1500 
 30 H       -5.0870    -0.2810    -1.4980 H     1 <1>   0.0800 
 31 H       -3.1990    -1.6760    -1.1400 H     1 <1>   0.0800 
 32 H       -5.3140    -2.9930    -0.7650 H     1 <1>   0.0800 
 33 H       -5.1100    -2.7660     0.9440 H     1 <1>   0.0800 
 34 H       -1.2200     6.1620     0.4900 H     1 <1>   0.1500 
 35 H        1.7440     4.4190    -0.8060 H     1 <1>   0.0800 
 36 H        1.0750     5.9800    -0.4140 H     1 <1>   0.0800 
 37 H        0.5500     5.1440    -1.8580 H     1 <1>   0.0800 
 38 H       -7.5830     0.3510     0.8610 H     1 <1>   0.0800 
 39 H       -7.2680     0.0930    -0.8490 H     1 <1>   0.0800 
 40 H       -6.5510     1.4770    -0.0090 H     1 <1>   0.0800 
 41 H       -1.5980    -3.5830    -0.4270 H     1 <1>   0.1500 
 42 H       -0.1870    -5.9600     0.6260 H     1 <1>   0.0800 
 43 H       -0.5360    -6.3230    -1.0530 H     1 <1>   0.0800 
 44 H       -1.0530    -7.4200     0.2070 H     1 <1>   0.0800 
@<TRIPOS>BOND
  1   1   2  2   
  2   2   3  am  
  3   2   4  1   
  4   3   5  1   
  5   3   6  1   
  6   4   7  ar  
  7   4   8  ar  
  8   5   9  1   
  9   5  24  1   
 10   5  25  1   
 11   6  10  1   
 12   6  26  1   
 13   6  27  1   
 14   7  11  ar  
 15   7  28  1   
 16   8  12  ar  
 17   8  29  1   
 18   9  10  1   
 19   9  13  1   
 20   9  30  1   
 21  10  14  1   
 22  10  31  1   
 23  11  15  ar  
 24  12  15  ar  
 25  12  16  1   
 26  13  17  1   
 27  14  18  1   
 28  14  32  1   
 29  14  33  1   
 30  15  34  1   
 31  16  35  1   
 32  16  36  1   
 33  16  37  1   
 34  17  38  1   
 35  17  39  1   
 36  17  40  1   
 37  18  19  1   
 38  18  20  2   
 39  19  21  1   
 40  20  22  1   
 41  20  41  1   
 42  21  22  2   
 43  22  23  1   
 44  23  42  1   
 45  23  43  1   
 46  23  44  1   
@<TRIPOS>SUBSTRUCTURE
  1 ****   3 GROUP 4 **** **** 0

# MOE 2024.06 (io_trps.svl 2023.06)
