@<TRIPOS>MOLECULE
NONAME
54 58 1 0 0 
SMALL
USER_CHARGES


@<TRIPOS>ATOM
  1 O        0.1190     1.8720     2.5160 O.2   1 <1>  -0.5700 
  2 C       -0.2980     2.2610     1.4420 C.2   1 <1>   0.5440 
  3 N       -1.5840     1.9340     1.0640 N.am  1 <1>  -0.6600 
  4 C        0.5610     3.0780     0.6150 C.ar  1 <1>   0.0860 
  5 C       -2.3810     2.7080     0.0610 C.3   1 <1>   0.1400 
  6 C       -2.4060     0.9590     1.8340 C.3   1 <1>   0.1400 
  7 C        1.2300     4.1730     1.1980 C.ar  1 <1>   0.1600 
  8 C        0.7680     2.8530    -0.7220 C.ar  1 <1>  -0.1500 
  9 C       -3.4870     3.5190     0.7630 C.3   1 <1>   0.1440 
 10 C       -3.5290     1.6990     2.5720 C.3   1 <1>  -0.1600 
 11 N        1.9980     5.0100     0.5680 N.ar  1 <1>  -0.6200 
 12 C        1.5940     3.7240    -1.4490 C.ar  1 <1>   0.0000 
 13 C       -4.3440     4.2370    -0.2610 C.ar  1 <1>   0.1670 
 14 C       -4.3640     2.5820     1.6240 C.3   1 <1>  -0.1600 
 15 C       -2.9080     4.6970     1.5930 C.3   1 <1>  -0.1600 
 16 C        2.1900     4.8030    -0.7600 C.ar  1 <1>   0.3100 
 17 C        1.8470     3.5700    -2.8280 C.ar  1 <1>  -0.1500 
 18 N       -4.8550     3.6900    -1.3360 N.ar  1 <1>  -0.6200 
 19 C       -4.5260     5.5460     0.0660 C.ar  1 <1>  -0.1430 
 20 C       -3.8260     5.9080     1.3510 C.3   1 <1>  -0.0170 
 21 C        3.0110     5.6860    -1.4780 C.ar  1 <1>  -0.1500 
 22 C        2.6540     4.4490    -3.4990 C.ar  1 <1>  -0.1500 
 23 C       -5.5790     4.5100    -2.1020 C.ar  1 <1>   0.7200 
 24 C       -5.2840     6.3140    -0.7810 C.ar  1 <1>   0.1600 
 25 C        3.2430     5.5200    -2.8180 C.ar  1 <1>  -0.1500 
 26 N       -5.8160     5.8050    -1.8680 N.ar  1 <1>  -0.6200 
 27 N       -6.1350     3.9680    -3.2450 N.pl3 1 <1>  -0.8380 
 28 C       -5.7480     2.6260    -3.7590 C.3   1 <1>   0.1290 
 29 C       -7.1880     4.6800    -4.0220 C.3   1 <1>   0.1290 
 30 H       -2.8320     2.0170    -0.6300 H     1 <1>   0.0800 
 31 H       -1.7630     3.3780    -0.5070 H     1 <1>   0.0800 
 32 H       -1.7970     0.4210     2.5400 H     1 <1>   0.0800 
 33 H       -2.8290     0.2430     1.1500 H     1 <1>   0.0800 
 34 H        1.0830     4.3200     2.2550 H     1 <1>   0.1500 
 35 H        0.3040     2.0210    -1.2200 H     1 <1>   0.1500 
 36 H       -3.0880     2.2960     3.3500 H     1 <1>   0.0800 
 37 H       -4.1700     0.9780     3.0470 H     1 <1>   0.0800 
 38 H       -4.9240     1.9410     0.9640 H     1 <1>   0.0800 
 39 H       -5.0750     3.1590     2.1890 H     1 <1>   0.0800 
 40 H       -1.9280     4.9470     1.2260 H     1 <1>   0.0800 
 41 H       -2.8220     4.4700     2.6400 H     1 <1>   0.0800 
 42 H        1.3930     2.7460    -3.3480 H     1 <1>   0.1500 
 43 H       -3.2630     6.8200     1.2570 H     1 <1>   0.0800 
 44 H       -4.5500     6.0020     2.1420 H     1 <1>   0.0800 
 45 H        3.4550     6.5000    -0.9360 H     1 <1>   0.1500 
 46 H        2.8460     4.3300    -4.5520 H     1 <1>   0.1500 
 47 H       -5.4560     7.3540    -0.5670 H     1 <1>   0.1500 
 48 H        3.8750     6.2040    -3.3570 H     1 <1>   0.1500 
 49 H       -4.7220     2.4110    -3.5130 H     1 <1>   0.0800 
 50 H       -5.8530     2.5940    -4.8290 H     1 <1>   0.0800 
 51 H       -6.3790     1.8760    -3.3150 H     1 <1>   0.0800 
 52 H       -7.7760     5.3070    -3.3750 H     1 <1>   0.0800 
 53 H       -7.8450     3.9710    -4.4930 H     1 <1>   0.0800 
 54 H       -6.7250     5.2920    -4.7760 H     1 <1>   0.0800 
@<TRIPOS>BOND
  1   1   2  2   
  2   2   3  am  
  3   2   4  1   
  4   3   5  1   
  5   3   6  1   
  6   4   7  ar  
  7   4   8  ar  
  8   5   9  1   
  9   5  30  1   
 10   5  31  1   
 11   6  10  1   
 12   6  32  1   
 13   6  33  1   
 14   7  11  ar  
 15   7  34  1   
 16   8  12  ar  
 17   8  35  1   
 18   9  13  1   
 19   9  14  1   
 20   9  15  1   
 21  10  14  1   
 22  10  36  1   
 23  10  37  1   
 24  11  16  ar  
 25  12  16  ar  
 26  12  17  ar  
 27  13  18  ar  
 28  13  19  ar  
 29  14  38  1   
 30  14  39  1   
 31  15  20  1   
 32  15  40  1   
 33  15  41  1   
 34  16  21  ar  
 35  17  22  ar  
 36  17  42  1   
 37  18  23  ar  
 38  19  20  1   
 39  19  24  ar  
 40  20  43  1   
 41  20  44  1   
 42  21  25  ar  
 43  21  45  1   
 44  22  25  ar  
 45  22  46  1   
 46  23  26  ar  
 47  23  27  1   
 48  24  26  ar  
 49  24  47  1   
 50  25  48  1   
 51  27  28  1   
 52  27  29  1   
 53  28  49  1   
 54  28  50  1   
 55  28  51  1   
 56  29  52  1   
 57  29  53  1   
 58  29  54  1   
@<TRIPOS>SUBSTRUCTURE
  1 ****   5 GROUP 4 **** **** 0

# MOE 2024.06 (io_trps.svl 2023.06)
