@<TRIPOS>MOLECULE
NONAME
59 62 1 0 0 
SMALL
USER_CHARGES


@<TRIPOS>ATOM
  1 O       -0.7750    -0.5940    -0.3820 O.3   1 <1>  -0.5600 
  2 C       -1.8590    -1.4070    -0.0350 C.3   1 <1>   0.1200 
  3 C        0.2730    -1.2750    -1.0030 C.3   1 <1>   0.1200 
  4 C       -1.4170    -2.5020     0.9510 C.3   1 <1>   0.2090 
  5 C        0.8400    -2.3620    -0.0690 C.3   1 <1>   0.2090 
  6 N       -0.2480    -3.2880     0.4070 N.pl3 1 <1>  -0.8380 
  7 C       -0.2660    -4.6480     0.3470 C.ar  1 <1>   0.7710 
  8 N       -1.3930    -5.2940     0.6000 N.ar  1 <1>  -0.6200 
  9 N        0.8640    -5.3060     0.0370 N.ar  1 <1>  -0.1790 
 10 C       -1.4000    -6.6130     0.5490 C.ar  1 <1>   0.4100 
 11 C        0.9100    -6.6550    -0.0520 C.ar  1 <1>   0.2180 
 12 N       -2.5670    -7.2480     0.8420 N.pl3 1 <1>  -0.8380 
 13 C       -0.2380    -7.3290     0.2000 C.ar  1 <1>  -0.1500 
 14 C        2.2230    -7.3300    -0.4290 C.3   1 <1>  -0.0170 
 15 C       -2.7080    -8.6460     1.3710 C.3   1 <1>   0.2090 
 16 C       -3.9030    -6.5600     0.8170 C.3   1 <1>   0.2090 
 17 C        3.3230    -7.0790     0.6110 C.3   1 <1>  -0.2400 
 18 C       -3.7460    -9.4430     0.5600 C.3   1 <1>   0.1100 
 19 C       -4.9410    -7.3880     0.0350 C.3   1 <1>   0.1100 
 20 N       -5.0590    -8.7670     0.5500 N.3   1 <1>  -0.8100 
 21 C       -6.1090    -9.5280    -0.1740 C.3   1 <1>   0.2530 
 22 C       -6.2830   -10.9830     0.2950 C.ar  1 <1>   0.1670 
 23 N       -6.8830   -11.1320     1.4720 N.ar  1 <1>  -0.6200 
 24 C       -5.8450   -12.0550    -0.4880 C.ar  1 <1>  -0.1430 
 25 C       -7.0410   -12.3710     1.8990 C.ar  1 <1>   0.1600 
 26 C       -6.0250   -13.3420    -0.0190 C.ar  1 <1>  -0.1500 
 27 C       -5.1810   -11.8760    -1.8490 C.3   1 <1>  -0.0970 
 28 C       -6.6360   -13.4950     1.2050 C.ar  1 <1>  -0.1500 
 29 H       -2.2680    -1.8420    -0.9300 H     1 <1>   0.0800 
 30 H       -2.6070    -0.7810     0.4170 H     1 <1>   0.0800 
 31 H        1.0340    -0.5520    -1.2400 H     1 <1>   0.0800 
 32 H       -0.0920    -1.7050    -1.9190 H     1 <1>   0.0800 
 33 H       -2.2650    -3.1290     1.1650 H     1 <1>   0.0800 
 34 H       -1.1280    -2.0330     1.8760 H     1 <1>   0.0800 
 35 H        1.2930    -1.8780     0.7810 H     1 <1>   0.0800 
 36 H        1.6080    -2.8930    -0.6000 H     1 <1>   0.0800 
 37 H        1.6870    -4.7360    -0.0950 H     1 <1>   0.4570 
 38 H       -0.2820    -8.3970     0.1290 H     1 <1>   0.1500 
 39 H        2.5480    -6.9780    -1.3940 H     1 <1>   0.0800 
 40 H        2.0670    -8.3920    -0.5150 H     1 <1>   0.0800 
 41 H       -3.0440    -8.5990     2.3930 H     1 <1>   0.0800 
 42 H       -1.7720    -9.1690     1.3680 H     1 <1>   0.0800 
 43 H       -3.8290    -5.5890     0.3610 H     1 <1>   0.0800 
 44 H       -4.2510    -6.4250     1.8270 H     1 <1>   0.0800 
 45 H        3.5760    -6.0370     0.6800 H     1 <1>   0.0800 
 46 H        4.2130    -7.6200     0.3360 H     1 <1>   0.0800 
 47 H        3.0100    -7.4270     1.5810 H     1 <1>   0.0800 
 48 H       -3.8480   -10.4160     1.0080 H     1 <1>   0.0800 
 49 H       -3.3870    -9.5650    -0.4460 H     1 <1>   0.0800 
 50 H       -4.6570    -7.4080    -1.0020 H     1 <1>   0.0800 
 51 H       -5.8970    -6.9000     0.1120 H     1 <1>   0.0800 
 52 H       -5.9040    -9.4970    -1.2270 H     1 <1>   0.0800 
 53 H       -7.0510    -9.0300    -0.0210 H     1 <1>   0.0800 
 54 H       -7.5210   -12.4970     2.8540 H     1 <1>   0.1500 
 55 H       -5.7050   -14.2020    -0.5800 H     1 <1>   0.1500 
 56 H       -4.3260   -11.2320    -1.7700 H     1 <1>   0.0800 
 57 H       -5.8810   -11.4500    -2.5460 H     1 <1>   0.0800 
 58 H       -4.8500   -12.8200    -2.2440 H     1 <1>   0.0800 
 59 H       -6.7990   -14.4730     1.6180 H     1 <1>   0.1500 
@<TRIPOS>BOND
  1   1   2  1   
  2   1   3  1   
  3   2   4  1   
  4   2  29  1   
  5   2  30  1   
  6   3   5  1   
  7   3  31  1   
  8   3  32  1   
  9   4   6  1   
 10   4  33  1   
 11   4  34  1   
 12   5   6  1   
 13   5  35  1   
 14   5  36  1   
 15   6   7  1   
 16   7   8  ar  
 17   7   9  ar  
 18   8  10  ar  
 19   9  11  ar  
 20   9  37  1   
 21  10  12  1   
 22  10  13  ar  
 23  11  13  ar  
 24  11  14  1   
 25  12  15  1   
 26  12  16  1   
 27  13  38  1   
 28  14  17  1   
 29  14  39  1   
 30  14  40  1   
 31  15  18  1   
 32  15  41  1   
 33  15  42  1   
 34  16  19  1   
 35  16  43  1   
 36  16  44  1   
 37  17  45  1   
 38  17  46  1   
 39  17  47  1   
 40  18  20  1   
 41  18  48  1   
 42  18  49  1   
 43  19  20  1   
 44  19  50  1   
 45  19  51  1   
 46  20  21  1   
 47  21  22  1   
 48  21  52  1   
 49  21  53  1   
 50  22  23  ar  
 51  22  24  ar  
 52  23  25  ar  
 53  24  26  ar  
 54  24  27  1   
 55  25  28  ar  
 56  25  54  1   
 57  26  28  ar  
 58  26  55  1   
 59  27  56  1   
 60  27  57  1   
 61  27  58  1   
 62  28  59  1   
@<TRIPOS>SUBSTRUCTURE
  1 ****  12 GROUP 4 **** **** 0

# MOE 2024.06 (io_trps.svl 2023.06)
