@<TRIPOS>MOLECULE
NONAME
45 46 1 0 0 
SMALL
USER_CHARGES


@<TRIPOS>ATOM
  1 F       -1.5020    -2.0030     3.1200 F     1 <1>  -0.3400 
  2 C       -0.6420    -1.4300     2.2880 C.3   1 <1>   1.1640 
  3 F        0.2210    -0.7630     3.0460 F     1 <1>  -0.3400 
  4 F       -1.3260    -0.5160     1.6130 F     1 <1>  -0.3400 
  5 C        0.0300    -2.4600     1.3630 C.ar  1 <1>  -0.1440 
  6 C        1.3620    -2.8320     1.5240 C.ar  1 <1>  -0.1500 
  7 C       -0.7060    -3.0480     0.3420 C.ar  1 <1>  -0.1500 
  8 C        1.9600    -3.7690     0.6850 C.ar  1 <1>  -0.1440 
  9 C       -0.1330    -3.9860    -0.5010 C.ar  1 <1>  -0.1440 
 10 C        1.1940    -4.3360    -0.3260 C.ar  1 <1>  -0.1500 
 11 C        3.4310    -4.1900     0.8450 C.3   1 <1>   1.1640 
 12 C       -0.9490    -4.6300    -1.6190 C.3   1 <1>   0.0440 
 13 F        3.5530    -5.4910     1.0810 F     1 <1>  -0.3400 
 14 F        4.0500    -3.5730     1.8450 F     1 <1>  -0.3400 
 15 F        4.1460    -3.9390    -0.2440 F     1 <1>  -0.3400 
 16 C       -0.9820    -6.1530    -1.5250 C.2   1 <1>   0.5690 
 17 O       -0.2110    -6.7550    -2.2360 O.2   1 <1>  -0.5700 
 18 N       -1.8400    -6.8130    -0.6790 N.am  1 <1>  -0.6600 
 19 C       -1.8360    -8.3030    -0.6390 C.3   1 <1>   0.3200 
 20 C       -2.6930    -6.1230     0.3380 C.3   1 <1>   0.1400 
 21 C       -3.2560    -8.8310    -0.6540 C.2   1 <1>  -0.3320 
 22 C       -4.0430    -5.6960    -0.2550 C.3   1 <1>   0.1200 
 23 N       -3.8580    -9.4470     0.3820 N.pl3 1 <1>   0.0330 
 24 C       -4.1640    -8.7990    -1.6530 C.2   1 <1>   0.0770 
 25 O       -4.5850    -4.6880     0.5300 O.3   1 <1>  -0.6800 
 26 C       -5.1030    -9.7370    -0.0530 C.2   1 <1>   0.0060 
 27 N       -5.3260    -9.3590    -1.2680 N.2   1 <1>  -0.5650 
 28 C       -6.1300   -10.4420     0.8060 C.3   1 <1>  -0.0600 
 29 H        1.9430    -2.3850     2.3150 H     1 <1>   0.1500 
 30 H       -1.7410    -2.7720     0.2050 H     1 <1>   0.1500 
 31 H        1.6380    -5.0660    -0.9880 H     1 <1>   0.1500 
 32 H       -0.5060    -4.3610    -2.5600 H     1 <1>   0.0800 
 33 H       -1.9500    -4.2470    -1.6280 H     1 <1>   0.0800 
 34 H       -1.3180    -8.6330     0.2450 H     1 <1>   0.0800 
 35 H       -1.3150    -8.7050    -1.4930 H     1 <1>   0.0800 
 36 H       -2.1760    -5.2560     0.7040 H     1 <1>   0.0800 
 37 H       -2.8610    -6.7760     1.1760 H     1 <1>   0.0800 
 38 H       -4.7400    -6.5150    -0.2910 H     1 <1>   0.0800 
 39 H       -3.9150    -5.2970    -1.2450 H     1 <1>   0.0800 
 40 H       -3.4680    -9.6700     1.3020 H     1 <1>   0.2700 
 41 H       -4.0410    -8.3890    -2.6420 H     1 <1>   0.1500 
 42 H       -5.1080    -5.0640     1.2670 H     1 <1>   0.4000 
 43 H       -6.3350    -9.8660     1.6890 H     1 <1>   0.0800 
 44 H       -5.7710   -11.4150     1.0870 H     1 <1>   0.0800 
 45 H       -7.0440   -10.5610     0.2520 H     1 <1>   0.0800 
@<TRIPOS>BOND
  1   1   2  1   
  2   2   3  1   
  3   2   4  1   
  4   2   5  1   
  5   5   6  ar  
  6   5   7  ar  
  7   6   8  ar  
  8   6  29  1   
  9   7   9  ar  
 10   7  30  1   
 11   8  10  ar  
 12   8  11  1   
 13   9  10  ar  
 14   9  12  1   
 15  10  31  1   
 16  11  13  1   
 17  11  14  1   
 18  11  15  1   
 19  12  16  1   
 20  12  32  1   
 21  12  33  1   
 22  16  17  2   
 23  16  18  am  
 24  18  19  1   
 25  18  20  1   
 26  19  21  1   
 27  19  34  1   
 28  19  35  1   
 29  20  22  1   
 30  20  36  1   
 31  20  37  1   
 32  21  23  1   
 33  21  24  2   
 34  22  25  1   
 35  22  38  1   
 36  22  39  1   
 37  23  26  1   
 38  23  40  1   
 39  24  27  1   
 40  24  41  1   
 41  25  42  1   
 42  26  27  2   
 43  26  28  1   
 44  28  43  1   
 45  28  44  1   
 46  28  45  1   
@<TRIPOS>SUBSTRUCTURE
  1 ****   9 GROUP 4 **** **** 0

# MOE 2024.06 (io_trps.svl 2023.06)
