@<TRIPOS>MOLECULE
NONAME
49 50 1 0 0 
SMALL
USER_CHARGES


@<TRIPOS>ATOM
  1 N        0.1500    -0.9490     0.0190 N.ar  1 <1>  -0.6200 
  2 C        0.1350    -1.9700    -0.8100 C.ar  1 <1>   0.7710 
  3 C        0.9980     0.0390    -0.2140 C.ar  1 <1>   0.4100 
  4 N        0.9420    -2.0530    -1.8820 N.ar  1 <1>  -0.1790 
  5 N       -0.7390    -2.9390    -0.5230 N.pl3 1 <1>  -0.8690 
  6 N        1.0100     1.0850     0.6590 N.pl3 1 <1>  -0.8380 
  7 C        1.8570     0.0040    -1.3320 C.ar  1 <1>  -0.1500 
  8 C        1.8190    -1.0610    -2.1670 C.ar  1 <1>   0.2110 
  9 C       -1.1500    -4.1850    -1.2010 C.3   1 <1>   0.3530 
 10 C        2.1390     2.0420     0.8180 C.3   1 <1>   0.2090 
 11 C       -0.0730     1.2750     1.6760 C.3   1 <1>   0.1290 
 12 C       -2.6080    -4.4480    -0.8630 C.ar  1 <1>  -0.1430 
 13 C        1.8420     3.3100     0.0230 C.3   1 <1>  -0.2400 
 14 C       -2.9770    -5.5190    -0.0590 C.ar  1 <1>  -0.1500 
 15 C       -3.5900    -3.6020    -1.3550 C.ar  1 <1>  -0.1500 
 16 C       -4.3120    -5.7470     0.2490 C.ar  1 <1>  -0.1430 
 17 C       -4.9200    -3.8190    -1.0470 C.ar  1 <1>  -0.1500 
 18 C       -5.2810    -4.8860    -0.2460 C.ar  1 <1>  -0.1500 
 19 C       -4.7190    -6.9190     1.1260 C.3   1 <1>   0.4860 
 20 N       -4.7530    -8.1600     0.2970 N.4   1 <1>  -0.9590 
 21 C       -5.8410    -8.1110    -0.7310 C.3   1 <1>   0.2630 
 22 C       -4.8770    -9.3800     1.1500 C.3   1 <1>   0.2630 
 23 H        0.8610    -2.8860    -2.4540 H     1 <1>   0.4570 
 24 H       -1.3030    -2.7480     0.3150 H     1 <1>   0.4000 
 25 H        2.5230     0.8250    -1.5130 H     1 <1>   0.1500 
 26 H        2.4510    -1.1450    -3.0370 H     1 <1>   0.1500 
 27 H       -0.5370    -5.0020    -0.8570 H     1 <1>   0.0800 
 28 H       -1.0430    -4.0920    -2.2690 H     1 <1>   0.0800 
 29 H        3.0600     1.5970     0.4810 H     1 <1>   0.0800 
 30 H        2.2640     2.2850     1.8600 H     1 <1>   0.0800 
 31 H       -1.0080     0.8820     1.3160 H     1 <1>   0.0800 
 32 H       -0.2130     2.3210     1.8860 H     1 <1>   0.0800 
 33 H        0.1910     0.7670     2.5870 H     1 <1>   0.0800 
 34 H        1.7020     3.0820    -1.0170 H     1 <1>   0.0800 
 35 H        2.6640     3.9960     0.1170 H     1 <1>   0.0800 
 36 H        0.9570     3.7890     0.4010 H     1 <1>   0.0800 
 37 H       -2.2150    -6.1720     0.3340 H     1 <1>   0.1500 
 38 H       -3.3290    -2.7620    -1.9760 H     1 <1>   0.1500 
 39 H       -5.6740    -3.1510    -1.4290 H     1 <1>   0.1500 
 40 H       -6.3230    -5.0270    -0.0120 H     1 <1>   0.1500 
 41 H       -5.6880    -6.7340     1.5610 H     1 <1>   0.0800 
 42 H       -4.0040    -7.0260     1.9240 H     1 <1>   0.0800 
 43 H       -3.8550    -8.1900    -0.2070 H     1 <1>   0.4500 
 44 H       -6.8060    -8.0340    -0.2560 H     1 <1>   0.0800 
 45 H       -5.8250    -9.0030    -1.3360 H     1 <1>   0.0800 
 46 H       -5.7070    -7.2580    -1.3780 H     1 <1>   0.0800 
 47 H       -5.8080    -9.3670     1.6940 H     1 <1>   0.0800 
 48 H       -4.0650    -9.4300     1.8580 H     1 <1>   0.0800 
 49 H       -4.8500   -10.2680     0.5380 H     1 <1>   0.0800 
@<TRIPOS>BOND
  1   1   2  ar  
  2   1   3  ar  
  3   2   4  ar  
  4   2   5  1   
  5   3   6  1   
  6   3   7  ar  
  7   4   8  ar  
  8   4  23  1   
  9   5   9  1   
 10   5  24  1   
 11   6  10  1   
 12   6  11  1   
 13   7   8  ar  
 14   7  25  1   
 15   8  26  1   
 16   9  12  1   
 17   9  27  1   
 18   9  28  1   
 19  10  13  1   
 20  10  29  1   
 21  10  30  1   
 22  11  31  1   
 23  11  32  1   
 24  11  33  1   
 25  12  14  ar  
 26  12  15  ar  
 27  13  34  1   
 28  13  35  1   
 29  13  36  1   
 30  14  16  ar  
 31  14  37  1   
 32  15  17  ar  
 33  15  38  1   
 34  16  18  ar  
 35  16  19  1   
 36  17  18  ar  
 37  17  39  1   
 38  18  40  1   
 39  19  20  1   
 40  19  41  1   
 41  19  42  1   
 42  20  21  1   
 43  20  22  1   
 44  20  43  1   
 45  21  44  1   
 46  21  45  1   
 47  21  46  1   
 48  22  47  1   
 49  22  48  1   
 50  22  49  1   
@<TRIPOS>SUBSTRUCTURE
  1 ****   5 GROUP 4 **** **** 0

# MOE 2024.06 (io_trps.svl 2023.06)
