@<TRIPOS>MOLECULE
NONAME
53 54 1 0 0 
SMALL
USER_CHARGES


@<TRIPOS>ATOM
  1 O       -4.3650     3.0790    -1.4600 O.2   1 <1>  -0.5700 
  2 C       -3.3780     2.4240    -1.7060 C.2   1 <1>   0.5690 
  3 N       -3.4920     1.0550    -1.7860 N.am  1 <1>  -0.6600 
  4 C       -2.0670     3.1880    -1.9090 C.3   1 <1>   0.0440 
  5 C       -2.3360     0.1130    -1.7950 C.3   1 <1>   0.3200 
  6 C       -4.8470     0.4030    -1.8880 C.3   1 <1>   0.1400 
  7 C       -1.0020     2.9490    -0.8250 C.ar  1 <1>  -0.1440 
  8 C       -2.4180    -0.7330    -0.5440 C.2   1 <1>  -0.3320 
  9 C       -5.4580     0.0520    -0.5130 C.3   1 <1>   0.3430 
 10 C        0.2680     2.4740    -1.1660 C.ar  1 <1>  -0.1440 
 11 C       -1.2900     3.2080     0.5170 C.ar  1 <1>  -0.1440 
 12 N       -2.6040    -2.0680    -0.5060 N.pl3 1 <1>   0.0330 
 13 C       -2.3400    -0.3220     0.7400 C.2   1 <1>   0.0770 
 14 N       -5.5380     1.2480     0.3750 N.4   1 <1>  -0.9590 
 15 C        1.1830     2.1790    -0.1680 C.ar  1 <1>  -0.1500 
 16 C        0.7340     2.2760    -2.6070 C.3   1 <1>  -0.0970 
 17 C       -0.3560     2.9050     1.4940 C.ar  1 <1>  -0.1500 
 18 C       -2.5910     3.8420     0.9950 C.3   1 <1>  -0.0970 
 19 C       -2.6810    -2.3700     0.8080 C.2   1 <1>   0.0360 
 20 N       -2.5510    -1.3450     1.5870 N.2   1 <1>  -0.5650 
 21 C       -5.3280     0.8810     1.8080 C.3   1 <1>   0.2630 
 22 C       -6.7870     2.0370     0.1670 C.3   1 <1>   0.2630 
 23 C        0.8750     2.3770     1.1630 C.ar  1 <1>  -0.1430 
 24 C        1.8800     2.0390     2.2490 C.3   1 <1>  -0.0970 
 25 H       -2.2850     4.2400    -1.9360 H     1 <1>   0.0800 
 26 H       -1.7120     2.9380    -2.8870 H     1 <1>   0.0800 
 27 H       -1.4020     0.6320    -1.7980 H     1 <1>   0.0800 
 28 H       -2.3740    -0.5030    -2.6770 H     1 <1>   0.0800 
 29 H       -4.7660    -0.4960    -2.4740 H     1 <1>   0.0800 
 30 H       -5.5200     1.0590    -2.4140 H     1 <1>   0.0800 
 31 H       -4.8380    -0.6960    -0.0480 H     1 <1>   0.0800 
 32 H       -6.4380    -0.3730    -0.6450 H     1 <1>   0.0800 
 33 H       -2.6530    -2.7330    -1.2860 H     1 <1>   0.2700 
 34 H       -2.1520     0.6760     1.1010 H     1 <1>   0.1500 
 35 H       -4.7580     1.8580     0.0520 H     1 <1>   0.4500 
 36 H        2.1550     1.7960    -0.4230 H     1 <1>   0.1500 
 37 H        0.6200     3.1930    -3.1570 H     1 <1>   0.0800 
 38 H        0.1760     1.5000    -3.0940 H     1 <1>   0.0800 
 39 H        1.7750     2.0070    -2.6430 H     1 <1>   0.0800 
 40 H       -0.5800     3.0870     2.5310 H     1 <1>   0.1500 
 41 H       -2.9280     4.5960     0.3080 H     1 <1>   0.0800 
 42 H       -2.4470     4.3220     1.9460 H     1 <1>   0.0800 
 43 H       -3.3490     3.0930     1.1070 H     1 <1>   0.0800 
 44 H       -2.8330    -3.3780     1.1570 H     1 <1>   0.1500 
 45 H       -6.1330     0.2550     2.1570 H     1 <1>   0.0800 
 46 H       -5.2900     1.7690     2.4190 H     1 <1>   0.0800 
 47 H       -4.4020     0.3440     1.9290 H     1 <1>   0.0800 
 48 H       -7.6530     1.4470     0.4150 H     1 <1>   0.0800 
 49 H       -6.8570     2.3510    -0.8630 H     1 <1>   0.0800 
 50 H       -6.7750     2.9180     0.7860 H     1 <1>   0.0800 
 51 H        2.5820     1.3040     1.9010 H     1 <1>   0.0800 
 52 H        1.3760     1.6430     3.1130 H     1 <1>   0.0800 
 53 H        2.4170     2.9250     2.5350 H     1 <1>   0.0800 
@<TRIPOS>BOND
  1   1   2  2   
  2   2   3  am  
  3   2   4  1   
  4   3   5  1   
  5   3   6  1   
  6   4   7  1   
  7   4  25  1   
  8   4  26  1   
  9   5   8  1   
 10   5  27  1   
 11   5  28  1   
 12   6   9  1   
 13   6  29  1   
 14   6  30  1   
 15   7  10  ar  
 16   7  11  ar  
 17   8  12  1   
 18   8  13  2   
 19   9  14  1   
 20   9  31  1   
 21   9  32  1   
 22  10  15  ar  
 23  10  16  1   
 24  11  17  ar  
 25  11  18  1   
 26  12  19  1   
 27  12  33  1   
 28  13  20  1   
 29  13  34  1   
 30  14  21  1   
 31  14  22  1   
 32  14  35  1   
 33  15  23  ar  
 34  15  36  1   
 35  16  37  1   
 36  16  38  1   
 37  16  39  1   
 38  17  23  ar  
 39  17  40  1   
 40  18  41  1   
 41  18  42  1   
 42  18  43  1   
 43  19  20  2   
 44  19  44  1   
 45  21  45  1   
 46  21  46  1   
 47  21  47  1   
 48  22  48  1   
 49  22  49  1   
 50  22  50  1   
 51  23  24  1   
 52  24  51  1   
 53  24  52  1   
 54  24  53  1   
@<TRIPOS>SUBSTRUCTURE
  1 ****  13 GROUP 4 **** **** 0

# MOE 2024.06 (io_trps.svl 2023.06)
