@<TRIPOS>MOLECULE
NONAME
40 42 1 0 0 
SMALL
USER_CHARGES


@<TRIPOS>ATOM
  1 O        1.4460     0.4250    -0.0400 O.3   1 <1>  -0.8500 
  2 C        1.5080     1.6620     0.0380 C.2   1 <1>  -0.1500 
  3 C        1.8340     2.3150     1.2140 C.2   1 <1>  -0.1360 
  4 C        1.2430     2.4660    -1.1020 C.2   1 <1>  -0.1500 
  5 C        1.9080     3.7030     1.2840 C.2   1 <1>   0.6160 
  6 C        1.3080     3.8210    -1.0540 C.2   1 <1>  -0.0290 
  7 O        2.2190     4.2900     2.3420 O.2   1 <1>  -0.5700 
  8 N        1.6430     4.4750     0.1380 N.am  1 <1>  -0.4690 
  9 C        1.0150     4.6390    -2.3030 C.3   1 <1>  -0.1020 
 10 C        1.7770     5.9540     0.2340 C.3   1 <1>   0.1400 
 11 C        3.2470     6.3420     0.0420 C.3   1 <1>  -0.1600 
 12 C        3.4860     7.8410     0.2740 C.3   1 <1>   0.1250 
 13 C        2.8980     8.7430    -0.8130 C.2   1 <1>   0.5690 
 14 C        4.9650     8.1870     0.1280 C.ar  1 <1>  -0.1440 
 15 O        1.7260     8.8520    -1.0760 O.2   1 <1>  -0.5700 
 16 N        3.8900     9.4230    -1.4310 N.am  1 <1>  -0.5470 
 17 C        5.1230     9.1120    -0.8840 C.ar  1 <1>   0.1170 
 18 C        6.0550     7.7150     0.8350 C.ar  1 <1>  -0.1500 
 19 C        6.3790     9.5910    -1.2180 C.ar  1 <1>  -0.1500 
 20 C        7.3260     8.1880     0.5060 C.ar  1 <1>   0.0820 
 21 C        7.4760     9.1210    -0.5140 C.ar  1 <1>  -0.1500 
 22 O        8.4620     7.7850     1.1330 O.3   1 <1>  -0.3620 
 23 C        8.4230     6.7990     2.1410 C.3   1 <1>   0.0400 
 24 H        2.0360     1.7310     2.0860 H     1 <1>   0.1500 
 25 H        0.9910     1.9190    -1.9900 H     1 <1>   0.1500 
 26 H        1.8590     5.2540    -2.5530 H     1 <1>   0.0800 
 27 H        0.1510     5.2570    -2.1440 H     1 <1>   0.0800 
 28 H        0.8150     3.9880    -3.1350 H     1 <1>   0.0800 
 29 H        1.4330     6.2770     1.2020 H     1 <1>   0.0800 
 30 H        1.1540     6.4350    -0.4960 H     1 <1>   0.0800 
 31 H        3.5640     6.0740    -0.9510 H     1 <1>   0.0800 
 32 H        3.8410     5.7870     0.7450 H     1 <1>   0.0800 
 33 H        3.1260     8.1480     1.2390 H     1 <1>   0.0800 
 34 H        3.7110    10.0960    -2.1750 H     1 <1>   0.3700 
 35 H        5.9020     6.9960     1.6180 H     1 <1>   0.1500 
 36 H        6.4950    10.3120    -2.0060 H     1 <1>   0.1500 
 37 H        8.4640     9.4740    -0.7510 H     1 <1>   0.1500 
 38 H        9.4300     6.6210     2.4730 H     1 <1>   0.0800 
 39 H        8.0080     5.8950     1.7310 H     1 <1>   0.0800 
 40 H        7.8270     7.1600     2.9610 H     1 <1>   0.0800 
@<TRIPOS>BOND
  1   1   2  1   
  2   2   3  2   
  3   2   4  1   
  4   3   5  1   
  5   3  24  1   
  6   4   6  2   
  7   4  25  1   
  8   5   7  2   
  9   5   8  am  
 10   6   8  1   
 11   6   9  1   
 12   8  10  1   
 13   9  26  1   
 14   9  27  1   
 15   9  28  1   
 16  10  11  1   
 17  10  29  1   
 18  10  30  1   
 19  11  12  1   
 20  11  31  1   
 21  11  32  1   
 22  12  13  1   
 23  12  14  1   
 24  12  33  1   
 25  13  15  2   
 26  13  16  am  
 27  14  17  ar  
 28  14  18  ar  
 29  16  17  1   
 30  16  34  1   
 31  17  19  ar  
 32  18  20  ar  
 33  18  35  1   
 34  19  21  ar  
 35  19  36  1   
 36  20  21  ar  
 37  20  22  1   
 38  21  37  1   
 39  22  23  1   
 40  23  38  1   
 41  23  39  1   
 42  23  40  1   
@<TRIPOS>SUBSTRUCTURE
  1 ****  11 GROUP 4 **** **** 0

# MOE 2024.06 (io_trps.svl 2023.06)
