@<TRIPOS>MOLECULE
NONAME
54 57 1 0 0 
SMALL
USER_CHARGES


@<TRIPOS>ATOM
  1 O       -0.0400     1.0620    -0.6850 O.2   1 <1>  -0.5700 
  2 C        0.0030     2.2640    -0.6250 C.2   1 <1>   0.5690 
  3 N       -0.7450     2.9370     0.2780 N.am  1 <1>  -0.7300 
  4 C        0.8860     3.0530    -1.5950 C.3   1 <1>   0.1810 
  5 C       -0.7750     4.4160     0.3840 C.3   1 <1>   0.3640 
  6 O        1.1470     4.3630    -1.1460 O.3   1 <1>  -0.5600 
  7 C       -2.2280     4.8750     0.4460 C.ar  1 <1>  -0.1440 
  8 C       -0.0070     5.1020    -0.7730 C.3   1 <1>   0.2610 
  9 C       -2.6100     5.8280     1.3800 C.ar  1 <1>  -0.1500 
 10 C       -3.1850     4.3620    -0.4210 C.ar  1 <1>  -0.1500 
 11 C        0.3090     6.5570    -0.3860 C.2   1 <1>   0.5690 
 12 C       -3.9240     6.2580     1.4500 C.ar  1 <1>  -0.1500 
 13 C       -4.4990     4.7910    -0.3520 C.ar  1 <1>  -0.1500 
 14 O       -0.3980     7.4030    -0.8850 O.2   1 <1>  -0.5700 
 15 N        1.2960     6.9130     0.5140 N.am  1 <1>  -0.6600 
 16 C       -4.8690     5.7390     0.5840 C.ar  1 <1>  -0.1500 
 17 C        1.3700     8.3190     1.0190 C.3   1 <1>   0.2840 
 18 C        2.3330     5.9770     1.0510 C.3   1 <1>   0.1400 
 19 C        2.5160     9.0960     0.3890 C.ar  1 <1>  -0.1430 
 20 C        3.5430     5.8420     0.1110 C.3   1 <1>   0.0000 
 21 C        2.6010     9.2230    -0.9890 C.ar  1 <1>  -0.1500 
 22 C        3.4770     9.7030     1.1860 C.ar  1 <1>  -0.1500 
 23 C        4.4160     4.5990     0.4310 C.3   1 <1>   0.0000 
 24 C        4.7910     6.7010     0.4510 C.3   1 <1>   0.0000 
 25 C        3.6360     9.9380    -1.5660 C.ar  1 <1>  -0.1500 
 26 C        4.5130    10.4200     0.6100 C.ar  1 <1>  -0.1500 
 27 C        5.6500     5.4660     0.0810 C.3   1 <1>   0.0000 
 28 C        4.5930    10.5370    -0.7660 C.ar  1 <1>  -0.1500 
 29 H       -1.3750     2.4110     0.8860 H     1 <1>   0.3700 
 30 H        0.4060     3.1120    -2.5550 H     1 <1>   0.0800 
 31 H        1.8300     2.5520    -1.7080 H     1 <1>   0.0800 
 32 H       -0.3000     4.6810     1.3110 H     1 <1>   0.0800 
 33 H       -0.6470     5.1360    -1.6370 H     1 <1>   0.0800 
 34 H       -1.8890     6.2490     2.0590 H     1 <1>   0.1500 
 35 H       -2.9170     3.6240    -1.1580 H     1 <1>   0.1500 
 36 H       -4.2110     6.9980     2.1760 H     1 <1>   0.1500 
 37 H       -5.2340     4.3870    -1.0270 H     1 <1>   0.1500 
 38 H       -5.8910     6.0730     0.6380 H     1 <1>   0.1500 
 39 H        0.4510     8.8400     0.8110 H     1 <1>   0.0800 
 40 H        1.4840     8.3010     2.0880 H     1 <1>   0.0800 
 41 H        2.6600     6.3070     2.0210 H     1 <1>   0.0800 
 42 H        1.8980     5.0030     1.1810 H     1 <1>   0.0800 
 43 H        3.2920     5.8770    -0.9360 H     1 <1>   0.0000 
 44 H        1.8570     8.7610    -1.6160 H     1 <1>   0.1500 
 45 H        3.4280     9.6230     2.2570 H     1 <1>   0.1500 
 46 H        4.3930     4.3180     1.4710 H     1 <1>   0.0000 
 47 H        4.2590     3.7730    -0.2400 H     1 <1>   0.0000 
 48 H        4.9470     7.5320    -0.2120 H     1 <1>   0.0000 
 49 H        4.8670     6.9580     1.4940 H     1 <1>   0.0000 
 50 H        3.6930    10.0280    -2.6370 H     1 <1>   0.1500 
 51 H        5.2560    10.8860     1.2320 H     1 <1>   0.1500 
 52 H        5.8990     5.4310    -0.9660 H     1 <1>   0.0000 
 53 H        6.4920     5.3100     0.7320 H     1 <1>   0.0000 
 54 H        5.3970    11.0920    -1.2150 H     1 <1>   0.1500 
@<TRIPOS>BOND
  1   1   2  2   
  2   2   3  am  
  3   2   4  1   
  4   3   5  1   
  5   3  29  1   
  6   4   6  1   
  7   4  30  1   
  8   4  31  1   
  9   5   7  1   
 10   5   8  1   
 11   5  32  1   
 12   6   8  1   
 13   7   9  ar  
 14   7  10  ar  
 15   8  11  1   
 16   8  33  1   
 17   9  12  ar  
 18   9  34  1   
 19  10  13  ar  
 20  10  35  1   
 21  11  14  2   
 22  11  15  am  
 23  12  16  ar  
 24  12  36  1   
 25  13  16  ar  
 26  13  37  1   
 27  15  17  1   
 28  15  18  1   
 29  16  38  1   
 30  17  19  1   
 31  17  39  1   
 32  17  40  1   
 33  18  20  1   
 34  18  41  1   
 35  18  42  1   
 36  19  21  ar  
 37  19  22  ar  
 38  20  23  1   
 39  20  24  1   
 40  20  43  1   
 41  21  25  ar  
 42  21  44  1   
 43  22  26  ar  
 44  22  45  1   
 45  23  27  1   
 46  23  46  1   
 47  23  47  1   
 48  24  27  1   
 49  24  48  1   
 50  24  49  1   
 51  25  28  ar  
 52  25  50  1   
 53  26  28  ar  
 54  26  51  1   
 55  27  52  1   
 56  27  53  1   
 57  28  54  1   
@<TRIPOS>SUBSTRUCTURE
  1 ****  11 GROUP 4 **** **** 0

# MOE 2024.06 (io_trps.svl 2023.06)
