@<TRIPOS>MOLECULE
NONAME
46 49 1 0 0 
SMALL
USER_CHARGES


@<TRIPOS>ATOM
  1 S        3.0030    -0.7280    -0.9720 S.3   1 <1>  -0.0800 
  2 C        1.6420    -1.5870    -0.2880 C.2   1 <1>   0.1980 
  3 C        2.8440     0.4590     0.2890 C.2   1 <1>  -0.1100 
  4 N        1.1400    -1.0450     0.7520 N.2   1 <1>  -0.5650 
  5 C        1.2000    -2.8670    -0.9810 C.3   1 <1>   0.5230 
  6 C        1.8190     0.1170     1.0840 C.2   1 <1>   0.0460 
  7 N       -0.1020    -3.3210    -0.3970 N.4   1 <1>  -0.9590 
  8 C        1.3400     0.8770     2.3020 C.3   1 <1>  -0.0590 
  9 C       -1.2680    -2.4910    -0.8180 C.3   1 <1>   0.3430 
 10 C       -0.4790    -4.7280    -0.6630 C.3   1 <1>   0.3430 
 11 C       -2.5040    -3.3740    -0.5920 C.3   1 <1>   0.2000 
 12 C       -1.9760    -4.7960    -0.3550 C.3   1 <1>  -0.0800 
 13 O       -3.2070    -2.9560     0.5280 O.3   1 <1>  -0.6800 
 14 C       -2.7120    -5.8640    -1.1860 C.3   1 <1>  -0.0160 
 15 C       -1.9440    -7.1820    -1.1670 C.ar  1 <1>  -0.1440 
 16 C       -1.8700    -8.0000    -0.0140 C.ar  1 <1>   0.0000 
 17 C       -1.2740    -7.5980    -2.2810 C.ar  1 <1>  -0.1500 
 18 C       -1.0400    -9.1460    -0.0750 C.ar  1 <1>   0.3100 
 19 C       -2.5710    -7.7560     1.1900 C.ar  1 <1>  -0.1500 
 20 C       -0.5050    -8.7680    -2.2450 C.ar  1 <1>   0.1600 
 21 N       -0.3630    -9.5070    -1.1930 N.ar  1 <1>  -0.6200 
 22 C       -0.9070    -9.9530     1.0660 C.ar  1 <1>  -0.1500 
 23 C       -2.4240    -8.5660     2.2830 C.ar  1 <1>  -0.1500 
 24 C       -1.5770    -9.6750     2.2250 C.ar  1 <1>  -0.1500 
 25 H        3.5350     1.2840     0.3000 H     1 <1>   0.1500 
 26 H        1.9570    -3.6180    -0.8240 H     1 <1>   0.0800 
 27 H        1.0990    -2.6940    -2.0390 H     1 <1>   0.0800 
 28 H        0.0040    -3.1660     0.6200 H     1 <1>   0.4500 
 29 H        1.9410     1.7540     2.4580 H     1 <1>   0.0800 
 30 H        1.4070     0.2510     3.1730 H     1 <1>   0.0800 
 31 H        0.3170     1.1780     2.1660 H     1 <1>   0.0800 
 32 H       -1.3310    -1.5720    -0.2560 H     1 <1>   0.0800 
 33 H       -1.1900    -2.2620    -1.8680 H     1 <1>   0.0800 
 34 H       -0.3150    -4.9630    -1.7030 H     1 <1>   0.0800 
 35 H        0.0800    -5.4200    -0.0510 H     1 <1>   0.0800 
 36 H       -3.1700    -3.3070    -1.4360 H     1 <1>   0.0800 
 37 H       -2.0630    -5.0470     0.6870 H     1 <1>   0.0800 
 38 H       -2.7030    -3.0550     1.3600 H     1 <1>   0.4000 
 39 H       -2.8110    -5.5290    -2.2040 H     1 <1>   0.0800 
 40 H       -3.7100    -6.0100    -0.8070 H     1 <1>   0.0800 
 41 H       -1.3070    -7.0530    -3.2070 H     1 <1>   0.1500 
 42 H       -3.2480    -6.9260     1.2550 H     1 <1>   0.1500 
 43 H        0.0070    -9.0680    -3.1450 H     1 <1>   0.1500 
 44 H       -0.2590   -10.8080     0.9950 H     1 <1>   0.1500 
 45 H       -2.9610    -8.3690     3.1960 H     1 <1>   0.1500 
 46 H       -1.4670   -10.3040     3.0930 H     1 <1>   0.1500 
@<TRIPOS>BOND
  1   1   2  1   
  2   1   3  1   
  3   2   4  2   
  4   2   5  1   
  5   3   6  2   
  6   3  25  1   
  7   4   6  1   
  8   5   7  1   
  9   5  26  1   
 10   5  27  1   
 11   6   8  1   
 12   7   9  1   
 13   7  10  1   
 14   7  28  1   
 15   8  29  1   
 16   8  30  1   
 17   8  31  1   
 18   9  11  1   
 19   9  32  1   
 20   9  33  1   
 21  10  12  1   
 22  10  34  1   
 23  10  35  1   
 24  11  12  1   
 25  11  13  1   
 26  11  36  1   
 27  12  14  1   
 28  12  37  1   
 29  13  38  1   
 30  14  15  1   
 31  14  39  1   
 32  14  40  1   
 33  15  16  ar  
 34  15  17  ar  
 35  16  18  ar  
 36  16  19  ar  
 37  17  20  ar  
 38  17  41  1   
 39  18  21  ar  
 40  18  22  ar  
 41  19  23  ar  
 42  19  42  1   
 43  20  21  ar  
 44  20  43  1   
 45  22  24  ar  
 46  22  44  1   
 47  23  24  ar  
 48  23  45  1   
 49  24  46  1   
@<TRIPOS>SUBSTRUCTURE
  1 ****  10 GROUP 4 **** **** 0

# MOE 2024.06 (io_trps.svl 2023.06)
