@<TRIPOS>MOLECULE
NONAME
40 42 1 0 0 
SMALL
USER_CHARGES


@<TRIPOS>ATOM
  1 S        0.1720    -0.6740     0.1960 S.3   1 <1>  -0.4600 
  2 C       -1.2390     0.4760     0.1260 C.3   1 <1>   0.2510 
  3 C       -0.7430    -2.2440     0.1690 C.3   1 <1>   0.2510 
  4 C       -2.4340    -0.4480     0.1030 C.2   1 <1>   0.1080 
  5 C       -2.1870    -1.8050     0.1260 C.2   1 <1>  -0.1810 
  6 N       -3.6950    -0.1620     0.0650 N.2   1 <1>  -0.7070 
  7 C       -3.4050    -2.3960     0.0940 C.2   1 <1>  -0.0880 
  8 N       -4.3110    -1.3710     0.0550 N.pl3 1 <1>   0.3140 
  9 N       -3.6590    -3.7890     0.1200 N.am  1 <1>  -0.4940 
 10 C       -5.7790    -1.4340     0.0980 C.3   1 <1>   0.0160 
 11 C       -4.6280    -4.5610    -0.4680 C.2   1 <1>   0.7160 
 12 O       -5.5120    -4.0470    -1.1280 O.2   1 <1>  -0.5700 
 13 C       -4.5620    -5.9920    -0.2630 C.2   1 <1>  -0.0860 
 14 C       -3.4760    -6.8310    -0.3750 C.2   1 <1>  -0.3320 
 15 C       -5.6300    -6.8230     0.1190 C.2   1 <1>  -0.1810 
 16 N       -3.8440    -8.0890    -0.0730 N.pl3 1 <1>   0.0330 
 17 C       -2.0520    -6.5050    -0.8010 C.3   1 <1>  -0.0600 
 18 C       -5.1780    -8.1160     0.2370 C.2   1 <1>  -0.2370 
 19 C       -7.0420    -6.3000     0.3450 C.3   1 <1>  -0.0590 
 20 C       -5.8600    -9.3340     0.5930 C.2   1 <1>   0.5940 
 21 O       -7.0160    -9.3950     0.9230 O.2   1 <1>  -0.5700 
 22 C       -5.0970   -10.6420     0.5640 C.3   1 <1>  -0.1790 
 23 H       -1.1630     1.0580    -0.7740 H     1 <1>   0.0800 
 24 H       -1.2240     1.0940     1.0040 H     1 <1>   0.0800 
 25 H       -0.5030    -2.7850     1.0670 H     1 <1>   0.0800 
 26 H       -0.4530    -2.7840    -0.7140 H     1 <1>   0.0800 
 27 H       -2.9700    -4.3570     0.6090 H     1 <1>   0.3700 
 28 H       -6.1600    -0.5140     0.5010 H     1 <1>   0.0800 
 29 H       -6.0840    -2.2540     0.7190 H     1 <1>   0.0800 
 30 H       -6.1510    -1.5700    -0.8990 H     1 <1>   0.0800 
 31 H       -3.2290    -8.9100    -0.0890 H     1 <1>   0.2700 
 32 H       -1.9890    -5.5120    -1.2100 H     1 <1>   0.0800 
 33 H       -1.7300    -7.1930    -1.5630 H     1 <1>   0.0800 
 34 H       -1.3840    -6.5810     0.0380 H     1 <1>   0.0800 
 35 H       -7.0190    -5.4480     0.9990 H     1 <1>   0.0800 
 36 H       -7.6790    -7.0420     0.7870 H     1 <1>   0.0800 
 37 H       -7.4700    -6.0020    -0.5950 H     1 <1>   0.0800 
 38 H       -4.3030   -10.6180     1.2860 H     1 <1>   0.0800 
 39 H       -4.6990   -10.8120    -0.4180 H     1 <1>   0.0800 
 40 H       -5.7590   -11.4520     0.8100 H     1 <1>   0.0800 
@<TRIPOS>BOND
  1   1   2  1   
  2   1   3  1   
  3   2   4  1   
  4   2  23  1   
  5   2  24  1   
  6   3   5  1   
  7   3  25  1   
  8   3  26  1   
  9   4   5  1   
 10   4   6  2   
 11   5   7  2   
 12   6   8  1   
 13   7   8  1   
 14   7   9  1   
 15   8  10  1   
 16   9  11  am  
 17   9  27  1   
 18  10  28  1   
 19  10  29  1   
 20  10  30  1   
 21  11  12  2   
 22  11  13  1   
 23  13  14  2   
 24  13  15  1   
 25  14  16  1   
 26  14  17  1   
 27  15  18  2   
 28  15  19  1   
 29  16  18  1   
 30  16  31  1   
 31  17  32  1   
 32  17  33  1   
 33  17  34  1   
 34  18  20  1   
 35  19  35  1   
 36  19  36  1   
 37  19  37  1   
 38  20  21  2   
 39  20  22  1   
 40  22  38  1   
 41  22  39  1   
 42  22  40  1   
@<TRIPOS>SUBSTRUCTURE
  1 ****  11 GROUP 4 **** **** 0

# MOE 2024.06 (io_trps.svl 2023.06)
