@<TRIPOS>MOLECULE
NONAME
44 47 1 0 0 
SMALL
USER_CHARGES


@<TRIPOS>ATOM
  1 S       -0.8610    -0.6010    -1.7120 S.3   1 <1>  -0.2420 
  2 C       -1.7510    -1.2110    -0.3170 C.2   1 <1>   0.6510 
  3 C       -0.4780     0.9150    -0.8730 C.2   1 <1>  -0.0490 
  4 N       -2.3280    -2.3720    -0.3020 N.2   1 <1>  -0.6210 
  5 N       -1.7270    -0.2770     0.6820 N.am  1 <1>  -0.2290 
  6 C       -1.0120     0.8980     0.3550 C.2   1 <1>  -0.0410 
  7 C       -2.9940    -2.6930     0.8550 C.2   1 <1>   0.0330 
  8 C       -2.3880    -0.5750     1.8470 C.2   1 <1>   0.6160 
  9 C       -3.0390    -1.8340     1.9090 C.2   1 <1>  -0.1360 
 10 C       -3.6830    -4.0610     0.8860 C.3   1 <1>   0.4810 
 11 O       -2.4110     0.2130     2.7770 O.2   1 <1>  -0.5700 
 12 N       -3.9930    -4.4790    -0.5160 N.4   1 <1>  -0.9590 
 13 C       -5.3590    -4.1890    -1.0360 C.3   1 <1>   0.4230 
 14 C       -3.5800    -5.8900    -0.7760 C.3   1 <1>   0.2630 
 15 C       -6.4810    -4.9090    -0.2930 C.3   1 <1>  -0.1600 
 16 C       -5.7530    -2.7180    -0.9680 C.3   1 <1>  -0.1600 
 17 C       -7.7490    -4.1500    -0.7110 C.3   1 <1>  -0.0800 
 18 C       -7.2800    -2.7310    -1.1230 C.3   1 <1>  -0.0800 
 19 C       -8.8740    -4.2060     0.3450 C.3   1 <1>   0.1400 
 20 C       -7.9770    -1.5820    -0.3660 C.3   1 <1>  -0.0990 
 21 N       -9.8290    -3.1090     0.1040 N.am  1 <1>  -0.7300 
 22 C       -9.4580    -1.8570    -0.2340 C.2   1 <1>   0.5690 
 23 O      -10.2650    -0.9850    -0.4190 O.2   1 <1>  -0.5700 
 24 H        0.1080     1.6420    -1.4100 H     1 <1>   0.1500 
 25 H       -0.9480     1.6780     1.0980 H     1 <1>   0.1500 
 26 H       -3.5510    -2.0490     2.8290 H     1 <1>   0.1500 
 27 H       -4.5750    -4.0220     1.4880 H     1 <1>   0.0800 
 28 H       -3.0020    -4.7680     1.3300 H     1 <1>   0.0800 
 29 H       -3.3500    -3.8620    -1.0520 H     1 <1>   0.4500 
 30 H       -5.4080    -4.4860    -2.0720 H     1 <1>   0.0800 
 31 H       -4.1840    -6.5710    -0.2000 H     1 <1>   0.0800 
 32 H       -2.5450    -6.0320    -0.5100 H     1 <1>   0.0800 
 33 H       -3.6970    -6.1250    -1.8220 H     1 <1>   0.0800 
 34 H       -6.5460    -5.9460    -0.5710 H     1 <1>   0.0800 
 35 H       -6.3480    -4.8250     0.7700 H     1 <1>   0.0800 
 36 H       -5.5050    -2.2940    -0.0140 H     1 <1>   0.0800 
 37 H       -5.2870    -2.1440    -1.7500 H     1 <1>   0.0800 
 38 H       -8.1370    -4.6230    -1.5990 H     1 <1>   0.0800 
 39 H       -7.5170    -2.6120    -2.1690 H     1 <1>   0.0800 
 40 H       -8.4710    -4.0890     1.3370 H     1 <1>   0.0800 
 41 H       -9.3860    -5.1520     0.2930 H     1 <1>   0.0800 
 42 H       -7.8320    -0.6520    -0.8850 H     1 <1>   0.0800 
 43 H       -7.5820    -1.4790     0.6270 H     1 <1>   0.0800 
 44 H      -10.8300    -3.2840     0.2270 H     1 <1>   0.3700 
@<TRIPOS>BOND
  1   1   2  1   
  2   1   3  1   
  3   2   4  2   
  4   2   5  1   
  5   3   6  2   
  6   3  24  1   
  7   4   7  1   
  8   5   6  1   
  9   5   8  am  
 10   6  25  1   
 11   7   9  2   
 12   7  10  1   
 13   8   9  1   
 14   8  11  2   
 15   9  26  1   
 16  10  12  1   
 17  10  27  1   
 18  10  28  1   
 19  12  13  1   
 20  12  14  1   
 21  12  29  1   
 22  13  15  1   
 23  13  16  1   
 24  13  30  1   
 25  14  31  1   
 26  14  32  1   
 27  14  33  1   
 28  15  17  1   
 29  15  34  1   
 30  15  35  1   
 31  16  18  1   
 32  16  36  1   
 33  16  37  1   
 34  17  18  1   
 35  17  19  1   
 36  17  38  1   
 37  18  20  1   
 38  18  39  1   
 39  19  21  1   
 40  19  40  1   
 41  19  41  1   
 42  20  22  1   
 43  20  42  1   
 44  20  43  1   
 45  21  22  am  
 46  21  44  1   
 47  22  23  2   
@<TRIPOS>SUBSTRUCTURE
  1 ****  16 GROUP 4 **** **** 0

# MOE 2024.06 (io_trps.svl 2023.06)
