@<TRIPOS>MOLECULE
NONAME
54 57 1 0 0 
SMALL
USER_CHARGES


@<TRIPOS>ATOM
  1 O       -0.7090    -3.1100    -0.0080 O.2   1 <1>  -0.5700 
  2 C       -1.8450    -2.8080    -0.3080 C.2   1 <1>   0.6900 
  3 N       -2.4620    -1.7170     0.2250 N.am  1 <1>  -0.6600 
  4 N       -2.4770    -3.5540    -1.2150 N.am  1 <1>  -0.8000 
  5 C       -3.9350    -1.5980     0.4600 C.3   1 <1>   0.2810 
  6 C       -1.7190    -0.6820     0.9740 C.3   1 <1>   0.1400 
  7 C       -4.8770    -1.8340    -0.7470 C.2   1 <1>   0.5690 
  8 C       -4.0870    -0.2000     1.0610 C.3   1 <1>  -0.1600 
  9 C       -2.7740     0.0460     1.8020 C.3   1 <1>  -0.1600 
 10 O       -4.4740    -1.5720    -1.8620 O.2   1 <1>  -0.5700 
 11 N       -6.1300    -2.3750    -0.5660 N.am  1 <1>  -0.6600 
 12 C       -6.8760    -2.9800    -1.7000 C.3   1 <1>   0.1400 
 13 C       -6.7610    -2.6850     0.7450 C.3   1 <1>   0.1400 
 14 C       -6.8040    -4.5030    -1.5560 C.3   1 <1>  -0.1600 
 15 C       -6.6890    -4.1960     0.9700 C.3   1 <1>  -0.1600 
 16 C       -7.3370    -4.9830    -0.1870 C.3   1 <1>   0.4240 
 17 O       -8.6920    -4.5950    -0.1270 O.3   1 <1>  -0.5600 
 18 C       -7.1660    -6.5160     0.0130 C.ar  1 <1>  -0.1430 
 19 C       -9.6360    -5.4340    -0.7090 C.3   1 <1>   0.1200 
 20 C       -5.9030    -7.1230     0.0600 C.ar  1 <1>   0.0820 
 21 C       -8.2900    -7.3280     0.1550 C.ar  1 <1>  -0.1430 
 22 C       -9.6790    -6.7280     0.0910 C.3   1 <1>  -0.0170 
 23 O       -4.7940    -6.3510    -0.0920 O.3   1 <1>  -0.3620 
 24 C       -5.7910    -8.4980     0.2550 C.ar  1 <1>  -0.1500 
 25 C       -8.1660    -8.6930     0.3540 C.ar  1 <1>  -0.1500 
 26 C       -3.4980    -6.8060     0.2280 C.3   1 <1>   0.0400 
 27 C       -6.9180    -9.2790     0.4050 C.ar  1 <1>  -0.1500 
 28 H       -1.9060    -4.2070    -1.7430 H     1 <1>   0.3700 
 29 H       -3.2150    -3.0870    -1.7550 H     1 <1>   0.3700 
 30 H       -4.1690    -2.3250     1.2150 H     1 <1>   0.0800 
 31 H       -0.9600    -1.1250     1.5980 H     1 <1>   0.0800 
 32 H       -1.2590    -0.0100     0.2700 H     1 <1>   0.0800 
 33 H       -4.1920     0.5140     0.2610 H     1 <1>   0.0800 
 34 H       -4.9430    -0.1290     1.7070 H     1 <1>   0.0800 
 35 H       -2.8150    -0.3980     2.7820 H     1 <1>   0.0800 
 36 H       -2.5480     1.0930     1.9010 H     1 <1>   0.0800 
 37 H       -7.9000    -2.6490    -1.6740 H     1 <1>   0.0800 
 38 H       -6.4520    -2.6810    -2.6440 H     1 <1>   0.0800 
 39 H       -6.2790    -2.1630     1.5500 H     1 <1>   0.0800 
 40 H       -7.7910    -2.3670     0.7230 H     1 <1>   0.0800 
 41 H       -5.7770    -4.7880    -1.6750 H     1 <1>   0.0800 
 42 H       -7.3460    -4.9750    -2.3510 H     1 <1>   0.0800 
 43 H       -7.1870    -4.4550     1.8860 H     1 <1>   0.0800 
 44 H       -5.6580    -4.4590     1.0870 H     1 <1>   0.0800 
 45 H      -10.5890    -4.9360    -0.6730 H     1 <1>   0.0800 
 46 H       -9.3700    -5.6190    -1.7340 H     1 <1>   0.0800 
 47 H      -10.0350    -6.5250     1.0850 H     1 <1>   0.0800 
 48 H      -10.3610    -7.4120    -0.3820 H     1 <1>   0.0800 
 49 H       -4.8340    -8.9800     0.2890 H     1 <1>   0.1500 
 50 H       -9.0430    -9.3070     0.4690 H     1 <1>   0.1500 
 51 H       -2.8250    -5.9700     0.1630 H     1 <1>   0.0800 
 52 H       -3.2080    -7.5630    -0.4790 H     1 <1>   0.0800 
 53 H       -3.5000    -7.1930     1.2320 H     1 <1>   0.0800 
 54 H       -6.8270   -10.3410     0.5580 H     1 <1>   0.1500 
@<TRIPOS>BOND
  1   1   2  2   
  2   2   3  am  
  3   2   4  am  
  4   3   5  1   
  5   3   6  1   
  6   4  28  1   
  7   4  29  1   
  8   5   7  1   
  9   5   8  1   
 10   5  30  1   
 11   6   9  1   
 12   6  31  1   
 13   6  32  1   
 14   7  10  2   
 15   7  11  am  
 16   8   9  1   
 17   8  33  1   
 18   8  34  1   
 19   9  35  1   
 20   9  36  1   
 21  11  12  1   
 22  11  13  1   
 23  12  14  1   
 24  12  37  1   
 25  12  38  1   
 26  13  15  1   
 27  13  39  1   
 28  13  40  1   
 29  14  16  1   
 30  14  41  1   
 31  14  42  1   
 32  15  16  1   
 33  15  43  1   
 34  15  44  1   
 35  16  17  1   
 36  16  18  1   
 37  17  19  1   
 38  18  20  ar  
 39  18  21  ar  
 40  19  22  1   
 41  19  45  1   
 42  19  46  1   
 43  20  23  1   
 44  20  24  ar  
 45  21  22  1   
 46  21  25  ar  
 47  22  47  1   
 48  22  48  1   
 49  23  26  1   
 50  24  27  ar  
 51  24  49  1   
 52  25  27  ar  
 53  25  50  1   
 54  26  51  1   
 55  26  52  1   
 56  26  53  1   
 57  27  54  1   
@<TRIPOS>SUBSTRUCTURE
  1 ****  15 GROUP 4 **** **** 0

# MOE 2024.06 (io_trps.svl 2023.06)
