@<TRIPOS>MOLECULE
NONAME
39 40 1 0 0 
SMALL
USER_CHARGES


@<TRIPOS>ATOM
  1 S       -0.1870    -0.1610    -0.9390 S.o2  1 <1>   1.3330 
  2 O       -0.9680    -1.3040    -0.5260 O.2   1 <1>  -0.6500 
  3 O        0.1320     0.0230    -2.3370 O.2   1 <1>  -0.6500 
  4 N        1.2750    -0.2070    -0.0730 N.am  1 <1>  -0.8490 
  5 C       -0.9810     1.3390    -0.3570 C.3   1 <1>  -0.0550 
  6 C        2.3170    -0.9500    -0.7890 C.3   1 <1>   0.1160 
  7 C        1.1290    -0.7440     1.2850 C.3   1 <1>   0.1160 
  8 C       -0.2760     2.6420    -0.7970 C.3   1 <1>  -0.0800 
  9 C       -1.0300     3.9210    -0.4210 C.3   1 <1>   0.2000 
 10 C        1.1280     2.8410    -0.2070 C.3   1 <1>   0.2090 
 11 O       -1.4510     3.8220     0.8980 O.3   1 <1>  -0.6800 
 12 C        0.0460     5.0040    -0.4940 C.3   1 <1>   0.2090 
 13 N        1.2750     4.3070    -0.0510 N.pl3 1 <1>  -0.8220 
 14 C        2.4750     4.9640     0.0660 C.2   1 <1>   0.4620 
 15 S        3.9330     4.0420     0.4160 S.3   1 <1>  -0.0800 
 16 N        2.6780     6.2260    -0.0470 N.2   1 <1>  -0.5650 
 17 C        4.8490     5.5220     0.3900 C.2   1 <1>  -0.1100 
 18 C        4.0140     6.5430     0.1350 C.2   1 <1>   0.0460 
 19 C        4.3900     8.0140     0.0240 C.3   1 <1>   0.3010 
 20 O        5.6440     8.2390     0.5790 O.3   1 <1>  -0.6800 
 21 H       -1.9820     1.3600    -0.7430 H     1 <1>   0.0800 
 22 H       -1.0560     1.3090     0.7120 H     1 <1>   0.0800 
 23 H        3.2330    -0.9500    -0.2230 H     1 <1>   0.0800 
 24 H        2.5130    -0.4870    -1.7420 H     1 <1>   0.0800 
 25 H        2.0030    -1.9670    -0.9570 H     1 <1>   0.0800 
 26 H        2.0630    -0.6690     1.8150 H     1 <1>   0.0800 
 27 H        0.8290    -1.7790     1.2510 H     1 <1>   0.0800 
 28 H        0.3850    -0.1870     1.8280 H     1 <1>   0.0800 
 29 H       -0.1730     2.6300    -1.8680 H     1 <1>   0.0800 
 30 H       -1.8830     4.1220    -1.0450 H     1 <1>   0.0800 
 31 H        1.8840     2.4400    -0.8630 H     1 <1>   0.0800 
 32 H        1.2100     2.3780     0.7620 H     1 <1>   0.0800 
 33 H       -0.6640     3.9490     1.4700 H     1 <1>   0.4000 
 34 H       -0.1820     5.8490     0.1340 H     1 <1>   0.0800 
 35 H        0.1770     5.3360    -1.5100 H     1 <1>   0.0800 
 36 H        5.9090     5.4680     0.5630 H     1 <1>   0.1500 
 37 H        3.6770     8.6180     0.5560 H     1 <1>   0.0800 
 38 H        4.4130     8.3170    -1.0080 H     1 <1>   0.0800 
 39 H        5.6380     7.9430     1.5090 H     1 <1>   0.4000 
@<TRIPOS>BOND
  1   1   2  2   
  2   1   3  2   
  3   1   4  am  
  4   1   5  1   
  5   4   6  1   
  6   4   7  1   
  7   5   8  1   
  8   5  21  1   
  9   5  22  1   
 10   6  23  1   
 11   6  24  1   
 12   6  25  1   
 13   7  26  1   
 14   7  27  1   
 15   7  28  1   
 16   8   9  1   
 17   8  10  1   
 18   8  29  1   
 19   9  11  1   
 20   9  12  1   
 21   9  30  1   
 22  10  13  1   
 23  10  31  1   
 24  10  32  1   
 25  11  33  1   
 26  12  13  1   
 27  12  34  1   
 28  12  35  1   
 29  13  14  1   
 30  14  15  1   
 31  14  16  2   
 32  15  17  1   
 33  16  18  1   
 34  17  18  2   
 35  17  36  1   
 36  18  19  1   
 37  19  20  1   
 38  19  37  1   
 39  19  38  1   
 40  20  39  1   
@<TRIPOS>SUBSTRUCTURE
  1 ****  10 GROUP 4 **** **** 0

# MOE 2024.06 (io_trps.svl 2023.06)
