@<TRIPOS>MOLECULE
NONAME
45 47 1 0 0 
SMALL
USER_CHARGES


@<TRIPOS>ATOM
  1 O       -1.9590     1.2330     0.5680 O.co2 1 <1>  -0.9000 
  2 C       -0.9440     1.4250    -0.1170 C.2   1 <1>   0.9060 
  3 O       -0.1260     0.5140    -0.3200 O.co2 1 <1>  -0.9000 
  4 C       -0.7280     2.8020    -0.7780 C.3   1 <1>   0.1030 
  5 N        0.3990     3.7030    -0.2670 N.pl3 1 <1>  -0.8380 
  6 C        0.2220     5.0540    -0.0750 C.ar  1 <1>   0.7200 
  7 C        1.5760     2.9580     0.2620 C.3   1 <1>   0.1290 
  8 N        1.0470     5.6680     0.7760 N.ar  1 <1>  -0.6200 
  9 N       -0.7540     5.6430    -0.7700 N.ar  1 <1>  -0.6200 
 10 C        0.8560     6.9500     0.9470 C.ar  1 <1>   0.1600 
 11 C       -0.9170     6.9260    -0.5770 C.ar  1 <1>   0.1600 
 12 C       -0.1250     7.6470     0.2840 C.ar  1 <1>  -0.1440 
 13 C       -0.3070     9.1320     0.4920 C.3   1 <1>   0.2540 
 14 N        0.9420     9.7870     0.1090 N.3   1 <1>  -0.9000 
 15 C        0.8550    11.2490     0.1180 C.3   1 <1>   0.2780 
 16 C        2.2520    11.8560     0.0200 C.2   1 <1>   0.1820 
 17 N        2.5000    13.1910    -0.1900 N.pl3 1 <1>  -0.7000 
 18 C        3.4450    11.2350     0.1240 C.2   1 <1>   0.2000 
 19 C        3.8320    13.3720    -0.2140 C.cat 1 <1>   0.7910 
 20 N        4.4410    12.1790    -0.0240 N.pl3 1 <1>  -0.6290 
 21 C        4.5910    14.5400    -0.3950 C.2   1 <1>  -0.1410 
 22 C        5.8150    12.0920    -0.0030 C.2   1 <1>   0.2290 
 23 C        5.9590    14.4740    -0.3780 C.2   1 <1>  -0.1380 
 24 C        6.5690    13.2170    -0.1770 C.2   1 <1>  -0.1500 
 25 C        6.8350    15.7010    -0.5680 C.3   1 <1>  -0.1020 
 26 H       -1.6640     3.3190    -0.6930 H     1 <1>   0.0800 
 27 H       -0.5570     2.6170    -1.8200 H     1 <1>   0.0800 
 28 H        1.8480     2.1740    -0.4240 H     1 <1>   0.0800 
 29 H        1.3240     2.5140     1.2100 H     1 <1>   0.0800 
 30 H        2.4220     3.6090     0.3880 H     1 <1>   0.0800 
 31 H        1.5070     7.4630     1.6340 H     1 <1>   0.1500 
 32 H       -1.7070     7.4070    -1.1270 H     1 <1>   0.1500 
 33 H       -0.5270     9.3290     1.5290 H     1 <1>   0.0800 
 34 H       -1.1220     9.4930    -0.1140 H     1 <1>   0.0800 
 35 H        1.1700     9.4590    -0.8420 H     1 <1>   0.3600 
 36 H        0.3980    11.5810     1.0350 H     1 <1>   0.0800 
 37 H        0.2510    11.5800    -0.7100 H     1 <1>   0.0800 
 38 H        1.8170    13.9420    -0.3070 H     1 <1>   0.4500 
 39 H        3.6450    10.1890     0.2940 H     1 <1>   0.1500 
 40 H        4.0720    15.4680    -0.5430 H     1 <1>   0.1500 
 41 H        6.2630    11.1230     0.1520 H     1 <1>   0.1500 
 42 H        7.6440    13.1600    -0.1630 H     1 <1>   0.1500 
 43 H        7.4670    15.5750    -1.4300 H     1 <1>   0.0800 
 44 H        7.4580    15.8480     0.2970 H     1 <1>   0.0800 
 45 H        6.2390    16.5850    -0.7100 H     1 <1>   0.0800 
@<TRIPOS>BOND
  1   1   2  ar  
  2   2   3  ar  
  3   2   4  1   
  4   4   5  1   
  5   4  26  1   
  6   4  27  1   
  7   5   6  1   
  8   5   7  1   
  9   6   8  ar  
 10   6   9  ar  
 11   7  28  1   
 12   7  29  1   
 13   7  30  1   
 14   8  10  ar  
 15   9  11  ar  
 16  10  12  ar  
 17  10  31  1   
 18  11  12  ar  
 19  11  32  1   
 20  12  13  1   
 21  13  14  1   
 22  13  33  1   
 23  13  34  1   
 24  14  15  1   
 25  14  35  1   
 26  15  16  1   
 27  15  36  1   
 28  15  37  1   
 29  16  17  1   
 30  16  18  2   
 31  17  19  ar  
 32  17  38  1   
 33  18  20  1   
 34  18  39  1   
 35  19  20  ar  
 36  19  21  1   
 37  20  22  1   
 38  21  23  2   
 39  21  40  1   
 40  22  24  2   
 41  22  41  1   
 42  23  24  1   
 43  23  25  1   
 44  24  42  1   
 45  25  43  1   
 46  25  44  1   
 47  25  45  1   
@<TRIPOS>SUBSTRUCTURE
  1 ****  14 GROUP 4 **** **** 0

# MOE 2024.06 (io_trps.svl 2023.06)
