@<TRIPOS>MOLECULE
NONAME
44 46 1 0 0 
SMALL
USER_CHARGES


@<TRIPOS>ATOM
  1 O        3.0790    -0.5010     2.4040 O.2   1 <1>  -0.5750 
  2 C        2.5070    -1.0490     1.4980 C.2   1 <1>   0.8490 
  3 N        2.0450    -0.3720     0.4180 N.pl3 1 <1>  -0.7330 
  4 C        2.2300    -2.5310     1.4590 C.3   1 <1>  -0.0280 
  5 C        2.1100     0.9270     0.1650 C.cat 1 <1>   1.0690 
  6 C        0.7270    -2.7520     1.6160 C.3   1 <1>   0.1320 
  7 C        2.9370    -3.5470     2.3720 C.3   1 <1>  -0.1680 
  8 N        2.7120     1.8320     0.9110 N.pl3 1 <1>  -0.7040 
  9 N        1.5650     1.5060    -0.9020 N.pl3 1 <1>  -0.7680 
 10 N        0.4710    -3.9950     0.8840 N.am  1 <1>  -0.6640 
 11 C        2.5400    -4.9730     1.9010 C.3   1 <1>  -0.1680 
 12 C        2.5620     3.0590     0.3110 C.2   1 <1>   0.1920 
 13 C        1.8510     2.8590    -0.8150 C.2   1 <1>   0.1920 
 14 C        0.7790     0.8930    -2.0130 C.3   1 <1>   0.2670 
 15 C        0.2340    -3.9160    -0.4680 C.2   1 <1>   0.5720 
 16 C        1.0300    -5.1790     1.6070 C.3   1 <1>   0.1320 
 17 O        0.3340    -2.8420    -1.0380 O.2   1 <1>  -0.5750 
 18 C       -0.0900    -5.1720    -1.2740 C.3   1 <1>   0.0440 
 19 C       -0.8520    -4.9450    -2.6110 C.3   1 <1>  -0.0090 
 20 C       -1.3460    -5.9480    -0.7910 C.3   1 <1>  -0.0090 
 21 C       -1.6460    -6.2350    -2.2840 C.3   1 <1>  -0.0090 
 22 H        1.5520    -0.9430    -0.2690 H     1 <1>   0.4440 
 23 H        2.5240    -2.8040     0.4600 H     1 <1>   0.0710 
 24 H        0.1360    -1.9550     1.1990 H     1 <1>   0.0710 
 25 H        0.4490    -2.8610     2.6520 H     1 <1>   0.0710 
 26 H        2.6380    -3.3970     3.3960 H     1 <1>   0.0710 
 27 H        4.0050    -3.4270     2.3130 H     1 <1>   0.0710 
 28 H        3.1870     1.5820     1.7870 H     1 <1>   0.4440 
 29 H        2.8570    -5.6950     2.6330 H     1 <1>   0.0710 
 30 H        3.0780    -5.1950     0.9960 H     1 <1>   0.0710 
 31 H        2.9650     3.9730     0.7210 H     1 <1>   0.1420 
 32 H        1.5310     3.5800    -1.5530 H     1 <1>   0.1420 
 33 H        0.4870    -0.1160    -1.7740 H     1 <1>   0.0710 
 34 H        1.3690     0.8800    -2.9140 H     1 <1>   0.0710 
 35 H       -0.1130     1.4700    -2.1910 H     1 <1>   0.0710 
 36 H        0.8910    -6.0790     1.0340 H     1 <1>   0.0710 
 37 H        0.4960    -5.2950     2.5350 H     1 <1>   0.0710 
 38 H        0.7600    -5.8200    -1.4060 H     1 <1>  -0.0090 
 39 H       -0.2320    -5.0260    -3.4850 H     1 <1>  -0.0090 
 40 H       -1.4800    -4.0700    -2.6060 H     1 <1>  -0.0090 
 41 H       -2.0870    -5.3120    -0.3360 H     1 <1>  -0.0090 
 42 H       -1.1220    -6.8290    -0.2160 H     1 <1>  -0.0090 
 43 H       -1.1590    -7.1260    -2.6420 H     1 <1>  -0.0090 
 44 H       -2.6900    -6.1810    -2.5370 H     1 <1>  -0.0090 
@<TRIPOS>BOND
  1   1   2  2   
  2   2   3  1   
  3   2   4  1   
  4   3   5  ar  
  5   3  22  1   
  6   4   6  1   
  7   4   7  1   
  8   4  23  1   
  9   5   8  ar  
 10   5   9  ar  
 11   6  10  1   
 12   6  24  1   
 13   6  25  1   
 14   7  11  1   
 15   7  26  1   
 16   7  27  1   
 17   8  12  1   
 18   8  28  1   
 19   9  13  1   
 20   9  14  1   
 21  10  15  am  
 22  10  16  1   
 23  11  16  1   
 24  11  29  1   
 25  11  30  1   
 26  12  13  2   
 27  12  31  1   
 28  13  32  1   
 29  14  33  1   
 30  14  34  1   
 31  14  35  1   
 32  15  17  2   
 33  15  18  1   
 34  16  36  1   
 35  16  37  1   
 36  18  19  1   
 37  18  20  1   
 38  18  38  1   
 39  19  21  1   
 40  19  39  1   
 41  19  40  1   
 42  20  21  1   
 43  20  41  1   
 44  20  42  1   
 45  21  43  1   
 46  21  44  1   
@<TRIPOS>SUBSTRUCTURE
  1 ****  17 GROUP 4 **** **** 0

# MOE 2024.06 (io_trps.svl 2023.06)
