@<TRIPOS>MOLECULE
NONAME
52 54 1 0 0 
SMALL
USER_CHARGES


@<TRIPOS>ATOM
  1 O        0.3320     1.4120     2.4700 O.2   1 <1>  -0.5700 
  2 C        1.1410     2.2360     2.1220 C.2   1 <1>   0.5690 
  3 N        2.1770     2.0280     1.2740 N.am  1 <1>  -0.6600 
  4 C        1.1140     3.6570     2.6040 C.3   1 <1>  -0.0990 
  5 C        3.0000     3.2350     1.0750 C.3   1 <1>   0.3000 
  6 C        2.4710     0.7150     0.6350 C.3   1 <1>   0.0600 
  7 C        2.1170     4.3570     1.6750 C.3   1 <1>  -0.1600 
  8 C        3.2920     3.4690    -0.4130 C.3   1 <1>  -0.1600 
  9 C        4.3150     3.0700     1.8500 C.3   1 <1>  -0.1600 
 10 C        4.1940     4.6820    -0.5970 C.3   1 <1>   0.3430 
 11 C        5.2500     4.2580     1.6330 C.3   1 <1>   0.3430 
 12 N        5.4430     4.4960     0.1860 N.4   1 <1>  -0.9590 
 13 C        6.4330     5.6230    -0.0800 C.3   1 <1>   0.4610 
 14 C        5.8240     6.9870     0.2720 C.ar  1 <1>  -0.1440 
 15 C        7.1110     5.4770    -1.4690 C.2   1 <1>   0.9060 
 16 C        5.0540     7.7290    -0.6210 C.ar  1 <1>   0.0820 
 17 C        6.0750     7.5160     1.5340 C.ar  1 <1>   0.0820 
 18 O        7.9280     6.3070    -1.8810 O.co2 1 <1>  -0.9000 
 19 O        6.8480     4.4340    -2.0970 O.co2 1 <1>  -0.9000 
 20 O        4.7660     7.2390    -1.8440 O.3   1 <1>  -0.3630 
 21 C        4.5440     8.9670    -0.2620 C.ar  1 <1>  -0.1500 
 22 O        6.8240     6.7820     2.3980 O.3   1 <1>  -0.3620 
 23 C        5.5610     8.7590     1.8920 C.ar  1 <1>  -0.1500 
 24 C        5.3700     7.8890    -2.9430 C.3   1 <1>   0.0400 
 25 C        4.7990     9.4830     0.9940 C.ar  1 <1>  -0.1500 
 26 C        7.6680     7.4370     3.3230 C.3   1 <1>   0.0400 
 27 H        1.4390     3.6830     3.6280 H     1 <1>   0.0800 
 28 H        0.1250     4.0700     2.5190 H     1 <1>   0.0800 
 29 H        1.8150    -0.0420     1.0320 H     1 <1>   0.0800 
 30 H        3.4870     0.4220     0.8290 H     1 <1>   0.0800 
 31 H        2.3110     0.7790    -0.4270 H     1 <1>   0.0800 
 32 H        2.6770     5.1130     2.1960 H     1 <1>   0.0800 
 33 H        1.5630     4.8420     0.8900 H     1 <1>   0.0800 
 34 H        2.3750     3.6250    -0.9530 H     1 <1>   0.0800 
 35 H        3.7900     2.6190    -0.8430 H     1 <1>   0.0800 
 36 H        4.8240     2.1810     1.5290 H     1 <1>   0.0800 
 37 H        4.1110     2.9730     2.9010 H     1 <1>   0.0800 
 38 H        3.6850     5.5720    -0.2680 H     1 <1>   0.0800 
 39 H        4.4390     4.8000    -1.6430 H     1 <1>   0.0800 
 40 H        6.2010     4.0680     2.1030 H     1 <1>   0.0800 
 41 H        4.8290     5.1420     2.0840 H     1 <1>   0.0800 
 42 H        5.9250     3.7090    -0.2890 H     1 <1>   0.4500 
 43 H        7.2560     5.4830     0.5950 H     1 <1>   0.0800 
 44 H        3.9490     9.5220    -0.9640 H     1 <1>   0.1500 
 45 H        5.7410     9.1740     2.8660 H     1 <1>   0.1500 
 46 H        5.3210     7.2310    -3.7920 H     1 <1>   0.0800 
 47 H        6.4010     8.0970    -2.7110 H     1 <1>   0.0800 
 48 H        4.8410     8.8020    -3.1470 H     1 <1>   0.0800 
 49 H        4.4040    10.4460     1.2710 H     1 <1>   0.1500 
 50 H        8.3470     6.7100     3.7320 H     1 <1>   0.0800 
 51 H        7.0710     7.8600     4.1100 H     1 <1>   0.0800 
 52 H        8.2230     8.2030     2.8080 H     1 <1>   0.0800 
@<TRIPOS>BOND
  1   1   2  2   
  2   2   3  am  
  3   2   4  1   
  4   3   5  1   
  5   3   6  1   
  6   4   7  1   
  7   4  27  1   
  8   4  28  1   
  9   5   7  1   
 10   5   8  1   
 11   5   9  1   
 12   6  29  1   
 13   6  30  1   
 14   6  31  1   
 15   7  32  1   
 16   7  33  1   
 17   8  10  1   
 18   8  34  1   
 19   8  35  1   
 20   9  11  1   
 21   9  36  1   
 22   9  37  1   
 23  10  12  1   
 24  10  38  1   
 25  10  39  1   
 26  11  12  1   
 27  11  40  1   
 28  11  41  1   
 29  12  13  1   
 30  12  42  1   
 31  13  14  1   
 32  13  15  1   
 33  13  43  1   
 34  14  16  ar  
 35  14  17  ar  
 36  15  18  ar  
 37  15  19  ar  
 38  16  20  1   
 39  16  21  ar  
 40  17  22  1   
 41  17  23  ar  
 42  20  24  1   
 43  21  25  ar  
 44  21  44  1   
 45  22  26  1   
 46  23  25  ar  
 47  23  45  1   
 48  24  46  1   
 49  24  47  1   
 50  24  48  1   
 51  25  49  1   
 52  26  50  1   
 53  26  51  1   
 54  26  52  1   
@<TRIPOS>SUBSTRUCTURE
  1 ****  12 GROUP 4 **** **** 0

# MOE 2024.06 (io_trps.svl 2023.06)
