@<TRIPOS>MOLECULE
NONAME
55 58 1 0 0 
SMALL
USER_CHARGES


@<TRIPOS>ATOM
  1 O       -0.7340     5.6570    -0.2830 O.2   1 <1>  -0.5700 
  2 C       -0.2900     4.5240    -0.2560 C.2   1 <1>   0.5440 
  3 N       -1.0790     3.5120     0.2530 N.am  1 <1>  -0.6600 
  4 C        1.0450     4.2730    -0.7670 C.ar  1 <1>   0.0860 
  5 C       -2.3060     3.8000     1.0570 C.3   1 <1>   0.1400 
  6 C       -0.9150     2.0740    -0.0930 C.3   1 <1>   0.1400 
  7 C        1.9750     3.5340    -0.0390 C.ar  1 <1>  -0.1500 
  8 C        1.4440     4.7730    -2.0050 C.ar  1 <1>  -0.1500 
  9 C       -3.5750     3.3730     0.2950 C.3   1 <1>   0.1440 
 10 C       -2.1440     1.5890    -0.8730 C.3   1 <1>  -0.1600 
 11 C        3.2480     3.2730    -0.5210 C.ar  1 <1>   0.0730 
 12 C        2.7100     4.5270    -2.5020 C.ar  1 <1>  -0.1500 
 13 C       -4.8070     3.5610     1.1600 C.ar  1 <1>   0.1660 
 14 C       -3.4610     1.8910    -0.1320 C.3   1 <1>  -0.1600 
 15 C       -3.8700     4.3050    -0.9120 C.3   1 <1>  -0.1600 
 16 C        4.1720     2.4980     0.2500 C.1   1 <1>  -0.0730 
 17 C        3.6060     3.7770    -1.7630 C.ar  1 <1>  -0.1500 
 18 N       -4.9370     3.1430     2.3980 N.ar  1 <1>  -0.6200 
 19 C       -5.7950     4.2230     0.4930 C.ar  1 <1>  -0.1430 
 20 C       -5.3840     4.5790    -0.9140 C.3   1 <1>  -0.0170 
 21 C        4.9330     1.8510     0.8980 C.1   1 <1>  -0.2000 
 22 C       -6.1150     3.4180     2.9370 C.ar  1 <1>   0.7200 
 23 C       -6.9720     4.4610     1.1610 C.ar  1 <1>   0.1600 
 24 C        5.8810     1.0430     1.7120 C.3   1 <1>   0.4800 
 25 N       -7.1430     4.0610     2.4020 N.ar  1 <1>  -0.6200 
 26 N       -6.2800     3.0170     4.1980 N.pl3 1 <1>  -0.9000 
 27 O        5.6570     1.3750     3.0170 O.3   1 <1>  -0.6800 
 28 C        7.3270     1.4040     1.3930 C.3   1 <1>  -0.2400 
 29 C        5.6150    -0.4500     1.5690 C.3   1 <1>  -0.2400 
 30 H       -2.3640     4.8460     1.3080 H     1 <1>   0.0800 
 31 H       -2.2470     3.2520     1.9810 H     1 <1>   0.0800 
 32 H       -0.8100     1.5050     0.8160 H     1 <1>   0.0800 
 33 H       -0.0350     1.9170    -0.6920 H     1 <1>   0.0800 
 34 H        1.6940     3.1560     0.9280 H     1 <1>   0.1500 
 35 H        0.7470     5.3630    -2.5750 H     1 <1>   0.1500 
 36 H       -2.0610     0.5290    -1.0340 H     1 <1>   0.0800 
 37 H       -2.1450     2.0600    -1.8400 H     1 <1>   0.0800 
 38 H        2.9990     4.9210    -3.4620 H     1 <1>   0.1500 
 39 H       -4.3000     1.6210    -0.7490 H     1 <1>   0.0800 
 40 H       -3.5020     1.2790     0.7530 H     1 <1>   0.0800 
 41 H       -3.5410     3.8950    -1.8490 H     1 <1>   0.0800 
 42 H       -3.3630     5.2440    -0.7670 H     1 <1>   0.0800 
 43 H        4.5920     3.5830    -2.1490 H     1 <1>   0.1500 
 44 H       -5.8860     3.9320    -1.6120 H     1 <1>   0.0800 
 45 H       -5.5980     5.6080    -1.1450 H     1 <1>   0.0800 
 46 H       -7.7780     4.9830     0.6760 H     1 <1>   0.1500 
 47 H       -7.0260     3.4870     4.7020 H     1 <1>   0.4000 
 48 H       -5.4210     2.8360     4.7090 H     1 <1>   0.4000 
 49 H        5.5410     2.3400     3.0610 H     1 <1>   0.4000 
 50 H        7.4900     2.4590     1.5240 H     1 <1>   0.0800 
 51 H        7.5480     1.1520     0.3720 H     1 <1>   0.0800 
 52 H        7.9960     0.8570     2.0320 H     1 <1>   0.0800 
 53 H        4.5980    -0.6710     1.8360 H     1 <1>   0.0800 
 54 H        6.2780    -1.0090     2.2040 H     1 <1>   0.0800 
 55 H        5.7750    -0.7550     0.5510 H     1 <1>   0.0800 
@<TRIPOS>BOND
  1   1   2  2   
  2   2   3  am  
  3   2   4  1   
  4   3   5  1   
  5   3   6  1   
  6   4   7  ar  
  7   4   8  ar  
  8   5   9  1   
  9   5  30  1   
 10   5  31  1   
 11   6  10  1   
 12   6  32  1   
 13   6  33  1   
 14   7  11  ar  
 15   7  34  1   
 16   8  12  ar  
 17   8  35  1   
 18   9  13  1   
 19   9  14  1   
 20   9  15  1   
 21  10  14  1   
 22  10  36  1   
 23  10  37  1   
 24  11  16  1   
 25  11  17  ar  
 26  12  17  ar  
 27  12  38  1   
 28  13  18  ar  
 29  13  19  ar  
 30  14  39  1   
 31  14  40  1   
 32  15  20  1   
 33  15  41  1   
 34  15  42  1   
 35  16  21  3   
 36  17  43  1   
 37  18  22  ar  
 38  19  20  1   
 39  19  23  ar  
 40  20  44  1   
 41  20  45  1   
 42  21  24  1   
 43  22  25  ar  
 44  22  26  1   
 45  23  25  ar  
 46  23  46  1   
 47  24  27  1   
 48  24  28  1   
 49  24  29  1   
 50  26  47  1   
 51  26  48  1   
 52  27  49  1   
 53  28  50  1   
 54  28  51  1   
 55  28  52  1   
 56  29  53  1   
 57  29  54  1   
 58  29  55  1   
@<TRIPOS>SUBSTRUCTURE
  1 ****   3 GROUP 4 **** **** 0

# MOE 2024.06 (io_trps.svl 2023.06)
