@<TRIPOS>MOLECULE
NONAME
58 61 1 0 0 
SMALL
USER_CHARGES


@<TRIPOS>ATOM
  1 S        0.6940    -1.0060    -2.5180 S.3   1 <1>  -0.0800 
  2 C        1.1950    -2.5570    -1.9360 C.2   1 <1>   0.4420 
  3 C        2.3700    -0.6220    -2.7080 C.2   1 <1>   0.1980 
  4 N        2.4710    -2.6970    -1.9530 N.2   1 <1>  -0.3380 
  5 N        0.1960    -3.4060    -1.5250 N.am  1 <1>  -0.4940 
  6 N        3.1360    -1.5870    -2.3960 N.2   1 <1>  -0.3380 
  7 C        2.7430     0.7670    -3.1800 C.3   1 <1>   0.0200 
  8 C        0.2580    -4.6460    -0.9560 C.2   1 <1>   0.5690 
  9 C        2.9920     1.6900    -1.9860 C.3   1 <1>   0.1200 
 10 O        1.2720    -5.2920    -0.8520 O.2   1 <1>  -0.5700 
 11 C       -1.0690    -5.2290    -0.4430 C.3   1 <1>   0.3950 
 12 O        1.8200     1.7640    -1.2070 O.3   1 <1>  -0.3630 
 13 N       -2.2280    -4.8700    -1.3250 N.3   1 <1>  -0.8100 
 14 C       -1.3000    -4.7310     0.9840 C.ar  1 <1>  -0.1440 
 15 C        1.9750     2.2560     0.0400 C.ar  1 <1>   0.0820 
 16 C       -2.1020    -5.4370    -2.6700 C.3   1 <1>   0.1100 
 17 C       -3.5050    -5.3850    -0.8250 C.3   1 <1>   0.1100 
 18 C       -0.9570    -5.5460     2.0530 C.ar  1 <1>   0.1600 
 19 C       -1.8270    -3.4790     1.2530 C.ar  1 <1>  -0.1500 
 20 C        2.1050     1.3940     1.1240 C.ar  1 <1>  -0.1440 
 21 C        1.9950     3.6300     0.2220 C.ar  1 <1>  -0.1500 
 22 C       -3.5090    -5.3690    -3.2470 C.3   1 <1>  -0.1600 
 23 C       -4.4340    -5.3600    -2.0320 C.3   1 <1>  -0.1600 
 24 N       -1.1050    -5.2290     3.3300 N.ar  1 <1>  -0.6200 
 25 C       -1.9810    -3.1300     2.5770 C.ar  1 <1>  -0.1500 
 26 C        2.2710     1.9350     2.3890 C.ar  1 <1>  -0.1500 
 27 C        2.0680    -0.1170     0.9400 C.3   1 <1>  -0.0970 
 28 C        2.1590     4.1630     1.4890 C.ar  1 <1>  -0.1440 
 29 C       -1.6110    -4.0290     3.5610 C.ar  1 <1>   0.1600 
 30 C        2.2990     3.3080     2.5690 C.ar  1 <1>  -0.1500 
 31 C        2.1860     5.6660     1.7000 C.3   1 <1>  -0.0970 
 32 H       -0.7610    -3.0670    -1.6300 H     1 <1>   0.3700 
 33 H        1.9680     1.1730    -3.8030 H     1 <1>   0.0800 
 34 H        3.6430     0.7030    -3.7630 H     1 <1>   0.0800 
 35 H        3.2470     2.6840    -2.3080 H     1 <1>   0.0800 
 36 H        3.7850     1.2960    -1.3710 H     1 <1>   0.0800 
 37 H       -0.9680    -6.3010    -0.4260 H     1 <1>   0.0800 
 38 H       -1.7900    -6.4680    -2.6110 H     1 <1>   0.0800 
 39 H       -1.4020    -4.8850    -3.2740 H     1 <1>   0.0800 
 40 H       -3.8880    -4.7780    -0.0220 H     1 <1>   0.0800 
 41 H       -3.3860    -6.4000    -0.4810 H     1 <1>   0.0800 
 42 H       -0.5310    -6.5150     1.8530 H     1 <1>   0.1500 
 43 H       -2.1120    -2.8030     0.4650 H     1 <1>   0.1500 
 44 H        1.8800     4.2720    -0.6310 H     1 <1>   0.1500 
 45 H       -3.7000    -6.2050    -3.8960 H     1 <1>   0.0800 
 46 H       -3.6250    -4.4570    -3.8070 H     1 <1>   0.0800 
 47 H       -5.0230    -4.4600    -2.0180 H     1 <1>   0.0800 
 48 H       -5.0940    -6.2090    -2.0200 H     1 <1>   0.0800 
 49 H       -2.3850    -2.1710     2.8460 H     1 <1>   0.1500 
 50 H        2.3780     1.2900     3.2430 H     1 <1>   0.1500 
 51 H        1.1500    -0.4020     0.4610 H     1 <1>   0.0800 
 52 H        2.1310    -0.6260     1.8840 H     1 <1>   0.0800 
 53 H        2.8920    -0.4350     0.3270 H     1 <1>   0.0800 
 54 H       -1.7380    -3.7470     4.5930 H     1 <1>   0.1500 
 55 H        2.4300     3.7090     3.5590 H     1 <1>   0.1500 
 56 H        1.7650     6.1770     0.8530 H     1 <1>   0.0800 
 57 H        3.2000     5.9960     1.8360 H     1 <1>   0.0800 
 58 H        1.6140     5.9280     2.5720 H     1 <1>   0.0800 
@<TRIPOS>BOND
  1   1   2  1   
  2   1   3  1   
  3   2   4  2   
  4   2   5  1   
  5   3   6  2   
  6   3   7  1   
  7   4   6  1   
  8   5   8  am  
  9   5  32  1   
 10   7   9  1   
 11   7  33  1   
 12   7  34  1   
 13   8  10  2   
 14   8  11  1   
 15   9  12  1   
 16   9  35  1   
 17   9  36  1   
 18  11  13  1   
 19  11  14  1   
 20  11  37  1   
 21  12  15  1   
 22  13  16  1   
 23  13  17  1   
 24  14  18  ar  
 25  14  19  ar  
 26  15  20  ar  
 27  15  21  ar  
 28  16  22  1   
 29  16  38  1   
 30  16  39  1   
 31  17  23  1   
 32  17  40  1   
 33  17  41  1   
 34  18  24  ar  
 35  18  42  1   
 36  19  25  ar  
 37  19  43  1   
 38  20  26  ar  
 39  20  27  1   
 40  21  28  ar  
 41  21  44  1   
 42  22  23  1   
 43  22  45  1   
 44  22  46  1   
 45  23  47  1   
 46  23  48  1   
 47  24  29  ar  
 48  25  29  ar  
 49  25  49  1   
 50  26  30  ar  
 51  26  50  1   
 52  27  51  1   
 53  27  52  1   
 54  27  53  1   
 55  28  30  ar  
 56  28  31  1   
 57  29  54  1   
 58  30  55  1   
 59  31  56  1   
 60  31  57  1   
 61  31  58  1   
@<TRIPOS>SUBSTRUCTURE
  1 ****   2 GROUP 4 **** **** 0

# MOE 2024.06 (io_trps.svl 2023.06)
