@<TRIPOS>MOLECULE
NONAME
47 49 1 0 0 
SMALL
USER_CHARGES


@<TRIPOS>ATOM
  1 O       -2.3610    -1.6820     0.5330 O.3   1 <1>  -0.5600 
  2 C       -2.0460    -0.3220     0.5430 C.3   1 <1>   0.1200 
  3 C       -1.2550    -2.5010     0.3050 C.3   1 <1>   0.0400 
  4 C       -3.3090     0.4960     0.8280 C.3   1 <1>   0.0960 
  5 N       -4.2900     0.4240    -0.2840 N.pl3 1 <1>   0.0480 
  6 C       -5.0930    -0.5900    -0.6980 C.2   1 <1>   0.0060 
  7 C       -4.6010     1.4490    -1.1000 C.2   1 <1>  -0.3020 
  8 N       -5.8670    -0.2730    -1.6940 N.2   1 <1>  -0.5650 
  9 C       -5.0920    -1.9770    -0.0710 C.3   1 <1>   0.5230 
 10 C       -5.5540     1.0100    -1.9480 C.2   1 <1>   0.0770 
 11 N       -6.3720    -2.6310    -0.4450 N.4   1 <1>  -0.9590 
 12 C       -7.5340    -2.1830     0.3720 C.3   1 <1>   0.3430 
 13 C       -6.3440    -4.1180    -0.4890 C.3   1 <1>   0.3430 
 14 C       -8.4640    -3.3940     0.4190 C.3   1 <1>   0.2000 
 15 C       -7.5370    -4.6040     0.3410 C.3   1 <1>  -0.0800 
 16 O       -9.2140    -3.4350     1.5850 O.3   1 <1>  -0.6800 
 17 C       -8.2320    -5.8470    -0.2460 C.3   1 <1>  -0.0170 
 18 C       -7.3190    -7.0660    -0.2540 C.ar  1 <1>   0.1670 
 19 N       -6.2400    -6.9920    -1.0200 N.ar  1 <1>  -0.6200 
 20 C       -7.6400    -8.1830     0.5160 C.ar  1 <1>   0.1600 
 21 C       -5.5220    -8.1050    -0.9740 C.ar  1 <1>   0.1600 
 22 N       -6.9150    -9.2860     0.5730 N.ar  1 <1>  -0.6200 
 23 C       -5.8480    -9.2130    -0.2030 C.ar  1 <1>   0.1600 
 24 H       -1.3190    -0.1490     1.3190 H     1 <1>   0.0800 
 25 H       -1.6250    -0.0470    -0.4100 H     1 <1>   0.0800 
 26 H       -1.5810    -3.5260     0.3150 H     1 <1>   0.0800 
 27 H       -0.5280    -2.3470     1.0850 H     1 <1>   0.0800 
 28 H       -0.8280    -2.2670    -0.6560 H     1 <1>   0.0800 
 29 H       -3.0310     1.5250     0.9640 H     1 <1>   0.0800 
 30 H       -3.7690     0.1560     1.7370 H     1 <1>   0.0800 
 31 H       -4.1410     2.4200    -1.0420 H     1 <1>   0.1500 
 32 H       -4.9840    -1.9170     0.9980 H     1 <1>   0.0800 
 33 H       -4.2620    -2.5340    -0.4740 H     1 <1>   0.0800 
 34 H       -6.0360     1.5620    -2.7390 H     1 <1>   0.1500 
 35 H       -6.5230    -2.2460    -1.3980 H     1 <1>   0.4500 
 36 H       -7.2100    -1.9390     1.3690 H     1 <1>   0.0800 
 37 H       -8.0170    -1.3300    -0.0770 H     1 <1>   0.0800 
 38 H       -6.4450    -4.4540    -1.5090 H     1 <1>   0.0800 
 39 H       -5.4230    -4.5120    -0.0890 H     1 <1>   0.0800 
 40 H       -9.1430    -3.3590    -0.4170 H     1 <1>   0.0800 
 41 H       -7.1660    -4.8400     1.3240 H     1 <1>   0.0800 
 42 H       -8.6770    -3.6320     2.3780 H     1 <1>   0.4000 
 43 H       -8.5490    -5.6520    -1.2560 H     1 <1>   0.0800 
 44 H       -9.1150    -6.0620     0.3300 H     1 <1>   0.0800 
 45 H       -8.5360    -8.1690     1.1130 H     1 <1>   0.1500 
 46 H       -4.6310    -8.1450    -1.5760 H     1 <1>   0.1500 
 47 H       -5.2000   -10.0730    -0.2290 H     1 <1>   0.1500 
@<TRIPOS>BOND
  1   1   2  1   
  2   1   3  1   
  3   2   4  1   
  4   2  24  1   
  5   2  25  1   
  6   3  26  1   
  7   3  27  1   
  8   3  28  1   
  9   4   5  1   
 10   4  29  1   
 11   4  30  1   
 12   5   6  1   
 13   5   7  1   
 14   6   8  2   
 15   6   9  1   
 16   7  10  2   
 17   7  31  1   
 18   8  10  1   
 19   9  11  1   
 20   9  32  1   
 21   9  33  1   
 22  10  34  1   
 23  11  12  1   
 24  11  13  1   
 25  11  35  1   
 26  12  14  1   
 27  12  36  1   
 28  12  37  1   
 29  13  15  1   
 30  13  38  1   
 31  13  39  1   
 32  14  15  1   
 33  14  16  1   
 34  14  40  1   
 35  15  17  1   
 36  15  41  1   
 37  16  42  1   
 38  17  18  1   
 39  17  43  1   
 40  17  44  1   
 41  18  19  ar  
 42  18  20  ar  
 43  19  21  ar  
 44  20  22  ar  
 45  20  45  1   
 46  21  23  ar  
 47  21  46  1   
 48  22  23  ar  
 49  23  47  1   
@<TRIPOS>SUBSTRUCTURE
  1 ****  13 GROUP 4 **** **** 0

# MOE 2024.06 (io_trps.svl 2023.06)
