@<TRIPOS>MOLECULE
NONAME
48 51 1 0 0 
SMALL
USER_CHARGES


@<TRIPOS>ATOM
  1 CL      -1.3270    -6.1300    -1.9530 Cl    1 <1>  -0.1770 
  2 C       -2.8730    -5.3200    -1.9640 C.ar  1 <1>   0.1770 
  3 C       -3.4370    -4.9260    -0.7660 C.ar  1 <1>  -0.1500 
  4 C       -3.5020    -5.0920    -3.1740 C.ar  1 <1>  -0.1500 
  5 C       -4.6750    -4.2900    -0.7790 C.ar  1 <1>   0.0830 
  6 C       -4.7270    -4.4460    -3.1860 C.ar  1 <1>  -0.1500 
  7 O       -5.3420    -3.8950     0.3340 O.3   1 <1>  -0.3630 
  8 C       -5.3050    -4.0470    -1.9920 C.ar  1 <1>  -0.1500 
  9 C       -4.8840    -4.1840     1.6500 C.3   1 <1>   0.2610 
 10 C       -4.7740    -5.6940     1.9540 C.2   1 <1>   0.5690 
 11 C       -5.8010    -3.4450     2.6320 C.3   1 <1>  -0.2400 
 12 O       -3.7560    -6.0370     2.5150 O.2   1 <1>  -0.5700 
 13 N       -5.7380    -6.6250     1.6200 N.am  1 <1>  -0.6600 
 14 C       -7.0430    -6.3430     0.9620 C.3   1 <1>   0.1400 
 15 C       -5.4860    -8.0840     1.7870 C.3   1 <1>   0.1400 
 16 C       -7.0460    -6.9730    -0.4330 C.3   1 <1>  -0.1600 
 17 C       -5.4440    -8.7350     0.4040 C.3   1 <1>  -0.1600 
 18 C       -6.7350    -8.4750    -0.3810 C.3   1 <1>   0.4600 
 19 O       -7.7680    -9.1340     0.3270 O.3   1 <1>  -0.5600 
 20 C       -6.6450    -9.0690    -1.7820 C.2   1 <1>  -0.1400 
 21 C       -8.9430    -9.4710    -0.3730 C.3   1 <1>   0.1200 
 22 S       -5.3810    -8.6310    -2.9220 S.3   1 <1>  -0.0800 
 23 C       -7.4800    -9.9660    -2.3220 C.2   1 <1>  -0.1810 
 24 C       -8.6560   -10.4670    -1.5140 C.3   1 <1>   0.0210 
 25 C       -6.0420    -9.7310    -4.1240 C.2   1 <1>  -0.1100 
 26 C       -7.1400   -10.3550    -3.6560 C.2   1 <1>  -0.1500 
 27 H       -2.8970    -5.1280     0.1390 H     1 <1>   0.1500 
 28 H       -3.0380    -5.4150    -4.0880 H     1 <1>   0.1500 
 29 H       -5.2290    -4.2570    -4.1200 H     1 <1>   0.1500 
 30 H       -6.2570    -3.5470    -1.9950 H     1 <1>   0.1500 
 31 H       -3.9000    -3.7580     1.7320 H     1 <1>   0.0800 
 32 H       -6.8030    -3.8270     2.5800 H     1 <1>   0.0800 
 33 H       -5.8050    -2.3930     2.4120 H     1 <1>   0.0800 
 34 H       -5.4370    -3.5840     3.6340 H     1 <1>   0.0800 
 35 H       -7.2290    -5.2890     0.8850 H     1 <1>   0.0800 
 36 H       -7.8320    -6.7730     1.5550 H     1 <1>   0.0800 
 37 H       -6.2760    -8.5160     2.3780 H     1 <1>   0.0800 
 38 H       -4.5560    -8.2620     2.2980 H     1 <1>   0.0800 
 39 H       -6.2970    -6.4900    -1.0290 H     1 <1>   0.0800 
 40 H       -7.9890    -6.8040    -0.9150 H     1 <1>   0.0800 
 41 H       -5.2950    -9.7940     0.4990 H     1 <1>   0.0800 
 42 H       -4.6040    -8.3340    -0.1320 H     1 <1>   0.0800 
 43 H       -9.3760    -8.5690    -0.7660 H     1 <1>   0.0800 
 44 H       -9.6310    -9.9040     0.3320 H     1 <1>   0.0800 
 45 H       -9.5260   -10.5520    -2.1400 H     1 <1>   0.0800 
 46 H       -8.4320   -11.4370    -1.1070 H     1 <1>   0.0800 
 47 H       -5.5290    -9.7950    -5.0670 H     1 <1>   0.1500 
 48 H       -7.7280   -11.0770    -4.1950 H     1 <1>   0.1500 
@<TRIPOS>BOND
  1   1   2  1   
  2   2   3  ar  
  3   2   4  ar  
  4   3   5  ar  
  5   3  27  1   
  6   4   6  ar  
  7   4  28  1   
  8   5   7  1   
  9   5   8  ar  
 10   6   8  ar  
 11   6  29  1   
 12   7   9  1   
 13   8  30  1   
 14   9  10  1   
 15   9  11  1   
 16   9  31  1   
 17  10  12  2   
 18  10  13  am  
 19  11  32  1   
 20  11  33  1   
 21  11  34  1   
 22  13  14  1   
 23  13  15  1   
 24  14  16  1   
 25  14  35  1   
 26  14  36  1   
 27  15  17  1   
 28  15  37  1   
 29  15  38  1   
 30  16  18  1   
 31  16  39  1   
 32  16  40  1   
 33  17  18  1   
 34  17  41  1   
 35  17  42  1   
 36  18  19  1   
 37  18  20  1   
 38  19  21  1   
 39  20  22  1   
 40  20  23  2   
 41  21  24  1   
 42  21  43  1   
 43  21  44  1   
 44  22  25  1   
 45  23  24  1   
 46  23  26  1   
 47  24  45  1   
 48  24  46  1   
 49  25  26  2   
 50  25  47  1   
 51  26  48  1   
@<TRIPOS>SUBSTRUCTURE
  1 ****  16 GROUP 4 **** **** 0

# MOE 2024.06 (io_trps.svl 2023.06)
