@<TRIPOS>MOLECULE
NONAME
58 61 1 0 0 
SMALL
USER_CHARGES


@<TRIPOS>ATOM
  1 O       -0.6480    -0.1160    -1.0650 O.2   1 <1>  -0.5700 
  2 C       -1.5500     0.4690    -0.5090 C.2   1 <1>   0.5690 
  3 N       -2.6390    -0.2460    -0.0710 N.am  1 <1>  -0.6600 
  4 C       -1.3810     2.0010    -0.2890 C.3   1 <1>   0.2040 
  5 C       -3.7940     0.2130     0.7490 C.3   1 <1>   0.1400 
  6 C       -2.8010    -1.6920    -0.3860 C.3   1 <1>   0.1400 
  7 C       -2.7280     2.7460    -0.4830 C.ar  1 <1>  -0.1440 
  8 C       -0.3710     2.5800    -1.3180 C.3   1 <1>  -0.1600 
  9 C       -0.7370     2.2190     1.1040 C.3   1 <1>  -0.1600 
 10 C       -4.3720    -1.0660     1.3450 C.3   1 <1>   0.2000 
 11 C       -4.1360    -2.1050     0.2460 C.3   1 <1>  -0.0800 
 12 C       -3.3810     3.4600     0.5220 C.ar  1 <1>  -0.1500 
 13 C       -3.3460     2.6800    -1.7300 C.ar  1 <1>  -0.1500 
 14 C       -0.0820     4.0500    -1.0540 C.3   1 <1>   0.3430 
 15 C       -0.3060     3.6670     1.3680 C.3   1 <1>   0.3430 
 16 O       -3.6220    -1.3920     2.4660 O.3   1 <1>  -0.6800 
 17 C       -4.1830    -3.5750     0.7040 C.3   1 <1>  -0.0160 
 18 C       -4.5770     4.1120     0.2760 C.ar  1 <1>  -0.1500 
 19 C       -4.5410     3.3300    -1.9780 C.ar  1 <1>  -0.1500 
 20 N        0.5760     4.1670     0.2770 N.4   1 <1>  -0.9590 
 21 C       -4.0120    -4.5150    -0.4790 C.ar  1 <1>  -0.1440 
 22 C       -5.1560     4.0530    -0.9760 C.ar  1 <1>  -0.1500 
 23 C        0.9930     5.5780     0.5340 C.3   1 <1>   0.2630 
 24 C       -2.8000    -5.1020    -0.7820 C.ar  1 <1>  -0.1500 
 25 C       -5.0660    -4.8270    -1.3150 C.ar  1 <1>  -0.1500 
 26 C       -2.7020    -5.9440    -1.8780 C.ar  1 <1>   0.1600 
 27 C       -4.8610    -5.6820    -2.3850 C.ar  1 <1>   0.1600 
 28 N       -3.7030    -6.2460    -2.6880 N.ar  1 <1>  -0.6200 
 29 H       -3.5040     0.9020     1.5210 H     1 <1>   0.0800 
 30 H       -4.5230     0.6740     0.1040 H     1 <1>   0.0800 
 31 H       -2.8060    -1.8530    -1.4510 H     1 <1>   0.0800 
 32 H       -1.9820    -2.2390     0.0480 H     1 <1>   0.0800 
 33 H       -0.7450     2.4700    -2.3190 H     1 <1>   0.0800 
 34 H        0.5590     2.0390    -1.2840 H     1 <1>   0.0800 
 35 H        0.1300     1.5880     1.1910 H     1 <1>   0.0800 
 36 H       -1.4170     1.9030     1.8740 H     1 <1>   0.0800 
 37 H       -5.4050    -0.9700     1.6360 H     1 <1>   0.0800 
 38 H       -4.8970    -1.9630    -0.5000 H     1 <1>   0.0800 
 39 H       -3.0030     3.5210     1.5230 H     1 <1>   0.1500 
 40 H       -2.9130     2.1070    -2.5320 H     1 <1>   0.1500 
 41 H       -1.0020     4.6140    -1.0710 H     1 <1>   0.0800 
 42 H        0.5690     4.4320    -1.8240 H     1 <1>   0.0800 
 43 H        0.2150     3.7170     2.3110 H     1 <1>   0.0800 
 44 H       -1.1730     4.3020     1.4360 H     1 <1>   0.0800 
 45 H       -2.6800    -1.4430     2.2090 H     1 <1>   0.4000 
 46 H       -5.1280    -3.7710     1.1800 H     1 <1>   0.0800 
 47 H       -3.4120    -3.7700     1.4290 H     1 <1>   0.0800 
 48 H       -5.0660     4.6630     1.0610 H     1 <1>   0.1500 
 49 H       -4.9970     3.2690    -2.9520 H     1 <1>   0.1500 
 50 H        1.4190     3.5740     0.2550 H     1 <1>   0.4500 
 51 H       -6.0860     4.5610    -1.1680 H     1 <1>   0.1500 
 52 H        0.1320     6.2260     0.5540 H     1 <1>   0.0800 
 53 H        1.6610     5.9180    -0.2410 H     1 <1>   0.0800 
 54 H        1.5030     5.6520     1.4810 H     1 <1>   0.0800 
 55 H       -1.9300    -4.9150    -0.1800 H     1 <1>   0.1500 
 56 H       -6.0430    -4.4140    -1.1450 H     1 <1>   0.1500 
 57 H       -1.7480    -6.3910    -2.1000 H     1 <1>   0.1500 
 58 H       -5.6940    -5.9140    -3.0270 H     1 <1>   0.1500 
@<TRIPOS>BOND
  1   1   2  2   
  2   2   3  am  
  3   2   4  1   
  4   3   5  1   
  5   3   6  1   
  6   4   7  1   
  7   4   8  1   
  8   4   9  1   
  9   5  10  1   
 10   5  29  1   
 11   5  30  1   
 12   6  11  1   
 13   6  31  1   
 14   6  32  1   
 15   7  12  ar  
 16   7  13  ar  
 17   8  14  1   
 18   8  33  1   
 19   8  34  1   
 20   9  15  1   
 21   9  35  1   
 22   9  36  1   
 23  10  11  1   
 24  10  16  1   
 25  10  37  1   
 26  11  17  1   
 27  11  38  1   
 28  12  18  ar  
 29  12  39  1   
 30  13  19  ar  
 31  13  40  1   
 32  14  20  1   
 33  14  41  1   
 34  14  42  1   
 35  15  20  1   
 36  15  43  1   
 37  15  44  1   
 38  16  45  1   
 39  17  21  1   
 40  17  46  1   
 41  17  47  1   
 42  18  22  ar  
 43  18  48  1   
 44  19  22  ar  
 45  19  49  1   
 46  20  23  1   
 47  20  50  1   
 48  21  24  ar  
 49  21  25  ar  
 50  22  51  1   
 51  23  52  1   
 52  23  53  1   
 53  23  54  1   
 54  24  26  ar  
 55  24  55  1   
 56  25  27  ar  
 57  25  56  1   
 58  26  28  ar  
 59  26  57  1   
 60  27  28  ar  
 61  27  58  1   
@<TRIPOS>SUBSTRUCTURE
  1 ****   3 GROUP 4 **** **** 0

# MOE 2024.06 (io_trps.svl 2023.06)
