@<TRIPOS>MOLECULE
NONAME
52 55 1 0 0 
SMALL
USER_CHARGES


@<TRIPOS>ATOM
  1 O        0.0130    -0.4840    -2.8030 O.2   1 <1>  -0.5700 
  2 C       -0.5200     0.4880    -2.3200 C.2   1 <1>   0.5690 
  3 N       -1.5000     0.3640    -1.3720 N.am  1 <1>  -0.6600 
  4 C       -0.0720     1.8560    -2.8050 C.3   1 <1>   0.0820 
  5 C       -2.1940     1.4760    -0.6700 C.3   1 <1>   0.1400 
  6 C       -1.9240    -0.9470    -0.8240 C.3   1 <1>   0.1400 
  7 C        0.6050     2.6440    -1.6990 C.2   1 <1>   0.0460 
  8 C       -3.2440     0.7890     0.2010 C.3   1 <1>   0.2000 
  9 C       -2.6970    -0.6140     0.4530 C.3   1 <1>  -0.0800 
 10 N        0.1520     3.8600    -1.3440 N.2   1 <1>  -0.5650 
 11 C        1.6550     2.3160    -0.9330 C.2   1 <1>  -0.0400 
 12 O       -3.4340     1.4550     1.4000 O.3   1 <1>  -0.6800 
 13 C       -3.7870    -1.6390     0.7990 C.3   1 <1>   0.0210 
 14 C        0.9440     4.2150    -0.3780 C.2   1 <1>   0.4250 
 15 O        1.8600     3.3010    -0.1100 O.3   1 <1>  -0.2800 
 16 C        2.5570     1.1000    -0.8670 C.3   1 <1>  -0.0600 
 17 C       -3.2060    -3.0350     0.9100 C.2   1 <1>   0.1080 
 18 C        0.9020     5.4470     0.3840 C.ar  1 <1>   0.0530 
 19 N       -2.2830    -3.3480     1.7660 N.2   1 <1>  -0.7070 
 20 C       -3.5760    -4.1160     0.1170 C.2   1 <1>  -0.1500 
 21 C        1.8080     5.7070     1.4150 C.ar  1 <1>  -0.1500 
 22 C       -0.0550     6.4270     0.1160 C.ar  1 <1>  -0.1500 
 23 N       -2.0380    -4.6530     1.5410 N.pl3 1 <1>   0.3000 
 24 C       -2.8080    -5.1400     0.5450 C.2   1 <1>  -0.3320 
 25 C        1.7600     6.8820     2.1420 C.ar  1 <1>  -0.1500 
 26 C       -0.1100     7.6050     0.8400 C.ar  1 <1>  -0.1500 
 27 C       -2.7600    -6.5760     0.0560 C.3   1 <1>  -0.0600 
 28 C        0.7990     7.8350     1.8560 C.ar  1 <1>  -0.1500 
 29 H        0.6170     1.7370    -3.6190 H     1 <1>   0.0800 
 30 H       -0.9260     2.3940    -3.1700 H     1 <1>   0.0800 
 31 H       -1.4860     2.0060    -0.0560 H     1 <1>   0.0800 
 32 H       -2.6540     2.1470    -1.3730 H     1 <1>   0.0800 
 33 H       -2.5560    -1.4380    -1.5430 H     1 <1>   0.0800 
 34 H       -1.0720    -1.5730    -0.6130 H     1 <1>   0.0800 
 35 H       -4.1850     0.7560    -0.3220 H     1 <1>   0.0800 
 36 H       -1.9790    -0.5820     1.2540 H     1 <1>   0.0800 
 37 H       -2.6150     1.4310     1.9330 H     1 <1>   0.4000 
 38 H       -4.5540    -1.6320     0.0470 H     1 <1>   0.0800 
 39 H       -4.2380    -1.3780     1.7400 H     1 <1>   0.0800 
 40 H        2.2990     0.3920    -1.6330 H     1 <1>   0.0800 
 41 H        2.4560     0.6250     0.0920 H     1 <1>   0.0800 
 42 H        3.5800     1.3990    -1.0030 H     1 <1>   0.0800 
 43 H       -4.3160    -4.1100    -0.6620 H     1 <1>   0.1500 
 44 H        2.5630     4.9770     1.6510 H     1 <1>   0.1500 
 45 H       -0.7680     6.2600    -0.6730 H     1 <1>   0.1500 
 46 H       -1.3430    -5.1800     2.0820 H     1 <1>   0.2700 
 47 H        2.4700     7.0570     2.9320 H     1 <1>   0.1500 
 48 H       -0.8590     8.3430     0.6120 H     1 <1>   0.1500 
 49 H       -3.4660    -6.7170    -0.7430 H     1 <1>   0.0800 
 50 H       -3.0090    -7.2500     0.8560 H     1 <1>   0.0800 
 51 H       -1.7770    -6.8120    -0.3110 H     1 <1>   0.0800 
 52 H        0.7590     8.7500     2.4210 H     1 <1>   0.1500 
@<TRIPOS>BOND
  1   1   2  2   
  2   2   3  am  
  3   2   4  1   
  4   3   5  1   
  5   3   6  1   
  6   4   7  1   
  7   4  29  1   
  8   4  30  1   
  9   5   8  1   
 10   5  31  1   
 11   5  32  1   
 12   6   9  1   
 13   6  33  1   
 14   6  34  1   
 15   7  10  1   
 16   7  11  2   
 17   8   9  1   
 18   8  12  1   
 19   8  35  1   
 20   9  13  1   
 21   9  36  1   
 22  10  14  2   
 23  11  15  1   
 24  11  16  1   
 25  12  37  1   
 26  13  17  1   
 27  13  38  1   
 28  13  39  1   
 29  14  15  1   
 30  14  18  1   
 31  16  40  1   
 32  16  41  1   
 33  16  42  1   
 34  17  19  2   
 35  17  20  1   
 36  18  21  ar  
 37  18  22  ar  
 38  19  23  1   
 39  20  24  2   
 40  20  43  1   
 41  21  25  ar  
 42  21  44  1   
 43  22  26  ar  
 44  22  45  1   
 45  23  24  1   
 46  23  46  1   
 47  24  27  1   
 48  25  28  ar  
 49  25  47  1   
 50  26  28  ar  
 51  26  48  1   
 52  27  49  1   
 53  27  50  1   
 54  27  51  1   
 55  28  52  1   
@<TRIPOS>SUBSTRUCTURE
  1 ****   5 GROUP 4 **** **** 0

# MOE 2024.06 (io_trps.svl 2023.06)
