@<TRIPOS>MOLECULE
NONAME
46 48 1 0 0 
SMALL
USER_CHARGES


@<TRIPOS>ATOM
  1 CL      -1.4120     1.1270     3.0590 Cl    1 <1>  -0.1770 
  2 C       -2.4540     1.6440     1.7590 C.ar  1 <1>   0.1770 
  3 C       -2.0230     2.6290     0.8930 C.ar  1 <1>  -0.1500 
  4 C       -3.6980     1.0620     1.6130 C.ar  1 <1>  -0.1500 
  5 C       -2.8560     3.0370    -0.1360 C.ar  1 <1>  -0.1500 
  6 C       -4.5210     1.4800     0.5800 C.ar  1 <1>  -0.1500 
  7 C       -4.1180     2.4740    -0.3080 C.ar  1 <1>  -0.0090 
  8 S       -5.2130     3.0120    -1.6540 S.o2  1 <1>   1.4470 
  9 O       -5.4080     1.9030    -2.5620 O.2   1 <1>  -0.6500 
 10 O       -4.7630     4.2860    -2.1720 O.2   1 <1>  -0.6500 
 11 N       -6.6800     3.2820    -0.8490 N.am  1 <1>  -0.8490 
 12 C       -7.8090     3.3220    -1.7810 C.3   1 <1>   0.1960 
 13 C       -6.6490     4.5020    -0.0400 C.3   1 <1>   0.1960 
 14 C       -9.1240     3.3830    -1.0010 C.3   1 <1>  -0.1600 
 15 C       -7.9210     4.5970     0.8040 C.3   1 <1>  -0.1600 
 16 C       -9.1870     4.6110    -0.0720 C.3   1 <1>   0.2800 
 17 O       -9.1250     5.7400    -0.9190 O.3   1 <1>  -0.5600 
 18 C      -10.4730     4.6760     0.8120 C.3   1 <1>   0.2000 
 19 C       -9.5660     6.9610    -0.3990 C.3   1 <1>   0.1200 
 20 O      -10.9440     3.4180     1.1990 O.3   1 <1>  -0.6800 
 21 C      -11.6060     5.5150     0.1650 C.3   1 <1>   0.2800 
 22 C      -11.0860     6.9260    -0.1680 C.3   1 <1>  -0.1600 
 23 O      -12.6200     5.6430     1.0990 O.3   1 <1>  -0.6800 
 24 C      -12.2630     4.8720    -1.0650 C.3   1 <1>  -0.2400 
 25 H       -1.0490     3.0670     1.0240 H     1 <1>   0.1500 
 26 H       -4.0140     0.2950     2.2970 H     1 <1>   0.1500 
 27 H       -2.5230     3.8050    -0.8150 H     1 <1>   0.1500 
 28 H       -5.4940     1.0320     0.4580 H     1 <1>   0.1500 
 29 H       -7.7200     4.1760    -2.4350 H     1 <1>   0.0800 
 30 H       -7.8140     2.4330    -2.3890 H     1 <1>   0.0800 
 31 H       -5.7960     4.4830     0.6160 H     1 <1>   0.0800 
 32 H       -6.5640     5.3680    -0.6780 H     1 <1>   0.0800 
 33 H       -9.2030     2.4820    -0.4210 H     1 <1>   0.0800 
 34 H       -9.9440     3.3890    -1.6900 H     1 <1>   0.0800 
 35 H       -7.8770     5.4740     1.4210 H     1 <1>   0.0800 
 36 H       -7.9590     3.7470     1.4620 H     1 <1>   0.0800 
 37 H      -10.2070     5.1760     1.7260 H     1 <1>   0.0800 
 38 H       -9.0400     7.1550     0.5200 H     1 <1>   0.0800 
 39 H       -9.3110     7.7320    -1.1060 H     1 <1>   0.0800 
 40 H      -11.8260     3.5540     1.6060 H     1 <1>   0.4000 
 41 H      -11.5720     7.3030    -1.0490 H     1 <1>   0.0800 
 42 H      -11.3050     7.6070     0.6350 H     1 <1>   0.0800 
 43 H      -13.3750     6.1120     0.6970 H     1 <1>   0.4000 
 44 H      -11.5780     4.8720    -1.8920 H     1 <1>   0.0800 
 45 H      -13.1340     5.4240    -1.3680 H     1 <1>   0.0800 
 46 H      -12.5450     3.8550    -0.8590 H     1 <1>   0.0800 
@<TRIPOS>BOND
  1   1   2  1   
  2   2   3  ar  
  3   2   4  ar  
  4   3   5  ar  
  5   3  25  1   
  6   4   6  ar  
  7   4  26  1   
  8   5   7  ar  
  9   5  27  1   
 10   6   7  ar  
 11   6  28  1   
 12   7   8  1   
 13   8   9  2   
 14   8  10  2   
 15   8  11  am  
 16  11  12  1   
 17  11  13  1   
 18  12  14  1   
 19  12  29  1   
 20  12  30  1   
 21  13  15  1   
 22  13  31  1   
 23  13  32  1   
 24  14  16  1   
 25  14  33  1   
 26  14  34  1   
 27  15  16  1   
 28  15  35  1   
 29  15  36  1   
 30  16  17  1   
 31  16  18  1   
 32  17  19  1   
 33  18  20  1   
 34  18  21  1   
 35  18  37  1   
 36  19  22  1   
 37  19  38  1   
 38  19  39  1   
 39  20  40  1   
 40  21  22  1   
 41  21  23  1   
 42  21  24  1   
 43  22  41  1   
 44  22  42  1   
 45  23  43  1   
 46  24  44  1   
 47  24  45  1   
 48  24  46  1   
@<TRIPOS>SUBSTRUCTURE
  1 ****  13 GROUP 4 **** **** 0

# MOE 2024.06 (io_trps.svl 2023.06)
