@<TRIPOS>MOLECULE
NONAME
57 59 1 0 0 
SMALL
USER_CHARGES


@<TRIPOS>ATOM
  1 S        1.1480     0.6390     0.2810 S.o2  1 <1>   1.3330 
  2 O       -0.0060    -0.1070     0.7230 O.2   1 <1>  -0.6500 
  3 O        2.1250     1.0950     1.2440 O.2   1 <1>  -0.6500 
  4 N        1.9380    -0.2100    -0.9530 N.am  1 <1>  -0.8490 
  5 C        0.5610     2.1100    -0.5610 C.3   1 <1>  -0.0550 
  6 C        3.0840    -0.9840    -0.4610 C.3   1 <1>   0.1160 
  7 C        1.0470    -1.0880    -1.7220 C.3   1 <1>   0.1160 
  8 C       -0.3270     3.0140     0.3260 C.3   1 <1>  -0.0800 
  9 C       -0.7670     4.2610    -0.4340 C.3   1 <1>   0.2000 
 10 C        0.4250     3.5840     1.5430 C.3   1 <1>   0.3430 
 11 O       -1.8770     4.7890     0.2140 O.3   1 <1>  -0.6800 
 12 C        0.4040     5.2210    -0.2230 C.3   1 <1>   0.3430 
 13 N        0.8420     4.9770     1.1890 N.4   1 <1>  -0.9590 
 14 C        2.2610     5.3030     1.5210 C.3   1 <1>   0.4230 
 15 C        2.4770     6.8170     1.3790 C.3   1 <1>  -0.1600 
 16 C        3.2510     4.4820     0.6770 C.3   1 <1>  -0.1600 
 17 C        3.9390     7.1950     1.6310 C.3   1 <1>   0.1400 
 18 C        4.6890     4.9220     0.9440 C.3   1 <1>   0.1400 
 19 N        4.7760     6.3840     0.7180 N.am  1 <1>  -0.6600 
 20 C        5.2170     6.8820    -0.4910 C.2   1 <1>   0.5440 
 21 O        5.1220     6.1650    -1.4700 O.2   1 <1>  -0.5700 
 22 C        5.7310     8.2350    -0.6220 C.ar  1 <1>   0.0860 
 23 C        6.5190     8.8190     0.3710 C.ar  1 <1>  -0.1500 
 24 C        5.4530     9.0030    -1.7540 C.ar  1 <1>  -0.1500 
 25 C        6.9890    10.1140     0.2520 C.ar  1 <1>  -0.1500 
 26 C        5.9200    10.2980    -1.8800 C.ar  1 <1>  -0.1500 
 27 C        6.6870    10.8580    -0.8750 C.ar  1 <1>  -0.1500 
 28 H        1.4100     2.6580    -0.9230 H     1 <1>   0.0800 
 29 H       -0.0110     1.8030    -1.4150 H     1 <1>   0.0800 
 30 H        3.5700    -1.4920    -1.2760 H     1 <1>   0.0800 
 31 H        2.7620    -1.7110     0.2670 H     1 <1>   0.0800 
 32 H        3.8030    -0.3280     0.0010 H     1 <1>   0.0800 
 33 H        1.5830    -1.5340    -2.5430 H     1 <1>   0.0800 
 34 H        0.2220    -0.5250    -2.1220 H     1 <1>   0.0800 
 35 H        0.6560    -1.8720    -1.0930 H     1 <1>   0.0800 
 36 H       -1.1760     2.4340     0.6510 H     1 <1>   0.0800 
 37 H       -1.0060     4.1020    -1.4730 H     1 <1>   0.0800 
 38 H        1.2730     2.9840     1.8180 H     1 <1>   0.0800 
 39 H       -0.2470     3.6200     2.3860 H     1 <1>   0.0800 
 40 H       -2.6950     4.2940    -0.0100 H     1 <1>   0.4000 
 41 H        0.1020     6.2430    -0.3820 H     1 <1>   0.0800 
 42 H        1.1930     4.9730    -0.9110 H     1 <1>   0.0800 
 43 H        0.2370     5.5890     1.7550 H     1 <1>   0.4500 
 44 H        2.4360     5.0500     2.5540 H     1 <1>   0.0800 
 45 H        2.2230     7.1480     0.3880 H     1 <1>   0.0800 
 46 H        1.8600     7.3430     2.0850 H     1 <1>   0.0800 
 47 H        3.1780     3.4390     0.9160 H     1 <1>   0.0800 
 48 H        3.0750     4.6080    -0.3750 H     1 <1>   0.0800 
 49 H        4.2190     6.9910     2.6510 H     1 <1>   0.0800 
 50 H        4.0790     8.2470     1.4460 H     1 <1>   0.0800 
 51 H        5.3640     4.4040     0.2820 H     1 <1>   0.0800 
 52 H        4.9770     4.6970     1.9570 H     1 <1>   0.0800 
 53 H        6.7690     8.2440     1.2460 H     1 <1>   0.1500 
 54 H        4.8640     8.5700    -2.5440 H     1 <1>   0.1500 
 55 H        7.5940    10.5440     1.0320 H     1 <1>   0.1500 
 56 H        5.6890    10.8710    -2.7630 H     1 <1>   0.1500 
 57 H        7.0520    11.8660    -0.9710 H     1 <1>   0.1500 
@<TRIPOS>BOND
  1   1   2  2   
  2   1   3  2   
  3   1   4  am  
  4   1   5  1   
  5   4   6  1   
  6   4   7  1   
  7   5   8  1   
  8   5  28  1   
  9   5  29  1   
 10   6  30  1   
 11   6  31  1   
 12   6  32  1   
 13   7  33  1   
 14   7  34  1   
 15   7  35  1   
 16   8   9  1   
 17   8  10  1   
 18   8  36  1   
 19   9  11  1   
 20   9  12  1   
 21   9  37  1   
 22  10  13  1   
 23  10  38  1   
 24  10  39  1   
 25  11  40  1   
 26  12  13  1   
 27  12  41  1   
 28  12  42  1   
 29  13  14  1   
 30  13  43  1   
 31  14  15  1   
 32  14  16  1   
 33  14  44  1   
 34  15  17  1   
 35  15  45  1   
 36  15  46  1   
 37  16  18  1   
 38  16  47  1   
 39  16  48  1   
 40  17  19  1   
 41  17  49  1   
 42  17  50  1   
 43  18  19  1   
 44  18  51  1   
 45  18  52  1   
 46  19  20  am  
 47  20  21  2   
 48  20  22  1   
 49  22  23  ar  
 50  22  24  ar  
 51  23  25  ar  
 52  23  53  1   
 53  24  26  ar  
 54  24  54  1   
 55  25  27  ar  
 56  25  55  1   
 57  26  27  ar  
 58  26  56  1   
 59  27  57  1   
@<TRIPOS>SUBSTRUCTURE
  1 ****  16 GROUP 4 **** **** 0

# MOE 2024.06 (io_trps.svl 2023.06)
