@<TRIPOS>MOLECULE
NONAME
51 54 1 0 0 
SMALL
USER_CHARGES


@<TRIPOS>ATOM
  1 O        3.7330     2.3620     1.3480 O.co2 1 <1>  -0.9000 
  2 C        3.1240     1.3090     1.1490 C.2   1 <1>   0.9060 
  3 O        3.2360     0.3580     1.9270 O.co2 1 <1>  -0.9000 
  4 C        2.5500     1.0390    -0.2570 C.3   1 <1>  -0.1060 
  5 C        3.3860    -0.1390    -0.7950 C.3   1 <1>   0.4230 
  6 C        2.7670     2.2510    -1.2230 C.3   1 <1>  -0.1600 
  7 C        1.0360     0.7010    -0.2290 C.3   1 <1>  -0.1600 
  8 N        3.0520    -1.3990    -0.0340 N.4   1 <1>  -0.9590 
  9 C        4.9080     0.2520    -0.7580 C.3   1 <1>   0.3430 
 10 C        4.2140     2.4760    -1.7080 C.3   1 <1>   0.3430 
 11 C        0.7430    -0.6590     0.4210 C.3   1 <1>  -0.1600 
 12 C        1.6170    -1.7760    -0.1500 C.3   1 <1>   0.3430 
 13 C        3.9440    -2.5760    -0.2460 C.3   1 <1>   0.2630 
 14 N        5.1640     1.7390    -0.8330 N.4   1 <1>  -0.9590 
 15 C        6.5920     2.1240    -0.9840 C.3   1 <1>   0.4860 
 16 C        6.7220     3.6340    -0.9130 C.ar  1 <1>  -0.1430 
 17 C        6.2900     4.3180     0.2200 C.ar  1 <1>  -0.1500 
 18 C        7.2590     4.3380    -1.9900 C.ar  1 <1>  -0.1500 
 19 C        6.3940     5.6940     0.2470 C.ar  1 <1>  -0.1430 
 20 C        7.3590     5.7200    -1.9470 C.ar  1 <1>  -0.1500 
 21 C        6.9160     6.3780    -0.8160 C.ar  1 <1>   0.0830 
 22 C        6.0060     6.6770     1.3090 C.3   1 <1>  -0.0170 
 23 O        6.9370     7.7060    -0.6260 O.3   1 <1>  -0.3620 
 24 C        6.3940     8.0150     0.6520 C.3   1 <1>   0.1200 
 25 H        3.1150    -0.2920    -1.8250 H     1 <1>   0.0800 
 26 H        2.4360     3.1500    -0.7300 H     1 <1>   0.0800 
 27 H        2.1520     2.1520    -2.1000 H     1 <1>   0.0800 
 28 H        0.5060     1.4720     0.3070 H     1 <1>   0.0800 
 29 H        0.6450     0.6790    -1.2320 H     1 <1>   0.0800 
 30 H        3.1480    -1.0760     0.9700 H     1 <1>   0.4500 
 31 H        5.4120    -0.2420    -1.5700 H     1 <1>   0.0800 
 32 H        5.3190    -0.1050     0.1720 H     1 <1>   0.0800 
 33 H        4.4260     3.5340    -1.6830 H     1 <1>   0.0800 
 34 H        4.3190     2.1370    -2.7260 H     1 <1>   0.0800 
 35 H       -0.2920    -0.9100     0.2700 H     1 <1>   0.0800 
 36 H        0.8970    -0.5990     1.4850 H     1 <1>   0.0800 
 37 H        1.3620    -1.9470    -1.1830 H     1 <1>   0.0800 
 38 H        1.4290    -2.6820     0.4030 H     1 <1>   0.0800 
 39 H        3.8940    -2.9080    -1.2700 H     1 <1>   0.0800 
 40 H        3.6380    -3.3870     0.3950 H     1 <1>   0.0800 
 41 H        4.9640    -2.3260    -0.0030 H     1 <1>   0.0800 
 42 H        4.9000     2.1190     0.1180 H     1 <1>   0.4500 
 43 H        7.1750     1.6850    -0.1910 H     1 <1>   0.0800 
 44 H        6.9730     1.7720    -1.9280 H     1 <1>   0.0800 
 45 H        5.8710     3.8050     1.0720 H     1 <1>   0.1500 
 46 H        7.6040     3.8240    -2.8700 H     1 <1>   0.1500 
 47 H        7.7700     6.2860    -2.7640 H     1 <1>   0.1500 
 48 H        6.5620     6.5150     2.2140 H     1 <1>   0.0800 
 49 H        4.9510     6.6360     1.5140 H     1 <1>   0.0800 
 50 H        7.1470     8.5320     1.2200 H     1 <1>   0.0800 
 51 H        5.5350     8.6470     0.5070 H     1 <1>   0.0800 
@<TRIPOS>BOND
  1   1   2  ar  
  2   2   3  ar  
  3   2   4  1   
  4   4   5  1   
  5   4   6  1   
  6   4   7  1   
  7   5   8  1   
  8   5   9  1   
  9   5  25  1   
 10   6  10  1   
 11   6  26  1   
 12   6  27  1   
 13   7  11  1   
 14   7  28  1   
 15   7  29  1   
 16   8  12  1   
 17   8  13  1   
 18   8  30  1   
 19   9  14  1   
 20   9  31  1   
 21   9  32  1   
 22  10  14  1   
 23  10  33  1   
 24  10  34  1   
 25  11  12  1   
 26  11  35  1   
 27  11  36  1   
 28  12  37  1   
 29  12  38  1   
 30  13  39  1   
 31  13  40  1   
 32  13  41  1   
 33  14  15  1   
 34  14  42  1   
 35  15  16  1   
 36  15  43  1   
 37  15  44  1   
 38  16  17  ar  
 39  16  18  ar  
 40  17  19  ar  
 41  17  45  1   
 42  18  20  ar  
 43  18  46  1   
 44  19  21  ar  
 45  19  22  1   
 46  20  21  ar  
 47  20  47  1   
 48  21  23  1   
 49  22  24  1   
 50  22  48  1   
 51  22  49  1   
 52  23  24  1   
 53  24  50  1   
 54  24  51  1   
@<TRIPOS>SUBSTRUCTURE
  1 ****  14 GROUP 4 **** **** 0

# MOE 2024.06 (io_trps.svl 2023.06)
