@<TRIPOS>MOLECULE
NONAME
70 73 1 0 0 
SMALL
USER_CHARGES


@<TRIPOS>ATOM
  1 O       -0.9250     0.9650    -2.0960 O.2   1 <1>  -0.5700 
  2 C       -1.9320     1.1980    -1.4700 C.2   1 <1>   0.5690 
  3 N       -3.0710     0.4490    -1.6200 N.am  1 <1>  -0.6600 
  4 C       -1.9010     2.3670    -0.4900 C.3   1 <1>  -0.0990 
  5 C       -4.3570     0.6570    -0.8980 C.3   1 <1>   0.1400 
  6 C       -3.1180    -0.7020    -2.5690 C.3   1 <1>   0.1400 
  7 C       -0.5360     3.0830    -0.4340 C.3   1 <1>  -0.1600 
  8 C       -4.6870    -0.6030    -0.0940 C.3   1 <1>  -0.1600 
  9 C       -3.4490    -1.9820    -1.7970 C.3   1 <1>  -0.1600 
 10 C       -0.5450     4.2570     0.5420 C.3   1 <1>   0.3430 
 11 C       -4.7510    -1.8500    -0.9940 C.3   1 <1>   0.4240 
 12 N        0.8120     4.8630     0.6120 N.4   1 <1>  -0.9590 
 13 O       -5.7590    -1.6390    -1.9550 O.3   1 <1>  -0.5600 
 14 C       -5.0070    -3.1260    -0.1640 C.ar  1 <1>  -0.1440 
 15 C        0.9560     5.7270     1.8140 C.3   1 <1>   0.3430 
 16 C        1.1550     5.6330    -0.6130 C.3   1 <1>   0.3430 
 17 C       -7.0710    -1.9390    -1.5930 C.3   1 <1>   0.1200 
 18 C       -6.1590    -3.8810    -0.3360 C.ar  1 <1>  -0.1440 
 19 C       -4.0830    -3.5450     0.7850 C.ar  1 <1>  -0.1500 
 20 C        2.4190     5.8140     2.2580 C.3   1 <1>  -0.1600 
 21 C        2.5860     5.3180    -1.0490 C.3   1 <1>  -0.1600 
 22 C       -7.1880    -3.4410    -1.3590 C.3   1 <1>  -0.0170 
 23 C       -6.3760    -5.0220     0.4200 C.ar  1 <1>  -0.1500 
 24 C       -4.2790    -4.6850     1.5450 C.ar  1 <1>   0.0820 
 25 C        3.4280     6.2880     1.1950 C.3   1 <1>  -0.1600 
 26 C        3.6430     5.2640     0.0700 C.3   1 <1>  -0.1600 
 27 C       -5.4510    -5.4390     1.3730 C.ar  1 <1>   0.0820 
 28 O       -3.2730    -4.9650     2.4230 O.3   1 <1>  -0.3630 
 29 O       -5.6740    -6.5440     2.1450 O.3   1 <1>  -0.3620 
 30 C       -2.9440    -6.2950     2.7570 C.3   1 <1>   0.0400 
 31 C       -6.9030    -7.2360     2.1300 C.3   1 <1>   0.0400 
 32 H       -2.1450     1.9880     0.4860 H     1 <1>   0.0800 
 33 H       -2.6600     3.0680    -0.7890 H     1 <1>   0.0800 
 34 H       -5.1360     0.8440    -1.6180 H     1 <1>   0.0800 
 35 H       -4.3090     1.5010    -0.2370 H     1 <1>   0.0800 
 36 H       -2.1770    -0.8220    -3.0770 H     1 <1>   0.0800 
 37 H       -3.8740    -0.5160    -3.3130 H     1 <1>   0.0800 
 38 H       -0.2950     3.4240    -1.4260 H     1 <1>   0.0800 
 39 H        0.2100     2.3680    -0.1310 H     1 <1>   0.0800 
 40 H       -5.6190    -0.4780     0.4240 H     1 <1>   0.0800 
 41 H       -3.9270    -0.7380     0.6520 H     1 <1>   0.0800 
 42 H       -2.6260    -2.1970    -1.1420 H     1 <1>   0.0800 
 43 H       -3.5390    -2.8060    -2.4800 H     1 <1>   0.0800 
 44 H       -0.8290     3.8940     1.5170 H     1 <1>   0.0800 
 45 H       -1.2670     4.9950     0.2300 H     1 <1>   0.0800 
 46 H        1.5050     4.1070     0.6920 H     1 <1>   0.4500 
 47 H        0.3790     5.3170     2.6280 H     1 <1>   0.0800 
 48 H        0.5780     6.7150     1.6040 H     1 <1>   0.0800 
 49 H        1.0640     6.6890    -0.4170 H     1 <1>   0.0800 
 50 H        0.4830     5.3880    -1.4190 H     1 <1>   0.0800 
 51 H       -7.7140    -1.6320    -2.3990 H     1 <1>   0.0800 
 52 H       -7.3300    -1.3870    -0.7060 H     1 <1>   0.0800 
 53 H       -3.1800    -2.9880     0.9520 H     1 <1>   0.1500 
 54 H        2.7270     4.8580     2.6460 H     1 <1>   0.0800 
 55 H        2.4620     6.5030     3.0840 H     1 <1>   0.0800 
 56 H        2.8760     6.0770    -1.7550 H     1 <1>   0.0800 
 57 H        2.5940     4.3850    -1.5860 H     1 <1>   0.0800 
 58 H       -7.0230    -3.9620    -2.2850 H     1 <1>   0.0800 
 59 H       -8.1800    -3.6690    -1.0130 H     1 <1>   0.0800 
 60 H       -7.2780    -5.5760     0.2490 H     1 <1>   0.1500 
 61 H        4.3750     6.4300     1.6910 H     1 <1>   0.0800 
 62 H        3.1430     7.2450     0.7910 H     1 <1>   0.0800 
 63 H        4.6070     5.4440    -0.3790 H     1 <1>   0.0800 
 64 H        3.6860     4.2720     0.4890 H     1 <1>   0.0800 
 65 H       -1.9410    -6.3050     3.1430 H     1 <1>   0.0800 
 66 H       -3.0070    -6.9060     1.8730 H     1 <1>   0.0800 
 67 H       -3.6270    -6.6420     3.5110 H     1 <1>   0.0800 
 68 H       -6.8540    -8.0160     2.8680 H     1 <1>   0.0800 
 69 H       -7.0500    -7.6650     1.1560 H     1 <1>   0.0800 
 70 H       -7.6930    -6.5490     2.3770 H     1 <1>   0.0800 
@<TRIPOS>BOND
  1   1   2  2   
  2   2   3  am  
  3   2   4  1   
  4   3   5  1   
  5   3   6  1   
  6   4   7  1   
  7   4  32  1   
  8   4  33  1   
  9   5   8  1   
 10   5  34  1   
 11   5  35  1   
 12   6   9  1   
 13   6  36  1   
 14   6  37  1   
 15   7  10  1   
 16   7  38  1   
 17   7  39  1   
 18   8  11  1   
 19   8  40  1   
 20   8  41  1   
 21   9  11  1   
 22   9  42  1   
 23   9  43  1   
 24  10  12  1   
 25  10  44  1   
 26  10  45  1   
 27  11  13  1   
 28  11  14  1   
 29  12  15  1   
 30  12  16  1   
 31  12  46  1   
 32  13  17  1   
 33  14  18  ar  
 34  14  19  ar  
 35  15  20  1   
 36  15  47  1   
 37  15  48  1   
 38  16  21  1   
 39  16  49  1   
 40  16  50  1   
 41  17  22  1   
 42  17  51  1   
 43  17  52  1   
 44  18  22  1   
 45  18  23  ar  
 46  19  24  ar  
 47  19  53  1   
 48  20  25  1   
 49  20  54  1   
 50  20  55  1   
 51  21  26  1   
 52  21  56  1   
 53  21  57  1   
 54  22  58  1   
 55  22  59  1   
 56  23  27  ar  
 57  23  60  1   
 58  24  27  ar  
 59  24  28  1   
 60  25  26  1   
 61  25  61  1   
 62  25  62  1   
 63  26  63  1   
 64  26  64  1   
 65  27  29  1   
 66  28  30  1   
 67  29  31  1   
 68  30  65  1   
 69  30  66  1   
 70  30  67  1   
 71  31  68  1   
 72  31  69  1   
 73  31  70  1   
@<TRIPOS>SUBSTRUCTURE
  1 ****   3 GROUP 4 **** **** 0

# MOE 2024.06 (io_trps.svl 2023.06)
