@<TRIPOS>MOLECULE
NONAME
45 46 1 0 0 
SMALL
USER_CHARGES


@<TRIPOS>ATOM
  1 O       -1.6950     0.2930     2.2490 O.2   1 <1>  -0.5700 
  2 C       -2.4380     0.9260     1.5370 C.2   1 <1>   0.5690 
  3 N       -3.6330     0.4050     1.1090 N.am  1 <1>  -0.6600 
  4 C       -1.9740     2.3230     1.1590 C.3   1 <1>  -0.0990 
  5 C       -3.9950    -1.0110     1.4460 C.3   1 <1>   0.3210 
  6 C       -4.6210     1.1000     0.2150 C.3   1 <1>   0.1400 
  7 C       -0.9360     2.2970     0.0230 C.3   1 <1>   0.0630 
  8 C       -4.0360    -1.8880     0.1990 C.2   1 <1>   0.0460 
  9 C       -5.8440     1.5910     0.9980 C.3   1 <1>   0.1200 
 10 C       -0.3700     3.6970    -0.2040 C.ar  1 <1>  -0.1440 
 11 C       -1.4880     1.7260    -1.2910 C.3   1 <1>  -0.2400 
 12 N       -5.2020    -2.1380    -0.4360 N.2   1 <1>  -0.5650 
 13 C       -3.0060    -2.5090    -0.4240 C.2   1 <1>  -0.3320 
 14 O       -5.4290     2.3210     2.1010 O.3   1 <1>  -0.6800 
 15 C        0.9750     3.9440     0.0310 C.ar  1 <1>  -0.1500 
 16 C       -1.1780     4.7400    -0.6390 C.ar  1 <1>  -0.1500 
 17 C       -4.8600    -2.9030    -1.4210 C.2   1 <1>   0.0360 
 18 N       -3.5380    -3.1660    -1.4700 N.pl3 1 <1>   0.0330 
 19 C       -1.5210    -2.5250    -0.1010 C.3   1 <1>  -0.0600 
 20 C        1.5040     5.2080    -0.1660 C.ar  1 <1>  -0.1500 
 21 C       -0.6500     6.0040    -0.8370 C.ar  1 <1>  -0.1500 
 22 C        0.6920     6.2390    -0.6010 C.ar  1 <1>  -0.1500 
 23 H       -1.5050     2.7490     2.0270 H     1 <1>   0.0800 
 24 H       -2.7990     2.9610     0.9170 H     1 <1>   0.0800 
 25 H       -4.9570    -1.0340     1.9240 H     1 <1>   0.0800 
 26 H       -3.2860    -1.4330     2.1360 H     1 <1>   0.0800 
 27 H       -4.9480     0.4320    -0.5620 H     1 <1>   0.0800 
 28 H       -4.1710     1.9370    -0.2830 H     1 <1>   0.0800 
 29 H       -0.1330     1.6530     0.3390 H     1 <1>   0.0800 
 30 H       -6.4310     0.7570     1.3420 H     1 <1>   0.0800 
 31 H       -6.4620     2.2240     0.3860 H     1 <1>   0.0800 
 32 H       -2.3160     2.3080    -1.6480 H     1 <1>   0.0800 
 33 H       -1.8080     0.7070    -1.1600 H     1 <1>   0.0800 
 34 H       -0.7170     1.7410    -2.0410 H     1 <1>   0.0800 
 35 H       -4.7620     1.7970     2.5910 H     1 <1>   0.4000 
 36 H        1.6210     3.1540     0.3710 H     1 <1>   0.1500 
 37 H       -2.2230     4.5760    -0.8280 H     1 <1>   0.1500 
 38 H       -5.5500    -3.3030    -2.1440 H     1 <1>   0.1500 
 39 H       -3.0500    -3.7460    -2.1580 H     1 <1>   0.2700 
 40 H       -1.3180    -1.9360     0.7750 H     1 <1>   0.0800 
 41 H       -0.9590    -2.1140    -0.9200 H     1 <1>   0.0800 
 42 H       -1.1910    -3.5310     0.0830 H     1 <1>   0.0800 
 43 H        2.5490     5.3880     0.0190 H     1 <1>   0.1500 
 44 H       -1.2850     6.8050    -1.1750 H     1 <1>   0.1500 
 45 H        1.1030     7.2220    -0.7540 H     1 <1>   0.1500 
@<TRIPOS>BOND
  1   1   2  2   
  2   2   3  am  
  3   2   4  1   
  4   3   5  1   
  5   3   6  1   
  6   4   7  1   
  7   4  23  1   
  8   4  24  1   
  9   5   8  1   
 10   5  25  1   
 11   5  26  1   
 12   6   9  1   
 13   6  27  1   
 14   6  28  1   
 15   7  10  1   
 16   7  11  1   
 17   7  29  1   
 18   8  12  1   
 19   8  13  2   
 20   9  14  1   
 21   9  30  1   
 22   9  31  1   
 23  10  15  ar  
 24  10  16  ar  
 25  11  32  1   
 26  11  33  1   
 27  11  34  1   
 28  12  17  2   
 29  13  18  1   
 30  13  19  1   
 31  14  35  1   
 32  15  20  ar  
 33  15  36  1   
 34  16  21  ar  
 35  16  37  1   
 36  17  18  1   
 37  17  38  1   
 38  18  39  1   
 39  19  40  1   
 40  19  41  1   
 41  19  42  1   
 42  20  22  ar  
 43  20  43  1   
 44  21  22  ar  
 45  21  44  1   
 46  22  45  1   
@<TRIPOS>SUBSTRUCTURE
  1 ****   2 GROUP 4 **** **** 0

# MOE 2024.06 (io_trps.svl 2023.06)
