@<TRIPOS>MOLECULE
NONAME
50 52 1 0 0 
SMALL
USER_CHARGES


@<TRIPOS>ATOM
  1 F       -0.1730    -2.0380     0.1030 F     1 <1>  -0.1900 
  2 C       -1.4630    -1.9850     0.3060 C.ar  1 <1>   0.1900 
  3 C       -2.3180    -2.7810    -0.4490 C.ar  1 <1>  -0.1440 
  4 C       -1.9120    -1.1210     1.2850 C.ar  1 <1>  -0.1500 
  5 C       -3.6850    -2.7030    -0.1770 C.ar  1 <1>  -0.1440 
  6 C       -1.7600    -3.7060    -1.5360 C.3   1 <1>  -0.0960 
  7 C       -3.2690    -1.0400     1.5290 C.ar  1 <1>  -0.1500 
  8 C       -4.1460    -1.8260     0.8010 C.ar  1 <1>  -0.1500 
  9 C       -4.7000    -3.5610    -0.9220 C.3   1 <1>   0.4870 
 10 N       -5.3090    -4.5420     0.0150 N.4   1 <1>  -0.9590 
 11 C       -4.2120    -5.4890     0.4460 C.3   1 <1>   0.3430 
 12 C       -6.4600    -5.1960    -0.6780 C.3   1 <1>   0.3430 
 13 C       -4.4780    -6.9680     0.1780 C.3   1 <1>  -0.1060 
 14 C       -6.9850    -6.4250     0.0710 C.3   1 <1>  -0.1600 
 15 C       -4.4310    -7.2080    -1.3220 C.2   1 <1>   0.9060 
 16 C       -5.8850    -7.2900     0.7080 C.3   1 <1>   0.2000 
 17 C       -3.3900    -7.8410     0.8550 C.3   1 <1>  -0.0170 
 18 O       -4.0080    -6.3190    -2.0740 O.co2 1 <1>  -0.9000 
 19 O       -4.9400    -8.2390    -1.7610 O.co2 1 <1>  -0.9000 
 20 O       -5.9200    -7.0360     2.0760 O.3   1 <1>  -0.6800 
 21 C       -1.9820    -7.2990     0.6320 C.ar  1 <1>  -0.1440 
 22 C       -1.3560    -6.5460     1.6150 C.ar  1 <1>  -0.1500 
 23 C       -1.3190    -7.5410    -0.5610 C.ar  1 <1>  -0.1500 
 24 C       -0.0880    -6.0330     1.4020 C.ar  1 <1>  -0.1500 
 25 C       -0.0500    -7.0330    -0.7730 C.ar  1 <1>  -0.1500 
 26 C        0.5660    -6.2760     0.2080 C.ar  1 <1>  -0.1500 
 27 H       -1.2090    -0.5240     1.8380 H     1 <1>   0.1500 
 28 H       -2.3600    -3.6700    -2.4270 H     1 <1>   0.0800 
 29 H       -1.7270    -4.7210    -1.1880 H     1 <1>   0.0800 
 30 H       -0.7610    -3.4260    -1.8180 H     1 <1>   0.0800 
 31 H       -3.6390    -0.3660     2.2840 H     1 <1>   0.1500 
 32 H       -5.1990    -1.7430     1.0080 H     1 <1>   0.1500 
 33 H       -4.2300    -4.0890    -1.7360 H     1 <1>   0.0800 
 34 H       -5.4630    -2.9240    -1.3360 H     1 <1>   0.0800 
 35 H       -5.6330    -4.0620     0.8570 H     1 <1>   0.4500 
 36 H       -3.2910    -5.2320    -0.0460 H     1 <1>   0.0800 
 37 H       -4.0500    -5.3690     1.5030 H     1 <1>   0.0800 
 38 H       -7.2600    -4.4900    -0.8210 H     1 <1>   0.0800 
 39 H       -6.1360    -5.5170    -1.6570 H     1 <1>   0.0800 
 40 H       -7.4950    -7.0310    -0.6570 H     1 <1>   0.0800 
 41 H       -7.7170    -6.1260     0.7990 H     1 <1>   0.0800 
 42 H       -6.0990    -8.3370     0.5620 H     1 <1>   0.0800 
 43 H       -3.5620    -7.9020     1.9140 H     1 <1>   0.0800 
 44 H       -3.4500    -8.8460     0.4720 H     1 <1>   0.0800 
 45 H       -6.6610    -7.5260     2.4850 H     1 <1>   0.4000 
 46 H       -1.8510    -6.3550     2.5510 H     1 <1>   0.1500 
 47 H       -1.7950    -8.1190    -1.3370 H     1 <1>   0.1500 
 48 H        0.3910    -5.4450     2.1660 H     1 <1>   0.1500 
 49 H        0.4510    -7.2250    -1.7050 H     1 <1>   0.1500 
 50 H        1.5510    -5.8770     0.0410 H     1 <1>   0.1500 
@<TRIPOS>BOND
  1   1   2  1   
  2   2   3  ar  
  3   2   4  ar  
  4   3   5  ar  
  5   3   6  1   
  6   4   7  ar  
  7   4  27  1   
  8   5   8  ar  
  9   5   9  1   
 10   6  28  1   
 11   6  29  1   
 12   6  30  1   
 13   7   8  ar  
 14   7  31  1   
 15   8  32  1   
 16   9  10  1   
 17   9  33  1   
 18   9  34  1   
 19  10  11  1   
 20  10  12  1   
 21  10  35  1   
 22  11  13  1   
 23  11  36  1   
 24  11  37  1   
 25  12  14  1   
 26  12  38  1   
 27  12  39  1   
 28  13  15  1   
 29  13  16  1   
 30  13  17  1   
 31  14  16  1   
 32  14  40  1   
 33  14  41  1   
 34  15  18  ar  
 35  15  19  ar  
 36  16  20  1   
 37  16  42  1   
 38  17  21  1   
 39  17  43  1   
 40  17  44  1   
 41  20  45  1   
 42  21  22  ar  
 43  21  23  ar  
 44  22  24  ar  
 45  22  46  1   
 46  23  25  ar  
 47  23  47  1   
 48  24  26  ar  
 49  24  48  1   
 50  25  26  ar  
 51  25  49  1   
 52  26  50  1   
@<TRIPOS>SUBSTRUCTURE
  1 ****  11 GROUP 4 **** **** 0

# MOE 2024.06 (io_trps.svl 2023.06)
