@<TRIPOS>MOLECULE
NONAME
50 52 1 0 0 
SMALL
USER_CHARGES


@<TRIPOS>ATOM
  1 O       -0.7920    -4.5360     0.7650 O.3   1 <1>  -0.3630 
  2 C       -1.9860    -3.9200     0.9470 C.ar  1 <1>   0.0830 
  3 C        0.3760    -3.7920     0.4860 C.3   1 <1>   0.0400 
  4 C       -2.2310    -2.5870     0.6330 C.ar  1 <1>  -0.1500 
  5 C       -3.0060    -4.7030     1.4590 C.ar  1 <1>  -0.1500 
  6 C       -3.5040    -2.0580     0.8210 C.ar  1 <1>   0.0830 
  7 C       -4.2820    -4.1910     1.6200 C.ar  1 <1>  -0.1430 
  8 O       -3.8390    -0.7740     0.5450 O.3   1 <1>  -0.3630 
  9 C       -4.5220    -2.8620     1.3080 C.ar  1 <1>  -0.1500 
 10 C       -5.3970    -5.0980     2.0900 C.3   1 <1>   0.4860 
 11 C       -2.8830     0.1590     0.0910 C.3   1 <1>   0.0400 
 12 N       -5.7180    -5.9830     0.9490 N.4   1 <1>  -0.9590 
 13 C       -6.4100    -5.3330    -0.2010 C.3   1 <1>   0.3430 
 14 C       -6.4060    -7.2610     1.2190 C.3   1 <1>   0.3430 
 15 C       -7.1340    -6.4690    -0.9390 C.3   1 <1>   0.2000 
 16 C       -6.8180    -7.7600    -0.1670 C.3   1 <1>  -0.0800 
 17 O       -8.5060    -6.2470    -0.8970 O.3   1 <1>  -0.6800 
 18 C       -5.7140    -8.6080    -0.8470 C.3   1 <1>   0.0210 
 19 C       -4.2930    -8.0740    -0.7090 C.2   1 <1>   0.1080 
 20 N       -3.9280    -6.8870    -1.0910 N.2   1 <1>  -0.7070 
 21 C       -3.2370    -8.7880    -0.1540 C.2   1 <1>  -0.1500 
 22 N       -2.6030    -6.8270    -0.8230 N.pl3 1 <1>   0.3000 
 23 C       -2.1740    -7.9600    -0.2330 C.2   1 <1>  -0.3320 
 24 C       -0.7400    -8.1830     0.2150 C.3   1 <1>  -0.0600 
 25 H        1.2120    -4.4670     0.4820 H     1 <1>   0.0800 
 26 H        0.5110    -3.0510     1.2540 H     1 <1>   0.0800 
 27 H        0.2770    -3.3300    -0.4810 H     1 <1>   0.0800 
 28 H       -1.4460    -1.9730     0.2430 H     1 <1>   0.1500 
 29 H       -2.7830    -5.7240     1.7160 H     1 <1>   0.1500 
 30 H       -5.4970    -2.4250     1.4310 H     1 <1>   0.1500 
 31 H       -6.2600    -4.5260     2.3860 H     1 <1>   0.0800 
 32 H       -5.0530    -5.6800     2.9300 H     1 <1>   0.0800 
 33 H       -3.3740     1.1070    -0.0330 H     1 <1>   0.0800 
 34 H       -2.4890    -0.1730    -0.8530 H     1 <1>   0.0800 
 35 H       -2.1030     0.2470     0.8270 H     1 <1>   0.0800 
 36 H       -4.8050    -6.2510     0.5190 H     1 <1>   0.4500 
 37 H       -7.1200    -4.5960     0.1340 H     1 <1>   0.0800 
 38 H       -5.6830    -4.8700    -0.8490 H     1 <1>   0.0800 
 39 H       -5.7570    -7.9630     1.7170 H     1 <1>   0.0800 
 40 H       -7.2820    -7.0850     1.8210 H     1 <1>   0.0800 
 41 H       -6.8390    -6.5150    -1.9740 H     1 <1>   0.0800 
 42 H       -7.6960    -8.3790    -0.0940 H     1 <1>   0.0800 
 43 H       -8.8750    -6.2860     0.0060 H     1 <1>   0.4000 
 44 H       -5.9360    -8.7150    -1.8950 H     1 <1>   0.0800 
 45 H       -5.7360    -9.5980    -0.4260 H     1 <1>   0.0800 
 46 H       -3.2740    -9.7880     0.2410 H     1 <1>   0.1500 
 47 H       -2.0210    -5.9990    -1.0210 H     1 <1>   0.2700 
 48 H       -0.6360    -9.1540     0.6640 H     1 <1>   0.0800 
 49 H       -0.4540    -7.4380     0.9370 H     1 <1>   0.0800 
 50 H       -0.0740    -8.1240    -0.6280 H     1 <1>   0.0800 
@<TRIPOS>BOND
  1   1   2  1   
  2   1   3  1   
  3   2   4  ar  
  4   2   5  ar  
  5   3  25  1   
  6   3  26  1   
  7   3  27  1   
  8   4   6  ar  
  9   4  28  1   
 10   5   7  ar  
 11   5  29  1   
 12   6   8  1   
 13   6   9  ar  
 14   7   9  ar  
 15   7  10  1   
 16   8  11  1   
 17   9  30  1   
 18  10  12  1   
 19  10  31  1   
 20  10  32  1   
 21  11  33  1   
 22  11  34  1   
 23  11  35  1   
 24  12  13  1   
 25  12  14  1   
 26  12  36  1   
 27  13  15  1   
 28  13  37  1   
 29  13  38  1   
 30  14  16  1   
 31  14  39  1   
 32  14  40  1   
 33  15  16  1   
 34  15  17  1   
 35  15  41  1   
 36  16  18  1   
 37  16  42  1   
 38  17  43  1   
 39  18  19  1   
 40  18  44  1   
 41  18  45  1   
 42  19  20  2   
 43  19  21  1   
 44  20  22  1   
 45  21  23  2   
 46  21  46  1   
 47  22  23  1   
 48  22  47  1   
 49  23  24  1   
 50  24  48  1   
 51  24  49  1   
 52  24  50  1   
@<TRIPOS>SUBSTRUCTURE
  1 ****   5 GROUP 4 **** **** 0

# MOE 2024.06 (io_trps.svl 2023.06)
