@<TRIPOS>MOLECULE
NONAME
59 62 1 0 0 
SMALL
USER_CHARGES


@<TRIPOS>ATOM
  1 O       -1.3330     0.2590    -2.0210 O.3   1 <1>  -0.0190 
  2 N       -0.1810     0.8070    -1.7940 N.2   1 <1>  -0.4100 
  3 C       -1.9970     0.4470    -0.9090 C.2   1 <1>   0.2980 
  4 C       -0.2090     1.2760    -0.6080 C.2   1 <1>   0.3350 
  5 N       -1.3670     1.0650     0.0080 N.2   1 <1>  -0.5650 
  6 C       -3.4230    -0.0880    -0.8260 C.3   1 <1>   0.1000 
  7 C        0.9290     2.0210     0.0930 C.3   1 <1>   0.1010 
  8 C       -4.1790     0.4570     0.3990 C.3   1 <1>  -0.1600 
  9 C       -3.4210    -1.6250    -0.7960 C.3   1 <1>  -0.1600 
 10 C        0.7470     3.5380    -0.0440 C.3   1 <1>  -0.2400 
 11 C        2.3140     1.6080    -0.4320 C.3   1 <1>  -0.2400 
 12 C       -5.5830    -0.1320     0.5110 C.3   1 <1>   0.3430 
 13 C       -4.8330    -2.1940    -0.6650 C.3   1 <1>   0.3430 
 14 N       -5.5000    -1.6180     0.5410 N.4   1 <1>  -0.9590 
 15 C       -6.8520    -2.2540     0.7700 C.3   1 <1>   0.4860 
 16 C       -6.7500    -3.7570     1.0560 C.ar  1 <1>   0.4770 
 17 N       -7.4420    -4.5580     0.2940 N.ar  1 <1>  -0.6200 
 18 N       -5.9440    -4.1140     2.0170 N.ar  1 <1>  -0.6200 
 19 C       -7.2840    -5.8370     0.5700 C.ar  1 <1>   0.7200 
 20 C       -5.8770    -5.4100     2.1860 C.ar  1 <1>   0.7200 
 21 N       -6.5100    -6.3140     1.5070 N.ar  1 <1>  -0.6200 
 22 N       -8.0200    -6.6790    -0.2090 N.pl3 1 <1>  -0.6000 
 23 N       -5.0780    -5.8470     3.1570 N.pl3 1 <1>  -0.9000 
 24 C       -8.0730    -8.0760    -0.2970 C.ar  1 <1>   0.1000 
 25 C       -9.2840    -8.6810    -0.6130 C.ar  1 <1>  -0.1500 
 26 C       -6.9580    -8.8850    -0.1090 C.ar  1 <1>  -0.1500 
 27 C       -9.3910   -10.0570    -0.7320 C.ar  1 <1>  -0.1440 
 28 C       -7.0540   -10.2600    -0.2250 C.ar  1 <1>  -0.1500 
 29 C       -8.2690   -10.8450    -0.5370 C.ar  1 <1>  -0.1500 
 30 C      -10.7200   -10.7070    -1.0750 C.3   1 <1>  -0.0960 
 31 H       -3.9360     0.2410    -1.7150 H     1 <1>   0.0800 
 32 H        0.8840     1.7670     1.1380 H     1 <1>   0.0800 
 33 H       -4.2510     1.5280     0.3230 H     1 <1>   0.0800 
 34 H       -3.6310     0.2380     1.3000 H     1 <1>   0.0800 
 35 H       -2.8170    -1.9740     0.0240 H     1 <1>   0.0800 
 36 H       -2.9770    -2.0010    -1.7020 H     1 <1>   0.0800 
 37 H        0.7770     3.8240    -1.0810 H     1 <1>   0.0800 
 38 H        1.5240     4.0610     0.4850 H     1 <1>   0.0800 
 39 H       -0.2030     3.8320     0.3650 H     1 <1>   0.0800 
 40 H        2.4150     1.8660    -1.4710 H     1 <1>   0.0800 
 41 H        2.4430     0.5450    -0.3300 H     1 <1>   0.0800 
 42 H        3.0900     2.1030     0.1250 H     1 <1>   0.0800 
 43 H       -6.1740     0.1860    -0.3330 H     1 <1>   0.0800 
 44 H       -6.0510     0.2330     1.4110 H     1 <1>   0.0800 
 45 H       -4.7760    -3.2690    -0.5820 H     1 <1>   0.0800 
 46 H       -5.4020    -1.9530    -1.5500 H     1 <1>   0.0800 
 47 H       -4.9300    -1.9020     1.3550 H     1 <1>   0.4500 
 48 H       -7.4790    -2.1100    -0.0930 H     1 <1>   0.0800 
 49 H       -7.3310    -1.7920     1.6160 H     1 <1>   0.0800 
 50 H       -8.7090    -6.1830    -0.7640 H     1 <1>   0.4000 
 51 H       -5.1600    -6.8310     3.4100 H     1 <1>   0.4000 
 52 H       -4.8060    -5.2120     3.9030 H     1 <1>   0.4000 
 53 H      -10.1520    -8.0680    -0.7630 H     1 <1>   0.1500 
 54 H       -6.0070    -8.4440     0.1240 H     1 <1>   0.1500 
 55 H       -6.1850   -10.8750    -0.0750 H     1 <1>   0.1500 
 56 H       -8.3360   -11.9150    -0.6260 H     1 <1>   0.1500 
 57 H      -11.5320   -10.0180    -0.9260 H     1 <1>   0.0800 
 58 H      -10.8840   -11.5650    -0.4480 H     1 <1>   0.0800 
 59 H      -10.7160   -11.0220    -2.1030 H     1 <1>   0.0800 
@<TRIPOS>BOND
  1   1   2  1   
  2   1   3  1   
  3   2   4  2   
  4   3   5  2   
  5   3   6  1   
  6   4   5  1   
  7   4   7  1   
  8   6   8  1   
  9   6   9  1   
 10   6  31  1   
 11   7  10  1   
 12   7  11  1   
 13   7  32  1   
 14   8  12  1   
 15   8  33  1   
 16   8  34  1   
 17   9  13  1   
 18   9  35  1   
 19   9  36  1   
 20  10  37  1   
 21  10  38  1   
 22  10  39  1   
 23  11  40  1   
 24  11  41  1   
 25  11  42  1   
 26  12  14  1   
 27  12  43  1   
 28  12  44  1   
 29  13  14  1   
 30  13  45  1   
 31  13  46  1   
 32  14  15  1   
 33  14  47  1   
 34  15  16  1   
 35  15  48  1   
 36  15  49  1   
 37  16  17  ar  
 38  16  18  ar  
 39  17  19  ar  
 40  18  20  ar  
 41  19  21  ar  
 42  19  22  1   
 43  20  21  ar  
 44  20  23  1   
 45  22  24  1   
 46  22  50  1   
 47  23  51  1   
 48  23  52  1   
 49  24  25  ar  
 50  24  26  ar  
 51  25  27  ar  
 52  25  53  1   
 53  26  28  ar  
 54  26  54  1   
 55  27  29  ar  
 56  27  30  1   
 57  28  29  ar  
 58  28  55  1   
 59  29  56  1   
 60  30  57  1   
 61  30  58  1   
 62  30  59  1   
@<TRIPOS>SUBSTRUCTURE
  1 ****  13 GROUP 4 **** **** 0

# MOE 2024.06 (io_trps.svl 2023.06)
