@<TRIPOS>MOLECULE
NONAME
30 31 1 0 0 
SMALL
USER_CHARGES


@<TRIPOS>ATOM
  1 O       -0.8140     0.4000    -1.2670 O.2   1 <1>  -0.5700 
  2 C       -0.7890     1.2830    -0.4450 C.2   1 <1>   0.6590 
  3 O       -1.4360     1.1810     0.7120 O.3   1 <1>  -0.4300 
  4 C       -0.0020     2.5950    -0.6660 C.3   1 <1>   0.2510 
  5 C       -2.1860     0.0300     1.0450 C.3   1 <1>   0.0400 
  6 N        0.3010     2.8920    -2.0860 N.3   1 <1>  -0.9900 
  7 C        1.2980     2.5830     0.1650 C.3   1 <1>  -0.0800 
  8 C        2.1370     3.8770     0.0990 C.3   1 <1>  -0.0170 
  9 C        2.2740     1.4310    -0.1560 C.3   1 <1>  -0.0170 
 10 C        3.5350     3.3770     0.3740 C.ar  1 <1>  -0.1430 
 11 C        3.6110     2.0130     0.2310 C.ar  1 <1>  -0.1430 
 12 C        4.6500     4.1140     0.7270 C.ar  1 <1>  -0.1500 
 13 C        4.8040     1.3460     0.4360 C.ar  1 <1>  -0.1500 
 14 C        5.8520     3.4540     0.9360 C.ar  1 <1>  -0.1500 
 15 C        5.9280     2.0750     0.7920 C.ar  1 <1>  -0.1500 
 16 H       -0.6210     3.3930    -0.2960 H     1 <1>   0.0800 
 17 H       -2.6150     0.1720     2.0210 H     1 <1>   0.0800 
 18 H       -1.5310    -0.8240     1.0480 H     1 <1>   0.0800 
 19 H       -2.9640    -0.1030     0.3130 H     1 <1>   0.0800 
 20 H       -0.5720     2.8200    -2.6220 H     1 <1>   0.3600 
 21 H        0.8960     2.1340    -2.4410 H     1 <1>   0.3600 
 22 H        1.0200     2.4610     1.1980 H     1 <1>   0.0800 
 23 H        1.8190     4.5940     0.8350 H     1 <1>   0.0800 
 24 H        2.1130     4.3230    -0.8790 H     1 <1>   0.0800 
 25 H        2.2850     1.1990    -1.2060 H     1 <1>   0.0800 
 26 H        2.0470     0.5460     0.4120 H     1 <1>   0.0800 
 27 H        4.5860     5.1810     0.8360 H     1 <1>   0.1500 
 28 H        4.8590     0.2780     0.3220 H     1 <1>   0.1500 
 29 H        6.7280     4.0130     1.2110 H     1 <1>   0.1500 
 30 H        6.8640     1.5710     0.9550 H     1 <1>   0.1500 
@<TRIPOS>BOND
  1   1   2  2   
  2   2   3  1   
  3   2   4  1   
  4   3   5  1   
  5   4   6  1   
  6   4   7  1   
  7   4  16  1   
  8   5  17  1   
  9   5  18  1   
 10   5  19  1   
 11   6  20  1   
 12   6  21  1   
 13   7   8  1   
 14   7   9  1   
 15   7  22  1   
 16   8  10  1   
 17   8  23  1   
 18   8  24  1   
 19   9  11  1   
 20   9  25  1   
 21   9  26  1   
 22  10  11  ar  
 23  10  12  ar  
 24  11  13  ar  
 25  12  14  ar  
 26  12  27  1   
 27  13  15  ar  
 28  13  28  1   
 29  14  15  ar  
 30  14  29  1   
 31  15  30  1   
@<TRIPOS>SUBSTRUCTURE
  1 ****   7 GROUP 4 **** **** 0

# MOE 2024.06 (io_trps.svl 2023.06)
