@<TRIPOS>MOLECULE
NONAME
54 56 1 0 0 
SMALL
USER_CHARGES


@<TRIPOS>ATOM
  1 O       -0.5360     0.6250     2.6470 O.2   1 <1>  -0.5700 
  2 C       -1.2380     1.5120     2.2060 C.2   1 <1>   0.5690 
  3 N       -2.3830     1.1750     1.5110 N.am  1 <1>  -0.6600 
  4 C       -0.7800     2.9910     2.4440 C.3   1 <1>   0.3410 
  5 C       -3.3590     2.0890     0.8630 C.3   1 <1>   0.1400 
  6 C       -2.5500    -0.1930     0.9530 C.3   1 <1>   0.1400 
  7 O       -0.6940     3.7440     1.2350 O.3   1 <1>  -0.3630 
  8 C       -1.7880     3.7390     3.3340 C.3   1 <1>  -0.2400 
  9 C        0.5950     3.1150     3.1350 C.3   1 <1>  -0.2400 
 10 C       -3.6380     1.4320    -0.4810 C.3   1 <1>   0.2000 
 11 C       -3.5460    -0.0660    -0.2070 C.3   1 <1>  -0.0800 
 12 C       -0.3860     3.2240     0.0070 C.ar  1 <1>   0.0830 
 13 O       -4.8910     1.7680    -0.9720 O.3   1 <1>  -0.6800 
 14 C       -3.1350    -0.8650    -1.4520 C.3   1 <1>   0.0210 
 15 C       -1.0210     3.7740    -1.1110 C.ar  1 <1>   0.0830 
 16 C        0.5070     2.1720    -0.1680 C.ar  1 <1>  -0.1500 
 17 C       -2.9950    -2.3400    -1.1320 C.2   1 <1>   0.1080 
 18 O       -1.9190     4.7800    -0.9130 O.3   1 <1>  -0.3630 
 19 C       -0.7480     3.2690    -2.3790 C.ar  1 <1>  -0.1500 
 20 C        0.7660     1.6720    -1.4320 C.ar  1 <1>  -0.1500 
 21 N       -3.9940    -3.0760    -0.7540 N.2   1 <1>  -0.7070 
 22 C       -1.8060    -3.0590    -1.1950 C.2   1 <1>  -0.1500 
 23 C       -2.9410     5.0320    -1.8540 C.3   1 <1>   0.0400 
 24 C        0.1400     2.2200    -2.5360 C.ar  1 <1>  -0.1500 
 25 N       -3.4630    -4.2990    -0.5670 N.pl3 1 <1>   0.3000 
 26 C       -2.1380    -4.3140    -0.8260 C.2   1 <1>  -0.3320 
 27 C       -1.2590    -5.5440    -0.7020 C.3   1 <1>  -0.0600 
 28 H       -4.2530     2.1190     1.4600 H     1 <1>   0.0800 
 29 H       -2.9780     3.0820     0.7290 H     1 <1>   0.0800 
 30 H       -1.5960    -0.5530     0.6050 H     1 <1>   0.0800 
 31 H       -2.9210    -0.8640     1.7090 H     1 <1>   0.0800 
 32 H       -1.8820     3.2340     4.2790 H     1 <1>   0.0800 
 33 H       -2.7570     3.7770     2.8790 H     1 <1>   0.0800 
 34 H       -1.4550     4.7450     3.5150 H     1 <1>   0.0800 
 35 H        0.5550     2.6600     4.1080 H     1 <1>   0.0800 
 36 H        0.8660     4.1490     3.2510 H     1 <1>   0.0800 
 37 H        1.3630     2.6170     2.5780 H     1 <1>   0.0800 
 38 H       -2.8960     1.7460    -1.1950 H     1 <1>   0.0800 
 39 H       -4.4950    -0.4310     0.1470 H     1 <1>   0.0800 
 40 H       -5.5870     1.3440    -0.4340 H     1 <1>   0.4000 
 41 H       -2.2030    -0.4920    -1.8380 H     1 <1>   0.0800 
 42 H       -3.8840    -0.7500    -2.2160 H     1 <1>   0.0800 
 43 H        1.0110     1.7240     0.6660 H     1 <1>   0.1500 
 44 H       -1.2140     3.6830    -3.2520 H     1 <1>   0.1500 
 45 H        1.4580     0.8570    -1.5530 H     1 <1>   0.1500 
 46 H       -0.8440    -2.6720    -1.4790 H     1 <1>   0.1500 
 47 H       -3.6310     5.7310    -1.4170 H     1 <1>   0.0800 
 48 H       -3.4480     4.1100    -2.0780 H     1 <1>   0.0800 
 49 H       -2.5050     5.4580    -2.7390 H     1 <1>   0.0800 
 50 H        0.3480     1.8330    -3.5190 H     1 <1>   0.1500 
 51 H       -4.0290    -5.1000    -0.2620 H     1 <1>   0.2700 
 52 H       -0.2440    -5.3010    -0.9640 H     1 <1>   0.0800 
 53 H       -1.6060    -6.3180    -1.3630 H     1 <1>   0.0800 
 54 H       -1.2720    -5.9110     0.3080 H     1 <1>   0.0800 
@<TRIPOS>BOND
  1   1   2  2   
  2   2   3  am  
  3   2   4  1   
  4   3   5  1   
  5   3   6  1   
  6   4   7  1   
  7   4   8  1   
  8   4   9  1   
  9   5  10  1   
 10   5  28  1   
 11   5  29  1   
 12   6  11  1   
 13   6  30  1   
 14   6  31  1   
 15   7  12  1   
 16   8  32  1   
 17   8  33  1   
 18   8  34  1   
 19   9  35  1   
 20   9  36  1   
 21   9  37  1   
 22  10  11  1   
 23  10  13  1   
 24  10  38  1   
 25  11  14  1   
 26  11  39  1   
 27  12  15  ar  
 28  12  16  ar  
 29  13  40  1   
 30  14  17  1   
 31  14  41  1   
 32  14  42  1   
 33  15  18  1   
 34  15  19  ar  
 35  16  20  ar  
 36  16  43  1   
 37  17  21  2   
 38  17  22  1   
 39  18  23  1   
 40  19  24  ar  
 41  19  44  1   
 42  20  24  ar  
 43  20  45  1   
 44  21  25  1   
 45  22  26  2   
 46  22  46  1   
 47  23  47  1   
 48  23  48  1   
 49  23  49  1   
 50  24  50  1   
 51  25  26  1   
 52  25  51  1   
 53  26  27  1   
 54  27  52  1   
 55  27  53  1   
 56  27  54  1   
@<TRIPOS>SUBSTRUCTURE
  1 ****   6 GROUP 4 **** **** 0

# MOE 2024.06 (io_trps.svl 2023.06)
