@<TRIPOS>MOLECULE
NONAME
45 47 1 0 0 
SMALL
USER_CHARGES


@<TRIPOS>ATOM
  1 CL      -0.1800     0.0110     0.8330 Cl    1 <1>  -0.1770 
  2 C       -0.3320    -1.7240     0.7760 C.ar  1 <1>   0.1770 
  3 C        0.4880    -2.4510    -0.0630 C.ar  1 <1>  -0.1500 
  4 C       -1.2690    -2.3490     1.5740 C.ar  1 <1>  -0.1500 
  5 C        0.3760    -3.8320    -0.1240 C.ar  1 <1>  -0.1440 
  6 C       -1.3900    -3.7250     1.5170 C.ar  1 <1>  -0.1500 
  7 C       -0.5860    -4.4730     0.6620 C.ar  1 <1>  -0.1430 
  8 C        1.3320    -4.5750    -1.0510 C.3   1 <1>  -0.0960 
  9 C       -0.7910    -5.9770     0.6130 C.3   1 <1>   0.4870 
 10 N       -1.3520    -6.3870    -0.7150 N.4   1 <1>  -0.9590 
 11 C       -2.7960    -6.1070    -0.9970 C.3   1 <1>   0.4230 
 12 C       -1.0590    -7.8310    -0.9630 C.3   1 <1>   0.2630 
 13 C       -3.7540    -6.2870     0.1780 C.3   1 <1>  -0.1600 
 14 C       -3.0530    -4.6940    -1.5110 C.3   1 <1>  -0.1600 
 15 C       -5.0200    -5.5420    -0.2610 C.3   1 <1>  -0.0800 
 16 C       -4.5330    -4.4150    -1.2070 C.3   1 <1>  -0.0800 
 17 C       -5.9070    -5.1030     0.9280 C.3   1 <1>   0.1400 
 18 C       -4.7700    -2.9950    -0.6580 C.3   1 <1>  -0.0990 
 19 N       -6.6810    -3.8970     0.5770 N.am  1 <1>  -0.7300 
 20 C       -6.1840    -2.8670    -0.1370 C.2   1 <1>   0.5690 
 21 O       -6.8320    -1.8770    -0.3510 O.2   1 <1>  -0.5700 
 22 H        1.2110    -1.9210    -0.6590 H     1 <1>   0.1500 
 23 H       -1.8880    -1.7590     2.2280 H     1 <1>   0.1500 
 24 H       -2.1200    -4.1970     2.1510 H     1 <1>   0.1500 
 25 H        2.2270    -3.9950    -1.2010 H     1 <1>   0.0800 
 26 H        0.8770    -4.7340    -2.0120 H     1 <1>   0.0800 
 27 H        1.6330    -5.5180    -0.6330 H     1 <1>   0.0800 
 28 H       -1.4370    -6.2950     1.4140 H     1 <1>   0.0800 
 29 H        0.1670    -6.4480     0.7630 H     1 <1>   0.0800 
 30 H       -0.8280    -5.8240    -1.3980 H     1 <1>   0.4500 
 31 H       -3.1280    -6.7730    -1.7780 H     1 <1>   0.0800 
 32 H       -1.5930    -8.4480    -0.2580 H     1 <1>   0.0800 
 33 H       -0.0030    -8.0250    -0.8610 H     1 <1>   0.0800 
 34 H       -1.3610    -8.1090    -1.9600 H     1 <1>   0.0800 
 35 H       -3.9620    -7.3250     0.3710 H     1 <1>   0.0800 
 36 H       -3.3780    -5.8180     1.0650 H     1 <1>   0.0800 
 37 H       -2.4410    -3.9690    -1.0130 H     1 <1>   0.0800 
 38 H       -2.8680    -4.6310    -2.5690 H     1 <1>   0.0800 
 39 H       -5.6090    -6.2200    -0.8570 H     1 <1>   0.0800 
 40 H       -5.0980    -4.4980    -2.1230 H     1 <1>   0.0800 
 41 H       -5.3020    -4.8680     1.7870 H     1 <1>   0.0800 
 42 H       -6.5800    -5.8990     1.1980 H     1 <1>   0.0800 
 43 H       -4.6090    -2.2640    -1.4300 H     1 <1>   0.0800 
 44 H       -4.1020    -2.7810     0.1550 H     1 <1>   0.0800 
 45 H       -7.6250    -3.7870     0.9570 H     1 <1>   0.3700 
@<TRIPOS>BOND
  1   1   2  1   
  2   2   3  ar  
  3   2   4  ar  
  4   3   5  ar  
  5   3  22  1   
  6   4   6  ar  
  7   4  23  1   
  8   5   7  ar  
  9   5   8  1   
 10   6   7  ar  
 11   6  24  1   
 12   7   9  1   
 13   8  25  1   
 14   8  26  1   
 15   8  27  1   
 16   9  10  1   
 17   9  28  1   
 18   9  29  1   
 19  10  11  1   
 20  10  12  1   
 21  10  30  1   
 22  11  13  1   
 23  11  14  1   
 24  11  31  1   
 25  12  32  1   
 26  12  33  1   
 27  12  34  1   
 28  13  15  1   
 29  13  35  1   
 30  13  36  1   
 31  14  16  1   
 32  14  37  1   
 33  14  38  1   
 34  15  16  1   
 35  15  17  1   
 36  15  39  1   
 37  16  18  1   
 38  16  40  1   
 39  17  19  1   
 40  17  41  1   
 41  17  42  1   
 42  18  20  1   
 43  18  43  1   
 44  18  44  1   
 45  19  20  am  
 46  19  45  1   
 47  20  21  2   
@<TRIPOS>SUBSTRUCTURE
  1 ****  14 GROUP 4 **** **** 0

# MOE 2024.06 (io_trps.svl 2023.06)
