@<TRIPOS>MOLECULE
NONAME
61 64 1 0 0 
SMALL
USER_CHARGES


@<TRIPOS>ATOM
  1 O       -1.0070     0.5750     1.4640 O.2   1 <1>  -0.5700 
  2 C       -1.5620     1.0750     0.5170 C.2   1 <1>   0.5690 
  3 N       -2.5420     0.4200    -0.1650 N.am  1 <1>  -0.7300 
  4 C       -1.0950     2.4630     0.0730 C.3   1 <1>   0.0610 
  5 C       -3.0450    -0.9390     0.1700 C.3   1 <1>   0.0600 
  6 C       -0.7000     3.3200     1.3030 C.3   1 <1>   0.4230 
  7 C       -2.1840     3.3730    -0.5720 C.3   1 <1>  -0.1600 
  8 C        0.1140     2.2300    -0.8730 C.3   1 <1>  -0.0220 
  9 N       -0.7570     4.6710     0.7170 N.4   1 <1>  -0.9590 
 10 C       -1.8420     3.4030     2.3420 C.3   1 <1>  -0.1600 
 11 C       -2.1700     4.6270     0.3140 C.3   1 <1>   0.4230 
 12 C        0.7770     3.4850    -1.4390 C.2   1 <1>  -0.2880 
 13 C       -0.3280     5.8180     1.5680 C.3   1 <1>   0.4860 
 14 C       -2.8740     4.2940     1.6360 C.3   1 <1>  -0.1600 
 15 C        1.8830     4.0960    -0.9970 C.2   1 <1>  -0.2760 
 16 C       -0.8330     7.1100     0.9510 C.ar  1 <1>  -0.1440 
 17 C        2.4660     5.3080    -1.7090 C.3   1 <1>  -0.1020 
 18 C        2.7300     3.6830     0.2020 C.3   1 <1>  -0.1020 
 19 C       -1.7770     7.8710     1.6230 C.ar  1 <1>  -0.1500 
 20 C       -0.3850     7.5380    -0.2900 C.ar  1 <1>  -0.1500 
 21 C       -2.2720     9.0290     1.0540 C.ar  1 <1>  -0.1500 
 22 C       -0.8830     8.6990    -0.8530 C.ar  1 <1>  -0.1500 
 23 C       -1.8410     9.4690    -0.1950 C.ar  1 <1>   0.0000 
 24 C       -2.3800    10.6770    -0.7830 C.ar  1 <1>   0.3100 
 25 N       -3.7070    10.8060    -0.8250 N.ar  1 <1>  -0.6200 
 26 C       -1.5210    11.6560    -1.2800 C.ar  1 <1>  -0.1500 
 27 C       -4.1770    11.9130    -1.3720 C.ar  1 <1>   0.1600 
 28 C       -2.0230    12.8060    -1.8480 C.ar  1 <1>  -0.1500 
 29 C       -3.3940    12.9280    -1.8920 C.ar  1 <1>  -0.1500 
 30 H       -2.9410     0.8240    -1.0160 H     1 <1>   0.3700 
 31 H       -2.5780    -1.3060     1.0690 H     1 <1>   0.0800 
 32 H       -2.8250    -1.6190    -0.6350 H     1 <1>   0.0800 
 33 H       -4.1100    -0.9080     0.3240 H     1 <1>   0.0800 
 34 H        0.2570     3.0510     1.7200 H     1 <1>   0.0800 
 35 H       -3.1640     2.9300    -0.5720 H     1 <1>   0.0800 
 36 H       -1.9460     3.6380    -1.5860 H     1 <1>   0.0800 
 37 H        0.8490     1.6420    -0.3510 H     1 <1>   0.0800 
 38 H       -0.2020     1.6220    -1.7040 H     1 <1>   0.0800 
 39 H       -0.1620     4.6650    -0.1270 H     1 <1>   0.4500 
 40 H       -2.2550     2.4460     2.6080 H     1 <1>   0.0800 
 41 H       -1.4890     3.8610     3.2480 H     1 <1>   0.0800 
 42 H       -2.5290     5.5220    -0.1730 H     1 <1>   0.0800 
 43 H        0.2550     3.8480    -2.3120 H     1 <1>   0.1500 
 44 H       -0.7340     5.7220     2.5600 H     1 <1>   0.0800 
 45 H        0.7470     5.8420     1.6400 H     1 <1>   0.0800 
 46 H       -3.0700     5.1900     2.1980 H     1 <1>   0.0800 
 47 H       -3.8100     3.7860     1.4750 H     1 <1>   0.0800 
 48 H        2.5690     6.1380    -1.0330 H     1 <1>   0.0800 
 49 H        1.8480     5.6090    -2.5350 H     1 <1>   0.0800 
 50 H        3.4410     5.0670    -2.0970 H     1 <1>   0.0800 
 51 H        2.8240     4.5000     0.8950 H     1 <1>   0.0800 
 52 H        3.7170     3.4120    -0.1310 H     1 <1>   0.0800 
 53 H        2.3220     2.8430     0.7280 H     1 <1>   0.0800 
 54 H       -2.1430     7.5760     2.5920 H     1 <1>   0.1500 
 55 H        0.3500     6.9730    -0.8350 H     1 <1>   0.1500 
 56 H       -3.0120     9.6130     1.5760 H     1 <1>   0.1500 
 57 H       -0.5350     9.0140    -1.8210 H     1 <1>   0.1500 
 58 H       -0.4590    11.5110    -1.2140 H     1 <1>   0.1500 
 59 H       -5.2480    12.0190    -1.4090 H     1 <1>   0.1500 
 60 H       -1.3760    13.5740    -2.2380 H     1 <1>   0.1500 
 61 H       -3.8540    13.8000    -2.3210 H     1 <1>   0.1500 
@<TRIPOS>BOND
  1   1   2  2   
  2   2   3  am  
  3   2   4  1   
  4   3   5  1   
  5   3  30  1   
  6   4   6  1   
  7   4   7  1   
  8   4   8  1   
  9   5  31  1   
 10   5  32  1   
 11   5  33  1   
 12   6   9  1   
 13   6  10  1   
 14   6  34  1   
 15   7  11  1   
 16   7  35  1   
 17   7  36  1   
 18   8  12  1   
 19   8  37  1   
 20   8  38  1   
 21   9  11  1   
 22   9  13  1   
 23   9  39  1   
 24  10  14  1   
 25  10  40  1   
 26  10  41  1   
 27  11  14  1   
 28  11  42  1   
 29  12  15  2   
 30  12  43  1   
 31  13  16  1   
 32  13  44  1   
 33  13  45  1   
 34  14  46  1   
 35  14  47  1   
 36  15  17  1   
 37  15  18  1   
 38  16  19  ar  
 39  16  20  ar  
 40  17  48  1   
 41  17  49  1   
 42  17  50  1   
 43  18  51  1   
 44  18  52  1   
 45  18  53  1   
 46  19  21  ar  
 47  19  54  1   
 48  20  22  ar  
 49  20  55  1   
 50  21  23  ar  
 51  21  56  1   
 52  22  23  ar  
 53  22  57  1   
 54  23  24  1   
 55  24  25  ar  
 56  24  26  ar  
 57  25  27  ar  
 58  26  28  ar  
 59  26  58  1   
 60  27  29  ar  
 61  27  59  1   
 62  28  29  ar  
 63  28  60  1   
 64  29  61  1   
@<TRIPOS>SUBSTRUCTURE
  1 ****   9 GROUP 4 **** **** 0

# MOE 2024.06 (io_trps.svl 2023.06)
