@<TRIPOS>MOLECULE
NONAME
52 56 1 0 0 
SMALL
USER_CHARGES


@<TRIPOS>ATOM
  1 O       -1.5440    -0.7960    -2.6940 O.2   1 <1>  -0.5700 
  2 C       -1.8850    -1.0590    -1.5650 C.2   1 <1>   0.5690 
  3 N       -1.8950    -0.1210    -0.5740 N.am  1 <1>  -0.6600 
  4 C       -2.3040    -2.4800    -1.2700 C.3   1 <1>  -0.0190 
  5 C       -2.3600    -0.4400     0.8060 C.3   1 <1>   0.2200 
  6 C       -1.4880     1.2920    -0.8200 C.3   1 <1>   0.0600 
  7 C       -1.3540    -3.1350    -0.2500 C.3   1 <1>   0.1200 
  8 C       -3.8170    -2.5690    -0.9980 C.3   1 <1>   0.1400 
  9 C       -1.4470    -1.4870     1.4890 C.3   1 <1>   0.1200 
 10 C       -3.8730    -0.7570     0.8270 C.3   1 <1>   0.1400 
 11 O       -1.6400    -2.8120     1.0760 O.3   1 <1>  -0.5600 
 12 N       -4.2680    -2.1300     0.3630 N.am  1 <1>  -0.6600 
 13 C       -5.1040    -2.9080     1.1440 C.2   1 <1>   0.5440 
 14 O       -5.7470    -2.3750     2.0300 O.2   1 <1>  -0.5700 
 15 C       -5.2610    -4.3290     0.9180 C.ar  1 <1>   0.0860 
 16 C       -6.4850    -4.8670     0.5530 C.ar  1 <1>  -0.1500 
 17 C       -4.1630    -5.2030     1.0550 C.ar  1 <1>  -0.1500 
 18 C       -6.6040    -6.2340     0.3000 C.ar  1 <1>  -0.1520 
 19 C       -4.2710    -6.5510     0.8080 C.ar  1 <1>  -0.1500 
 20 N       -7.6910    -6.9860    -0.0760 N.pl3 1 <1>   0.0330 
 21 C       -5.5040    -7.0800     0.4160 C.ar  1 <1>   0.0000 
 22 C       -7.2830    -8.2820    -0.1990 C.2   1 <1>  -0.3320 
 23 C       -5.9650    -8.3700     0.0860 C.2   1 <1>  -0.1810 
 24 C       -8.1660    -9.4480    -0.5990 C.3   1 <1>   0.0200 
 25 C       -5.1750    -9.6630     0.0500 C.3   1 <1>   0.0210 
 26 C       -7.4500   -10.7760    -0.2910 C.3   1 <1>  -0.1600 
 27 C       -5.9650   -10.7480    -0.7070 C.3   1 <1>  -0.1600 
 28 H       -2.1460    -3.0140    -2.1890 H     1 <1>   0.0800 
 29 H       -2.2460     0.4610     1.3820 H     1 <1>   0.0800 
 30 H       -0.6730     1.5560    -0.1700 H     1 <1>   0.0800 
 31 H       -2.3200     1.9490    -0.6350 H     1 <1>   0.0800 
 32 H       -1.1680     1.4280    -1.8390 H     1 <1>   0.0800 
 33 H       -0.3320    -2.8670    -0.4550 H     1 <1>   0.0800 
 34 H       -1.4420    -4.2050    -0.3280 H     1 <1>   0.0800 
 35 H       -4.1220    -3.5850    -1.1710 H     1 <1>   0.0800 
 36 H       -4.3310    -1.9670    -1.7290 H     1 <1>   0.0800 
 37 H       -1.6480    -1.4740     2.5450 H     1 <1>   0.0800 
 38 H       -0.4120    -1.2310     1.3430 H     1 <1>   0.0800 
 39 H       -4.3950    -0.0270     0.2340 H     1 <1>   0.0800 
 40 H       -4.2010    -0.6250     1.8430 H     1 <1>   0.0800 
 41 H       -7.3430    -4.2260     0.4640 H     1 <1>   0.1500 
 42 H       -3.2230    -4.7850     1.3680 H     1 <1>   0.1500 
 43 H       -3.4300    -7.2100     0.9130 H     1 <1>   0.1500 
 44 H       -8.6390    -6.6270    -0.2210 H     1 <1>   0.2700 
 45 H       -9.0990    -9.4100    -0.0640 H     1 <1>   0.0800 
 46 H       -8.3720    -9.3820    -1.6530 H     1 <1>   0.0800 
 47 H       -4.2270    -9.5000    -0.4310 H     1 <1>   0.0800 
 48 H       -4.9940    -9.9810     1.0620 H     1 <1>   0.0800 
 49 H       -7.5080   -10.9620     0.7680 H     1 <1>   0.0800 
 50 H       -7.9570   -11.5800    -0.7950 H     1 <1>   0.0800 
 51 H       -5.9050   -10.5460    -1.7620 H     1 <1>   0.0800 
 52 H       -5.5150   -11.7080    -0.5270 H     1 <1>   0.0800 
@<TRIPOS>BOND
  1   1   2  2   
  2   2   3  am  
  3   2   4  1   
  4   3   5  1   
  5   3   6  1   
  6   4   7  1   
  7   4   8  1   
  8   4  28  1   
  9   5   9  1   
 10   5  10  1   
 11   5  29  1   
 12   6  30  1   
 13   6  31  1   
 14   6  32  1   
 15   7  11  1   
 16   7  33  1   
 17   7  34  1   
 18   8  12  1   
 19   8  35  1   
 20   8  36  1   
 21   9  11  1   
 22   9  37  1   
 23   9  38  1   
 24  10  12  1   
 25  10  39  1   
 26  10  40  1   
 27  12  13  am  
 28  13  14  2   
 29  13  15  1   
 30  15  16  ar  
 31  15  17  ar  
 32  16  18  ar  
 33  16  41  1   
 34  17  19  ar  
 35  17  42  1   
 36  18  20  1   
 37  18  21  ar  
 38  19  21  ar  
 39  19  43  1   
 40  20  22  1   
 41  20  44  1   
 42  21  23  1   
 43  22  23  2   
 44  22  24  1   
 45  23  25  1   
 46  24  26  1   
 47  24  45  1   
 48  24  46  1   
 49  25  27  1   
 50  25  47  1   
 51  25  48  1   
 52  26  27  1   
 53  26  49  1   
 54  26  50  1   
 55  27  51  1   
 56  27  52  1   
@<TRIPOS>SUBSTRUCTURE
  1 ****  15 GROUP 4 **** **** 0

# MOE 2024.06 (io_trps.svl 2023.06)
