@<TRIPOS>MOLECULE
NONAME
53 56 1 0 0 
SMALL
USER_CHARGES


@<TRIPOS>ATOM
  1 O        0.2740    -0.0450    -0.1550 O.3   1 <1>  -0.5600 
  2 C        1.5430    -0.5980    -0.3740 C.3   1 <1>   0.3440 
  3 C        0.1190     1.2790    -0.5740 C.3   1 <1>   0.2950 
  4 C        1.5690    -2.0360     0.1210 C.ar  1 <1>  -0.1440 
  5 C        2.6100     0.2220     0.3880 C.3   1 <1>   0.3430 
  6 C       -1.3280     1.6850    -0.2900 C.3   1 <1>  -0.1950 
  7 C        1.1090     2.1930     0.1830 C.3   1 <1>   0.3430 
  8 C        2.3270    -2.9820    -0.5570 C.ar  1 <1>  -0.1500 
  9 C        0.8640    -2.4220     1.2530 C.ar  1 <1>  -0.1500 
 10 N        2.5360     1.7030     0.1040 N.4   1 <1>  -0.9590 
 11 C       -2.4280     1.3330    -1.2390 C.3   1 <1>  -0.2000 
 12 C       -1.9980     2.7650    -1.0810 C.3   1 <1>  -0.2000 
 13 C        2.3870    -4.2880    -0.1030 C.ar  1 <1>  -0.1500 
 14 C        0.9240    -3.7280     1.7070 C.ar  1 <1>  -0.1500 
 15 C        3.4230     2.4930     0.9970 C.3   1 <1>   0.5240 
 16 C        1.6870    -4.6610     1.0300 C.ar  1 <1>  -0.1500 
 17 C        3.4260     3.9140     0.4840 C.2   1 <1>  -0.1810 
 18 C        4.1180     4.4000    -0.6210 C.2   1 <1>   0.1080 
 19 C        2.7590     4.9860     0.9690 C.2   1 <1>  -0.3020 
 20 N        3.8820     5.6540    -0.8190 N.2   1 <1>  -0.7070 
 21 C        5.0540     3.6400    -1.5370 C.3   1 <1>  -0.0590 
 22 N        3.0530     6.0290     0.1680 N.pl3 1 <1>   0.3140 
 23 C        2.5830     7.4190     0.2970 C.3   1 <1>   0.0960 
 24 C        3.7210     8.3010     0.8060 C.3   1 <1>   0.1200 
 25 O        3.2510     9.5980     0.9570 O.3   1 <1>  -0.6800 
 26 H        1.7360    -0.5810    -1.4330 H     1 <1>   0.0800 
 27 H        0.3010     1.3240    -1.6350 H     1 <1>   0.0800 
 28 H        3.5860    -0.1580     0.1350 H     1 <1>   0.0800 
 29 H        2.4570     0.0460     1.4410 H     1 <1>   0.0800 
 30 H       -1.5670     1.6290     0.7590 H     1 <1>   0.1000 
 31 H        0.7960     2.2340     1.2130 H     1 <1>   0.0800 
 32 H        1.0390     3.1910    -0.2180 H     1 <1>   0.0800 
 33 H        2.8760    -2.7210    -1.4450 H     1 <1>   0.1500 
 34 H        0.2550    -1.7120     1.7880 H     1 <1>   0.1500 
 35 H        2.8620     1.8870    -0.8530 H     1 <1>   0.4500 
 36 H       -2.1890     0.8120    -2.1510 H     1 <1>   0.1000 
 37 H       -3.3780     1.0270    -0.8340 H     1 <1>   0.1000 
 38 H       -2.6740     3.4410    -0.5840 H     1 <1>   0.1000 
 39 H       -1.5000     3.2270    -1.9160 H     1 <1>   0.1000 
 40 H        2.9750    -5.0190    -0.6320 H     1 <1>   0.1500 
 41 H        0.3730    -4.0200     2.5840 H     1 <1>   0.1500 
 42 H        3.0550     2.4690     2.0100 H     1 <1>   0.0800 
 43 H        4.4270     2.1010     0.9830 H     1 <1>   0.0800 
 44 H        1.7330    -5.6780     1.3820 H     1 <1>   0.1500 
 45 H        2.1080     5.0800     1.8200 H     1 <1>   0.1500 
 46 H        5.3650     2.7090    -1.1030 H     1 <1>   0.0800 
 47 H        5.9290     4.2390    -1.7200 H     1 <1>   0.0800 
 48 H        4.5710     3.4580    -2.4800 H     1 <1>   0.0800 
 49 H        2.2600     7.7540    -0.6710 H     1 <1>   0.0800 
 50 H        1.7590     7.4470     0.9850 H     1 <1>   0.0800 
 51 H        4.5470     8.3140     0.1140 H     1 <1>   0.0800 
 52 H        4.0590     7.9620     1.7700 H     1 <1>   0.0800 
 53 H        3.2090    10.0590     0.0950 H     1 <1>   0.4000 
@<TRIPOS>BOND
  1   1   2  1   
  2   1   3  1   
  3   2   4  1   
  4   2   5  1   
  5   2  26  1   
  6   3   6  1   
  7   3   7  1   
  8   3  27  1   
  9   4   8  ar  
 10   4   9  ar  
 11   5  10  1   
 12   5  28  1   
 13   5  29  1   
 14   6  11  1   
 15   6  12  1   
 16   6  30  1   
 17   7  10  1   
 18   7  31  1   
 19   7  32  1   
 20   8  13  ar  
 21   8  33  1   
 22   9  14  ar  
 23   9  34  1   
 24  10  15  1   
 25  10  35  1   
 26  11  12  1   
 27  11  36  1   
 28  11  37  1   
 29  12  38  1   
 30  12  39  1   
 31  13  16  ar  
 32  13  40  1   
 33  14  16  ar  
 34  14  41  1   
 35  15  17  1   
 36  15  42  1   
 37  15  43  1   
 38  16  44  1   
 39  17  18  1   
 40  17  19  2   
 41  18  20  2   
 42  18  21  1   
 43  19  22  1   
 44  19  45  1   
 45  20  22  1   
 46  21  46  1   
 47  21  47  1   
 48  21  48  1   
 49  22  23  1   
 50  23  24  1   
 51  23  49  1   
 52  23  50  1   
 53  24  25  1   
 54  24  51  1   
 55  24  52  1   
 56  25  53  1   
@<TRIPOS>SUBSTRUCTURE
  1 ****  10 GROUP 4 **** **** 0

# MOE 2024.06 (io_trps.svl 2023.06)
