@<TRIPOS>MOLECULE
NONAME
51 53 1 0 0 
SMALL
USER_CHARGES


@<TRIPOS>ATOM
  1 F       -2.4300    -0.4480    -0.3510 F     1 <1>  -0.1900 
  2 C       -2.3110    -1.7490    -0.2660 C.ar  1 <1>   0.1900 
  3 C       -1.0680    -2.3740    -0.1210 C.ar  1 <1>   0.0820 
  4 C       -3.4820    -2.4780    -0.3260 C.ar  1 <1>  -0.1500 
  5 O        0.1520    -1.7680    -0.0520 O.3   1 <1>  -0.3630 
  6 C       -1.0510    -3.7570    -0.0360 C.ar  1 <1>  -0.1500 
  7 C       -3.4270    -3.8570    -0.2400 C.ar  1 <1>  -0.1500 
  8 C        0.3270    -0.3730    -0.1630 C.3   1 <1>   0.0400 
  9 C       -2.2130    -4.5320    -0.0910 C.ar  1 <1>   0.0530 
 10 C       -2.1400    -5.9730     0.0040 C.2   1 <1>   0.0870 
 11 O       -0.9950    -6.5870    -0.2080 O.3   1 <1>  -0.0190 
 12 C       -3.0450    -6.9480     0.2790 C.2   1 <1>  -0.2330 
 13 N       -1.0780    -7.8890    -0.0900 N.2   1 <1>  -0.4100 
 14 C       -2.2980    -8.1170     0.2270 C.2   1 <1>   0.3720 
 15 C       -4.4500    -7.0070     0.4830 C.2   1 <1>   1.0330 
 16 N       -2.8340    -9.3740     0.4680 N.pl3 1 <1>  -0.8520 
 17 O       -5.2330    -6.6450    -0.4050 O.co2 1 <1>  -0.9000 
 18 O       -4.9380    -7.7430     1.3610 O.co2 1 <1>  -0.9000 
 19 C       -3.2090   -10.1300    -0.7540 C.3   1 <1>   0.2890 
 20 C       -4.4850    -9.5520    -1.4220 C.3   1 <1>   0.3430 
 21 C       -3.4510   -11.5980    -0.3580 C.3   1 <1>  -0.1600 
 22 N       -5.6870    -9.5860    -0.5120 N.4   1 <1>  -0.9590 
 23 C       -4.9370   -11.9320    -0.0890 C.3   1 <1>  -0.1600 
 24 C       -5.7420   -10.7370     0.4370 C.3   1 <1>   0.3430 
 25 C       -6.9360    -9.2610    -1.2330 C.3   1 <1>   0.3430 
 26 C       -8.0180    -8.8050    -0.2510 C.3   1 <1>  -0.1600 
 27 C       -9.2860    -8.3660    -0.9930 C.3   1 <1>  -0.2400 
 28 H       -4.4250    -1.9740    -0.4390 H     1 <1>   0.1500 
 29 H       -0.0990    -4.2420     0.0800 H     1 <1>   0.1500 
 30 H       -4.3480    -4.4080    -0.2960 H     1 <1>   0.1500 
 31 H        1.3780    -0.1610    -0.0980 H     1 <1>   0.0800 
 32 H       -0.1920     0.1100     0.6450 H     1 <1>   0.0800 
 33 H       -0.0520    -0.0470    -1.1160 H     1 <1>   0.0800 
 34 H       -3.6710    -9.2120     1.0560 H     1 <1>   0.4000 
 35 H       -2.3850   -10.0800    -1.4470 H     1 <1>   0.0800 
 36 H       -4.6930   -10.1340    -2.3020 H     1 <1>   0.0800 
 37 H       -4.2960    -8.5370    -1.7340 H     1 <1>   0.0800 
 38 H       -2.8550   -11.8310     0.5080 H     1 <1>   0.0800 
 39 H       -3.1030   -12.2320    -1.1550 H     1 <1>   0.0800 
 40 H       -5.5670    -8.7440     0.1130 H     1 <1>   0.4500 
 41 H       -4.9940   -12.7350     0.6240 H     1 <1>   0.0800 
 42 H       -5.4020   -12.2790    -0.9950 H     1 <1>   0.0800 
 43 H       -6.7640   -11.0280     0.6120 H     1 <1>   0.0800 
 44 H       -5.3230   -10.4240     1.3810 H     1 <1>   0.0800 
 45 H       -7.2750   -10.1130    -1.7970 H     1 <1>   0.0800 
 46 H       -6.7420    -8.4480    -1.9150 H     1 <1>   0.0800 
 47 H       -7.6440    -7.9690     0.3170 H     1 <1>   0.0800 
 48 H       -8.2730    -9.5970     0.4290 H     1 <1>   0.0800 
 49 H       -9.0670    -7.5450    -1.6540 H     1 <1>   0.0800 
 50 H      -10.0270    -8.0380    -0.2850 H     1 <1>   0.0800 
 51 H       -9.6970    -9.1790    -1.5660 H     1 <1>   0.0800 
@<TRIPOS>BOND
  1   1   2  1   
  2   2   3  ar  
  3   2   4  ar  
  4   3   5  1   
  5   3   6  ar  
  6   4   7  ar  
  7   4  28  1   
  8   5   8  1   
  9   6   9  ar  
 10   6  29  1   
 11   7   9  ar  
 12   7  30  1   
 13   8  31  1   
 14   8  32  1   
 15   8  33  1   
 16   9  10  1   
 17  10  11  1   
 18  10  12  2   
 19  11  13  1   
 20  12  14  1   
 21  12  15  1   
 22  13  14  2   
 23  14  16  1   
 24  15  17  ar  
 25  15  18  ar  
 26  16  19  1   
 27  16  34  1   
 28  19  20  1   
 29  19  21  1   
 30  19  35  1   
 31  20  22  1   
 32  20  36  1   
 33  20  37  1   
 34  21  23  1   
 35  21  38  1   
 36  21  39  1   
 37  22  24  1   
 38  22  25  1   
 39  22  40  1   
 40  23  24  1   
 41  23  41  1   
 42  23  42  1   
 43  24  43  1   
 44  24  44  1   
 45  25  26  1   
 46  25  45  1   
 47  25  46  1   
 48  26  27  1   
 49  26  47  1   
 50  26  48  1   
 51  27  49  1   
 52  27  50  1   
 53  27  51  1   
@<TRIPOS>SUBSTRUCTURE
  1 ****  12 GROUP 4 **** **** 0

# MOE 2024.06 (io_trps.svl 2023.06)
