@<TRIPOS>MOLECULE
NONAME
43 44 1 0 0 
SMALL
USER_CHARGES


@<TRIPOS>ATOM
  1 CL      -5.4890    -0.1820     1.5690 Cl    1 <1>  -0.1770 
  2 C       -4.3790    -1.3410     0.8830 C.ar  1 <1>   0.1770 
  3 C       -4.7520    -2.6700     0.8080 C.ar  1 <1>  -0.1500 
  4 C       -3.1480    -0.9110     0.4260 C.ar  1 <1>  -0.1500 
  5 C       -3.8750    -3.5960     0.2630 C.ar  1 <1>  -0.1440 
  6 C       -2.2720    -1.8350    -0.1190 C.ar  1 <1>  -0.1500 
  7 C       -2.6370    -3.1700    -0.1980 C.ar  1 <1>  -0.1500 
  8 C       -4.2640    -5.0630     0.1670 C.3   1 <1>  -0.0160 
  9 C       -4.8120    -5.3780    -1.2240 C.3   1 <1>   0.1400 
 10 N       -5.2000    -6.8010    -1.2940 N.am  1 <1>  -0.7300 
 11 C       -4.4630    -7.8140    -1.8160 C.2   1 <1>   0.5690 
 12 O       -3.3790    -7.6310    -2.3190 O.2   1 <1>  -0.5700 
 13 C       -5.0470    -9.2280    -1.7420 C.3   1 <1>   0.1710 
 14 N       -6.0080    -9.4230    -0.6170 N.3   1 <1>  -0.8100 
 15 C       -6.7870   -10.6620    -0.8080 C.3   1 <1>   0.1100 
 16 C       -5.3010    -9.4620     0.6820 C.3   1 <1>   0.1100 
 17 C       -7.9370   -10.7650     0.2080 C.3   1 <1>  -0.1860 
 18 C       -6.2250    -9.8720     1.8410 C.3   1 <1>  -0.1600 
 19 C       -8.1450   -12.2400     0.5090 C.2   1 <1>   0.9060 
 20 C       -7.6930    -9.8510     1.4250 C.3   1 <1>   0.2000 
 21 O       -8.3480   -12.9970    -0.4450 O.co2 1 <1>  -0.9000 
 22 O       -8.0940   -12.6600     1.6740 O.co2 1 <1>  -0.9000 
 23 O       -8.4590   -10.2480     2.4980 O.3   1 <1>  -0.6800 
 24 H       -5.7180    -2.9660     1.1740 H     1 <1>   0.1500 
 25 H       -2.8830     0.1280     0.4960 H     1 <1>   0.1500 
 26 H       -1.3090    -1.5180    -0.4800 H     1 <1>   0.1500 
 27 H       -1.9490    -3.8810    -0.6250 H     1 <1>   0.1500 
 28 H       -5.0070    -5.2930     0.9090 H     1 <1>   0.0800 
 29 H       -3.3990    -5.6750     0.3530 H     1 <1>   0.0800 
 30 H       -4.0570    -5.1730    -1.9660 H     1 <1>   0.0800 
 31 H       -5.6690    -4.7630    -1.4350 H     1 <1>   0.0800 
 32 H       -6.0640    -7.0960    -0.8210 H     1 <1>   0.3700 
 33 H       -4.2420    -9.9370    -1.6660 H     1 <1>   0.0800 
 34 H       -5.5540    -9.4050    -2.6730 H     1 <1>   0.0800 
 35 H       -7.2040   -10.7000    -1.8000 H     1 <1>   0.0800 
 36 H       -6.1300   -11.5110    -0.6990 H     1 <1>   0.0800 
 37 H       -4.4810   -10.1590     0.6320 H     1 <1>   0.0800 
 38 H       -4.8940    -8.4870     0.8890 H     1 <1>   0.0800 
 39 H       -8.8340   -10.4290    -0.2730 H     1 <1>   0.0800 
 40 H       -6.0710    -9.2120     2.6750 H     1 <1>   0.0800 
 41 H       -5.9650   -10.8700     2.1510 H     1 <1>   0.0800 
 42 H       -7.9760    -8.8420     1.1830 H     1 <1>   0.0800 
 43 H       -8.4250   -11.2540     2.4820 H     1 <1>   0.4000 
@<TRIPOS>BOND
  1   1   2  1   
  2   2   3  ar  
  3   2   4  ar  
  4   3   5  ar  
  5   3  24  1   
  6   4   6  ar  
  7   4  25  1   
  8   5   7  ar  
  9   5   8  1   
 10   6   7  ar  
 11   6  26  1   
 12   7  27  1   
 13   8   9  1   
 14   8  28  1   
 15   8  29  1   
 16   9  10  1   
 17   9  30  1   
 18   9  31  1   
 19  10  11  am  
 20  10  32  1   
 21  11  12  2   
 22  11  13  1   
 23  13  14  1   
 24  13  33  1   
 25  13  34  1   
 26  14  15  1   
 27  14  16  1   
 28  15  17  1   
 29  15  35  1   
 30  15  36  1   
 31  16  18  1   
 32  16  37  1   
 33  16  38  1   
 34  17  19  1   
 35  17  20  1   
 36  17  39  1   
 37  18  20  1   
 38  18  40  1   
 39  18  41  1   
 40  19  21  ar  
 41  19  22  ar  
 42  20  23  1   
 43  20  42  1   
 44  23  43  1   
@<TRIPOS>SUBSTRUCTURE
  1 ****  10 GROUP 4 **** **** 0

# MOE 2024.06 (io_trps.svl 2023.06)
