@<TRIPOS>MOLECULE
NONAME
48 49 1 0 0 
SMALL
USER_CHARGES


@<TRIPOS>ATOM
  1 O       -1.4230     0.4300     2.1850 O.2   1 <1>  -0.5700 
  2 C       -1.8600     0.6740     1.0840 C.2   1 <1>   0.5690 
  3 N       -2.3430    -0.3310     0.2760 N.am  1 <1>  -0.6600 
  4 C       -1.8470     2.1500     0.6440 C.3   1 <1>  -0.0190 
  5 C       -2.3790    -1.7340     0.7840 C.3   1 <1>   0.3200 
  6 C       -2.7740    -0.1570    -1.1430 C.3   1 <1>   0.1400 
  7 C       -0.3980     2.7020     0.5550 C.3   1 <1>  -0.0800 
  8 C       -2.7420     2.9720     1.5960 C.3   1 <1>  -0.2400 
  9 C       -3.8100    -2.2290     0.8420 C.2   1 <1>  -0.3320 
 10 C       -4.2220     0.3450    -1.2360 C.3   1 <1>   0.1200 
 11 C       -0.3570     4.1840     0.1170 C.3   1 <1>  -0.1600 
 12 C        0.4600     1.8490    -0.4060 C.3   1 <1>  -0.1600 
 13 N       -4.4550    -2.8630    -0.1570 N.pl3 1 <1>   0.0330 
 14 C       -4.6930    -2.1390     1.8610 C.2   1 <1>   0.0770 
 15 O       -4.6050     0.3560    -2.5710 O.3   1 <1>  -0.6800 
 16 C        1.0790     4.7090    -0.0160 C.3   1 <1>  -0.1600 
 17 C        1.8930     2.3810    -0.5300 C.3   1 <1>  -0.1600 
 18 C       -5.6930    -3.1100     0.3200 C.2   1 <1>   0.0060 
 19 N       -5.8740    -2.6930     1.5280 N.2   1 <1>  -0.5650 
 20 C        1.9030     3.8460    -0.9770 C.3   1 <1>  -0.1600 
 21 C       -6.7620    -3.8020    -0.4980 C.3   1 <1>  -0.0600 
 22 H       -2.2790     2.2450    -0.3300 H     1 <1>   0.0800 
 23 H       -1.9570    -1.7950     1.7720 H     1 <1>   0.0800 
 24 H       -1.7880    -2.3670     0.1450 H     1 <1>   0.0800 
 25 H       -2.6990    -1.1010    -1.6530 H     1 <1>   0.0800 
 26 H       -2.1130     0.5310    -1.6390 H     1 <1>   0.0800 
 27 H        0.0430     2.6350     1.5370 H     1 <1>   0.0800 
 28 H       -2.2830     3.0450     2.5670 H     1 <1>   0.0800 
 29 H       -3.6950     2.4870     1.7110 H     1 <1>   0.0800 
 30 H       -2.9180     3.9610     1.2140 H     1 <1>   0.0800 
 31 H       -4.3260     1.3390    -0.8420 H     1 <1>   0.0800 
 32 H       -4.8920    -0.3120    -0.7110 H     1 <1>   0.0800 
 33 H       -0.8630     4.7990     0.8390 H     1 <1>   0.0800 
 34 H       -0.8610     4.2950    -0.8270 H     1 <1>   0.0800 
 35 H        0.0070     1.8410    -1.3820 H     1 <1>   0.0800 
 36 H        0.5110     0.8330    -0.0560 H     1 <1>   0.0800 
 37 H       -4.1050    -3.0980    -1.0890 H     1 <1>   0.2700 
 38 H       -4.5370    -1.6920     2.8290 H     1 <1>   0.1500 
 39 H       -4.2430     1.1370    -3.0350 H     1 <1>   0.4000 
 40 H        1.5490     4.7070     0.9530 H     1 <1>   0.0800 
 41 H        1.0600     5.7250    -0.3710 H     1 <1>   0.0800 
 42 H        2.4400     1.7850    -1.2390 H     1 <1>   0.0800 
 43 H        2.3870     2.2960     0.4230 H     1 <1>   0.0800 
 44 H        2.9160     4.2070    -1.0080 H     1 <1>   0.0800 
 45 H        1.4930     3.9220    -1.9700 H     1 <1>   0.0800 
 46 H       -6.4390    -4.7910    -0.7680 H     1 <1>   0.0800 
 47 H       -6.9700    -3.2360    -1.3870 H     1 <1>   0.0800 
 48 H       -7.6650    -3.8810     0.0800 H     1 <1>   0.0800 
@<TRIPOS>BOND
  1   1   2  2   
  2   2   3  am  
  3   2   4  1   
  4   3   5  1   
  5   3   6  1   
  6   4   7  1   
  7   4   8  1   
  8   4  22  1   
  9   5   9  1   
 10   5  23  1   
 11   5  24  1   
 12   6  10  1   
 13   6  25  1   
 14   6  26  1   
 15   7  11  1   
 16   7  12  1   
 17   7  27  1   
 18   8  28  1   
 19   8  29  1   
 20   8  30  1   
 21   9  13  1   
 22   9  14  2   
 23  10  15  1   
 24  10  31  1   
 25  10  32  1   
 26  11  16  1   
 27  11  33  1   
 28  11  34  1   
 29  12  17  1   
 30  12  35  1   
 31  12  36  1   
 32  13  18  1   
 33  13  37  1   
 34  14  19  1   
 35  14  38  1   
 36  15  39  1   
 37  16  20  1   
 38  16  40  1   
 39  16  41  1   
 40  17  20  1   
 41  17  42  1   
 42  17  43  1   
 43  18  19  2   
 44  18  21  1   
 45  20  44  1   
 46  20  45  1   
 47  21  46  1   
 48  21  47  1   
 49  21  48  1   
@<TRIPOS>SUBSTRUCTURE
  1 ****   3 GROUP 4 **** **** 0

# MOE 2024.06 (io_trps.svl 2023.06)
