@<TRIPOS>MOLECULE
NONAME
50 52 1 0 0 
SMALL
USER_CHARGES


@<TRIPOS>ATOM
  1 O       -0.6900     0.2570    -0.6870 O.2   1 <1>  -0.5700 
  2 C       -1.3440     1.2150    -0.3070 C.2   1 <1>   0.5440 
  3 N       -2.6960     1.0030    -0.0590 N.am  1 <1>  -0.6600 
  4 C       -0.6600     2.5010    -0.1160 C.ar  1 <1>   0.3960 
  5 C       -3.3730    -0.2500    -0.5130 C.3   1 <1>   0.1400 
  6 C       -3.5300     1.9580     0.7280 C.3   1 <1>   0.1400 
  7 N       -1.2580     3.6550    -0.4780 N.ar  1 <1>  -0.6200 
  8 C        0.6180     2.4940     0.4340 C.ar  1 <1>  -0.1500 
  9 C       -4.6080     0.0320    -1.3830 C.3   1 <1>   0.1400 
 10 C       -4.4470     2.7480    -0.2120 C.3   1 <1>  -0.1600 
 11 C       -0.5760     4.7690    -0.2800 C.ar  1 <1>   0.1600 
 12 C        1.3230     3.6630     0.6360 C.ar  1 <1>   0.1000 
 13 N       -5.7390     0.5880    -0.5730 N.am  1 <1>  -0.6600 
 14 C       -5.8010     2.0830    -0.4990 C.3   1 <1>   0.1400 
 15 C        0.6900     4.8300     0.2640 C.ar  1 <1>  -0.1500 
 16 N        2.5890     3.6640     1.1790 N.pl3 1 <1>  -0.9000 
 17 C       -6.6690    -0.1800     0.0860 C.2   1 <1>   0.5690 
 18 O       -7.5570     0.3100     0.7480 O.2   1 <1>  -0.5700 
 19 C       -6.6380    -1.7210     0.0260 C.3   1 <1>   0.4040 
 20 N       -7.9300    -2.3670     0.4730 N.4   1 <1>  -0.9590 
 21 C       -7.8660    -3.8210     0.7340 C.3   1 <1>   0.3430 
 22 C       -9.0570    -2.1440    -0.4630 C.3   1 <1>   0.3430 
 23 C       -9.3210    -4.2700     0.7080 C.3   1 <1>  -0.1600 
 24 C      -10.0900    -3.1840    -0.0530 C.3   1 <1>  -0.1600 
 25 H       -3.6440    -0.8350     0.3460 H     1 <1>   0.0800 
 26 H       -2.6920    -0.8400    -1.1010 H     1 <1>   0.0800 
 27 H       -2.8930     2.6410     1.2610 H     1 <1>   0.0800 
 28 H       -4.1090     1.4250     1.4630 H     1 <1>   0.0800 
 29 H        1.0660     1.5570     0.7050 H     1 <1>   0.1500 
 30 H       -4.9140    -0.8800    -1.8630 H     1 <1>   0.0800 
 31 H       -4.3390     0.7210    -2.1660 H     1 <1>   0.0800 
 32 H       -3.9310     2.9500    -1.1350 H     1 <1>   0.0800 
 33 H       -4.6470     3.7040     0.2370 H     1 <1>   0.0800 
 34 H       -1.0550     5.6890    -0.5690 H     1 <1>   0.1500 
 35 H       -6.1950     2.4660    -1.4250 H     1 <1>   0.0800 
 36 H       -6.4830     2.3770     0.2810 H     1 <1>   0.0800 
 37 H        1.1800     5.7750     0.3980 H     1 <1>   0.1500 
 38 H        3.1830     4.4900     1.0570 H     1 <1>   0.4000 
 39 H        3.1200     2.7870     1.1970 H     1 <1>   0.4000 
 40 H       -5.8370    -2.0520     0.6630 H     1 <1>   0.0800 
 41 H       -6.4150    -2.0250    -0.9810 H     1 <1>   0.0800 
 42 H       -8.2020    -1.8770     1.3420 H     1 <1>   0.4500 
 43 H       -7.3980    -4.0380     1.6820 H     1 <1>   0.0800 
 44 H       -7.3240    -4.3130    -0.0570 H     1 <1>   0.0800 
 45 H       -8.7390    -2.3300    -1.4760 H     1 <1>   0.0800 
 46 H       -9.4450    -1.1390    -0.3850 H     1 <1>   0.0800 
 47 H       -9.6940    -4.3560     1.7150 H     1 <1>   0.0800 
 48 H       -9.4090    -5.2310     0.2300 H     1 <1>   0.0800 
 49 H      -10.5910    -3.5790    -0.9200 H     1 <1>   0.0800 
 50 H      -10.8270    -2.7280     0.5860 H     1 <1>   0.0800 
@<TRIPOS>BOND
  1   1   2  2   
  2   2   3  am  
  3   2   4  1   
  4   3   5  1   
  5   3   6  1   
  6   4   7  ar  
  7   4   8  ar  
  8   5   9  1   
  9   5  25  1   
 10   5  26  1   
 11   6  10  1   
 12   6  27  1   
 13   6  28  1   
 14   7  11  ar  
 15   8  12  ar  
 16   8  29  1   
 17   9  13  1   
 18   9  30  1   
 19   9  31  1   
 20  10  14  1   
 21  10  32  1   
 22  10  33  1   
 23  11  15  ar  
 24  11  34  1   
 25  12  15  ar  
 26  12  16  1   
 27  13  14  1   
 28  13  17  am  
 29  14  35  1   
 30  14  36  1   
 31  15  37  1   
 32  16  38  1   
 33  16  39  1   
 34  17  18  2   
 35  17  19  1   
 36  19  20  1   
 37  19  40  1   
 38  19  41  1   
 39  20  21  1   
 40  20  22  1   
 41  20  42  1   
 42  21  23  1   
 43  21  43  1   
 44  21  44  1   
 45  22  24  1   
 46  22  45  1   
 47  22  46  1   
 48  23  24  1   
 49  23  47  1   
 50  23  48  1   
 51  24  49  1   
 52  24  50  1   
@<TRIPOS>SUBSTRUCTURE
  1 ****   5 GROUP 4 **** **** 0

# MOE 2024.06 (io_trps.svl 2023.06)
