@<TRIPOS>MOLECULE
NONAME
56 59 1 0 0 
SMALL
USER_CHARGES


@<TRIPOS>ATOM
  1 O        0.1530     1.1810     0.8920 O.2   1 <1>  -0.5700 
  2 C        0.2030     2.3290     0.5120 C.2   1 <1>   0.5690 
  3 N       -0.9100     3.1310     0.4910 N.am  1 <1>  -0.6600 
  4 C        1.5460     2.8850     0.0440 C.3   1 <1>  -0.0990 
  5 C       -2.2360     2.6140     0.9500 C.3   1 <1>   0.1400 
  6 C       -0.9190     4.5310    -0.0290 C.3   1 <1>   0.1400 
  7 C        2.7540     1.9850     0.3680 C.3   1 <1>  -0.1600 
  8 C       -3.2820     2.6170    -0.1970 C.3   1 <1>   0.0000 
  9 C       -2.3360     5.0000    -0.3970 C.3   1 <1>  -0.1600 
 10 C        4.0750     2.6080    -0.1040 C.3   1 <1>   0.0210 
 11 C       -4.6840     2.4500     0.4350 C.3   1 <1>   0.2000 
 12 C       -3.1150     3.8780    -1.0980 C.3   1 <1>  -0.1600 
 13 C       -3.1420     1.3250    -1.0230 C.3   1 <1>  -0.1600 
 14 C        5.2780     1.7360     0.2140 C.2   1 <1>  -0.1810 
 15 O       -5.6800     2.7440    -0.5040 O.3   1 <1>  -0.5600 
 16 C       -4.7810     0.9560     0.7690 C.3   1 <1>  -0.1600 
 17 C       -3.8850     0.2320    -0.2460 C.3   1 <1>  -0.1600 
 18 C        6.6060     2.0990    -0.1080 C.ar  1 <1>   0.0000 
 19 C        5.3250     0.5250     0.8220 C.2   1 <1>  -0.3020 
 20 C       -6.9040     3.1340     0.0340 C.3   1 <1>   0.0400 
 21 C        7.4190     1.0610     0.3340 C.ar  1 <1>  -0.1520 
 22 C        7.1870     3.2100    -0.7300 C.ar  1 <1>  -0.1500 
 23 N        6.6210     0.1020     0.9020 N.pl3 1 <1>   0.0330 
 24 C        8.8050     1.1100     0.1670 C.ar  1 <1>  -0.1500 
 25 C        8.5520     3.2590    -0.8950 C.ar  1 <1>  -0.1500 
 26 C        9.3620     2.2080    -0.4470 C.ar  1 <1>  -0.1500 
 27 H        1.4910     3.0280    -1.0190 H     1 <1>   0.0800 
 28 H        1.6970     3.8400     0.5110 H     1 <1>   0.0800 
 29 H       -2.1330     1.6250     1.3610 H     1 <1>   0.0800 
 30 H       -2.5750     3.2500     1.7500 H     1 <1>   0.0800 
 31 H       -0.4990     5.1910     0.7100 H     1 <1>   0.0800 
 32 H       -0.3090     4.5780    -0.9140 H     1 <1>   0.0800 
 33 H        2.7980     1.8210     1.4310 H     1 <1>   0.0800 
 34 H        2.6230     1.0290    -0.1100 H     1 <1>   0.0800 
 35 H       -2.8590     5.3090     0.4910 H     1 <1>   0.0800 
 36 H       -2.2670     5.8560    -1.0440 H     1 <1>   0.0800 
 37 H        4.2120     3.5630     0.3730 H     1 <1>   0.0800 
 38 H        4.0380     2.7650    -1.1670 H     1 <1>   0.0800 
 39 H       -4.8110     3.0830     1.2970 H     1 <1>   0.0800 
 40 H       -2.5650     3.6060    -1.9820 H     1 <1>   0.0800 
 41 H       -4.0640     4.2570    -1.4320 H     1 <1>   0.0800 
 42 H       -3.6320     1.4570    -1.9730 H     1 <1>   0.0800 
 43 H       -2.1120     1.0650    -1.1980 H     1 <1>   0.0800 
 44 H       -4.3930     0.7910     1.7580 H     1 <1>   0.0800 
 45 H       -5.7930     0.5950     0.7350 H     1 <1>   0.0800 
 46 H       -3.1850    -0.4070     0.2660 H     1 <1>   0.0800 
 47 H       -4.4750    -0.3650    -0.9200 H     1 <1>   0.0800 
 48 H        4.5130    -0.0680     1.2050 H     1 <1>   0.1500 
 49 H       -7.5880     3.2980    -0.7790 H     1 <1>   0.0800 
 50 H       -6.7720     4.0480     0.5870 H     1 <1>   0.0800 
 51 H       -7.2820     2.3550     0.6730 H     1 <1>   0.0800 
 52 H        6.5560     4.0090    -1.0700 H     1 <1>   0.1500 
 53 H        6.9500    -0.7760     1.3120 H     1 <1>   0.2700 
 54 H        9.4190     0.2980     0.5140 H     1 <1>   0.1500 
 55 H        9.0110     4.1060    -1.3720 H     1 <1>   0.1500 
 56 H       10.4260     2.2710    -0.5880 H     1 <1>   0.1500 
@<TRIPOS>BOND
  1   1   2  2   
  2   2   3  am  
  3   2   4  1   
  4   3   5  1   
  5   3   6  1   
  6   4   7  1   
  7   4  27  1   
  8   4  28  1   
  9   5   8  1   
 10   5  29  1   
 11   5  30  1   
 12   6   9  1   
 13   6  31  1   
 14   6  32  1   
 15   7  10  1   
 16   7  33  1   
 17   7  34  1   
 18   8  11  1   
 19   8  12  1   
 20   8  13  1   
 21   9  12  1   
 22   9  35  1   
 23   9  36  1   
 24  10  14  1   
 25  10  37  1   
 26  10  38  1   
 27  11  15  1   
 28  11  16  1   
 29  11  39  1   
 30  12  40  1   
 31  12  41  1   
 32  13  17  1   
 33  13  42  1   
 34  13  43  1   
 35  14  18  1   
 36  14  19  2   
 37  15  20  1   
 38  16  17  1   
 39  16  44  1   
 40  16  45  1   
 41  17  46  1   
 42  17  47  1   
 43  18  21  ar  
 44  18  22  ar  
 45  19  23  1   
 46  19  48  1   
 47  20  49  1   
 48  20  50  1   
 49  20  51  1   
 50  21  23  1   
 51  21  24  ar  
 52  22  25  ar  
 53  22  52  1   
 54  23  53  1   
 55  24  26  ar  
 56  24  54  1   
 57  25  26  ar  
 58  25  55  1   
 59  26  56  1   
@<TRIPOS>SUBSTRUCTURE
  1 ****   4 GROUP 4 **** **** 0

# MOE 2024.06 (io_trps.svl 2023.06)
