@<TRIPOS>MOLECULE
NONAME
49 52 1 0 0 
SMALL
USER_CHARGES


@<TRIPOS>ATOM
  1 O        2.9760    -1.2680     2.6320 O.2   1 <1>  -0.5700 
  2 C        2.3070    -1.7050     1.7090 C.2   1 <1>   0.5440 
  3 N        2.1730    -0.8920     0.5960 N.am  1 <1>  -0.6600 
  4 C        1.7310    -3.0490     1.8330 C.ar  1 <1>   0.3960 
  5 C        1.4670    -1.2330    -0.6610 C.3   1 <1>   0.1400 
  6 C        2.8680     0.4090     0.4690 C.3   1 <1>   0.1400 
  7 N        0.6090    -3.3950     1.1800 N.ar  1 <1>  -0.6200 
  8 C        2.3910    -3.9600     2.6650 C.ar  1 <1>   0.1600 
  9 C        1.6530    -0.0210    -1.5690 C.3   1 <1>  -0.1600 
 10 C        2.8900     0.6910    -1.0280 C.3   1 <1>  -0.1600 
 11 C        0.2150    -4.6380     1.3950 C.ar  1 <1>   0.4100 
 12 N        2.0220    -5.2140     2.8910 N.ar  1 <1>  -0.6200 
 13 N       -0.9470    -5.0430     0.7560 N.pl3 1 <1>  -0.8380 
 14 C        0.9240    -5.5160     2.2310 C.ar  1 <1>   0.1600 
 15 C       -2.0910    -5.5100     1.6080 C.3   1 <1>   0.3900 
 16 C       -1.3850    -4.3710    -0.5020 C.3   1 <1>   0.1290 
 17 C       -2.9350    -6.5900     0.9330 C.2   1 <1>   0.1080 
 18 N       -4.2380    -6.5800     0.9660 N.2   1 <1>  -0.7070 
 19 C       -2.4500    -7.6900     0.2240 C.2   1 <1>  -0.1810 
 20 N       -4.6130    -7.6740     0.2720 N.pl3 1 <1>   0.3000 
 21 C       -3.5450    -8.3540    -0.1870 C.2   1 <1>  -0.3320 
 22 C       -1.0330    -8.1320    -0.0890 C.3   1 <1>   0.0210 
 23 C       -3.5470    -9.6300    -1.0060 C.3   1 <1>   0.0200 
 24 C       -1.0250    -9.5920    -0.5810 C.3   1 <1>  -0.1600 
 25 C       -2.1470    -9.8620    -1.6040 C.3   1 <1>  -0.1600 
 26 H        0.4220    -1.4140    -0.4760 H     1 <1>   0.0800 
 27 H        1.9180    -2.1090    -1.0960 H     1 <1>   0.0800 
 28 H        3.8630     0.3630     0.8790 H     1 <1>   0.0800 
 29 H        2.2980     1.1600     0.9890 H     1 <1>   0.0800 
 30 H        3.2800    -3.6270     3.1710 H     1 <1>   0.1500 
 31 H        0.7940     0.6200    -1.4730 H     1 <1>   0.0800 
 32 H        1.7630    -0.3070    -2.6000 H     1 <1>   0.0800 
 33 H        3.7780     0.2550    -1.4500 H     1 <1>   0.0800 
 34 H        2.8820     1.7460    -1.2360 H     1 <1>   0.0800 
 35 H        0.5440    -6.5130     2.3390 H     1 <1>   0.1500 
 36 H       -2.7250    -4.6690     1.8280 H     1 <1>   0.0800 
 37 H       -1.7290    -5.8970     2.5430 H     1 <1>   0.0800 
 38 H       -0.5290    -4.1170    -1.1020 H     1 <1>   0.0800 
 39 H       -1.9270    -3.4710    -0.2680 H     1 <1>   0.0800 
 40 H       -2.0200    -5.0280    -1.0720 H     1 <1>   0.0800 
 41 H       -5.5980    -7.9240     0.1310 H     1 <1>   0.2700 
 42 H       -0.4160    -8.0410     0.7860 H     1 <1>   0.0800 
 43 H       -0.6340    -7.4880    -0.8520 H     1 <1>   0.0800 
 44 H       -4.2720    -9.5670    -1.7980 H     1 <1>   0.0800 
 45 H       -3.8080   -10.4540    -0.3660 H     1 <1>   0.0800 
 46 H       -1.1630   -10.2430     0.2650 H     1 <1>   0.0800 
 47 H       -0.0670    -9.8160    -1.0180 H     1 <1>   0.0800 
 48 H       -2.0140    -9.2010    -2.4430 H     1 <1>   0.0800 
 49 H       -2.0760   -10.8730    -1.9660 H     1 <1>   0.0800 
@<TRIPOS>BOND
  1   1   2  2   
  2   2   3  am  
  3   2   4  1   
  4   3   5  1   
  5   3   6  1   
  6   4   7  ar  
  7   4   8  ar  
  8   5   9  1   
  9   5  26  1   
 10   5  27  1   
 11   6  10  1   
 12   6  28  1   
 13   6  29  1   
 14   7  11  ar  
 15   8  12  ar  
 16   8  30  1   
 17   9  10  1   
 18   9  31  1   
 19   9  32  1   
 20  10  33  1   
 21  10  34  1   
 22  11  13  1   
 23  11  14  ar  
 24  12  14  ar  
 25  13  15  1   
 26  13  16  1   
 27  14  35  1   
 28  15  17  1   
 29  15  36  1   
 30  15  37  1   
 31  16  38  1   
 32  16  39  1   
 33  16  40  1   
 34  17  18  2   
 35  17  19  1   
 36  18  20  1   
 37  19  21  2   
 38  19  22  1   
 39  20  21  1   
 40  20  41  1   
 41  21  23  1   
 42  22  24  1   
 43  22  42  1   
 44  22  43  1   
 45  23  25  1   
 46  23  44  1   
 47  23  45  1   
 48  24  25  1   
 49  24  46  1   
 50  24  47  1   
 51  25  48  1   
 52  25  49  1   
@<TRIPOS>SUBSTRUCTURE
  1 ****  13 GROUP 4 **** **** 0

# MOE 2024.06 (io_trps.svl 2023.06)
