@<TRIPOS>MOLECULE
NONAME
52 55 1 0 0 
SMALL
USER_CHARGES


@<TRIPOS>ATOM
  1 S       -1.0420    -1.2530    -0.7890 S.3   1 <1>  -0.2860 
  2 C       -0.4410     0.4290    -0.6140 C.2   1 <1>   0.2420 
  3 C       -2.4720    -1.1000    -1.9650 C.3   1 <1>   0.1310 
  4 N        0.5190     0.7390     0.2510 N.pl3 1 <1>   0.0330 
  5 N       -0.8790     1.4400    -1.2700 N.2   1 <1>  -0.3380 
  6 C       -3.7800    -0.9780    -1.1910 C.2   1 <1>   0.5690 
  7 C        0.6280     2.0600     0.0880 C.2   1 <1>   0.2700 
  8 N       -0.1980     2.5010    -0.8080 N.2   1 <1>  -0.3380 
  9 O       -4.6270    -1.8290    -1.3440 O.2   1 <1>  -0.5700 
 10 N       -4.0570     0.0840    -0.3730 N.am  1 <1>  -0.6600 
 11 N        1.5030     2.8630     0.7860 N.pl3 1 <1>  -0.8840 
 12 C       -4.8770    -0.1230     0.8650 C.3   1 <1>   0.1400 
 13 C       -3.9130     1.4890    -0.8380 C.3   1 <1>   0.1400 
 14 C       -6.4030     0.0500     0.6420 C.3   1 <1>   0.4230 
 15 C       -5.2720     2.2060    -0.9580 C.3   1 <1>  -0.0800 
 16 N       -6.7310     0.0700    -0.8360 N.4   1 <1>  -0.9590 
 17 C       -6.9920     1.2430     1.4380 C.3   1 <1>   0.1200 
 18 C       -5.7000     2.9070     0.3480 C.3   1 <1>   0.1200 
 19 C       -6.3990     1.3430    -1.5720 C.3   1 <1>   0.3430 
 20 C       -8.1240    -0.3540    -1.1360 C.3   1 <1>   0.4860 
 21 O       -6.9580     2.4610     0.7490 O.3   1 <1>  -0.5600 
 22 C       -8.4670    -1.6250    -0.3810 C.ar  1 <1>  -0.1440 
 23 C       -9.4470    -1.6000     0.6010 C.ar  1 <1>  -0.1500 
 24 C       -7.8000    -2.8130    -0.6490 C.ar  1 <1>  -0.1500 
 25 C       -9.7500    -2.7470     1.3130 C.ar  1 <1>  -0.1500 
 26 C       -8.1030    -3.9580     0.0650 C.ar  1 <1>  -0.1500 
 27 C       -9.0760    -3.9260     1.0470 C.ar  1 <1>  -0.1500 
 28 H       -2.2980    -0.2550    -2.6020 H     1 <1>   0.0800 
 29 H       -2.4770    -1.9980    -2.5550 H     1 <1>   0.0800 
 30 H        1.0120     0.1330     0.9040 H     1 <1>   0.2700 
 31 H        1.3930     3.8470     0.5190 H     1 <1>   0.4000 
 32 H        2.4880     2.6010     0.7050 H     1 <1>   0.4000 
 33 H       -4.7100    -1.1270     1.2190 H     1 <1>   0.0800 
 34 H       -4.5260     0.5330     1.6420 H     1 <1>   0.0800 
 35 H       -3.2600     2.0270    -0.1710 H     1 <1>   0.0800 
 36 H       -3.4480     1.4930    -1.8090 H     1 <1>   0.0800 
 37 H       -6.8370    -0.8330     1.0800 H     1 <1>   0.0800 
 38 H       -5.1000     3.0100    -1.6520 H     1 <1>   0.0800 
 39 H       -6.0970    -0.6670    -1.2030 H     1 <1>   0.4500 
 40 H       -6.4860     1.3680     2.3800 H     1 <1>   0.0800 
 41 H       -8.0250     1.0390     1.6550 H     1 <1>   0.0800 
 42 H       -5.7890     3.9670     0.1750 H     1 <1>   0.0800 
 43 H       -4.9950     2.7630     1.1500 H     1 <1>   0.0800 
 44 H       -6.1350     1.0980    -2.5870 H     1 <1>   0.0800 
 45 H       -7.2830     1.9600    -1.6090 H     1 <1>   0.0800 
 46 H       -8.8080     0.4270    -0.8470 H     1 <1>   0.0800 
 47 H       -8.2350    -0.5280    -2.1930 H     1 <1>   0.0800 
 48 H       -9.9890    -0.6950     0.8220 H     1 <1>   0.1500 
 49 H       -7.0390    -2.8650    -1.4110 H     1 <1>   0.1500 
 50 H      -10.5120    -2.7290     2.0740 H     1 <1>   0.1500 
 51 H       -7.5820    -4.8780    -0.1450 H     1 <1>   0.1500 
 52 H       -9.3120    -4.8190     1.6000 H     1 <1>   0.1500 
@<TRIPOS>BOND
  1   1   2  1   
  2   1   3  1   
  3   2   4  1   
  4   2   5  2   
  5   3   6  1   
  6   3  28  1   
  7   3  29  1   
  8   4   7  1   
  9   4  30  1   
 10   5   8  1   
 11   6   9  2   
 12   6  10  am  
 13   7   8  2   
 14   7  11  1   
 15  10  12  1   
 16  10  13  1   
 17  11  31  1   
 18  11  32  1   
 19  12  14  1   
 20  12  33  1   
 21  12  34  1   
 22  13  15  1   
 23  13  35  1   
 24  13  36  1   
 25  14  16  1   
 26  14  17  1   
 27  14  37  1   
 28  15  18  1   
 29  15  19  1   
 30  15  38  1   
 31  16  19  1   
 32  16  20  1   
 33  16  39  1   
 34  17  21  1   
 35  17  40  1   
 36  17  41  1   
 37  18  21  1   
 38  18  42  1   
 39  18  43  1   
 40  19  44  1   
 41  19  45  1   
 42  20  22  1   
 43  20  46  1   
 44  20  47  1   
 45  22  23  ar  
 46  22  24  ar  
 47  23  25  ar  
 48  23  48  1   
 49  24  26  ar  
 50  24  49  1   
 51  25  27  ar  
 52  25  50  1   
 53  26  27  ar  
 54  26  51  1   
 55  27  52  1   
@<TRIPOS>SUBSTRUCTURE
  1 ****  10 GROUP 4 **** **** 0

# MOE 2024.06 (io_trps.svl 2023.06)
