@<TRIPOS>MOLECULE
NONAME
51 53 1 0 0 
SMALL
USER_CHARGES


@<TRIPOS>ATOM
  1 O       -0.3230    -2.2610     2.2220 O.2   1 <1>  -0.5700 
  2 C       -0.4360    -2.2560     1.0210 C.2   1 <1>   0.5690 
  3 N        0.0280    -3.2800     0.2640 N.am  1 <1>  -0.7300 
  4 C       -1.1340    -1.0800     0.3360 C.3   1 <1>  -0.0190 
  5 C        0.6650    -4.4850     0.8010 C.3   1 <1>   0.2010 
  6 C       -2.4900    -1.4970    -0.2550 C.3   1 <1>  -0.2400 
  7 C       -0.2580    -0.4330    -0.7510 C.3   1 <1>  -0.2400 
  8 C        0.4080    -5.7240    -0.0730 C.2   1 <1>   0.5690 
  9 O        0.3830    -5.6200    -1.2970 O.2   1 <1>  -0.5700 
 10 N        0.1660    -6.9180     0.5290 N.am  1 <1>  -0.7300 
 11 C       -0.1640    -8.1760    -0.1830 C.3   1 <1>   0.2200 
 12 C       -1.6640    -8.4520    -0.1570 C.3   1 <1>  -0.0800 
 13 C        0.3460    -9.3480     0.6420 C.3   1 <1>   0.1200 
 14 C       -1.8600    -9.1090     1.2170 C.3   1 <1>   0.1200 
 15 C       -2.5650    -7.2240    -0.4130 C.3   1 <1>  -0.0170 
 16 O       -0.5930    -9.5050     1.6600 O.3   1 <1>  -0.5600 
 17 C       -4.0730    -7.4830    -0.5180 C.ar  1 <1>  -0.1440 
 18 C       -4.9670    -6.3840    -0.5770 C.ar  1 <1>   0.0000 
 19 C       -4.6250    -8.7320    -0.5700 C.ar  1 <1>  -0.1500 
 20 C       -6.3540    -6.6590    -0.6550 C.ar  1 <1>   0.3100 
 21 C       -4.5660    -5.0260    -0.5700 C.ar  1 <1>  -0.1500 
 22 C       -6.0130    -8.8930    -0.6530 C.ar  1 <1>   0.1600 
 23 N       -6.8600    -7.9160    -0.6900 N.ar  1 <1>  -0.6200 
 24 C       -7.2610    -5.5890    -0.7050 C.ar  1 <1>  -0.1500 
 25 C       -5.4760    -4.0050    -0.6230 C.ar  1 <1>  -0.1500 
 26 C       -6.8420    -4.2870    -0.6890 C.ar  1 <1>  -0.1500 
 27 H       -0.1000    -3.2530    -0.7370 H     1 <1>   0.3700 
 28 H       -1.3170    -0.3380     1.0940 H     1 <1>   0.0800 
 29 H        1.7420    -4.3320     0.8730 H     1 <1>   0.0800 
 30 H        0.2840    -4.6840     1.8030 H     1 <1>   0.0800 
 31 H       -2.3600    -2.2290    -1.0330 H     1 <1>   0.0800 
 32 H       -2.9990    -0.6420    -0.6660 H     1 <1>   0.0800 
 33 H       -3.1070    -1.9220     0.5180 H     1 <1>   0.0800 
 34 H       -0.0770    -1.1180    -1.5600 H     1 <1>   0.0800 
 35 H        0.6880    -0.1390    -0.3320 H     1 <1>   0.0800 
 36 H       -0.7410     0.4440    -1.1460 H     1 <1>   0.0800 
 37 H        0.1190    -7.0020     1.5480 H     1 <1>   0.3700 
 38 H        0.2420    -8.1670    -1.1810 H     1 <1>   0.0800 
 39 H       -1.8620    -9.1880    -0.9160 H     1 <1>   0.0800 
 40 H        1.3190    -9.1710     1.0660 H     1 <1>   0.0800 
 41 H        0.3580   -10.2520     0.0580 H     1 <1>   0.0800 
 42 H       -2.4930    -9.9770     1.1640 H     1 <1>   0.0800 
 43 H       -2.2560    -8.4150     1.9370 H     1 <1>   0.0800 
 44 H       -2.2440    -6.7530    -1.3260 H     1 <1>   0.0800 
 45 H       -2.4100    -6.5220     0.3870 H     1 <1>   0.0800 
 46 H       -4.0390    -9.6300    -0.5520 H     1 <1>   0.1500 
 47 H       -3.5210    -4.7810    -0.5250 H     1 <1>   0.1500 
 48 H       -6.4010    -9.8970    -0.6880 H     1 <1>   0.1500 
 49 H       -8.3070    -5.8300    -0.7580 H     1 <1>   0.1500 
 50 H       -5.1570    -2.9780    -0.6160 H     1 <1>   0.1500 
 51 H       -7.5490    -3.4760    -0.7280 H     1 <1>   0.1500 
@<TRIPOS>BOND
  1   1   2  2   
  2   2   3  am  
  3   2   4  1   
  4   3   5  1   
  5   3  27  1   
  6   4   6  1   
  7   4   7  1   
  8   4  28  1   
  9   5   8  1   
 10   5  29  1   
 11   5  30  1   
 12   6  31  1   
 13   6  32  1   
 14   6  33  1   
 15   7  34  1   
 16   7  35  1   
 17   7  36  1   
 18   8   9  2   
 19   8  10  am  
 20  10  11  1   
 21  10  37  1   
 22  11  12  1   
 23  11  13  1   
 24  11  38  1   
 25  12  14  1   
 26  12  15  1   
 27  12  39  1   
 28  13  16  1   
 29  13  40  1   
 30  13  41  1   
 31  14  16  1   
 32  14  42  1   
 33  14  43  1   
 34  15  17  1   
 35  15  44  1   
 36  15  45  1   
 37  17  18  ar  
 38  17  19  ar  
 39  18  20  ar  
 40  18  21  ar  
 41  19  22  ar  
 42  19  46  1   
 43  20  23  ar  
 44  20  24  ar  
 45  21  25  ar  
 46  21  47  1   
 47  22  23  ar  
 48  22  48  1   
 49  24  26  ar  
 50  24  49  1   
 51  25  26  ar  
 52  25  50  1   
 53  26  51  1   
@<TRIPOS>SUBSTRUCTURE
  1 ****  15 GROUP 4 **** **** 0

# MOE 2024.06 (io_trps.svl 2023.06)
