@<TRIPOS>MOLECULE
NONAME
49 52 1 0 0 
SMALL
USER_CHARGES


@<TRIPOS>ATOM
  1 S       -1.0140    -0.8780    -0.1050 S.3   1 <1>  -0.0800 
  2 C       -1.8500     0.3880     0.7970 C.2   1 <1>   0.0410 
  3 C       -1.4280    -2.1040     1.0790 C.2   1 <1>  -0.1400 
  4 C       -1.8810     1.7200     0.2490 C.2   1 <1>   0.2880 
  5 C       -2.3600    -0.1550     1.9300 C.2   1 <1>  -0.1500 
  6 C       -2.1280    -1.5550     2.0890 C.2   1 <1>  -0.1500 
  7 C       -0.9880    -3.5230     0.7980 C.3   1 <1>   0.5230 
  8 N       -1.4620     2.0400    -0.9530 N.2   1 <1>  -0.7070 
  9 C       -2.3690     2.8490     0.9160 C.2   1 <1>  -0.1500 
 10 N       -1.9910    -4.0910    -0.1300 N.4   1 <1>  -0.9590 
 11 N       -1.6700     3.3620    -1.0610 N.pl3 1 <1>   0.3000 
 12 C       -2.2200     3.8750     0.0560 C.2   1 <1>  -0.3020 
 13 C       -2.3400    -5.5180     0.1310 C.3   1 <1>   0.3430 
 14 C       -1.7810    -3.7680    -1.5690 C.3   1 <1>   0.3430 
 15 C       -3.6920    -5.8740    -0.5260 C.3   1 <1>   0.1400 
 16 C       -3.0600    -3.1530    -2.1580 C.3   1 <1>  -0.1600 
 17 N       -4.5160    -4.6480    -0.8080 N.am  1 <1>  -0.6600 
 18 C       -4.3060    -4.0560    -2.1570 C.3   1 <1>   0.1400 
 19 C       -5.1260    -3.9800     0.2250 C.2   1 <1>   0.5770 
 20 O       -4.7540    -4.1900     1.3560 O.2   1 <1>  -0.5700 
 21 C       -6.1910    -2.9170    -0.0430 C.3   1 <1>   0.0530 
 22 C       -5.6350    -1.4720    -0.1540 C.3   1 <1>   0.0000 
 23 C       -7.0110    -2.4170     1.1820 C.3   1 <1>   0.0000 
 24 C       -6.9300    -1.0010     0.5560 C.3   1 <1>   0.0000 
 25 H       -2.9140     0.3940     2.6710 H     1 <1>   0.1500 
 26 H       -2.5140    -2.0760     2.9500 H     1 <1>   0.1500 
 27 H       -0.9900    -4.0750     1.7230 H     1 <1>   0.0800 
 28 H        0.0020    -3.5460     0.3720 H     1 <1>   0.0800 
 29 H       -2.7720     2.8610     1.9110 H     1 <1>   0.1500 
 30 H       -2.8650    -3.6030     0.1300 H     1 <1>   0.4500 
 31 H       -1.4250     3.8890    -1.9090 H     1 <1>   0.2700 
 32 H       -2.4650     4.9160     0.1690 H     1 <1>   0.1500 
 33 H       -2.4470    -5.6660     1.1930 H     1 <1>   0.0800 
 34 H       -1.5660    -6.1790    -0.2230 H     1 <1>   0.0800 
 35 H       -1.5120    -4.6570    -2.1160 H     1 <1>   0.0800 
 36 H       -0.9770    -3.0570    -1.6720 H     1 <1>   0.0800 
 37 H       -4.2390    -6.5280     0.1320 H     1 <1>   0.0800 
 38 H       -3.5190    -6.4170    -1.4390 H     1 <1>   0.0800 
 39 H       -2.8560    -2.8760    -3.1770 H     1 <1>   0.0800 
 40 H       -3.2800    -2.2370    -1.6390 H     1 <1>   0.0800 
 41 H       -4.1900    -4.8470    -2.8810 H     1 <1>   0.0800 
 42 H       -5.1690    -3.4830    -2.4520 H     1 <1>   0.0800 
 43 H       -6.8380    -3.1640    -0.8680 H     1 <1>   0.0000 
 44 H       -5.5420    -1.1160    -1.1650 H     1 <1>   0.0000 
 45 H       -4.7540    -1.3110     0.4430 H     1 <1>   0.0000 
 46 H       -6.4860    -2.4710     2.1200 H     1 <1>   0.0000 
 47 H       -8.0100    -2.8130     1.2270 H     1 <1>   0.0000 
 48 H       -7.7330    -0.8030    -0.1320 H     1 <1>   0.0000 
 49 H       -6.7710    -0.2150     1.2740 H     1 <1>   0.0000 
@<TRIPOS>BOND
  1   1   2  1   
  2   1   3  1   
  3   2   4  1   
  4   2   5  2   
  5   3   6  2   
  6   3   7  1   
  7   4   8  2   
  8   4   9  1   
  9   5   6  1   
 10   5  25  1   
 11   6  26  1   
 12   7  10  1   
 13   7  27  1   
 14   7  28  1   
 15   8  11  1   
 16   9  12  2   
 17   9  29  1   
 18  10  13  1   
 19  10  14  1   
 20  10  30  1   
 21  11  12  1   
 22  11  31  1   
 23  12  32  1   
 24  13  15  1   
 25  13  33  1   
 26  13  34  1   
 27  14  16  1   
 28  14  35  1   
 29  14  36  1   
 30  15  17  1   
 31  15  37  1   
 32  15  38  1   
 33  16  18  1   
 34  16  39  1   
 35  16  40  1   
 36  17  18  1   
 37  17  19  am  
 38  18  41  1   
 39  18  42  1   
 40  19  20  2   
 41  19  21  1   
 42  21  22  1   
 43  21  23  1   
 44  21  43  1   
 45  22  24  1   
 46  22  44  1   
 47  22  45  1   
 48  23  24  1   
 49  23  46  1   
 50  23  47  1   
 51  24  48  1   
 52  24  49  1   
@<TRIPOS>SUBSTRUCTURE
  1 ****   3 GROUP 4 **** **** 0

# MOE 2024.06 (io_trps.svl 2023.06)
