@<TRIPOS>MOLECULE
NONAME
46 48 1 0 0 
SMALL
USER_CHARGES


@<TRIPOS>ATOM
  1 O        1.2760     1.5010    -1.3470 O.3   1 <1>  -0.0190 
  2 N        2.2050     0.5980    -1.4490 N.2   1 <1>  -0.4100 
  3 C        0.9880     1.7620    -0.1000 C.2   1 <1>  -0.0400 
  4 C        2.5070     0.2560    -0.2490 C.2   1 <1>   0.1080 
  5 C        1.7540     0.9780     0.6730 C.2   1 <1>  -0.1500 
  6 C       -0.0490     2.8180     0.2290 C.3   1 <1>   0.0200 
  7 C        3.5410    -0.7920     0.1020 C.3   1 <1>  -0.0590 
  8 C        0.2310     4.1090    -0.5660 C.3   1 <1>  -0.0800 
  9 C       -0.6230     5.3280    -0.2160 C.3   1 <1>   0.2000 
 10 C        1.6790     4.5990    -0.4290 C.3   1 <1>   0.3430 
 11 O       -0.6990     5.4720     1.1680 O.3   1 <1>  -0.6800 
 12 C        0.2170     6.4790    -0.7770 C.3   1 <1>   0.3430 
 13 N        1.6350     6.0870    -0.5210 N.4   1 <1>  -0.9590 
 14 C        2.1450     6.7480     0.7190 C.3   1 <1>   0.4860 
 15 C        2.4000     8.2250     0.4320 C.ar  1 <1>   0.1670 
 16 N        2.9420     8.5090    -0.7480 N.ar  1 <1>  -0.6200 
 17 C        2.0550     9.1770     1.3790 C.ar  1 <1>  -0.1500 
 18 C        3.1570     9.7960    -0.9810 C.ar  1 <1>   0.1600 
 19 C        2.2820    10.5100     1.1140 C.ar  1 <1>  -0.1500 
 20 C        2.8490    10.8250    -0.1030 C.ar  1 <1>  -0.1430 
 21 C        3.1370    12.2730    -0.4680 C.3   1 <1>  -0.0170 
 22 C        4.5410    12.6740    -0.0110 C.3   1 <1>  -0.2400 
 23 H        1.8090     0.8940     1.7430 H     1 <1>   0.1500 
 24 H       -1.0250     2.4410    -0.0240 H     1 <1>   0.0800 
 25 H       -0.0220     2.9990     1.2890 H     1 <1>   0.0800 
 26 H        4.3110    -0.3600     0.7130 H     1 <1>   0.0800 
 27 H        3.9870    -1.1830    -0.7950 H     1 <1>   0.0800 
 28 H        3.0750    -1.6000     0.6360 H     1 <1>   0.0800 
 29 H        0.0760     3.8910    -1.6090 H     1 <1>   0.0800 
 30 H       -1.6190     5.3030    -0.6270 H     1 <1>   0.0800 
 31 H        2.2950     4.1750    -1.2080 H     1 <1>   0.0800 
 32 H        2.0740     4.2990     0.5280 H     1 <1>   0.0800 
 33 H       -1.4650     4.9780     1.5320 H     1 <1>   0.4000 
 34 H       -0.0400     7.4200    -0.3170 H     1 <1>   0.0800 
 35 H        0.0540     6.5510    -1.8390 H     1 <1>   0.0800 
 36 H        2.2380     6.4740    -1.2690 H     1 <1>   0.4500 
 37 H        1.4380     6.6370     1.5240 H     1 <1>   0.0800 
 38 H        3.0780     6.2970     1.0110 H     1 <1>   0.0800 
 39 H        1.6160     8.8920     2.3190 H     1 <1>   0.1500 
 40 H        3.6070    10.0500    -1.9270 H     1 <1>   0.1500 
 41 H        2.0280    11.2740     1.8300 H     1 <1>   0.1500 
 42 H        3.0530    12.4060    -1.5330 H     1 <1>   0.0800 
 43 H        2.4100    12.9170    -0.0030 H     1 <1>   0.0800 
 44 H        5.2810    12.0530    -0.4840 H     1 <1>   0.0800 
 45 H        4.6300    12.5660     1.0560 H     1 <1>   0.0800 
 46 H        4.7350    13.7000    -0.2700 H     1 <1>   0.0800 
@<TRIPOS>BOND
  1   1   2  1   
  2   1   3  1   
  3   2   4  2   
  4   3   5  2   
  5   3   6  1   
  6   4   5  1   
  7   4   7  1   
  8   5  23  1   
  9   6   8  1   
 10   6  24  1   
 11   6  25  1   
 12   7  26  1   
 13   7  27  1   
 14   7  28  1   
 15   8   9  1   
 16   8  10  1   
 17   8  29  1   
 18   9  11  1   
 19   9  12  1   
 20   9  30  1   
 21  10  13  1   
 22  10  31  1   
 23  10  32  1   
 24  11  33  1   
 25  12  13  1   
 26  12  34  1   
 27  12  35  1   
 28  13  14  1   
 29  13  36  1   
 30  14  15  1   
 31  14  37  1   
 32  14  38  1   
 33  15  16  ar  
 34  15  17  ar  
 35  16  18  ar  
 36  17  19  ar  
 37  17  39  1   
 38  18  20  ar  
 39  18  40  1   
 40  19  20  ar  
 41  19  41  1   
 42  20  21  1   
 43  21  22  1   
 44  21  42  1   
 45  21  43  1   
 46  22  44  1   
 47  22  45  1   
 48  22  46  1   
@<TRIPOS>SUBSTRUCTURE
  1 ****  13 GROUP 4 **** **** 0

# MOE 2024.06 (io_trps.svl 2023.06)
