@<TRIPOS>MOLECULE
NONAME
46 49 1 0 0 
SMALL
USER_CHARGES


@<TRIPOS>ATOM
  1 O       -0.7860     5.0170    -2.3030 O.2   1 <1>  -0.5700 
  2 C       -0.5200     4.0580    -1.5950 C.2   1 <1>   0.5440 
  3 N       -1.5690     3.2430    -1.1970 N.am  1 <1>  -0.6600 
  4 C        0.8790     3.8250    -1.2230 C.ar  1 <1>   0.3960 
  5 C       -2.9920     3.7040    -1.2580 C.3   1 <1>   0.1400 
  6 C       -1.4060     1.9330    -0.5100 C.3   1 <1>   0.1400 
  7 N        1.2060     3.5200     0.0470 N.ar  1 <1>  -0.6200 
  8 C        1.8580     3.9410    -2.2110 C.ar  1 <1>  -0.1500 
  9 C       -3.5650     3.8590     0.1640 C.3   1 <1>   0.1440 
 10 C       -1.9360     2.0440     0.9250 C.3   1 <1>  -0.1600 
 11 C        2.4810     3.3300     0.3190 C.ar  1 <1>   0.1670 
 12 C        3.1880     3.7390    -1.9210 C.ar  1 <1>  -0.1500 
 13 C       -5.0180     4.2860     0.0530 C.ar  1 <1>   0.1660 
 14 C       -3.3940     2.5390     0.9500 C.3   1 <1>  -0.1600 
 15 C       -2.9250     5.0640     0.9060 C.3   1 <1>  -0.1600 
 16 C        3.4980     3.4250    -0.6170 C.ar  1 <1>  -0.1500 
 17 C        2.8040     2.9900     1.7580 C.3   1 <1>  -0.0970 
 18 N       -6.0200     3.5080    -0.2960 N.ar  1 <1>  -0.6200 
 19 C       -5.1750     5.6070     0.3470 C.ar  1 <1>  -0.1430 
 20 C       -3.8630     6.2640     0.6980 C.3   1 <1>  -0.0170 
 21 C       -7.1970     4.1150    -0.3270 C.ar  1 <1>   0.4770 
 22 C       -6.4410     6.1330     0.2800 C.ar  1 <1>   0.1600 
 23 N       -7.4710     5.3850    -0.0590 N.ar  1 <1>  -0.6200 
 24 C       -8.3730     3.2550    -0.7230 C.3   1 <1>  -0.0970 
 25 H       -3.5720     2.9770    -1.8000 H     1 <1>   0.0800 
 26 H       -3.0720     4.6400    -1.7830 H     1 <1>   0.0800 
 27 H       -0.3780     1.6200    -0.5040 H     1 <1>   0.0800 
 28 H       -1.9700     1.1890    -1.0460 H     1 <1>   0.0800 
 29 H        1.5570     4.1980    -3.2110 H     1 <1>   0.1500 
 30 H       -1.3040     2.7190     1.4760 H     1 <1>   0.0800 
 31 H       -1.8750     1.0810     1.4000 H     1 <1>   0.0800 
 32 H        3.9500     3.8260    -2.6770 H     1 <1>   0.1500 
 33 H       -4.0190     1.7870     0.4990 H     1 <1>   0.0800 
 34 H       -3.7280     2.6660     1.9650 H     1 <1>   0.0800 
 35 H       -1.9270     5.2800     0.5660 H     1 <1>   0.0800 
 36 H       -2.8810     4.8540     1.9600 H     1 <1>   0.0800 
 37 H        4.5210     3.2580    -0.3330 H     1 <1>   0.1500 
 38 H        2.2880     2.0900     2.0390 H     1 <1>   0.0800 
 39 H        2.4750     3.7900     2.3970 H     1 <1>   0.0800 
 40 H        3.8590     2.8450     1.8980 H     1 <1>   0.0800 
 41 H       -3.5270     6.8660    -0.1290 H     1 <1>   0.0800 
 42 H       -3.9390     6.8670     1.5860 H     1 <1>   0.0800 
 43 H       -6.6130     7.1710     0.5030 H     1 <1>   0.1500 
 44 H       -8.2020     2.2370    -0.4260 H     1 <1>   0.0800 
 45 H       -8.4980     3.2970    -1.7880 H     1 <1>   0.0800 
 46 H       -9.2670     3.6120    -0.2480 H     1 <1>   0.0800 
@<TRIPOS>BOND
  1   1   2  2   
  2   2   3  am  
  3   2   4  1   
  4   3   5  1   
  5   3   6  1   
  6   4   7  ar  
  7   4   8  ar  
  8   5   9  1   
  9   5  25  1   
 10   5  26  1   
 11   6  10  1   
 12   6  27  1   
 13   6  28  1   
 14   7  11  ar  
 15   8  12  ar  
 16   8  29  1   
 17   9  13  1   
 18   9  14  1   
 19   9  15  1   
 20  10  14  1   
 21  10  30  1   
 22  10  31  1   
 23  11  16  ar  
 24  11  17  1   
 25  12  16  ar  
 26  12  32  1   
 27  13  18  ar  
 28  13  19  ar  
 29  14  33  1   
 30  14  34  1   
 31  15  20  1   
 32  15  35  1   
 33  15  36  1   
 34  16  37  1   
 35  17  38  1   
 36  17  39  1   
 37  17  40  1   
 38  18  21  ar  
 39  19  20  1   
 40  19  22  ar  
 41  20  41  1   
 42  20  42  1   
 43  21  23  ar  
 44  21  24  1   
 45  22  23  ar  
 46  22  43  1   
 47  24  44  1   
 48  24  45  1   
 49  24  46  1   
@<TRIPOS>SUBSTRUCTURE
  1 ****   5 GROUP 4 **** **** 0

# MOE 2024.06 (io_trps.svl 2023.06)
