@<TRIPOS>MOLECULE
NONAME
48 49 1 0 0 
SMALL
USER_CHARGES


@<TRIPOS>ATOM
  1 O       -1.5070     0.8690    -2.2200 O.2   1 <1>  -0.5700 
  2 C       -2.0310     1.2970    -1.2070 C.2   1 <1>   0.5440 
  3 N       -3.1450     0.6510    -0.7150 N.am  1 <1>  -0.6600 
  4 C       -1.4720     2.4720    -0.5640 C.ar  1 <1>   0.0860 
  5 C       -3.5210    -0.7130    -1.2260 C.3   1 <1>   0.1400 
  6 C       -4.0960     1.2790     0.2600 C.3   1 <1>   0.1400 
  7 C       -1.2510     2.5280     0.8130 C.ar  1 <1>  -0.1500 
  8 C       -1.1180     3.5940    -1.3150 C.ar  1 <1>  -0.1500 
  9 C       -4.4260    -1.4270    -0.2140 C.3   1 <1>   0.2000 
 10 C       -5.5310     0.8640    -0.0730 C.3   1 <1>  -0.1600 
 11 C       -0.7210     3.6560     1.4120 C.ar  1 <1>  -0.1500 
 12 C       -0.5840     4.7250    -0.7250 C.ar  1 <1>  -0.1500 
 13 O       -4.6770    -2.7380    -0.5840 O.3   1 <1>  -0.6800 
 14 C       -5.7530    -0.6760     0.0770 C.3   1 <1>  -0.1060 
 15 C       -0.3840     4.7640     0.6520 C.ar  1 <1>   0.0820 
 16 C       -6.0530    -1.0700     1.5340 C.2   1 <1>   0.9060 
 17 C       -6.9740    -1.0910    -0.8090 C.3   1 <1>  -0.1600 
 18 O        0.1300     5.8260     1.3110 O.3   1 <1>  -0.3630 
 19 O       -6.0460    -0.2170     2.4310 O.co2 1 <1>  -0.9000 
 20 O       -6.2380    -2.2710     1.7840 O.co2 1 <1>  -0.9000 
 21 C       -6.7880    -1.0300    -2.3390 C.3   1 <1>  -0.1600 
 22 C        0.5370     6.9940     0.6350 C.3   1 <1>   0.1200 
 23 C       -8.0800    -1.4280    -3.0580 C.3   1 <1>  -0.2400 
 24 C        1.0760     7.9750     1.6710 C.3   1 <1>  -0.2400 
 25 H       -4.0280    -0.6050    -2.1660 H     1 <1>   0.0800 
 26 H       -2.6290    -1.2950    -1.3760 H     1 <1>   0.0800 
 27 H       -3.8560     0.9610     1.2620 H     1 <1>   0.0800 
 28 H       -4.0200     2.3520     0.2150 H     1 <1>   0.0800 
 29 H       -1.4980     1.6720     1.4160 H     1 <1>   0.1500 
 30 H       -1.2660     3.5630    -2.3810 H     1 <1>   0.1500 
 31 H       -3.8550    -1.4910     0.6990 H     1 <1>   0.0800 
 32 H       -6.2140     1.3950     0.5670 H     1 <1>   0.0800 
 33 H       -5.7300     1.1960    -1.0720 H     1 <1>   0.0800 
 34 H       -0.5620     3.6840     2.4750 H     1 <1>   0.1500 
 35 H       -0.3310     5.5610    -1.3490 H     1 <1>   0.1500 
 36 H       -5.2830    -3.0900     0.1160 H     1 <1>   0.4000 
 37 H       -7.2520    -2.1010    -0.5570 H     1 <1>   0.0800 
 38 H       -7.8090    -0.4720    -0.5320 H     1 <1>   0.0800 
 39 H       -6.5080    -0.0430    -2.6560 H     1 <1>   0.0800 
 40 H       -6.0090    -1.7100    -2.6350 H     1 <1>   0.0800 
 41 H        1.3030     6.7280    -0.0730 H     1 <1>   0.0800 
 42 H       -0.3170     7.4080     0.1260 H     1 <1>   0.0800 
 43 H       -8.8770    -0.7550    -2.7970 H     1 <1>   0.0800 
 44 H       -8.3650    -2.4280    -2.7830 H     1 <1>   0.0800 
 45 H       -7.9330    -1.3940    -4.1230 H     1 <1>   0.0800 
 46 H        1.9170     7.5450     2.1840 H     1 <1>   0.0800 
 47 H        0.3080     8.2200     2.3830 H     1 <1>   0.0800 
 48 H        1.3950     8.8800     1.1860 H     1 <1>   0.0800 
@<TRIPOS>BOND
  1   1   2  2   
  2   2   3  am  
  3   2   4  1   
  4   3   5  1   
  5   3   6  1   
  6   4   7  ar  
  7   4   8  ar  
  8   5   9  1   
  9   5  25  1   
 10   5  26  1   
 11   6  10  1   
 12   6  27  1   
 13   6  28  1   
 14   7  11  ar  
 15   7  29  1   
 16   8  12  ar  
 17   8  30  1   
 18   9  13  1   
 19   9  14  1   
 20   9  31  1   
 21  10  14  1   
 22  10  32  1   
 23  10  33  1   
 24  11  15  ar  
 25  11  34  1   
 26  12  15  ar  
 27  12  35  1   
 28  13  36  1   
 29  14  16  1   
 30  14  17  1   
 31  15  18  1   
 32  16  19  ar  
 33  16  20  ar  
 34  17  21  1   
 35  17  37  1   
 36  17  38  1   
 37  18  22  1   
 38  21  23  1   
 39  21  39  1   
 40  21  40  1   
 41  22  24  1   
 42  22  41  1   
 43  22  42  1   
 44  23  43  1   
 45  23  44  1   
 46  23  45  1   
 47  24  46  1   
 48  24  47  1   
 49  24  48  1   
@<TRIPOS>SUBSTRUCTURE
  1 ****   6 GROUP 4 **** **** 0

# MOE 2024.06 (io_trps.svl 2023.06)
