@<TRIPOS>MOLECULE
NONAME
50 52 1 0 0 
SMALL
USER_CHARGES


@<TRIPOS>ATOM
  1 O       -1.7900     0.2170     2.5540 O.2   1 <1>  -0.5700 
  2 C       -1.8410     0.7910     1.4910 C.2   1 <1>   0.5690 
  3 N       -2.0980     0.1230     0.3220 N.am  1 <1>  -0.6600 
  4 C       -1.6080     2.2990     1.5040 C.3   1 <1>   0.0440 
  5 C       -2.1640    -1.3790     0.3110 C.3   1 <1>   0.3640 
  6 C       -2.3050     0.8100    -0.9940 C.3   1 <1>   0.1400 
  7 C       -0.4040     2.7320     0.6610 C.ar  1 <1>  -0.1440 
  8 C       -0.8010    -2.0120    -0.0170 C.ar  1 <1>  -0.1440 
  9 C       -3.2700    -1.9240    -0.6480 C.3   1 <1>   0.2000 
 10 C       -2.6860    -0.1660    -2.1160 C.3   1 <1>   0.1200 
 11 C       -0.4420     3.8160    -0.2130 C.ar  1 <1>  -0.1440 
 12 C        0.7670     1.9940     0.7760 C.ar  1 <1>  -0.1500 
 13 C        0.2550    -1.3270    -0.6120 C.ar  1 <1>  -0.1500 
 14 C       -0.6160    -3.3500     0.3090 C.ar  1 <1>  -0.1500 
 15 O       -3.6790    -1.0250    -1.6560 O.3   1 <1>  -0.5600 
 16 C       -4.5340    -2.3200     0.1240 C.3   1 <1>   0.1200 
 17 C        0.6820     4.1220    -0.9650 C.ar  1 <1>  -0.1500 
 18 C       -1.6770     4.6920    -0.3750 C.3   1 <1>  -0.0970 
 19 C        1.8860     2.3000     0.0220 C.ar  1 <1>  -0.1430 
 20 C        1.4500    -1.9680    -0.8900 C.ar  1 <1>  -0.1500 
 21 C        0.5770    -3.9930     0.0340 C.ar  1 <1>  -0.1500 
 22 O       -4.3050    -3.4800     0.8600 O.3   1 <1>  -0.6800 
 23 C        1.8370     3.3700    -0.8520 C.ar  1 <1>  -0.1500 
 24 C        3.1510     1.4740     0.1570 C.3   1 <1>  -0.0970 
 25 C        1.6120    -3.3030    -0.5690 C.ar  1 <1>  -0.1500 
 26 H       -2.5150     2.7660     1.1800 H     1 <1>   0.0800 
 27 H       -1.4350     2.6080     2.5190 H     1 <1>   0.0800 
 28 H       -2.4090    -1.7160     1.3040 H     1 <1>   0.0800 
 29 H       -3.0910     1.5350    -0.8910 H     1 <1>   0.0800 
 30 H       -1.4080     1.3290    -1.2820 H     1 <1>   0.0800 
 31 H       -2.9000    -2.7960    -1.1560 H     1 <1>   0.0800 
 32 H       -1.8380    -0.7480    -2.4370 H     1 <1>   0.0800 
 33 H       -3.0750     0.3720    -2.9620 H     1 <1>   0.0800 
 34 H        0.8120     1.1630     1.4610 H     1 <1>   0.1500 
 35 H        0.1710    -0.2870    -0.8620 H     1 <1>   0.1500 
 36 H       -1.4090    -3.9010     0.7880 H     1 <1>   0.1500 
 37 H       -5.3490    -2.5110    -0.5530 H     1 <1>   0.0800 
 38 H       -4.8100    -1.5380     0.8100 H     1 <1>   0.0800 
 39 H        0.6710     4.9540    -1.6460 H     1 <1>   0.1500 
 40 H       -1.4690     5.5420    -0.9990 H     1 <1>   0.0800 
 41 H       -1.9990     5.0570     0.5840 H     1 <1>   0.0800 
 42 H       -2.4740     4.1300    -0.8260 H     1 <1>   0.0800 
 43 H        2.2530    -1.4250    -1.3540 H     1 <1>   0.1500 
 44 H        0.7010    -5.0300     0.2930 H     1 <1>   0.1500 
 45 H       -4.3540    -4.2690     0.2850 H     1 <1>   0.4000 
 46 H        2.6990     3.6240    -1.4440 H     1 <1>   0.1500 
 47 H        3.8310     1.9600     0.8330 H     1 <1>   0.0800 
 48 H        3.6290     1.3630    -0.7990 H     1 <1>   0.0800 
 49 H        2.9250     0.4950     0.5400 H     1 <1>   0.0800 
 50 H        2.5410    -3.8020    -0.7850 H     1 <1>   0.1500 
@<TRIPOS>BOND
  1   1   2  2   
  2   2   3  am  
  3   2   4  1   
  4   3   5  1   
  5   3   6  1   
  6   4   7  1   
  7   4  26  1   
  8   4  27  1   
  9   5   8  1   
 10   5   9  1   
 11   5  28  1   
 12   6  10  1   
 13   6  29  1   
 14   6  30  1   
 15   7  11  ar  
 16   7  12  ar  
 17   8  13  ar  
 18   8  14  ar  
 19   9  15  1   
 20   9  16  1   
 21   9  31  1   
 22  10  15  1   
 23  10  32  1   
 24  10  33  1   
 25  11  17  ar  
 26  11  18  1   
 27  12  19  ar  
 28  12  34  1   
 29  13  20  ar  
 30  13  35  1   
 31  14  21  ar  
 32  14  36  1   
 33  16  22  1   
 34  16  37  1   
 35  16  38  1   
 36  17  23  ar  
 37  17  39  1   
 38  18  40  1   
 39  18  41  1   
 40  18  42  1   
 41  19  23  ar  
 42  19  24  1   
 43  20  25  ar  
 44  20  43  1   
 45  21  25  ar  
 46  21  44  1   
 47  22  45  1   
 48  23  46  1   
 49  24  47  1   
 50  24  48  1   
 51  24  49  1   
 52  25  50  1   
@<TRIPOS>SUBSTRUCTURE
  1 ****   3 GROUP 4 **** **** 0

# MOE 2024.06 (io_trps.svl 2023.06)
