@<TRIPOS>MOLECULE
NONAME
41 44 1 0 0 
SMALL
USER_CHARGES


@<TRIPOS>ATOM
  1 S        0.1620     0.2020    -0.7840 S.3   1 <1>  -0.0800 
  2 C        0.3160     1.8040    -0.1430 C.2   1 <1>   0.4620 
  3 C       -1.0840    -0.1080     0.3920 C.2   1 <1>   0.3250 
  4 N       -0.5090     2.0010     0.8280 N.2   1 <1>  -0.3380 
  5 N        1.2440     2.6920    -0.6620 N.pl3 1 <1>  -0.8220 
  6 N       -1.2920     0.9300     1.1230 N.2   1 <1>  -0.3380 
  7 C       -1.7340    -1.3980     0.4410 C.ar  1 <1>   0.0530 
  8 C        1.5820     3.9220     0.1270 C.3   1 <1>   0.2090 
  9 C        2.1090     2.3870    -1.8450 C.3   1 <1>   0.2090 
 10 C       -2.8030    -1.6080     1.3170 C.ar  1 <1>  -0.1500 
 11 C       -1.3510    -2.4830    -0.3560 C.ar  1 <1>  -0.1500 
 12 C        3.0130     3.9590     0.7200 C.3   1 <1>   0.2200 
 13 C        3.6070     2.2140    -1.5340 C.3   1 <1>  -0.0190 
 14 C       -3.4550    -2.8240     1.3950 C.ar  1 <1>  -0.1500 
 15 C       -1.9990    -3.7020    -0.2830 C.ar  1 <1>  -0.1500 
 16 N        4.0170     4.3500    -0.3130 N.am  1 <1>  -0.6600 
 17 C        3.4590     2.6880     1.4870 C.3   1 <1>   0.1200 
 18 C        4.2810     3.5580    -1.3910 C.2   1 <1>   0.5690 
 19 C        4.0030     1.2710    -0.3810 C.3   1 <1>   0.1200 
 20 C       -3.0550    -3.8760     0.5940 C.ar  1 <1>  -0.1500 
 21 C        4.6800     5.6720    -0.1200 C.3   1 <1>   0.0600 
 22 O        3.2940     1.4760     0.8010 O.3   1 <1>  -0.5600 
 23 O        5.0520     3.8920    -2.2590 O.2   1 <1>  -0.5700 
 24 H        1.4390     4.7860    -0.4960 H     1 <1>   0.0800 
 25 H        0.8940     4.0180     0.9480 H     1 <1>   0.0800 
 26 H        1.7650     1.4980    -2.3370 H     1 <1>   0.0800 
 27 H        1.9960     3.1870    -2.5580 H     1 <1>   0.0800 
 28 H       -3.1270    -0.7990     1.9490 H     1 <1>   0.1500 
 29 H       -0.5330    -2.3870    -1.0460 H     1 <1>   0.1500 
 30 H        3.0020     4.7480     1.4500 H     1 <1>   0.0800 
 31 H        4.0350     1.7790    -2.4180 H     1 <1>   0.0800 
 32 H       -4.2750    -2.9510     2.0810 H     1 <1>   0.1500 
 33 H       -1.6830    -4.5200    -0.9070 H     1 <1>   0.1500 
 34 H        2.8640     2.6040     2.3780 H     1 <1>   0.0800 
 35 H        4.4900     2.7740     1.7810 H     1 <1>   0.0800 
 36 H        5.0540     1.3580    -0.1650 H     1 <1>   0.0800 
 37 H        3.8050     0.2560    -0.6770 H     1 <1>   0.0800 
 38 H       -3.5610    -4.8250     0.6520 H     1 <1>   0.1500 
 39 H        5.2000     5.6850     0.8220 H     1 <1>   0.0800 
 40 H        3.9430     6.4550    -0.1320 H     1 <1>   0.0800 
 41 H        5.3930     5.8610    -0.9050 H     1 <1>   0.0800 
@<TRIPOS>BOND
  1   1   2  1   
  2   1   3  1   
  3   2   4  2   
  4   2   5  1   
  5   3   6  2   
  6   3   7  1   
  7   4   6  1   
  8   5   8  1   
  9   5   9  1   
 10   7  10  ar  
 11   7  11  ar  
 12   8  12  1   
 13   8  24  1   
 14   8  25  1   
 15   9  13  1   
 16   9  26  1   
 17   9  27  1   
 18  10  14  ar  
 19  10  28  1   
 20  11  15  ar  
 21  11  29  1   
 22  12  16  1   
 23  12  17  1   
 24  12  30  1   
 25  13  18  1   
 26  13  19  1   
 27  13  31  1   
 28  14  20  ar  
 29  14  32  1   
 30  15  20  ar  
 31  15  33  1   
 32  16  18  am  
 33  16  21  1   
 34  17  22  1   
 35  17  34  1   
 36  17  35  1   
 37  18  23  2   
 38  19  22  1   
 39  19  36  1   
 40  19  37  1   
 41  20  38  1   
 42  21  39  1   
 43  21  40  1   
 44  21  41  1   
@<TRIPOS>SUBSTRUCTURE
  1 ****   2 GROUP 4 **** **** 0

# MOE 2024.06 (io_trps.svl 2023.06)
