@<TRIPOS>MOLECULE
NONAME
59 62 1 0 0 
SMALL
USER_CHARGES


@<TRIPOS>ATOM
  1 O       -1.6850    -0.2510    -3.6930 O.2   1 <1>  -0.5700 
  2 C       -1.8630     0.2590    -2.6150 C.2   1 <1>   0.5690 
  3 N       -2.2240    -0.4590    -1.5260 N.am  1 <1>  -0.7300 
  4 C       -1.6080     1.7590    -2.4210 C.3   1 <1>   0.1710 
  5 C       -2.1530    -1.9310    -1.4030 C.3   1 <1>   0.2200 
  6 N       -1.0860     2.1130    -1.0590 N.3   1 <1>  -0.8100 
  7 C       -3.0780    -2.4280    -0.2980 C.3   1 <1>  -0.0800 
  8 C       -0.8030    -2.2850    -0.7970 C.3   1 <1>   0.1200 
  9 C       -1.0880     3.5710    -0.8340 C.3   1 <1>   0.1100 
 10 C        0.2640     1.5470    -0.8270 C.3   1 <1>   0.1100 
 11 C       -2.2370    -2.2040     0.9720 C.3   1 <1>   0.1200 
 12 C       -4.4750    -1.7740    -0.2710 C.3   1 <1>  -0.0160 
 13 O       -0.9280    -1.9350     0.5490 O.3   1 <1>  -0.5600 
 14 C       -0.5980     3.9200     0.5880 C.3   1 <1>   0.3430 
 15 C        0.7610     1.8530     0.5990 C.3   1 <1>   0.3430 
 16 C       -5.4760    -2.3320     0.7480 C.ar  1 <1>  -0.1440 
 17 N        0.7590     3.3310     0.8830 N.4   1 <1>  -0.9590 
 18 C       -6.7170    -1.6760     0.9390 C.ar  1 <1>   0.0000 
 19 C       -5.2480    -3.4530     1.4980 C.ar  1 <1>  -0.1500 
 20 C        1.2010     3.5920     2.2760 C.3   1 <1>   0.3430 
 21 C       -7.6090    -2.2050     1.9050 C.ar  1 <1>   0.3100 
 22 C       -7.1330    -0.5280     0.2210 C.ar  1 <1>  -0.1500 
 23 C       -6.2020    -3.8960     2.4220 C.ar  1 <1>   0.1600 
 24 C        1.5500     5.0660     2.4390 C.3   1 <1>  -0.2400 
 25 N       -7.3360    -3.3130     2.6370 N.ar  1 <1>  -0.6200 
 26 C       -8.8390    -1.5640     2.1220 C.ar  1 <1>  -0.1500 
 27 C       -8.3410     0.0700     0.4540 C.ar  1 <1>  -0.1500 
 28 C       -9.2070    -0.4500     1.4180 C.ar  1 <1>  -0.1500 
 29 H       -2.1820     0.0380    -0.6330 H     1 <1>   0.3700 
 30 H       -2.5440     2.2620    -2.5870 H     1 <1>   0.0800 
 31 H       -0.9180     2.0880    -3.1780 H     1 <1>   0.0800 
 32 H       -2.3220    -2.4070    -2.3550 H     1 <1>   0.0800 
 33 H       -3.1980    -3.4880    -0.4410 H     1 <1>   0.0800 
 34 H        0.0120    -1.7490    -1.2480 H     1 <1>   0.0800 
 35 H       -0.6200    -3.3440    -0.8540 H     1 <1>   0.0800 
 36 H       -0.4640     4.0590    -1.5640 H     1 <1>   0.0800 
 37 H       -2.0910     3.9460    -0.9540 H     1 <1>   0.0800 
 38 H        0.2380     0.4790    -0.9490 H     1 <1>   0.0800 
 39 H        0.9600     1.9410    -1.5490 H     1 <1>   0.0800 
 40 H       -2.2200    -3.0780     1.6000 H     1 <1>   0.0800 
 41 H       -2.5830    -1.3570     1.5390 H     1 <1>   0.0800 
 42 H       -4.9110    -1.8680    -1.2510 H     1 <1>   0.0800 
 43 H       -4.3550    -0.7250    -0.0690 H     1 <1>   0.0800 
 44 H       -1.3170     3.5400     1.2950 H     1 <1>   0.0800 
 45 H       -0.5650     4.9910     0.6940 H     1 <1>   0.0800 
 46 H        1.7560     1.4560     0.7180 H     1 <1>   0.0800 
 47 H        0.1160     1.3440     1.2970 H     1 <1>   0.0800 
 48 H        1.4350     3.7670     0.2440 H     1 <1>   0.4500 
 49 H       -4.3520    -4.0360     1.4200 H     1 <1>   0.1500 
 50 H        0.4260     3.3130     2.9730 H     1 <1>   0.0800 
 51 H        2.0770     3.0010     2.4950 H     1 <1>   0.0800 
 52 H       -6.4910    -0.1110    -0.5310 H     1 <1>   0.1500 
 53 H       -5.9760    -4.7820     2.9920 H     1 <1>   0.1500 
 54 H        0.6840     5.6920     2.3250 H     1 <1>   0.0800 
 55 H        2.3090     5.3610     1.7370 H     1 <1>   0.0800 
 56 H        1.9370     5.2270     3.4300 H     1 <1>   0.0800 
 57 H       -9.4890    -1.9860     2.8660 H     1 <1>   0.1500 
 58 H       -8.6420     0.9440    -0.0990 H     1 <1>   0.1500 
 59 H      -10.1540     0.0300     1.5950 H     1 <1>   0.1500 
@<TRIPOS>BOND
  1   1   2  2   
  2   2   3  am  
  3   2   4  1   
  4   3   5  1   
  5   3  29  1   
  6   4   6  1   
  7   4  30  1   
  8   4  31  1   
  9   5   7  1   
 10   5   8  1   
 11   5  32  1   
 12   6   9  1   
 13   6  10  1   
 14   7  11  1   
 15   7  12  1   
 16   7  33  1   
 17   8  13  1   
 18   8  34  1   
 19   8  35  1   
 20   9  14  1   
 21   9  36  1   
 22   9  37  1   
 23  10  15  1   
 24  10  38  1   
 25  10  39  1   
 26  11  13  1   
 27  11  40  1   
 28  11  41  1   
 29  12  16  1   
 30  12  42  1   
 31  12  43  1   
 32  14  17  1   
 33  14  44  1   
 34  14  45  1   
 35  15  17  1   
 36  15  46  1   
 37  15  47  1   
 38  16  18  ar  
 39  16  19  ar  
 40  17  20  1   
 41  17  48  1   
 42  18  21  ar  
 43  18  22  ar  
 44  19  23  ar  
 45  19  49  1   
 46  20  24  1   
 47  20  50  1   
 48  20  51  1   
 49  21  25  ar  
 50  21  26  ar  
 51  22  27  ar  
 52  22  52  1   
 53  23  25  ar  
 54  23  53  1   
 55  24  54  1   
 56  24  55  1   
 57  24  56  1   
 58  26  28  ar  
 59  26  57  1   
 60  27  28  ar  
 61  27  58  1   
 62  28  59  1   
@<TRIPOS>SUBSTRUCTURE
  1 ****  12 GROUP 4 **** **** 0

# MOE 2024.06 (io_trps.svl 2023.06)
