@<TRIPOS>MOLECULE
NONAME
40 42 1 0 0 
SMALL
USER_CHARGES


@<TRIPOS>ATOM
  1 N       -0.9820    -0.2530    -0.7320 N.ar  1 <1>  -0.6200 
  2 C       -1.8570     0.6350    -0.2750 C.ar  1 <1>   0.4100 
  3 C       -0.1130     0.2670    -1.5850 C.ar  1 <1>   0.1600 
  4 N       -2.8140     0.1320     0.6200 N.3   1 <1>  -0.5900 
  5 C       -1.8200     2.0250    -0.6560 C.ar  1 <1>   0.4100 
  6 C       -0.0950     1.5930    -1.9660 C.ar  1 <1>   0.1600 
  7 C       -4.2650     0.3990     0.3110 C.3   1 <1>   0.2450 
  8 C       -3.1360    -1.3410     0.6290 C.3   1 <1>   0.2450 
  9 N       -0.9400     2.5100    -1.5190 N.ar  1 <1>  -0.6200 
 10 N       -2.6990     2.9810    -0.1210 N.pl3 1 <1>  -0.8380 
 11 C       -4.5830    -0.9540     0.9770 C.3   1 <1>   0.0850 
 12 C       -2.5240     3.3180     1.3140 C.3   1 <1>   0.1290 
 13 C       -3.1300     4.1240    -0.9710 C.3   1 <1>   0.1290 
 14 N       -5.5790    -1.7670     0.2520 N.pl3 1 <1>   0.4850 
 15 N       -6.4920    -1.2240    -0.5830 N.2   1 <1>  -0.7070 
 16 C       -5.7670    -3.1070     0.3610 C.2   1 <1>  -0.3320 
 17 C       -7.2130    -2.2170    -0.9920 C.2   1 <1>   0.1080 
 18 C       -6.8100    -3.4230    -0.4360 C.2   1 <1>  -0.1500 
 19 C       -4.9480    -4.0470     1.2320 C.3   1 <1>  -0.0600 
 20 C       -8.3570    -2.0390    -1.9620 C.3   1 <1>  -0.0590 
 21 H        0.6200    -0.4030    -1.9990 H     1 <1>   0.1500 
 22 H        0.6470     1.9230    -2.6700 H     1 <1>   0.1500 
 23 H       -4.4320     0.4400    -0.7520 H     1 <1>   0.0000 
 24 H       -4.6420     1.2430     0.8590 H     1 <1>   0.0000 
 25 H       -2.6220    -1.8550     1.4210 H     1 <1>   0.0000 
 26 H       -3.0310    -1.7890    -0.3450 H     1 <1>   0.0000 
 27 H       -4.7780    -0.8910     2.0330 H     1 <1>   0.0000 
 28 H       -2.0800     2.4910     1.8420 H     1 <1>   0.0800 
 29 H       -3.4810     3.5340     1.7550 H     1 <1>   0.0800 
 30 H       -1.8820     4.1760     1.4130 H     1 <1>   0.0800 
 31 H       -3.2730     3.7910    -1.9840 H     1 <1>   0.0800 
 32 H       -2.3760     4.8920    -0.9610 H     1 <1>   0.0800 
 33 H       -4.0580     4.5250    -0.6030 H     1 <1>   0.0800 
 34 H       -7.2560    -4.3850    -0.6170 H     1 <1>   0.1500 
 35 H       -4.9430    -3.7050     2.2520 H     1 <1>   0.0800 
 36 H       -3.9360    -4.1060     0.8740 H     1 <1>   0.0800 
 37 H       -5.3720    -5.0360     1.2080 H     1 <1>   0.0800 
 38 H       -9.0840    -1.3710    -1.5380 H     1 <1>   0.0800 
 39 H       -8.8230    -2.9830    -2.1720 H     1 <1>   0.0800 
 40 H       -7.9870    -1.6160    -2.8770 H     1 <1>   0.0800 
@<TRIPOS>BOND
  1   1   2  ar  
  2   1   3  ar  
  3   2   4  1   
  4   2   5  ar  
  5   3   6  ar  
  6   3  21  1   
  7   4   7  1   
  8   4   8  1   
  9   5   9  ar  
 10   5  10  1   
 11   6   9  ar  
 12   6  22  1   
 13   7  11  1   
 14   7  23  1   
 15   7  24  1   
 16   8  11  1   
 17   8  25  1   
 18   8  26  1   
 19  10  12  1   
 20  10  13  1   
 21  11  14  1   
 22  11  27  1   
 23  12  28  1   
 24  12  29  1   
 25  12  30  1   
 26  13  31  1   
 27  13  32  1   
 28  13  33  1   
 29  14  15  1   
 30  14  16  1   
 31  15  17  2   
 32  16  18  2   
 33  16  19  1   
 34  17  18  1   
 35  17  20  1   
 36  18  34  1   
 37  19  35  1   
 38  19  36  1   
 39  19  37  1   
 40  20  38  1   
 41  20  39  1   
 42  20  40  1   
@<TRIPOS>SUBSTRUCTURE
  1 ****   7 GROUP 4 **** **** 0

# MOE 2024.06 (io_trps.svl 2023.06)
