@<TRIPOS>MOLECULE
NONAME
43 44 1 0 0 
SMALL
USER_CHARGES


@<TRIPOS>ATOM
  1 CL      -1.8710     0.0110     1.9690 Cl    1 <1>  -0.1770 
  2 C       -2.5060    -1.0250     0.7050 C.ar  1 <1>   0.1770 
  3 C       -2.9160    -0.5570    -0.5510 C.ar  1 <1>   0.0820 
  4 C       -2.6060    -2.3640     1.0290 C.ar  1 <1>  -0.1500 
  5 O       -2.8650     0.7200    -1.0100 O.3   1 <1>  -0.3630 
  6 C       -3.4370    -1.4780    -1.4470 C.ar  1 <1>  -0.1500 
  7 C       -3.1260    -3.2890     0.1280 C.ar  1 <1>   0.0860 
  8 C       -2.0040     1.7070    -0.4940 C.3   1 <1>   0.1200 
  9 C       -3.5380    -2.8170    -1.1160 C.ar  1 <1>  -0.1500 
 10 C       -3.2400    -4.6890     0.4710 C.2   1 <1>   0.5440 
 11 C       -1.9240     2.8390    -1.5140 C.3   1 <1>  -0.2400 
 12 O       -2.4040    -5.4670     0.0500 O.2   1 <1>  -0.5700 
 13 N       -4.2560    -5.1560     1.2740 N.am  1 <1>  -0.6600 
 14 C       -4.4000    -6.6200     1.5490 C.3   1 <1>   0.3210 
 15 C       -5.3590    -4.2920     1.8100 C.3   1 <1>   0.1400 
 16 C       -5.5440    -7.2150     0.7340 C.2   1 <1>   0.0460 
 17 C       -6.2860    -3.6840     0.7350 C.3   1 <1>   0.1200 
 18 N       -6.8230    -7.1310     1.1620 N.2   1 <1>  -0.5650 
 19 C       -5.4820    -7.8490    -0.4610 C.2   1 <1>  -0.3320 
 20 O       -6.5200    -4.5700    -0.3050 O.3   1 <1>  -0.6800 
 21 C       -7.5030    -7.7170     0.2310 C.2   1 <1>   0.0360 
 22 N       -6.7450    -8.1760    -0.7850 N.pl3 1 <1>   0.0330 
 23 C       -4.2930    -8.1590    -1.3560 C.3   1 <1>  -0.0600 
 24 H       -2.2770    -2.7020     1.9950 H     1 <1>   0.1500 
 25 H       -3.7640    -1.1370    -2.4140 H     1 <1>   0.1500 
 26 H       -1.0320     1.2700    -0.3360 H     1 <1>   0.0800 
 27 H       -2.4130     2.0670     0.4330 H     1 <1>   0.0800 
 28 H       -3.9480    -3.5190    -1.8230 H     1 <1>   0.1500 
 29 H       -1.5300     2.4710    -2.4440 H     1 <1>   0.0800 
 30 H       -1.2740     3.6130    -1.1480 H     1 <1>   0.0800 
 31 H       -2.9000     3.2580    -1.6770 H     1 <1>   0.0800 
 32 H       -4.5950    -6.7720     2.5950 H     1 <1>   0.0800 
 33 H       -3.4900    -7.1410     1.3140 H     1 <1>   0.0800 
 34 H       -4.9330    -3.4950     2.3930 H     1 <1>   0.0800 
 35 H       -5.9670    -4.8730     2.4820 H     1 <1>   0.0800 
 36 H       -5.8590    -2.7900     0.3170 H     1 <1>   0.0800 
 37 H       -7.2340    -3.4310     1.1750 H     1 <1>   0.0800 
 38 H       -6.5270    -5.4950     0.0550 H     1 <1>   0.4000 
 39 H       -8.5730    -7.8350     0.2440 H     1 <1>   0.1500 
 40 H       -7.0680    -8.6580    -1.6280 H     1 <1>   0.2700 
 41 H       -3.3810    -7.7950    -0.9170 H     1 <1>   0.0800 
 42 H       -4.4160    -7.6810    -2.3110 H     1 <1>   0.0800 
 43 H       -4.2010    -9.2200    -1.5020 H     1 <1>   0.0800 
@<TRIPOS>BOND
  1   1   2  1   
  2   2   3  ar  
  3   2   4  ar  
  4   3   5  1   
  5   3   6  ar  
  6   4   7  ar  
  7   4  24  1   
  8   5   8  1   
  9   6   9  ar  
 10   6  25  1   
 11   7   9  ar  
 12   7  10  1   
 13   8  11  1   
 14   8  26  1   
 15   8  27  1   
 16   9  28  1   
 17  10  12  2   
 18  10  13  am  
 19  11  29  1   
 20  11  30  1   
 21  11  31  1   
 22  13  14  1   
 23  13  15  1   
 24  14  16  1   
 25  14  32  1   
 26  14  33  1   
 27  15  17  1   
 28  15  34  1   
 29  15  35  1   
 30  16  18  1   
 31  16  19  2   
 32  17  20  1   
 33  17  36  1   
 34  17  37  1   
 35  18  21  2   
 36  19  22  1   
 37  19  23  1   
 38  20  38  1   
 39  21  22  1   
 40  21  39  1   
 41  22  40  1   
 42  23  41  1   
 43  23  42  1   
 44  23  43  1   
@<TRIPOS>SUBSTRUCTURE
  1 ****   7 GROUP 4 **** **** 0

# MOE 2024.06 (io_trps.svl 2023.06)
