@<TRIPOS>MOLECULE
NONAME
46 48 1 0 0 
SMALL
USER_CHARGES


@<TRIPOS>ATOM
  1 S        0.6370     0.7620    -1.4030 S.o2  1 <1>   1.3330 
  2 O       -0.0770     1.8300    -2.0650 O.2   1 <1>  -0.6500 
  3 O        0.7200    -0.5390    -2.0280 O.2   1 <1>  -0.6500 
  4 N       -0.0730     0.5580     0.1280 N.am  1 <1>  -0.8490 
  5 C        2.3060     1.3040    -1.0300 C.3   1 <1>  -0.0550 
  6 C       -1.1820    -0.4000     0.0970 C.3   1 <1>   0.1160 
  7 C       -0.5250     1.8180     0.7300 C.3   1 <1>   0.1160 
  8 C        3.2090     0.2110    -0.4170 C.3   1 <1>  -0.0800 
  9 C        4.6630     0.6130    -0.2170 C.3   1 <1>   0.2200 
 10 C        2.7960    -0.2670     0.9810 C.3   1 <1>   0.1200 
 11 N        4.7560     1.9830     0.3420 N.am  1 <1>  -0.7300 
 12 C        5.0830    -0.3850     0.8530 C.3   1 <1>   0.1200 
 13 O        3.9760    -0.5020     1.6940 O.3   1 <1>  -0.5600 
 14 C        4.9720     3.1380    -0.3630 C.2   1 <1>   0.6300 
 15 O        5.1910     3.0190    -1.5580 O.2   1 <1>  -0.5700 
 16 C        4.8650     4.4310     0.2950 C.2   1 <1>   0.3640 
 17 N        3.9790     4.5410     1.2580 N.2   1 <1>  -0.5120 
 18 C        5.7080     5.5480    -0.1070 C.ar  1 <1>   0.0860 
 19 N        3.8080     5.7650     1.8250 N.am  1 <1>  -0.3680 
 20 C        5.4830     6.8080     0.4780 C.ar  1 <1>   0.0860 
 21 C        6.7610     5.4570    -1.0350 C.ar  1 <1>  -0.1500 
 22 C        4.4670     6.9120     1.4830 C.2   1 <1>   0.5440 
 23 C        6.2520     7.9110     0.0950 C.ar  1 <1>  -0.1500 
 24 C        7.5160     6.5510    -1.3970 C.ar  1 <1>  -0.1500 
 25 O        4.1680     7.9460     2.0520 O.2   1 <1>  -0.5700 
 26 C        7.2580     7.7900    -0.8350 C.ar  1 <1>  -0.1500 
 27 H        2.7620     1.6330    -1.9450 H     1 <1>   0.0800 
 28 H        2.2600     2.1520    -0.3760 H     1 <1>   0.0800 
 29 H       -1.6010    -0.5180     1.0810 H     1 <1>   0.0800 
 30 H       -0.8290    -1.3620    -0.2350 H     1 <1>   0.0800 
 31 H       -1.9490    -0.0610    -0.5800 H     1 <1>   0.0800 
 32 H       -0.8870     1.6410     1.7280 H     1 <1>   0.0800 
 33 H       -1.3160     2.2550     0.1430 H     1 <1>   0.0800 
 34 H        0.2900     2.5200     0.7850 H     1 <1>   0.0800 
 35 H        3.1920    -0.6460    -1.0680 H     1 <1>   0.0800 
 36 H        5.2510     0.5230    -1.1150 H     1 <1>   0.0800 
 37 H        2.2210    -1.1770     0.9400 H     1 <1>   0.0800 
 38 H        2.2430     0.4860     1.5150 H     1 <1>   0.0800 
 39 H        4.4460     2.0630     1.3170 H     1 <1>   0.3700 
 40 H        5.9370    -0.0580     1.4190 H     1 <1>   0.0800 
 41 H        5.2730    -1.3520     0.4210 H     1 <1>   0.0800 
 42 H        3.1150     5.8920     2.5720 H     1 <1>   0.3700 
 43 H        7.0120     4.5180    -1.4930 H     1 <1>   0.1500 
 44 H        6.0510     8.8700     0.5450 H     1 <1>   0.1500 
 45 H        8.3090     6.4490    -2.1190 H     1 <1>   0.1500 
 46 H        7.8450     8.6460    -1.1230 H     1 <1>   0.1500 
@<TRIPOS>BOND
  1   1   2  2   
  2   1   3  2   
  3   1   4  am  
  4   1   5  1   
  5   4   6  1   
  6   4   7  1   
  7   5   8  1   
  8   5  27  1   
  9   5  28  1   
 10   6  29  1   
 11   6  30  1   
 12   6  31  1   
 13   7  32  1   
 14   7  33  1   
 15   7  34  1   
 16   8   9  1   
 17   8  10  1   
 18   8  35  1   
 19   9  11  1   
 20   9  12  1   
 21   9  36  1   
 22  10  13  1   
 23  10  37  1   
 24  10  38  1   
 25  11  14  am  
 26  11  39  1   
 27  12  13  1   
 28  12  40  1   
 29  12  41  1   
 30  14  15  2   
 31  14  16  1   
 32  16  17  2   
 33  16  18  1   
 34  17  19  1   
 35  18  20  ar  
 36  18  21  ar  
 37  19  22  am  
 38  19  42  1   
 39  20  22  1   
 40  20  23  ar  
 41  21  24  ar  
 42  21  43  1   
 43  22  25  2   
 44  23  26  ar  
 45  23  44  1   
 46  24  26  ar  
 47  24  45  1   
 48  26  46  1   
@<TRIPOS>SUBSTRUCTURE
  1 ****  14 GROUP 4 **** **** 0

# MOE 2024.06 (io_trps.svl 2023.06)
