@<TRIPOS>MOLECULE
NONAME
54 56 1 0 0 
SMALL
USER_CHARGES


@<TRIPOS>ATOM
  1 O        0.8880     0.3100    -1.3890 O.2   1 <1>  -0.5700 
  2 C        1.6160    -0.1780    -0.5460 C.2   1 <1>   0.7150 
  3 N        2.3510     0.6840     0.2610 N.am  1 <1>  -0.6600 
  4 C        1.6910    -1.6160    -0.4440 C.2   1 <1>   0.0550 
  5 C        2.8600     0.2950     1.6120 C.3   1 <1>   0.1400 
  6 C        2.4270     2.1360    -0.0710 C.3   1 <1>   0.1400 
  7 O        2.7010    -2.2210     0.1380 O.3   1 <1>  -0.0190 
  8 C        0.8760    -2.6010    -0.8830 C.2   1 <1>  -0.1500 
  9 C        4.3470    -0.1140     1.5620 C.3   1 <1>   0.3430 
 10 C        3.8110     2.7250     0.2230 C.3   1 <1>  -0.1600 
 11 N        2.6040    -3.5100     0.1290 N.2   1 <1>  -0.4100 
 12 C        1.5030    -3.7750    -0.4890 C.2   1 <1>   0.1080 
 13 N        5.3040     0.9950     1.2120 N.4   1 <1>  -0.9590 
 14 C        4.9580     1.7470    -0.0390 C.3   1 <1>   0.3430 
 15 C        0.9630    -5.1770    -0.7550 C.3   1 <1>   0.1010 
 16 C        6.6770     0.4430     1.1190 C.3   1 <1>   0.4810 
 17 C        0.6880    -5.9150     0.5600 C.3   1 <1>  -0.2400 
 18 C        1.9370    -5.9800    -1.6260 C.3   1 <1>  -0.2400 
 19 C        7.6410     1.6050     1.0920 C.2   1 <1>  -0.2880 
 20 C        8.4060     1.9410     0.0390 C.2   1 <1>  -0.1780 
 21 C        9.3370     3.0440    -0.0670 C.ar  1 <1>   0.0280 
 22 C        9.7590     3.7790     1.0400 C.ar  1 <1>  -0.1500 
 23 C        9.8440     3.4070    -1.3130 C.ar  1 <1>  -0.1500 
 24 C       10.6410     4.8360     0.9060 C.ar  1 <1>  -0.1500 
 25 C       10.7260     4.4620    -1.4530 C.ar  1 <1>  -0.1500 
 26 C       11.1260     5.1820    -0.3420 C.ar  1 <1>  -0.1500 
 27 H        2.7210     1.1040     2.3070 H     1 <1>   0.0800 
 28 H        2.2830    -0.5350     1.9840 H     1 <1>   0.0800 
 29 H        2.2180     2.2730    -1.1200 H     1 <1>   0.0800 
 30 H        1.6690     2.6710     0.4780 H     1 <1>   0.0800 
 31 H       -0.0510    -2.5080    -1.4200 H     1 <1>   0.1500 
 32 H        4.4540    -0.9120     0.8460 H     1 <1>   0.0800 
 33 H        4.6150    -0.5150     2.5260 H     1 <1>   0.0800 
 34 H        3.8520     3.1060     1.2270 H     1 <1>   0.0800 
 35 H        3.9360     3.5710    -0.4290 H     1 <1>   0.0800 
 36 H        5.3160     1.6780     1.9770 H     1 <1>   0.4500 
 37 H        5.8140     2.3200    -0.3580 H     1 <1>   0.0800 
 38 H        4.6970     1.0670    -0.8340 H     1 <1>   0.0800 
 39 H        0.0330    -5.0850    -1.2900 H     1 <1>   0.0800 
 40 H        6.8940    -0.1840     1.9700 H     1 <1>   0.0800 
 41 H        6.7800    -0.1480     0.2230 H     1 <1>   0.0800 
 42 H        1.6000    -6.0400     1.1170 H     1 <1>   0.0800 
 43 H        0.2660    -6.8850     0.3660 H     1 <1>   0.0800 
 44 H       -0.0040    -5.3530     1.1610 H     1 <1>   0.0800 
 45 H        2.8770    -6.1050    -1.1180 H     1 <1>   0.0800 
 46 H        2.1160    -5.4630    -2.5520 H     1 <1>   0.0800 
 47 H        1.5310    -6.9500    -1.8470 H     1 <1>   0.0800 
 48 H        7.6560     2.1520     2.0170 H     1 <1>   0.1500 
 49 H        8.3560     1.3550    -0.8640 H     1 <1>   0.1500 
 50 H        9.4080     3.5290     2.0220 H     1 <1>   0.1500 
 51 H        9.5490     2.8610    -2.1910 H     1 <1>   0.1500 
 52 H       10.9550     5.3920     1.7740 H     1 <1>   0.1500 
 53 H       11.1040     4.7260    -2.4250 H     1 <1>   0.1500 
 54 H       11.8120     6.0040    -0.4470 H     1 <1>   0.1500 
@<TRIPOS>BOND
  1   1   2  2   
  2   2   3  am  
  3   2   4  1   
  4   3   5  1   
  5   3   6  1   
  6   4   7  1   
  7   4   8  2   
  8   5   9  1   
  9   5  27  1   
 10   5  28  1   
 11   6  10  1   
 12   6  29  1   
 13   6  30  1   
 14   7  11  1   
 15   8  12  1   
 16   8  31  1   
 17   9  13  1   
 18   9  32  1   
 19   9  33  1   
 20  10  14  1   
 21  10  34  1   
 22  10  35  1   
 23  11  12  2   
 24  12  15  1   
 25  13  14  1   
 26  13  16  1   
 27  13  36  1   
 28  14  37  1   
 29  14  38  1   
 30  15  17  1   
 31  15  18  1   
 32  15  39  1   
 33  16  19  1   
 34  16  40  1   
 35  16  41  1   
 36  17  42  1   
 37  17  43  1   
 38  17  44  1   
 39  18  45  1   
 40  18  46  1   
 41  18  47  1   
 42  19  20  2   
 43  19  48  1   
 44  20  21  1   
 45  20  49  1   
 46  21  22  ar  
 47  21  23  ar  
 48  22  24  ar  
 49  22  50  1   
 50  23  25  ar  
 51  23  51  1   
 52  24  26  ar  
 53  24  52  1   
 54  25  26  ar  
 55  25  53  1   
 56  26  54  1   
@<TRIPOS>SUBSTRUCTURE
  1 ****  13 GROUP 4 **** **** 0

# MOE 2024.06 (io_trps.svl 2023.06)
