@<TRIPOS>MOLECULE
NONAME
45 47 1 0 0 
SMALL
USER_CHARGES


@<TRIPOS>ATOM
  1 S        0.0090     0.1270    -0.0600 S.o2  1 <1>   1.3330 
  2 O       -0.0340    -0.7460     1.0900 O.2   1 <1>  -0.6500 
  3 O       -0.4850     1.4820     0.0480 O.2   1 <1>  -0.6500 
  4 N       -0.7860    -0.6430    -1.3460 N.am  1 <1>  -0.8490 
  5 C        1.7000     0.2340    -0.6460 C.3   1 <1>  -0.0550 
  6 C       -0.7040    -2.1070    -1.2900 C.3   1 <1>   0.1160 
  7 C       -2.1880    -0.2280    -1.4640 C.3   1 <1>   0.1160 
  8 C        2.5930     1.0670     0.2910 C.3   1 <1>  -0.0800 
  9 C        3.9720     1.3260    -0.3060 C.3   1 <1>   0.2200 
 10 C        2.8970     0.3420     1.6130 C.3   1 <1>   0.1200 
 11 N        4.3940     2.6870     0.1000 N.am  1 <1>  -0.7300 
 12 C        4.8290     0.3070     0.4300 C.3   1 <1>   0.1200 
 13 O        4.2870     0.2790     1.7080 O.3   1 <1>  -0.5600 
 14 C        4.5430     3.7590    -0.7340 C.2   1 <1>   0.7030 
 15 O        4.5090     3.5600    -1.9330 O.2   1 <1>  -0.5700 
 16 C        4.7470     5.1070    -0.2250 C.2   1 <1>   0.2770 
 17 N        5.4250     6.1120    -0.9190 N.pl3 1 <1>  -0.6290 
 18 C        4.3470     5.6810     0.9540 C.2   1 <1>   0.1820 
 19 C        5.4070     7.1810    -0.1540 C.cat 1 <1>   0.8920 
 20 C        6.0660     6.3050    -2.1660 C.2   1 <1>   0.2290 
 21 N        4.7810     6.9820     0.9860 N.pl3 1 <1>  -0.7000 
 22 C        3.5360     5.1310     2.1170 C.3   1 <1>  -0.0720 
 23 S        6.2090     8.5370    -0.8950 S.3   1 <1>  -0.1930 
 24 C        6.5540     7.5470    -2.3310 C.2   1 <1>  -0.0490 
 25 H        2.1070    -0.7510    -0.7640 H     1 <1>   0.0800 
 26 H        1.6860     0.7030    -1.6110 H     1 <1>   0.0800 
 27 H       -1.1450    -2.5360    -2.1730 H     1 <1>   0.0800 
 28 H       -1.2230    -2.4810    -0.4220 H     1 <1>   0.0800 
 29 H        0.3250    -2.4200    -1.2380 H     1 <1>   0.0800 
 30 H       -2.6550    -0.7210    -2.2980 H     1 <1>   0.0800 
 31 H       -2.2450     0.8350    -1.6290 H     1 <1>   0.0800 
 32 H       -2.7270    -0.4670    -0.5620 H     1 <1>   0.0800 
 33 H        2.0860     1.9960     0.4900 H     1 <1>   0.0800 
 34 H        4.0150     1.2040    -1.3760 H     1 <1>   0.0800 
 35 H        2.5200    -0.6670     1.6260 H     1 <1>   0.0800 
 36 H        2.5180     0.8760     2.4680 H     1 <1>   0.0800 
 37 H        4.6160     2.7370     1.0980 H     1 <1>   0.3700 
 38 H        5.8680     0.5830     0.4770 H     1 <1>   0.0800 
 39 H        4.7270    -0.6740    -0.0010 H     1 <1>   0.0800 
 40 H        6.1160     5.4840    -2.8680 H     1 <1>   0.1500 
 41 H        4.6490     7.6890     1.7150 H     1 <1>   0.4500 
 42 H        3.1110     4.1720     1.8850 H     1 <1>   0.0800 
 43 H        2.7260     5.8000     2.3470 H     1 <1>   0.0800 
 44 H        4.1580     5.0320     2.9890 H     1 <1>   0.0800 
 45 H        7.0850     8.0160    -3.1420 H     1 <1>   0.1500 
@<TRIPOS>BOND
  1   1   2  2   
  2   1   3  2   
  3   1   4  am  
  4   1   5  1   
  5   4   6  1   
  6   4   7  1   
  7   5   8  1   
  8   5  25  1   
  9   5  26  1   
 10   6  27  1   
 11   6  28  1   
 12   6  29  1   
 13   7  30  1   
 14   7  31  1   
 15   7  32  1   
 16   8   9  1   
 17   8  10  1   
 18   8  33  1   
 19   9  11  1   
 20   9  12  1   
 21   9  34  1   
 22  10  13  1   
 23  10  35  1   
 24  10  36  1   
 25  11  14  am  
 26  11  37  1   
 27  12  13  1   
 28  12  38  1   
 29  12  39  1   
 30  14  15  2   
 31  14  16  1   
 32  16  17  1   
 33  16  18  2   
 34  17  19  ar  
 35  17  20  1   
 36  18  21  1   
 37  18  22  1   
 38  19  21  ar  
 39  19  23  1   
 40  20  24  2   
 41  20  40  1   
 42  21  41  1   
 43  22  42  1   
 44  22  43  1   
 45  22  44  1   
 46  23  24  1   
 47  24  45  1   
@<TRIPOS>SUBSTRUCTURE
  1 ****  11 GROUP 4 **** **** 0

# MOE 2024.06 (io_trps.svl 2023.06)
