@<TRIPOS>MOLECULE
NONAME
47 49 1 0 0 
SMALL
USER_CHARGES


@<TRIPOS>ATOM
  1 CL       1.5800    -4.2780     1.6670 Cl    1 <1>  -0.1770 
  2 C        0.2430    -4.3820     0.5460 C.ar  1 <1>   0.1770 
  3 C       -1.0660    -4.0850     0.9930 C.ar  1 <1>   0.0000 
  4 C        0.5140    -4.7480    -0.7410 C.ar  1 <1>  -0.1500 
  5 C       -2.1280    -4.2020     0.0640 C.ar  1 <1>   0.0000 
  6 C       -1.3590    -3.6700     2.3090 C.ar  1 <1>  -0.1500 
  7 C       -0.5290    -4.8320    -1.6650 C.ar  1 <1>  -0.1500 
  8 C       -3.4630    -3.9500     0.4950 C.ar  1 <1>   0.0860 
  9 C       -1.8100    -4.5610    -1.2680 C.ar  1 <1>  -0.1500 
 10 C       -2.6370    -3.3910     2.6990 C.ar  1 <1>  -0.1500 
 11 C       -4.5910    -4.1430    -0.3890 C.2   1 <1>   0.5440 
 12 C       -3.6840    -3.5320     1.7890 C.ar  1 <1>  -0.1500 
 13 O       -5.2570    -3.1910    -0.7480 O.2   1 <1>  -0.5700 
 14 N       -4.9520    -5.3970    -0.8240 N.am  1 <1>  -0.6600 
 15 C       -6.1470    -5.6410    -1.6700 C.3   1 <1>   0.1400 
 16 C       -4.3960    -6.6700    -0.3090 C.3   1 <1>   0.1400 
 17 C       -6.2610    -7.1630    -1.7540 C.3   1 <1>   0.2000 
 18 C       -5.5060    -7.6990    -0.5390 C.3   1 <1>  -0.0800 
 19 O       -7.5770    -7.5900    -1.7150 O.3   1 <1>  -0.6800 
 20 C       -5.0030    -9.1380    -0.7470 C.3   1 <1>  -0.0550 
 21 S       -4.1120    -9.7840     0.6670 S.o2  1 <1>   1.3330 
 22 O       -2.8430    -9.0980     0.7650 O.2   1 <1>  -0.6500 
 23 O       -5.0160    -9.7780     1.7950 O.2   1 <1>  -0.6500 
 24 N       -3.8070   -11.3940     0.2250 N.am  1 <1>  -0.8490 
 25 C       -3.7470   -12.2900     1.3850 C.3   1 <1>   0.1160 
 26 C       -2.6020   -11.5580    -0.5950 C.3   1 <1>   0.1160 
 27 H        1.5210    -4.9670    -1.0480 H     1 <1>   0.1500 
 28 H       -0.5570    -3.5680     3.0190 H     1 <1>   0.1500 
 29 H       -0.3100    -5.1080    -2.6830 H     1 <1>   0.1500 
 30 H       -2.6010    -4.6200    -1.9960 H     1 <1>   0.1500 
 31 H       -2.8520    -3.0670     3.7030 H     1 <1>   0.1500 
 32 H       -4.6870    -3.3130     2.1120 H     1 <1>   0.1500 
 33 H       -7.0100    -5.2070    -1.1960 H     1 <1>   0.0800 
 34 H       -6.0060    -5.2060    -2.6440 H     1 <1>   0.0800 
 35 H       -3.5140    -6.9220    -0.8720 H     1 <1>   0.0800 
 36 H       -4.1430    -6.5940     0.7370 H     1 <1>   0.0800 
 37 H       -5.8200    -7.5080    -2.6740 H     1 <1>   0.0800 
 38 H       -6.1500    -7.6680     0.3230 H     1 <1>   0.0800 
 39 H       -8.0180    -7.2650    -0.9050 H     1 <1>   0.4000 
 40 H       -4.3710    -9.1750    -1.6120 H     1 <1>   0.0800 
 41 H       -5.8520    -9.7690    -0.9350 H     1 <1>   0.0800 
 42 H       -3.5710   -13.3030     1.0660 H     1 <1>   0.0800 
 43 H       -4.6830   -12.2640     1.9190 H     1 <1>   0.0800 
 44 H       -2.9590   -11.9850     2.0530 H     1 <1>   0.0800 
 45 H       -2.5120   -12.5800    -0.9190 H     1 <1>   0.0800 
 46 H       -1.7230   -11.2900    -0.0300 H     1 <1>   0.0800 
 47 H       -2.6570   -10.9280    -1.4660 H     1 <1>   0.0800 
@<TRIPOS>BOND
  1   1   2  1   
  2   2   3  ar  
  3   2   4  ar  
  4   3   5  ar  
  5   3   6  ar  
  6   4   7  ar  
  7   4  27  1   
  8   5   8  ar  
  9   5   9  ar  
 10   6  10  ar  
 11   6  28  1   
 12   7   9  ar  
 13   7  29  1   
 14   8  11  1   
 15   8  12  ar  
 16   9  30  1   
 17  10  12  ar  
 18  10  31  1   
 19  11  13  2   
 20  11  14  am  
 21  12  32  1   
 22  14  15  1   
 23  14  16  1   
 24  15  17  1   
 25  15  33  1   
 26  15  34  1   
 27  16  18  1   
 28  16  35  1   
 29  16  36  1   
 30  17  18  1   
 31  17  19  1   
 32  17  37  1   
 33  18  20  1   
 34  18  38  1   
 35  19  39  1   
 36  20  21  1   
 37  20  40  1   
 38  20  41  1   
 39  21  22  2   
 40  21  23  2   
 41  21  24  am  
 42  24  25  1   
 43  24  26  1   
 44  25  42  1   
 45  25  43  1   
 46  25  44  1   
 47  26  45  1   
 48  26  46  1   
 49  26  47  1   
@<TRIPOS>SUBSTRUCTURE
  1 ****  16 GROUP 4 **** **** 0

# MOE 2024.06 (io_trps.svl 2023.06)
