@<TRIPOS>MOLECULE
NONAME
47 48 1 0 0 
SMALL
USER_CHARGES


@<TRIPOS>ATOM
  1 O        0.1820     1.0140     0.0640 O.2   1 <1>  -0.5700 
  2 C       -0.0500     2.1500    -0.2760 C.2   1 <1>   0.5690 
  3 N       -0.7690     3.0190     0.4990 N.am  1 <1>  -0.6600 
  4 C        0.4650     2.6150    -1.6380 C.3   1 <1>   0.1810 
  5 C       -1.0970     4.4040     0.0210 C.3   1 <1>   0.3640 
  6 C       -1.2430     2.6650     1.8680 C.3   1 <1>   0.0600 
  7 O        0.6280     4.0100    -1.7010 O.3   1 <1>  -0.5600 
  8 C       -2.6090     4.6730     0.1200 C.ar  1 <1>  -0.1440 
  9 C       -0.5470     4.7490    -1.3890 C.3   1 <1>   0.2610 
 10 C       -3.6050     3.8490    -0.4170 C.ar  1 <1>  -0.1440 
 11 C       -2.9910     5.8250     0.7980 C.ar  1 <1>  -0.1500 
 12 C       -0.2520     6.2510    -1.4620 C.2   1 <1>   0.5690 
 13 C       -4.9390     4.1950    -0.2520 C.ar  1 <1>  -0.1500 
 14 C       -3.3190     2.5620    -1.1830 C.3   1 <1>  -0.0960 
 15 C       -4.3230     6.1600     0.9540 C.ar  1 <1>  -0.1500 
 16 O       -1.1650     7.0390    -1.5180 O.2   1 <1>  -0.5700 
 17 N        1.0440     6.6680    -1.4520 N.am  1 <1>  -0.7300 
 18 C       -5.3010     5.3410     0.4290 C.ar  1 <1>  -0.1500 
 19 C        1.5090     8.0670    -1.5110 C.3   1 <1>   0.1400 
 20 C        2.3650     8.3580    -0.2790 C.3   1 <1>  -0.1600 
 21 C        2.8680     9.8090    -0.2830 C.3   1 <1>  -0.1600 
 22 C        3.7010    10.1050     0.9630 C.3   1 <1>   0.1200 
 23 O        4.1050    11.4240     0.9130 O.3   1 <1>  -0.6800 
 24 H       -0.2170     2.3110    -2.4100 H     1 <1>   0.0800 
 25 H        1.4230     2.1650    -1.8260 H     1 <1>   0.0800 
 26 H       -0.6040     5.0710     0.7060 H     1 <1>   0.0800 
 27 H       -0.9130     3.4070     2.5730 H     1 <1>   0.0800 
 28 H       -0.8530     1.7070     2.1700 H     1 <1>   0.0800 
 29 H       -2.3180     2.6170     1.8840 H     1 <1>   0.0800 
 30 H       -1.2840     4.5260    -2.1370 H     1 <1>   0.0800 
 31 H       -2.2490     6.4870     1.2100 H     1 <1>   0.1500 
 32 H       -5.7170     3.5700    -0.6550 H     1 <1>   0.1500 
 33 H       -4.2020     2.2080    -1.6830 H     1 <1>   0.0800 
 34 H       -2.9930     1.7940    -0.5050 H     1 <1>   0.0800 
 35 H       -2.5670     2.7170    -1.9300 H     1 <1>   0.0800 
 36 H       -4.5950     7.0580     1.4800 H     1 <1>   0.1500 
 37 H        1.7620     5.9370    -1.4890 H     1 <1>   0.3700 
 38 H       -6.3390     5.5960     0.5460 H     1 <1>   0.1500 
 39 H        2.0830     8.2120    -2.4110 H     1 <1>   0.0800 
 40 H        0.6620     8.7340    -1.5370 H     1 <1>   0.0800 
 41 H        1.7700     8.1930     0.6040 H     1 <1>   0.0800 
 42 H        3.2050     7.6870    -0.2610 H     1 <1>   0.0800 
 43 H        2.0240    10.4770    -0.3040 H     1 <1>   0.0800 
 44 H        3.4660     9.9750    -1.1630 H     1 <1>   0.0800 
 45 H        4.5790     9.4820     1.0100 H     1 <1>   0.0800 
 46 H        3.1180     9.9720     1.8590 H     1 <1>   0.0800 
 47 H        4.6440    11.5890     0.1160 H     1 <1>   0.4000 
@<TRIPOS>BOND
  1   1   2  2   
  2   2   3  am  
  3   2   4  1   
  4   3   5  1   
  5   3   6  1   
  6   4   7  1   
  7   4  24  1   
  8   4  25  1   
  9   5   8  1   
 10   5   9  1   
 11   5  26  1   
 12   6  27  1   
 13   6  28  1   
 14   6  29  1   
 15   7   9  1   
 16   8  10  ar  
 17   8  11  ar  
 18   9  12  1   
 19   9  30  1   
 20  10  13  ar  
 21  10  14  1   
 22  11  15  ar  
 23  11  31  1   
 24  12  16  2   
 25  12  17  am  
 26  13  18  ar  
 27  13  32  1   
 28  14  33  1   
 29  14  34  1   
 30  14  35  1   
 31  15  18  ar  
 32  15  36  1   
 33  17  19  1   
 34  17  37  1   
 35  18  38  1   
 36  19  20  1   
 37  19  39  1   
 38  19  40  1   
 39  20  21  1   
 40  20  41  1   
 41  20  42  1   
 42  21  22  1   
 43  21  43  1   
 44  21  44  1   
 45  22  23  1   
 46  22  45  1   
 47  22  46  1   
 48  23  47  1   
@<TRIPOS>SUBSTRUCTURE
  1 ****   5 GROUP 4 **** **** 0

# MOE 2024.06 (io_trps.svl 2023.06)
