@<TRIPOS>MOLECULE
NONAME
53 56 1 0 0 
SMALL
USER_CHARGES


@<TRIPOS>ATOM
  1 O        0.8920    -1.2170     0.0700 O.3   1 <1>  -0.5600 
  2 C        0.2520    -2.4530    -0.1640 C.3   1 <1>   0.4180 
  3 C        0.8360    -0.2610    -0.9570 C.3   1 <1>   0.1200 
  4 C       -1.0740    -2.2500    -0.8860 C.2   1 <1>  -0.2880 
  5 C        0.0080    -3.0670     1.2210 C.3   1 <1>  -0.1600 
  6 C        1.2020    -3.3590    -0.9530 C.3   1 <1>  -0.1600 
  7 C       -0.6150     0.1560    -1.2310 C.3   1 <1>  -0.0220 
  8 C       -1.4910    -1.0750    -1.3620 C.2   1 <1>  -0.2760 
  9 C        1.2650    -3.6680     1.8610 C.3   1 <1>   0.3430 
 10 C        2.5540    -3.5350    -0.2540 C.3   1 <1>   0.3430 
 11 C       -2.8290    -0.8500    -2.0450 C.3   1 <1>  -0.1020 
 12 N        2.4810    -3.1480     1.1890 N.4   1 <1>  -0.9590 
 13 C        3.7360    -3.4110     1.9340 C.3   1 <1>   0.5240 
 14 C        4.8250    -2.5310     1.3660 C.2   1 <1>  -0.1810 
 15 C        5.7000    -2.8820     0.3330 C.2   1 <1>   0.2350 
 16 C        5.1580    -1.2670     1.7030 C.2   1 <1>  -0.3020 
 17 N        6.4930    -1.8860     0.0460 N.2   1 <1>  -0.7070 
 18 C        5.7100    -4.1500    -0.3600 C.ar  1 <1>   0.0540 
 19 N        6.1720    -0.9040     0.8960 N.pl3 1 <1>   0.3140 
 20 C        5.8640    -5.3570     0.3200 C.ar  1 <1>  -0.1500 
 21 C        5.5330    -4.1990    -1.7410 C.ar  1 <1>  -0.1500 
 22 C        6.8750     0.3850     0.8920 C.3   1 <1>   0.0160 
 23 C        5.7970    -6.5670    -0.3470 C.ar  1 <1>  -0.1500 
 24 C        5.4660    -5.4050    -2.4130 C.ar  1 <1>  -0.1500 
 25 C        5.5910    -6.5920    -1.7140 C.ar  1 <1>  -0.1500 
 26 H        1.2780    -0.6790    -1.8440 H     1 <1>   0.0800 
 27 H        1.4150     0.5920    -0.6500 H     1 <1>   0.0800 
 28 H       -1.6560    -3.1500    -0.9710 H     1 <1>   0.1500 
 29 H       -0.7230    -3.8510     1.1430 H     1 <1>   0.0800 
 30 H       -0.4130    -2.3170     1.8660 H     1 <1>   0.0800 
 31 H        1.3510    -2.9730    -1.9450 H     1 <1>   0.0800 
 32 H        0.7450    -4.3250    -1.0680 H     1 <1>   0.0800 
 33 H       -0.6390     0.7290    -2.1410 H     1 <1>   0.0800 
 34 H       -0.9760     0.7800    -0.4330 H     1 <1>   0.0800 
 35 H        1.2380    -4.7420     1.7680 H     1 <1>   0.0800 
 36 H        1.2800    -3.4190     2.9110 H     1 <1>   0.0800 
 37 H        3.2790    -2.9040    -0.7440 H     1 <1>   0.0800 
 38 H        2.8850    -4.5570    -0.3550 H     1 <1>   0.0800 
 39 H       -3.4030    -0.1190    -1.5050 H     1 <1>   0.0800 
 40 H       -3.3940    -1.7640    -2.0840 H     1 <1>   0.0800 
 41 H       -2.6800    -0.5000    -3.0510 H     1 <1>   0.0800 
 42 H        2.3560    -2.1180     1.1590 H     1 <1>   0.4500 
 43 H        4.0090    -4.4490     1.8560 H     1 <1>   0.0800 
 44 H        3.6000    -3.1670     2.9750 H     1 <1>   0.0800 
 45 H        4.7480    -0.6080     2.4480 H     1 <1>   0.1500 
 46 H        6.0540    -5.3480     1.3790 H     1 <1>   0.1500 
 47 H        5.4570    -3.2740    -2.2870 H     1 <1>   0.1500 
 48 H        7.3010     0.5590     1.8620 H     1 <1>   0.0800 
 49 H        6.1820     1.1680     0.6480 H     1 <1>   0.0800 
 50 H        7.6590     0.3560     0.1570 H     1 <1>   0.0800 
 51 H        5.9180    -7.4920     0.1920 H     1 <1>   0.1500 
 52 H        5.3280    -5.4220    -3.4810 H     1 <1>   0.1500 
 53 H        5.5430    -7.5330    -2.2370 H     1 <1>   0.1500 
@<TRIPOS>BOND
  1   1   2  1   
  2   1   3  1   
  3   2   4  1   
  4   2   5  1   
  5   2   6  1   
  6   3   7  1   
  7   3  26  1   
  8   3  27  1   
  9   4   8  2   
 10   4  28  1   
 11   5   9  1   
 12   5  29  1   
 13   5  30  1   
 14   6  10  1   
 15   6  31  1   
 16   6  32  1   
 17   7   8  1   
 18   7  33  1   
 19   7  34  1   
 20   8  11  1   
 21   9  12  1   
 22   9  35  1   
 23   9  36  1   
 24  10  12  1   
 25  10  37  1   
 26  10  38  1   
 27  11  39  1   
 28  11  40  1   
 29  11  41  1   
 30  12  13  1   
 31  12  42  1   
 32  13  14  1   
 33  13  43  1   
 34  13  44  1   
 35  14  15  1   
 36  14  16  2   
 37  15  17  2   
 38  15  18  1   
 39  16  19  1   
 40  16  45  1   
 41  17  19  1   
 42  18  20  ar  
 43  18  21  ar  
 44  19  22  1   
 45  20  23  ar  
 46  20  46  1   
 47  21  24  ar  
 48  21  47  1   
 49  22  48  1   
 50  22  49  1   
 51  22  50  1   
 52  23  25  ar  
 53  23  51  1   
 54  24  25  ar  
 55  24  52  1   
 56  25  53  1   
@<TRIPOS>SUBSTRUCTURE
  1 ****  10 GROUP 4 **** **** 0

# MOE 2024.06 (io_trps.svl 2023.06)
