@<TRIPOS>MOLECULE
NONAME
37 38 1 0 0 
SMALL
USER_CHARGES


@<TRIPOS>ATOM
  1 S        1.3010     0.8890    -0.5690 S.3   1 <1>  -0.3320 
  2 C        0.7030     2.5200    -0.1750 C.ar  1 <1>   0.7720 
  3 C        0.2250    -0.3720     0.2620 C.3   1 <1>  -0.0100 
  4 N        1.3380     3.5260    -0.6740 N.ar  1 <1>  -0.6200 
  5 N       -0.3810     2.6060     0.6220 N.ar  1 <1>  -0.1790 
  6 C        0.8770     4.7440    -0.3670 C.ar  1 <1>   0.4100 
  7 C       -0.8800     3.8070     0.9530 C.ar  1 <1>   0.4610 
  8 N        1.5850     5.7400    -0.9180 N.pl3 1 <1>  -0.8690 
  9 C       -0.2310     4.9140     0.4420 C.ar  1 <1>  -0.1500 
 10 N       -1.9680     3.8890     1.7500 N.pl3 1 <1>  -0.9000 
 11 C        1.4870     7.2070    -0.7410 C.3   1 <1>   0.3890 
 12 C        2.8680     7.8120    -0.8790 C.2   1 <1>  -0.0400 
 13 O        3.4660     7.7950    -2.0400 O.3   1 <1>  -0.0190 
 14 C        3.6870     8.4120    -0.0020 C.2   1 <1>  -0.1500 
 15 N        4.6400     8.3520    -1.9880 N.2   1 <1>  -0.4100 
 16 C        4.8040     8.7320    -0.7710 C.2   1 <1>   0.1080 
 17 C        6.0470     9.4300    -0.2550 C.3   1 <1>   0.0210 
 18 C        6.9560     8.4510     0.5000 C.3   1 <1>  -0.1600 
 19 C        8.2180     9.1420     1.0270 C.3   1 <1>  -0.2400 
 20 H        0.6170    -1.3400     0.0010 H     1 <1>   0.0800 
 21 H       -0.7780    -0.2710    -0.1110 H     1 <1>   0.0800 
 22 H        0.2830    -0.2290     1.3270 H     1 <1>   0.0800 
 23 H       -0.8080     1.7580     0.9620 H     1 <1>   0.4570 
 24 H        2.3820     5.4710    -1.5100 H     1 <1>   0.4000 
 25 H       -0.5900     5.8970     0.6700 H     1 <1>   0.1500 
 26 H       -2.3740     4.7970     2.0170 H     1 <1>   0.4000 
 27 H       -2.4990     3.1130     2.1630 H     1 <1>   0.4000 
 28 H        1.0900     7.4390     0.2310 H     1 <1>   0.0800 
 29 H        0.8400     7.6210    -1.4950 H     1 <1>   0.0800 
 30 H        3.5590     8.6150     1.0450 H     1 <1>   0.1500 
 31 H        5.7540    10.2360     0.3930 H     1 <1>   0.0800 
 32 H        6.5820     9.8500    -1.0890 H     1 <1>   0.0800 
 33 H        7.2380     7.6510    -0.1630 H     1 <1>   0.0800 
 34 H        6.4140     8.0210     1.3250 H     1 <1>   0.0800 
 35 H        8.7880     9.5560     0.2140 H     1 <1>   0.0800 
 36 H        8.8360     8.4310     1.5470 H     1 <1>   0.0800 
 37 H        7.9610     9.9330     1.7100 H     1 <1>   0.0800 
@<TRIPOS>BOND
  1   1   2  1   
  2   1   3  1   
  3   2   4  ar  
  4   2   5  ar  
  5   3  20  1   
  6   3  21  1   
  7   3  22  1   
  8   4   6  ar  
  9   5   7  ar  
 10   5  23  1   
 11   6   8  1   
 12   6   9  ar  
 13   7   9  ar  
 14   7  10  1   
 15   8  11  1   
 16   8  24  1   
 17   9  25  1   
 18  10  26  1   
 19  10  27  1   
 20  11  12  1   
 21  11  28  1   
 22  11  29  1   
 23  12  13  1   
 24  12  14  2   
 25  13  15  1   
 26  14  16  1   
 27  14  30  1   
 28  15  16  2   
 29  16  17  1   
 30  17  18  1   
 31  17  31  1   
 32  17  32  1   
 33  18  19  1   
 34  18  33  1   
 35  18  34  1   
 36  19  35  1   
 37  19  36  1   
 38  19  37  1   
@<TRIPOS>SUBSTRUCTURE
  1 ****   8 GROUP 4 **** **** 0

# MOE 2024.06 (io_trps.svl 2023.06)
