@<TRIPOS>MOLECULE
NONAME
48 49 1 0 0 
SMALL
USER_CHARGES


@<TRIPOS>ATOM
  1 CL      -0.5060    -0.5570    -0.7860 Cl    1 <1>  -0.1770 
  2 C        1.0650    -1.3020    -0.6460 C.ar  1 <1>   0.1770 
  3 C        1.8350    -1.0610     0.4740 C.ar  1 <1>  -0.1500 
  4 C        1.5200    -2.1240    -1.6580 C.ar  1 <1>  -0.1500 
  5 C        3.0830    -1.6510     0.5820 C.ar  1 <1>  -0.1500 
  6 C        2.7680    -2.7100    -1.5430 C.ar  1 <1>  -0.1500 
  7 C        3.5640    -2.4840    -0.4250 C.ar  1 <1>  -0.1430 
  8 C        4.9290    -3.1940    -0.3750 C.3   1 <1>   0.1250 
  9 C        4.7590    -4.7240    -0.2880 C.2   1 <1>   0.5690 
 10 C        5.9850    -2.6050     0.6090 C.3   1 <1>  -0.0800 
 11 O        5.2970    -5.3630    -1.1650 O.2   1 <1>  -0.5700 
 12 N        4.0420    -5.3720     0.6980 N.am  1 <1>  -0.6600 
 13 C        6.3720    -1.1650     0.2250 C.3   1 <1>  -0.2400 
 14 C        7.2700    -3.4500     0.6520 C.3   1 <1>  -0.2400 
 15 C        3.8730    -6.8500     0.6210 C.3   1 <1>   0.3200 
 16 C        3.4620    -4.7330     1.9210 C.3   1 <1>   0.1400 
 17 C        2.5570    -7.2040    -0.0490 C.2   1 <1>  -0.3320 
 18 C        1.9370    -4.5860     1.8460 C.3   1 <1>   0.1200 
 19 N        1.9900    -8.4220     0.0250 N.pl3 1 <1>   0.0330 
 20 C        1.7320    -6.4570    -0.8170 C.2   1 <1>   0.0770 
 21 O        1.4930    -3.9450     2.9960 O.3   1 <1>  -0.6800 
 22 C        0.8480    -8.3310    -0.6890 C.2   1 <1>   0.0060 
 23 N        0.6560    -7.1650    -1.2070 N.2   1 <1>  -0.5650 
 24 C       -0.1080    -9.4920    -0.8630 C.3   1 <1>  -0.0600 
 25 H        1.4580    -0.4230     1.2530 H     1 <1>   0.1500 
 26 H        0.9030    -2.3030    -2.5210 H     1 <1>   0.1500 
 27 H        3.6600    -1.4520     1.4670 H     1 <1>   0.1500 
 28 H        3.1170    -3.3540    -2.3350 H     1 <1>   0.1500 
 29 H        5.3540    -3.0290    -1.3500 H     1 <1>   0.0800 
 30 H        5.5860    -2.5890     1.6050 H     1 <1>   0.0800 
 31 H        6.8320    -1.1450    -0.7480 H     1 <1>   0.0800 
 32 H        7.0700    -0.7630     0.9380 H     1 <1>   0.0800 
 33 H        5.5140    -0.5200     0.2020 H     1 <1>   0.0800 
 34 H        7.6950    -3.5460    -0.3330 H     1 <1>   0.0800 
 35 H        7.0710    -4.4360     1.0340 H     1 <1>   0.0800 
 36 H        8.0010    -2.9920     1.2950 H     1 <1>   0.0800 
 37 H        3.8970    -7.2610     1.6150 H     1 <1>   0.0800 
 38 H        4.6840    -7.2960     0.0700 H     1 <1>   0.0800 
 39 H        3.8850    -3.7610     2.0650 H     1 <1>   0.0800 
 40 H        3.7180    -5.3280     2.7790 H     1 <1>   0.0800 
 41 H        1.4450    -5.5410     1.7830 H     1 <1>   0.0800 
 42 H        1.6560    -3.9820     1.0020 H     1 <1>   0.0800 
 43 H        2.3390    -9.2560     0.5060 H     1 <1>   0.2700 
 44 H        1.8600    -5.4290    -1.1140 H     1 <1>   0.1500 
 45 H        1.3820    -4.5800     3.7290 H     1 <1>   0.4000 
 46 H       -0.4720    -9.8180     0.0930 H     1 <1>   0.0800 
 47 H        0.3880   -10.3070    -1.3570 H     1 <1>   0.0800 
 48 H       -0.9450    -9.1830    -1.4640 H     1 <1>   0.0800 
@<TRIPOS>BOND
  1   1   2  1   
  2   2   3  ar  
  3   2   4  ar  
  4   3   5  ar  
  5   3  25  1   
  6   4   6  ar  
  7   4  26  1   
  8   5   7  ar  
  9   5  27  1   
 10   6   7  ar  
 11   6  28  1   
 12   7   8  1   
 13   8   9  1   
 14   8  10  1   
 15   8  29  1   
 16   9  11  2   
 17   9  12  am  
 18  10  13  1   
 19  10  14  1   
 20  10  30  1   
 21  12  15  1   
 22  12  16  1   
 23  13  31  1   
 24  13  32  1   
 25  13  33  1   
 26  14  34  1   
 27  14  35  1   
 28  14  36  1   
 29  15  17  1   
 30  15  37  1   
 31  15  38  1   
 32  16  18  1   
 33  16  39  1   
 34  16  40  1   
 35  17  19  1   
 36  17  20  2   
 37  18  21  1   
 38  18  41  1   
 39  18  42  1   
 40  19  22  1   
 41  19  43  1   
 42  20  23  1   
 43  20  44  1   
 44  21  45  1   
 45  22  23  2   
 46  22  24  1   
 47  24  46  1   
 48  24  47  1   
 49  24  48  1   
@<TRIPOS>SUBSTRUCTURE
  1 ****  12 GROUP 4 **** **** 0

# MOE 2024.06 (io_trps.svl 2023.06)
