@<TRIPOS>MOLECULE
NONAME
27 27 1 0 0 
SMALL
USER_CHARGES


@<TRIPOS>ATOM
  1 BR      -0.0350    -0.3380     0.1980 Br    1 <1>  -0.1110 
  2 C       -0.0840     1.5890     0.1930 C.ar  1 <1>   0.1110 
  3 C       -1.2550     2.2850     0.4490 C.ar  1 <1>  -0.1440 
  4 C        1.1080     2.2290    -0.0790 C.ar  1 <1>  -0.1500 
  5 C       -1.1840     3.6770     0.4220 C.ar  1 <1>  -0.1500 
  6 C       -2.5660     1.5400     0.7490 C.3   1 <1>   1.1640 
  7 C        1.1510     3.6100    -0.1010 C.ar  1 <1>  -0.1500 
  8 C        0.0010     4.3630     0.1510 C.ar  1 <1>  -0.1440 
  9 F       -2.4830     0.7770     1.8300 F     1 <1>  -0.3400 
 10 F       -3.5780     2.3720     0.9690 F     1 <1>  -0.3400 
 11 F       -2.9500     0.7600    -0.2510 F     1 <1>  -0.3400 
 12 C       -0.0200     5.9040     0.1430 C.3   1 <1>   0.6470 
 13 N        1.2950     6.4300    -0.1570 N.4   1 <1>  -0.8530 
 14 C       -0.4020     6.4570     1.5130 C.3   1 <1>  -0.2400 
 15 C       -0.9530     6.4360    -0.9420 C.3   1 <1>  -0.2400 
 16 H        1.9910     1.6420    -0.2720 H     1 <1>   0.1500 
 17 H       -2.0850     4.2380     0.6190 H     1 <1>   0.1500 
 18 H        2.1070     4.0500    -0.3180 H     1 <1>   0.1500 
 19 H        1.9520     6.1050     0.5560 H     1 <1>   0.4500 
 20 H        1.2720     7.4520    -0.1600 H     1 <1>   0.4500 
 21 H        1.5860     6.0910    -1.0760 H     1 <1>   0.4500 
 22 H        0.2480     6.0660     2.2760 H     1 <1>   0.0800 
 23 H       -1.4060     6.1650     1.7650 H     1 <1>   0.0800 
 24 H       -0.3660     7.5320     1.5290 H     1 <1>   0.0800 
 25 H       -0.6900     6.0310    -1.9030 H     1 <1>   0.0800 
 26 H       -0.9310     7.5110    -0.9880 H     1 <1>   0.0800 
 27 H       -1.9680     6.1450    -0.7360 H     1 <1>   0.0800 
@<TRIPOS>BOND
  1   1   2  1   
  2   2   3  ar  
  3   2   4  ar  
  4   3   5  ar  
  5   3   6  1   
  6   4   7  ar  
  7   4  16  1   
  8   5   8  ar  
  9   5  17  1   
 10   6   9  1   
 11   6  10  1   
 12   6  11  1   
 13   7   8  ar  
 14   7  18  1   
 15   8  12  1   
 16  12  13  1   
 17  12  14  1   
 18  12  15  1   
 19  13  19  1   
 20  13  20  1   
 21  13  21  1   
 22  14  22  1   
 23  14  23  1   
 24  14  24  1   
 25  15  25  1   
 26  15  26  1   
 27  15  27  1   
@<TRIPOS>SUBSTRUCTURE
  1 ****   5 GROUP 4 **** **** 0

# MOE 2024.06 (io_trps.svl 2023.06)
