@<TRIPOS>MOLECULE
NONAME
51 53 1 0 0 
SMALL
USER_CHARGES


@<TRIPOS>ATOM
  1 O        0.1170     0.2550    -1.0470 O.3   1 <1>  -0.5600 
  2 C        1.1290    -0.7000    -0.8750 C.3   1 <1>   0.2000 
  3 C       -0.3040     0.9280     0.1010 C.3   1 <1>   0.1200 
  4 C        2.4830    -0.0740    -1.2810 C.3   1 <1>   0.3430 
  5 C        0.7840    -1.9390    -1.7360 C.3   1 <1>   0.3430 
  6 C        0.8280     1.7640     0.7100 C.3   1 <1>  -0.1600 
  7 N        2.9270     1.0930    -0.4370 N.4   1 <1>  -0.9590 
  8 N       -0.6800    -2.2580    -1.6790 N.4   1 <1>  -0.9590 
  9 C        1.9070     2.1820    -0.2890 C.3   1 <1>   0.3430 
 10 C        4.2120     1.6540    -0.9470 C.3   1 <1>   0.4860 
 11 C       -0.9610    -3.6580    -1.2370 C.3   1 <1>   0.5240 
 12 C       -1.4240    -1.8590    -2.9090 C.3   1 <1>   0.2630 
 13 C        4.8090     2.5330     0.1330 C.ar  1 <1>  -0.1440 
 14 C       -0.6540    -3.7830     0.2560 C.2   1 <1>   0.1080 
 15 C        5.3900     1.9640     1.2580 C.ar  1 <1>  -0.1500 
 16 C        4.7740     3.9150     0.0070 C.ar  1 <1>  -0.1500 
 17 N       -0.5130    -2.7620     1.0600 N.2   1 <1>  -0.7070 
 18 C       -0.5090    -4.9950     0.9210 C.2   1 <1>  -0.1500 
 19 C        5.9150     2.7700     2.2530 C.ar  1 <1>  -0.1500 
 20 C        5.2990     4.7180     1.0040 C.ar  1 <1>  -0.1500 
 21 N       -0.3010    -3.3160     2.2780 N.pl3 1 <1>   0.3000 
 22 C       -0.2840    -4.6600     2.2080 C.2   1 <1>  -0.3020 
 23 C        5.8670     4.1460     2.1270 C.ar  1 <1>  -0.1500 
 24 H        1.1670    -1.0050     0.1570 H     1 <1>   0.0800 
 25 H       -0.6930     0.2150     0.8110 H     1 <1>   0.0800 
 26 H       -1.1110     1.5770    -0.1990 H     1 <1>   0.0800 
 27 H        2.4060     0.2420    -2.3090 H     1 <1>   0.0800 
 28 H        3.2390    -0.8410    -1.2350 H     1 <1>   0.0800 
 29 H        1.3570    -2.7770    -1.3750 H     1 <1>   0.0800 
 30 H        1.0730    -1.7590    -2.7580 H     1 <1>   0.0800 
 31 H        1.2650     1.2490     1.5470 H     1 <1>   0.0800 
 32 H        0.3800     2.6560     1.1120 H     1 <1>   0.0800 
 33 H        3.1410     0.7780     0.5180 H     1 <1>   0.4500 
 34 H       -1.0340    -1.6920    -0.8840 H     1 <1>   0.4500 
 35 H        2.3840     3.0700     0.0950 H     1 <1>   0.0800 
 36 H        1.4630     2.4240    -1.2410 H     1 <1>   0.0800 
 37 H        4.0440     2.2290    -1.8440 H     1 <1>   0.0800 
 38 H        4.9060     0.8610    -1.1720 H     1 <1>   0.0800 
 39 H       -0.3700    -4.3610    -1.8000 H     1 <1>   0.0800 
 40 H       -2.0030    -3.8860    -1.3860 H     1 <1>   0.0800 
 41 H       -1.0880    -2.4310    -3.7590 H     1 <1>   0.0800 
 42 H       -1.2680    -0.8110    -3.1110 H     1 <1>   0.0800 
 43 H       -2.4820    -2.0240    -2.7770 H     1 <1>   0.0800 
 44 H        5.4520     0.8960     1.3780 H     1 <1>   0.1500 
 45 H        4.3440     4.3850    -0.8610 H     1 <1>   0.1500 
 46 H       -0.5720    -5.9850     0.4990 H     1 <1>   0.1500 
 47 H        6.3670     2.3310     3.1270 H     1 <1>   0.1500 
 48 H        5.2720     5.7910     0.9070 H     1 <1>   0.1500 
 49 H       -0.1850    -2.7650     3.1400 H     1 <1>   0.2700 
 50 H       -0.1250    -5.2930     3.0640 H     1 <1>   0.1500 
 51 H        6.2770     4.7730     2.9020 H     1 <1>   0.1500 
@<TRIPOS>BOND
  1   1   2  1   
  2   1   3  1   
  3   2   4  1   
  4   2   5  1   
  5   2  24  1   
  6   3   6  1   
  7   3  25  1   
  8   3  26  1   
  9   4   7  1   
 10   4  27  1   
 11   4  28  1   
 12   5   8  1   
 13   5  29  1   
 14   5  30  1   
 15   6   9  1   
 16   6  31  1   
 17   6  32  1   
 18   7   9  1   
 19   7  10  1   
 20   7  33  1   
 21   8  11  1   
 22   8  12  1   
 23   8  34  1   
 24   9  35  1   
 25   9  36  1   
 26  10  13  1   
 27  10  37  1   
 28  10  38  1   
 29  11  14  1   
 30  11  39  1   
 31  11  40  1   
 32  12  41  1   
 33  12  42  1   
 34  12  43  1   
 35  13  15  ar  
 36  13  16  ar  
 37  14  17  2   
 38  14  18  1   
 39  15  19  ar  
 40  15  44  1   
 41  16  20  ar  
 42  16  45  1   
 43  17  21  1   
 44  18  22  2   
 45  18  46  1   
 46  19  23  ar  
 47  19  47  1   
 48  20  23  ar  
 49  20  48  1   
 50  21  22  1   
 51  21  49  1   
 52  22  50  1   
 53  23  51  1   
@<TRIPOS>SUBSTRUCTURE
  1 ****   2 GROUP 4 **** **** 0

# MOE 2024.06 (io_trps.svl 2023.06)
