@<TRIPOS>MOLECULE
NONAME
48 50 1 0 0 
SMALL
USER_CHARGES


@<TRIPOS>ATOM
  1 F       -0.6920    -1.6480     2.1500 F     1 <1>  -0.1900 
  2 C       -1.6000    -1.6370     1.2120 C.ar  1 <1>   0.1900 
  3 C       -1.9200    -2.8290     0.5900 C.ar  1 <1>  -0.1500 
  4 C       -2.2050    -0.4420     0.8800 C.ar  1 <1>  -0.1500 
  5 C       -2.8920    -2.8280    -0.4020 C.ar  1 <1>  -0.1440 
  6 C       -3.1660    -0.4440    -0.1160 C.ar  1 <1>  -0.1500 
  7 C       -3.5050    -1.6290    -0.7530 C.ar  1 <1>  -0.1500 
  8 C       -3.2830    -4.1190    -1.0950 C.3   1 <1>   0.4870 
  9 N       -4.1200    -4.9290    -0.1580 N.4   1 <1>  -0.9590 
 10 C       -4.3380    -6.3250    -0.6910 C.3   1 <1>   0.3430 
 11 C       -5.4110    -4.2230     0.1150 C.3   1 <1>   0.3430 
 12 C       -5.2770    -7.2060     0.1980 C.3   1 <1>   0.4230 
 13 C       -6.2630    -5.0510     1.0820 C.3   1 <1>  -0.1600 
 14 N       -5.4910    -8.6410    -0.2880 N.4   1 <1>  -0.9590 
 15 C       -6.6020    -6.4770     0.5680 C.3   1 <1>   0.0000 
 16 C       -6.6480    -9.3390     0.3740 C.3   1 <1>   0.3430 
 17 C       -5.6240    -8.7980    -1.7770 C.3   1 <1>   0.2630 
 18 C       -7.2860    -7.2590     1.7250 C.3   1 <1>  -0.1600 
 19 C       -7.6130    -6.3720    -0.6110 C.3   1 <1>   0.1200 
 20 C       -6.9260    -8.7590     1.7620 C.3   1 <1>  -0.1600 
 21 O       -7.0060    -5.9090    -1.7700 O.3   1 <1>  -0.6800 
 22 H       -1.3990    -3.7210     0.8900 H     1 <1>   0.1500 
 23 H       -1.9270     0.4650     1.3880 H     1 <1>   0.1500 
 24 H       -3.6460     0.4800    -0.3960 H     1 <1>   0.1500 
 25 H       -4.2510    -1.5940    -1.5300 H     1 <1>   0.1500 
 26 H       -2.3890    -4.6590    -1.3610 H     1 <1>   0.0800 
 27 H       -3.8320    -3.9020    -1.9980 H     1 <1>   0.0800 
 28 H       -3.5960    -4.9470     0.7280 H     1 <1>   0.4500 
 29 H       -4.7680    -6.2520    -1.6750 H     1 <1>   0.0800 
 30 H       -3.3850    -6.8190    -0.7800 H     1 <1>   0.0800 
 31 H       -5.2170    -3.2550     0.5520 H     1 <1>   0.0800 
 32 H       -5.9500    -4.0670    -0.8060 H     1 <1>   0.0800 
 33 H       -4.7520    -7.2970     1.1340 H     1 <1>   0.0800 
 34 H       -5.7380    -5.1010     2.0200 H     1 <1>   0.0800 
 35 H       -7.1760    -4.5110     1.2720 H     1 <1>   0.0800 
 36 H       -4.6580    -9.1810    -0.0030 H     1 <1>   0.4500 
 37 H       -7.5360    -9.2250    -0.2260 H     1 <1>   0.0800 
 38 H       -6.4430   -10.3960     0.4550 H     1 <1>   0.0800 
 39 H       -6.4800    -8.2550    -2.1410 H     1 <1>   0.0800 
 40 H       -5.7490    -9.8390    -2.0330 H     1 <1>   0.0800 
 41 H       -4.7440    -8.4340    -2.2820 H     1 <1>   0.0800 
 42 H       -7.0170    -6.8470     2.6840 H     1 <1>   0.0800 
 43 H       -8.3570    -7.1550     1.6530 H     1 <1>   0.0800 
 44 H       -8.4120    -5.6920    -0.3600 H     1 <1>   0.0800 
 45 H       -8.0560    -7.3260    -0.8370 H     1 <1>   0.0800 
 46 H       -7.7380    -9.3040     2.2130 H     1 <1>   0.0800 
 47 H       -6.0630    -8.9190     2.3860 H     1 <1>   0.0800 
 48 H       -7.6900    -5.6990    -2.4490 H     1 <1>   0.4000 
@<TRIPOS>BOND
  1   1   2  1   
  2   2   3  ar  
  3   2   4  ar  
  4   3   5  ar  
  5   3  22  1   
  6   4   6  ar  
  7   4  23  1   
  8   5   7  ar  
  9   5   8  1   
 10   6   7  ar  
 11   6  24  1   
 12   7  25  1   
 13   8   9  1   
 14   8  26  1   
 15   8  27  1   
 16   9  10  1   
 17   9  11  1   
 18   9  28  1   
 19  10  12  1   
 20  10  29  1   
 21  10  30  1   
 22  11  13  1   
 23  11  31  1   
 24  11  32  1   
 25  12  14  1   
 26  12  15  1   
 27  12  33  1   
 28  13  15  1   
 29  13  34  1   
 30  13  35  1   
 31  14  16  1   
 32  14  17  1   
 33  14  36  1   
 34  15  18  1   
 35  15  19  1   
 36  16  20  1   
 37  16  37  1   
 38  16  38  1   
 39  17  39  1   
 40  17  40  1   
 41  17  41  1   
 42  18  20  1   
 43  18  42  1   
 44  18  43  1   
 45  19  21  1   
 46  19  44  1   
 47  19  45  1   
 48  20  46  1   
 49  20  47  1   
 50  21  48  1   
@<TRIPOS>SUBSTRUCTURE
  1 ****   9 GROUP 4 **** **** 0

# MOE 2024.06 (io_trps.svl 2023.06)
