@<TRIPOS>MOLECULE
NONAME
49 51 1 0 0 
SMALL
USER_CHARGES


@<TRIPOS>ATOM
  1 S       -0.1950     0.9650     0.4300 S.o2  1 <1>   1.3330 
  2 O       -0.0750     2.1320     1.2700 O.2   1 <1>  -0.6500 
  3 O       -1.4800     0.3200     0.3310 O.2   1 <1>  -0.6500 
  4 N        0.9910    -0.1980     0.9610 N.am  1 <1>  -0.6930 
  5 C        0.3770     1.3940    -1.2000 C.3   1 <1>  -0.1350 
  6 C        1.1860    -1.4840     0.4020 C.ar  1 <1>   0.1990 
  7 C        1.7780     0.2660     2.1620 C.3   1 <1>   0.2570 
  8 C        2.3740    -2.1940     0.6100 C.ar  1 <1>  -0.1500 
  9 C        0.2260    -2.1090    -0.3970 C.ar  1 <1>  -0.1500 
 10 C        2.7250     1.4600     1.9340 C.2   1 <1>   0.5690 
 11 C        2.6020    -3.4420     0.0550 C.ar  1 <1>  -0.1440 
 12 C        0.4410    -3.3530    -0.9600 C.ar  1 <1>  -0.1500 
 13 O        2.8260     2.2570     2.8380 O.2   1 <1>  -0.5700 
 14 N        3.4430     1.6420     0.7780 N.am  1 <1>  -0.6600 
 15 C        1.6290    -4.0220    -0.7370 C.ar  1 <1>  -0.1500 
 16 C        3.9060    -4.1790     0.3020 C.3   1 <1>  -0.0970 
 17 C        4.0270     2.9640     0.4460 C.3   1 <1>   0.4010 
 18 C        3.8670     0.6160    -0.2030 C.3   1 <1>   0.1400 
 19 C        2.9560     3.8240    -0.2350 C.2   1 <1>   0.1080 
 20 C        5.2090     2.6140    -0.4600 C.3   1 <1>  -0.1600 
 21 C        4.7770     1.3430    -1.1880 C.3   1 <1>  -0.1600 
 22 N        2.8710     4.1000    -1.4940 N.2   1 <1>  -0.4100 
 23 C        1.8920     4.4010     0.4560 C.2   1 <1>  -0.1500 
 24 O        1.7990     4.8260    -1.6390 O.3   1 <1>  -0.0190 
 25 C        1.1900     5.0210    -0.5010 C.2   1 <1>  -0.0400 
 26 C       -0.0910     5.8240    -0.4450 C.3   1 <1>  -0.0600 
 27 H       -0.2670     2.1350    -1.6310 H     1 <1>   0.0800 
 28 H        0.3820     0.5300    -1.8340 H     1 <1>   0.0800 
 29 H        1.3670     1.7960    -1.1550 H     1 <1>   0.0800 
 30 H        2.3340    -0.5360     2.6010 H     1 <1>   0.0800 
 31 H        1.0700     0.5700     2.9140 H     1 <1>   0.0800 
 32 H        3.1560    -1.7790     1.2090 H     1 <1>   0.1500 
 33 H       -0.7190    -1.6510    -0.5990 H     1 <1>   0.1500 
 34 H       -0.3210    -3.8050    -1.5710 H     1 <1>   0.1500 
 35 H        1.7890    -4.9910    -1.1780 H     1 <1>   0.1500 
 36 H        4.4170    -3.7810     1.1610 H     1 <1>   0.0800 
 37 H        4.5470    -4.0860    -0.5570 H     1 <1>   0.0800 
 38 H        3.7140    -5.2230     0.4780 H     1 <1>   0.0800 
 39 H        4.3750     3.4660     1.3330 H     1 <1>   0.0800 
 40 H        3.0250     0.1890    -0.7170 H     1 <1>   0.0800 
 41 H        4.4200    -0.1550     0.3040 H     1 <1>   0.0800 
 42 H        6.0640     2.4070     0.1590 H     1 <1>   0.0800 
 43 H        5.4580     3.4130    -1.1350 H     1 <1>   0.0800 
 44 H        4.2090     1.6020    -2.0650 H     1 <1>   0.0800 
 45 H        5.6140     0.7360    -1.4850 H     1 <1>   0.0800 
 46 H        1.7010     4.3260     1.5120 H     1 <1>   0.1500 
 47 H       -0.4570     5.8630     0.5650 H     1 <1>   0.0800 
 48 H       -0.8370     5.3640    -1.0680 H     1 <1>   0.0800 
 49 H        0.0900     6.8250    -0.7930 H     1 <1>   0.0800 
@<TRIPOS>BOND
  1   1   2  2   
  2   1   3  2   
  3   1   4  am  
  4   1   5  1   
  5   4   6  1   
  6   4   7  1   
  7   5  27  1   
  8   5  28  1   
  9   5  29  1   
 10   6   8  ar  
 11   6   9  ar  
 12   7  10  1   
 13   7  30  1   
 14   7  31  1   
 15   8  11  ar  
 16   8  32  1   
 17   9  12  ar  
 18   9  33  1   
 19  10  13  2   
 20  10  14  am  
 21  11  15  ar  
 22  11  16  1   
 23  12  15  ar  
 24  12  34  1   
 25  14  17  1   
 26  14  18  1   
 27  15  35  1   
 28  16  36  1   
 29  16  37  1   
 30  16  38  1   
 31  17  19  1   
 32  17  20  1   
 33  17  39  1   
 34  18  21  1   
 35  18  40  1   
 36  18  41  1   
 37  19  22  2   
 38  19  23  1   
 39  20  21  1   
 40  20  42  1   
 41  20  43  1   
 42  21  44  1   
 43  21  45  1   
 44  22  24  1   
 45  23  25  2   
 46  23  46  1   
 47  24  25  1   
 48  25  26  1   
 49  26  47  1   
 50  26  48  1   
 51  26  49  1   
@<TRIPOS>SUBSTRUCTURE
  1 ****   4 GROUP 4 **** **** 0

# MOE 2024.06 (io_trps.svl 2023.06)
