@<TRIPOS>MOLECULE
NONAME
52 54 1 0 0 
SMALL
USER_CHARGES


@<TRIPOS>ATOM
  1 F       -1.1350    -0.7760     0.9330 F     1 <1>  -0.1900 
  2 C       -2.2820    -0.1860     0.7120 C.ar  1 <1>   0.1900 
  3 C       -2.4240     1.2050     0.7600 C.ar  1 <1>   0.0820 
  4 C       -3.3530    -1.0110     0.4300 C.ar  1 <1>  -0.1500 
  5 O       -1.4490     2.1210     1.0250 O.3   1 <1>  -0.3630 
  6 C       -3.6820     1.7310     0.5130 C.ar  1 <1>  -0.1500 
  7 C       -4.5950    -0.4520     0.1910 C.ar  1 <1>  -0.1500 
  8 C       -0.1010     1.7690     1.2490 C.3   1 <1>   0.0400 
  9 C       -4.7910     0.9320     0.2240 C.ar  1 <1>   0.0530 
 10 C       -6.0830     1.5300    -0.0240 C.2   1 <1>   0.0870 
 11 O       -6.3380     2.7430     0.3990 O.3   1 <1>  -0.0190 
 12 C       -7.2120     1.0910    -0.6430 C.2   1 <1>  -0.0860 
 13 N       -7.5450     3.1470     0.1060 N.2   1 <1>  -0.4100 
 14 C       -8.0920     2.1730    -0.5340 C.2   1 <1>   0.3720 
 15 C       -7.4900    -0.1540    -1.2840 C.2   1 <1>   0.7160 
 16 N       -9.3990     2.2080    -1.0450 N.pl3 1 <1>  -0.8210 
 17 O       -6.8250    -0.4730    -2.2530 O.2   1 <1>  -0.5700 
 18 N       -8.4530    -1.0320    -0.8210 N.am  1 <1>  -0.6600 
 19 C       -9.4650     2.2380    -2.5330 C.3   1 <1>   0.1290 
 20 C      -10.3000     3.2250    -0.4330 C.3   1 <1>   0.1290 
 21 C       -8.7780    -2.3010    -1.5420 C.3   1 <1>   0.1400 
 22 C       -9.3210    -0.7520     0.3560 C.3   1 <1>   0.1400 
 23 C       -8.7450    -3.4920    -0.5720 C.3   1 <1>   0.2000 
 24 C       -9.2690    -1.9300     1.3360 C.3   1 <1>  -0.1600 
 25 O       -9.1600    -4.6340    -1.2390 O.3   1 <1>  -0.6800 
 26 C       -9.6410    -3.2680     0.6610 C.3   1 <1>  -0.0800 
 27 C       -9.5310    -4.4580     1.6300 C.3   1 <1>   0.1200 
 28 O      -10.3720    -4.2620     2.7140 O.3   1 <1>  -0.6800 
 29 H       -3.2130    -2.0760     0.3990 H     1 <1>   0.1500 
 30 H       -3.7950     2.8000     0.5460 H     1 <1>   0.1500 
 31 H       -5.4170    -1.1090    -0.0240 H     1 <1>   0.1500 
 32 H        0.4590     2.6720     1.4060 H     1 <1>   0.0800 
 33 H        0.2750     1.2520     0.3830 H     1 <1>   0.0800 
 34 H       -0.0430     1.1480     2.1250 H     1 <1>   0.0800 
 35 H      -10.4750     2.0600    -2.8580 H     1 <1>   0.0800 
 36 H       -8.8320     1.4770    -2.9560 H     1 <1>   0.0800 
 37 H       -9.1400     3.1980    -2.8950 H     1 <1>   0.0800 
 38 H      -11.3180     3.0430    -0.7310 H     1 <1>   0.0800 
 39 H      -10.0080     4.2140    -0.7450 H     1 <1>   0.0800 
 40 H      -10.2400     3.1680     0.6400 H     1 <1>   0.0800 
 41 H       -9.7600    -2.2070    -1.9710 H     1 <1>   0.0800 
 42 H       -8.0740    -2.4820    -2.3360 H     1 <1>   0.0800 
 43 H       -9.0090     0.1400     0.8690 H     1 <1>   0.0800 
 44 H      -10.3310    -0.5980     0.0150 H     1 <1>   0.0800 
 45 H       -7.7260    -3.6570    -0.2650 H     1 <1>   0.0800 
 46 H       -8.2780    -1.9890     1.7530 H     1 <1>   0.0800 
 47 H       -9.9520    -1.7220     2.1410 H     1 <1>   0.0800 
 48 H      -10.1030    -4.5680    -1.4820 H     1 <1>   0.4000 
 49 H      -10.6610    -3.2010     0.3240 H     1 <1>   0.0800 
 50 H       -8.5250    -4.5750     1.9950 H     1 <1>   0.0800 
 51 H       -9.8350    -5.3720     1.1470 H     1 <1>   0.0800 
 52 H      -10.0610    -3.5160     3.2600 H     1 <1>   0.4000 
@<TRIPOS>BOND
  1   1   2  1   
  2   2   3  ar  
  3   2   4  ar  
  4   3   5  1   
  5   3   6  ar  
  6   4   7  ar  
  7   4  29  1   
  8   5   8  1   
  9   6   9  ar  
 10   6  30  1   
 11   7   9  ar  
 12   7  31  1   
 13   8  32  1   
 14   8  33  1   
 15   8  34  1   
 16   9  10  1   
 17  10  11  1   
 18  10  12  2   
 19  11  13  1   
 20  12  14  1   
 21  12  15  1   
 22  13  14  2   
 23  14  16  1   
 24  15  17  2   
 25  15  18  am  
 26  16  19  1   
 27  16  20  1   
 28  18  21  1   
 29  18  22  1   
 30  19  35  1   
 31  19  36  1   
 32  19  37  1   
 33  20  38  1   
 34  20  39  1   
 35  20  40  1   
 36  21  23  1   
 37  21  41  1   
 38  21  42  1   
 39  22  24  1   
 40  22  43  1   
 41  22  44  1   
 42  23  25  1   
 43  23  26  1   
 44  23  45  1   
 45  24  26  1   
 46  24  46  1   
 47  24  47  1   
 48  25  48  1   
 49  26  27  1   
 50  26  49  1   
 51  27  28  1   
 52  27  50  1   
 53  27  51  1   
 54  28  52  1   
@<TRIPOS>SUBSTRUCTURE
  1 ****  12 GROUP 4 **** **** 0

# MOE 2024.06 (io_trps.svl 2023.06)
