@<TRIPOS>MOLECULE
NONAME
49 51 1 0 0 
SMALL
USER_CHARGES


@<TRIPOS>ATOM
  1 S       -0.7280    -0.6810    -1.8110 S.o2  1 <1>   1.5000 
  2 O       -0.2850    -0.2810    -3.1300 O.2   1 <1>  -0.6500 
  3 O       -1.6990    -1.7490    -1.6970 O.2   1 <1>  -0.6500 
  4 N       -1.4170     0.6800    -1.0650 N.am  1 <1>  -0.8490 
  5 C        0.7120    -1.0720    -0.7870 C.2   1 <1>  -0.0220 
  6 C       -2.0380     0.3520     0.2200 C.3   1 <1>   0.1960 
  7 C       -2.3460     1.3720    -1.9590 C.3   1 <1>   0.1960 
  8 S        1.7630     0.2490    -0.2820 S.3   1 <1>  -0.0800 
  9 C        1.2010    -2.2340    -0.3070 C.2   1 <1>  -0.1500 
 10 C       -2.5440     1.6240     0.9070 C.3   1 <1>  -0.1600 
 11 C       -2.8130     2.6760    -1.3090 C.3   1 <1>  -0.1600 
 12 C        2.8360    -0.8380     0.5810 C.2   1 <1>  -0.1400 
 13 C        2.3980    -2.1060     0.4670 C.2   1 <1>  -0.1500 
 14 C       -3.5340     2.4070     0.0270 C.3   1 <1>   0.2800 
 15 C        4.0250    -0.1990     1.2780 C.3   1 <1>   0.0200 
 16 O       -3.6850     3.6530     0.6650 O.3   1 <1>  -0.5600 
 17 C       -4.9150     1.6560    -0.1180 C.3   1 <1>   0.2000 
 18 C        4.8930    -1.2300     2.0040 C.3   1 <1>  -0.2400 
 19 C       -4.8610     4.3620     0.4480 C.3   1 <1>   0.1200 
 20 O       -5.4920     1.8840    -1.3800 O.3   1 <1>  -0.6800 
 21 C       -5.9270     2.0750     0.9860 C.3   1 <1>   0.2800 
 22 C       -6.0580     3.6110     1.0530 C.3   1 <1>  -0.1600 
 23 O       -5.4580     1.6360     2.2080 O.3   1 <1>  -0.6800 
 24 C       -7.2990     1.4050     0.8370 C.3   1 <1>  -0.2400 
 25 H       -2.8480    -0.3430     0.0750 H     1 <1>   0.0800 
 26 H       -1.3110    -0.1180     0.8620 H     1 <1>   0.0800 
 27 H       -1.8480     1.6130    -2.8840 H     1 <1>   0.0800 
 28 H       -3.1860     0.7350    -2.1880 H     1 <1>   0.0800 
 29 H        0.7550    -3.2000    -0.4720 H     1 <1>   0.1500 
 30 H       -1.6930     2.2450     1.1250 H     1 <1>   0.0800 
 31 H       -2.9960     1.3580     1.8420 H     1 <1>   0.0800 
 32 H       -3.4470     3.2050    -1.9950 H     1 <1>   0.0800 
 33 H       -1.9480     3.2890    -1.1320 H     1 <1>   0.0800 
 34 H        2.8680    -2.9730     0.8970 H     1 <1>   0.1500 
 35 H        4.6210     0.3170     0.5460 H     1 <1>   0.0800 
 36 H        3.6650     0.5270     1.9860 H     1 <1>   0.0800 
 37 H       -4.7660     0.5940    -0.0620 H     1 <1>   0.0800 
 38 H        5.2780    -1.9510     1.3050 H     1 <1>   0.0800 
 39 H        4.3150    -1.7420     2.7530 H     1 <1>   0.0800 
 40 H        5.7220    -0.7400     2.4840 H     1 <1>   0.0800 
 41 H       -4.7520     5.3270     0.9110 H     1 <1>   0.0800 
 42 H       -4.9770     4.5050    -0.6120 H     1 <1>   0.0800 
 43 H       -5.6730     2.8350    -1.4920 H     1 <1>   0.4000 
 44 H       -6.9290     3.9230     0.5060 H     1 <1>   0.0800 
 45 H       -6.2020     3.9320     2.0690 H     1 <1>   0.0800 
 46 H       -6.0470     1.9500     2.9180 H     1 <1>   0.4000 
 47 H       -7.7630     1.6970    -0.0880 H     1 <1>   0.0800 
 48 H       -7.9540     1.6860     1.6420 H     1 <1>   0.0800 
 49 H       -7.1870     0.3350     0.8250 H     1 <1>   0.0800 
@<TRIPOS>BOND
  1   1   2  2   
  2   1   3  2   
  3   1   4  am  
  4   1   5  1   
  5   4   6  1   
  6   4   7  1   
  7   5   8  1   
  8   5   9  2   
  9   6  10  1   
 10   6  25  1   
 11   6  26  1   
 12   7  11  1   
 13   7  27  1   
 14   7  28  1   
 15   8  12  1   
 16   9  13  1   
 17   9  29  1   
 18  10  14  1   
 19  10  30  1   
 20  10  31  1   
 21  11  14  1   
 22  11  32  1   
 23  11  33  1   
 24  12  13  2   
 25  12  15  1   
 26  13  34  1   
 27  14  16  1   
 28  14  17  1   
 29  15  18  1   
 30  15  35  1   
 31  15  36  1   
 32  16  19  1   
 33  17  20  1   
 34  17  21  1   
 35  17  37  1   
 36  18  38  1   
 37  18  39  1   
 38  18  40  1   
 39  19  22  1   
 40  19  41  1   
 41  19  42  1   
 42  20  43  1   
 43  21  22  1   
 44  21  23  1   
 45  21  24  1   
 46  22  44  1   
 47  22  45  1   
 48  23  46  1   
 49  24  47  1   
 50  24  48  1   
 51  24  49  1   
@<TRIPOS>SUBSTRUCTURE
  1 ****   6 GROUP 4 **** **** 0

# MOE 2024.06 (io_trps.svl 2023.06)
