@<TRIPOS>MOLECULE
NONAME
39 41 1 0 0 
SMALL
USER_CHARGES


@<TRIPOS>ATOM
  1 CL       1.5990    -3.3690     2.8040 Cl    1 <1>  -0.1770 
  2 C        1.9750    -2.3830     1.4020 C.ar  1 <1>   0.1770 
  3 C        1.0660    -2.2330     0.3400 C.ar  1 <1>   0.4100 
  4 C        3.1930    -1.7480     1.3830 C.ar  1 <1>  -0.1500 
  5 N        1.3430    -1.4680    -0.7140 N.ar  1 <1>  -0.6200 
  6 N       -0.1710    -2.8700     0.3280 N.pl3 1 <1>  -0.8380 
  7 C        3.4730    -0.9570     0.2780 C.ar  1 <1>  -0.1430 
  8 C        2.5180    -0.8600    -0.7200 C.ar  1 <1>   0.1600 
  9 C       -1.2650    -2.3980    -0.5750 C.3   1 <1>   0.2090 
 10 C       -0.2120    -4.3590     0.3780 C.3   1 <1>   0.2090 
 11 C        4.7780    -0.1890     0.1120 C.3   1 <1>   1.1640 
 12 C       -2.2740    -3.5410    -0.5740 C.3   1 <1>   0.2000 
 13 C       -1.3780    -4.7800    -0.5230 C.3   1 <1>  -0.0800 
 14 F        4.5760     1.1170     0.0150 F     1 <1>  -0.3400 
 15 F        5.4280    -0.5500    -0.9860 F     1 <1>  -0.3400 
 16 F        5.6210    -0.3650     1.1220 F     1 <1>  -0.3400 
 17 O       -3.0090    -3.4560     0.5990 O.3   1 <1>  -0.6800 
 18 C       -2.0710    -6.0800    -0.0750 C.3   1 <1>  -0.0170 
 19 C       -1.0830    -7.2360    -0.0500 C.ar  1 <1>  -0.1430 
 20 C       -0.6890    -7.8820    -1.2040 C.ar  1 <1>  -0.1500 
 21 C       -0.5250    -7.6950     1.1260 C.ar  1 <1>  -0.1500 
 22 C        0.2220    -8.9230    -1.1300 C.ar  1 <1>   0.1600 
 23 C        0.3790    -8.7440     1.0910 C.ar  1 <1>   0.1600 
 24 N        0.7670    -9.3690    -0.0090 N.ar  1 <1>  -0.6200 
 25 H        3.8820    -1.8710     2.2020 H     1 <1>   0.1500 
 26 H        2.7260    -0.2450    -1.5820 H     1 <1>   0.1500 
 27 H       -1.6970    -1.4770    -0.2240 H     1 <1>   0.0800 
 28 H       -0.8850    -2.2580    -1.5730 H     1 <1>   0.0800 
 29 H        0.7160    -4.7890     0.0380 H     1 <1>   0.0800 
 30 H       -0.3960    -4.6680     1.3930 H     1 <1>   0.0800 
 31 H       -2.9480    -3.5240    -1.4140 H     1 <1>   0.0800 
 32 H       -0.9770    -4.9330    -1.5090 H     1 <1>   0.0800 
 33 H       -2.3850    -3.2070     1.3140 H     1 <1>   0.4000 
 34 H       -2.8750    -6.3090    -0.7530 H     1 <1>   0.0800 
 35 H       -2.5010    -5.9580     0.9040 H     1 <1>   0.0800 
 36 H       -1.0810    -7.5870    -2.1600 H     1 <1>   0.1500 
 37 H       -0.7820    -7.2490     2.0690 H     1 <1>   0.1500 
 38 H        0.5180    -9.4150    -2.0400 H     1 <1>   0.1500 
 39 H        0.8050    -9.0880     2.0180 H     1 <1>   0.1500 
@<TRIPOS>BOND
  1   1   2  1   
  2   2   3  ar  
  3   2   4  ar  
  4   3   5  ar  
  5   3   6  1   
  6   4   7  ar  
  7   4  25  1   
  8   5   8  ar  
  9   6   9  1   
 10   6  10  1   
 11   7   8  ar  
 12   7  11  1   
 13   8  26  1   
 14   9  12  1   
 15   9  27  1   
 16   9  28  1   
 17  10  13  1   
 18  10  29  1   
 19  10  30  1   
 20  11  14  1   
 21  11  15  1   
 22  11  16  1   
 23  12  13  1   
 24  12  17  1   
 25  12  31  1   
 26  13  18  1   
 27  13  32  1   
 28  17  33  1   
 29  18  19  1   
 30  18  34  1   
 31  18  35  1   
 32  19  20  ar  
 33  19  21  ar  
 34  20  22  ar  
 35  20  36  1   
 36  21  23  ar  
 37  21  37  1   
 38  22  24  ar  
 39  22  38  1   
 40  23  24  ar  
 41  23  39  1   
@<TRIPOS>SUBSTRUCTURE
  1 ****  10 GROUP 4 **** **** 0

# MOE 2024.06 (io_trps.svl 2023.06)
