@<TRIPOS>MOLECULE
NONAME
51 54 1 0 0 
SMALL
USER_CHARGES


@<TRIPOS>ATOM
  1 CL      -3.0430     0.1300     0.5090 Cl    1 <1>  -0.1770 
  2 C       -3.3970    -1.3280    -0.3890 C.ar  1 <1>   0.1770 
  3 C       -3.4780    -2.5560     0.2550 C.ar  1 <1>  -0.1440 
  4 C       -3.5830    -1.2130    -1.7540 C.ar  1 <1>  -0.1500 
  5 C       -3.7440    -3.6820    -0.5110 C.ar  1 <1>  -0.1500 
  6 C       -3.2620    -2.6850     1.7560 C.3   1 <1>   0.2140 
  7 C       -3.8520    -2.3440    -2.5050 C.ar  1 <1>  -0.1500 
  8 C       -3.9300    -3.5780    -1.8800 C.ar  1 <1>  -0.1500 
  9 S       -4.7430    -2.0940     2.6330 S.3   1 <1>  -0.4600 
 10 C       -5.5600    -3.6240     3.2140 C.3   1 <1>   0.1310 
 11 C       -5.9320    -4.5360     2.0510 C.2   1 <1>   0.5690 
 12 O       -5.2230    -5.5000     1.8680 O.2   1 <1>  -0.5700 
 13 N       -7.0190    -4.2810     1.2510 N.am  1 <1>  -0.6600 
 14 C       -7.9190    -3.0860     1.4090 C.3   1 <1>   0.1400 
 15 C       -7.2840    -5.1620     0.0720 C.3   1 <1>   0.1400 
 16 C       -8.2780    -2.4710     0.0450 C.3   1 <1>   0.1440 
 17 C       -8.7040    -4.9670    -0.4730 C.3   1 <1>  -0.1600 
 18 C       -9.1280    -1.2250     0.2230 C.ar  1 <1>   0.1670 
 19 C       -9.0170    -3.5030    -0.8450 C.3   1 <1>  -0.1600 
 20 C       -7.0180    -1.9040    -0.6640 C.3   1 <1>  -0.1600 
 21 N      -10.2040    -1.1420     0.9750 N.ar  1 <1>  -0.6200 
 22 C       -8.6460    -0.1750    -0.4980 C.ar  1 <1>  -0.1430 
 23 C       -7.4050    -0.5440    -1.2690 C.3   1 <1>  -0.0170 
 24 C      -10.7830     0.0510     0.9710 C.ar  1 <1>   0.4770 
 25 C       -9.3230     1.0170    -0.4260 C.ar  1 <1>   0.1600 
 26 N      -10.4060     1.1410     0.3140 N.ar  1 <1>  -0.6200 
 27 C      -12.0210     0.1960     1.8210 C.3   1 <1>  -0.0970 
 28 H       -3.5130    -0.2470    -2.2210 H     1 <1>   0.1500 
 29 H       -3.8060    -4.6520    -0.0470 H     1 <1>   0.1500 
 30 H       -2.4380    -2.0760     2.0840 H     1 <1>   0.0800 
 31 H       -3.0920    -3.7060     2.0490 H     1 <1>   0.0800 
 32 H       -3.9950    -2.2670    -3.5690 H     1 <1>   0.1500 
 33 H       -4.1340    -4.4620    -2.4600 H     1 <1>   0.1500 
 34 H       -6.4320    -3.3340     3.7700 H     1 <1>   0.0800 
 35 H       -4.8690    -4.1210     3.8690 H     1 <1>   0.0800 
 36 H       -7.4590    -2.3280     2.0160 H     1 <1>   0.0800 
 37 H       -8.8250    -3.3940     1.9030 H     1 <1>   0.0800 
 38 H       -7.1480    -6.1910     0.3590 H     1 <1>   0.0800 
 39 H       -6.5650    -4.9340    -0.6960 H     1 <1>   0.0800 
 40 H       -9.3970    -5.2980     0.2810 H     1 <1>   0.0800 
 41 H       -8.8480    -5.5950    -1.3340 H     1 <1>   0.0800 
 42 H       -8.7760    -3.3290    -1.8780 H     1 <1>   0.0800 
 43 H      -10.0800    -3.3620    -0.7470 H     1 <1>   0.0800 
 44 H       -6.6210    -2.5730    -1.4050 H     1 <1>   0.0800 
 45 H       -6.2500    -1.7280     0.0680 H     1 <1>   0.0800 
 46 H       -7.6420    -0.6460    -2.3140 H     1 <1>   0.0800 
 47 H       -6.6200     0.1810    -1.1370 H     1 <1>   0.0800 
 48 H       -8.9790     1.8750    -0.9760 H     1 <1>   0.1500 
 49 H      -12.3760    -0.7680     2.1370 H     1 <1>   0.0800 
 50 H      -12.7920     0.6840     1.2550 H     1 <1>   0.0800 
 51 H      -11.7900     0.7870     2.6860 H     1 <1>   0.0800 
@<TRIPOS>BOND
  1   1   2  1   
  2   2   3  ar  
  3   2   4  ar  
  4   3   5  ar  
  5   3   6  1   
  6   4   7  ar  
  7   4  28  1   
  8   5   8  ar  
  9   5  29  1   
 10   6   9  1   
 11   6  30  1   
 12   6  31  1   
 13   7   8  ar  
 14   7  32  1   
 15   8  33  1   
 16   9  10  1   
 17  10  11  1   
 18  10  34  1   
 19  10  35  1   
 20  11  12  2   
 21  11  13  am  
 22  13  14  1   
 23  13  15  1   
 24  14  16  1   
 25  14  36  1   
 26  14  37  1   
 27  15  17  1   
 28  15  38  1   
 29  15  39  1   
 30  16  18  1   
 31  16  19  1   
 32  16  20  1   
 33  17  19  1   
 34  17  40  1   
 35  17  41  1   
 36  18  21  ar  
 37  18  22  ar  
 38  19  42  1   
 39  19  43  1   
 40  20  23  1   
 41  20  44  1   
 42  20  45  1   
 43  21  24  ar  
 44  22  23  1   
 45  22  25  ar  
 46  23  46  1   
 47  23  47  1   
 48  24  26  ar  
 49  24  27  1   
 50  25  26  ar  
 51  25  48  1   
 52  27  49  1   
 53  27  50  1   
 54  27  51  1   
@<TRIPOS>SUBSTRUCTURE
  1 ****  20 GROUP 4 **** **** 0

# MOE 2024.06 (io_trps.svl 2023.06)
