@<TRIPOS>MOLECULE
NONAME
47 48 1 0 0 
SMALL
USER_CHARGES


@<TRIPOS>ATOM
  1 O        5.4400    -0.8760     0.5280 O.co2 1 <1>  -0.9000 
  2 C        4.4920    -0.7460    -0.2550 C.2   1 <1>   0.9060 
  3 O        4.3660    -1.4820    -1.2460 O.co2 1 <1>  -0.9000 
  4 C        3.4540     0.3740    -0.0550 C.3   1 <1>  -0.1060 
  5 C        3.5900     1.2120    -1.3550 C.3   1 <1>   0.2000 
  6 C        3.7850     1.2720     1.1820 C.3   1 <1>  -0.1600 
  7 C        2.0580    -0.2950     0.1750 C.3   1 <1>  -0.1600 
  8 O        2.8800     0.6220    -2.3870 O.3   1 <1>  -0.6800 
  9 C        3.2160     2.6900    -1.1860 C.3   1 <1>   0.1400 
 10 C        4.7390     2.4190     0.8390 C.3   1 <1>   0.1400 
 11 C        0.8170     0.6180     0.1180 C.3   1 <1>  -0.1600 
 12 N        4.0840     3.3460    -0.1450 N.am  1 <1>  -0.6600 
 13 C       -0.4540    -0.1720     0.4410 C.3   1 <1>  -0.2400 
 14 C        4.3020     4.7000    -0.1920 C.2   1 <1>   0.5690 
 15 O        3.7410     5.4020    -1.0030 O.2   1 <1>  -0.5700 
 16 C        5.2450     5.3980     0.7840 C.3   1 <1>   0.0440 
 17 C        6.6870     4.8900     0.7600 C.ar  1 <1>  -0.1430 
 18 C        7.2740     4.4630    -0.4220 C.ar  1 <1>  -0.1500 
 19 C        7.4220     4.8470     1.9340 C.ar  1 <1>  -0.1500 
 20 C        8.5740     3.9840    -0.4350 C.ar  1 <1>  -0.1430 
 21 C        8.7220     4.3740     1.9270 C.ar  1 <1>  -0.1500 
 22 C        9.2960     3.9400     0.7450 C.ar  1 <1>  -0.1500 
 23 C        9.1860     3.4960    -1.7350 C.3   1 <1>  -0.0970 
 24 H        4.6210     1.1980    -1.6690 H     1 <1>   0.0800 
 25 H        4.2160     0.6730     1.9650 H     1 <1>   0.0800 
 26 H        2.9000     1.7120     1.5950 H     1 <1>   0.0800 
 27 H        1.9240    -1.0690    -0.5630 H     1 <1>   0.0800 
 28 H        2.0860    -0.7920     1.1290 H     1 <1>   0.0800 
 29 H        3.1770    -0.3250    -2.3880 H     1 <1>   0.4000 
 30 H        2.1890     2.7810    -0.8890 H     1 <1>   0.0800 
 31 H        3.3480     3.1910    -2.1290 H     1 <1>   0.0800 
 32 H        5.6480     2.0220     0.4170 H     1 <1>   0.0800 
 33 H        4.9910     2.9440     1.7430 H     1 <1>   0.0800 
 34 H        0.9030     1.4330     0.8120 H     1 <1>   0.0800 
 35 H        0.7210     1.0300    -0.8720 H     1 <1>   0.0800 
 36 H       -0.3980    -0.5830     1.4340 H     1 <1>   0.0800 
 37 H       -0.5790    -0.9780    -0.2610 H     1 <1>   0.0800 
 38 H       -1.3130     0.4720     0.3810 H     1 <1>   0.0800 
 39 H        5.2570     6.4470     0.5520 H     1 <1>   0.0800 
 40 H        4.8340     5.2930     1.7690 H     1 <1>   0.0800 
 41 H        6.7160     4.4920    -1.3420 H     1 <1>   0.1500 
 42 H        6.9890     5.1770     2.8610 H     1 <1>   0.1500 
 43 H        9.2870     4.3370     2.8420 H     1 <1>   0.1500 
 44 H       10.3040     3.5650     0.7500 H     1 <1>   0.1500 
 45 H       10.2590     3.5130    -1.6810 H     1 <1>   0.0800 
 46 H        8.8740     4.1220    -2.5510 H     1 <1>   0.0800 
 47 H        8.8630     2.4880    -1.9270 H     1 <1>   0.0800 
@<TRIPOS>BOND
  1   1   2  ar  
  2   2   3  ar  
  3   2   4  1   
  4   4   5  1   
  5   4   6  1   
  6   4   7  1   
  7   5   8  1   
  8   5   9  1   
  9   5  24  1   
 10   6  10  1   
 11   6  25  1   
 12   6  26  1   
 13   7  11  1   
 14   7  27  1   
 15   7  28  1   
 16   8  29  1   
 17   9  12  1   
 18   9  30  1   
 19   9  31  1   
 20  10  12  1   
 21  10  32  1   
 22  10  33  1   
 23  11  13  1   
 24  11  34  1   
 25  11  35  1   
 26  12  14  am  
 27  13  36  1   
 28  13  37  1   
 29  13  38  1   
 30  14  15  2   
 31  14  16  1   
 32  16  17  1   
 33  16  39  1   
 34  16  40  1   
 35  17  18  ar  
 36  17  19  ar  
 37  18  20  ar  
 38  18  41  1   
 39  19  21  ar  
 40  19  42  1   
 41  20  22  ar  
 42  20  23  1   
 43  21  22  ar  
 44  21  43  1   
 45  22  44  1   
 46  23  45  1   
 47  23  46  1   
 48  23  47  1   
@<TRIPOS>SUBSTRUCTURE
  1 ****  10 GROUP 4 **** **** 0

# MOE 2024.06 (io_trps.svl 2023.06)
