@<TRIPOS>MOLECULE
NONAME
54 56 1 0 0 
SMALL
USER_CHARGES


@<TRIPOS>ATOM
  1 O       -0.7740     3.1720    -2.3340 O.co2 1 <1>  -0.9000 
  2 C       -1.1930     2.7390    -1.2550 C.2   1 <1>   0.9060 
  3 O       -2.3900     2.7310    -0.9700 O.co2 1 <1>  -0.9000 
  4 C       -0.1720     2.3490    -0.2060 C.3   1 <1>  -0.1060 
  5 C       -0.7220     2.4770     1.2320 C.3   1 <1>   0.2000 
  6 C        0.9610     3.3660    -0.3200 C.3   1 <1>   0.3430 
  7 C        0.2790     0.9120    -0.5840 C.3   1 <1>  -0.0170 
  8 O        0.2960     2.1900     2.1330 O.3   1 <1>  -0.6800 
  9 C       -1.1940     3.8950     1.5970 C.3   1 <1>  -0.1600 
 10 N        0.5600     4.7890     0.0010 N.4   1 <1>  -0.9590 
 11 C        1.4020     0.3210     0.2600 C.ar  1 <1>  -0.1440 
 12 C       -0.8240     4.9590     0.5650 C.3   1 <1>   0.3430 
 13 C        0.6530     5.5830    -1.2580 C.3   1 <1>   0.4860 
 14 C        2.7270     0.6280    -0.0100 C.ar  1 <1>  -0.1500 
 15 C        1.1050    -0.5400     1.3060 C.ar  1 <1>  -0.1500 
 16 C        0.5190     7.0580    -0.9390 C.ar  1 <1>  -0.1440 
 17 C        3.7400     0.1040     0.7730 C.ar  1 <1>  -0.1500 
 18 C        2.1170    -1.0640     2.0900 C.ar  1 <1>  -0.1500 
 19 C        1.5840     7.7610    -0.4010 C.ar  1 <1>   0.1600 
 20 C       -0.6660     7.7290    -1.1800 C.ar  1 <1>  -0.1500 
 21 C        3.4350    -0.7390     1.8270 C.ar  1 <1>  -0.1500 
 22 N        1.5590     9.0390    -0.0720 N.ar  1 <1>  -0.6200 
 23 C       -0.7000     9.0630    -0.8490 C.ar  1 <1>  -0.1500 
 24 C        0.4190     9.6820    -0.2970 C.ar  1 <1>   0.4100 
 25 N        0.3640    11.0220     0.0420 N.pl3 1 <1>  -0.8380 
 26 C        1.6090    11.8380    -0.0170 C.3   1 <1>   0.1290 
 27 C       -0.6100    11.4640     1.0740 C.3   1 <1>   0.1290 
 28 H       -1.5180     1.7680     1.3950 H     1 <1>   0.0800 
 29 H        1.3600     3.3140    -1.3200 H     1 <1>   0.0800 
 30 H        1.7420     3.0670     0.3600 H     1 <1>   0.0800 
 31 H       -0.5780     0.2620    -0.5320 H     1 <1>   0.0800 
 32 H        0.5950     0.9040    -1.6150 H     1 <1>   0.0800 
 33 H        0.6940     1.3140     1.9220 H     1 <1>   0.4000 
 34 H       -2.2680     3.8780     1.6480 H     1 <1>   0.0800 
 35 H       -0.8400     4.1890     2.5690 H     1 <1>   0.0800 
 36 H        1.2190     5.1560     0.6930 H     1 <1>   0.4500 
 37 H       -0.9290     5.9390     1.0010 H     1 <1>   0.0800 
 38 H       -1.5370     4.8920    -0.2420 H     1 <1>   0.0800 
 39 H        1.5990     5.4040    -1.7400 H     1 <1>   0.0800 
 40 H       -0.1290     5.2840    -1.9400 H     1 <1>   0.0800 
 41 H        2.9810     1.2700    -0.8350 H     1 <1>   0.1500 
 42 H        0.0830    -0.8100     1.5170 H     1 <1>   0.1500 
 43 H        4.7680     0.3460     0.5620 H     1 <1>   0.1500 
 44 H        1.8800    -1.7280     2.9040 H     1 <1>   0.1500 
 45 H        2.5160     7.2510    -0.2250 H     1 <1>   0.1500 
 46 H       -1.5240     7.2390    -1.6110 H     1 <1>   0.1500 
 47 H        4.2230    -1.1470     2.4370 H     1 <1>   0.1500 
 48 H       -1.5820     9.6500    -1.0170 H     1 <1>   0.1500 
 49 H        1.3620    12.8760    -0.1520 H     1 <1>   0.0800 
 50 H        2.2180    11.5170    -0.8450 H     1 <1>   0.0800 
 51 H        2.1690    11.7160     0.8940 H     1 <1>   0.0800 
 52 H       -1.1000    12.3630     0.7460 H     1 <1>   0.0800 
 53 H       -0.0990    11.6570     2.0010 H     1 <1>   0.0800 
 54 H       -1.3520    10.7030     1.2430 H     1 <1>   0.0800 
@<TRIPOS>BOND
  1   1   2  ar  
  2   2   3  ar  
  3   2   4  1   
  4   4   5  1   
  5   4   6  1   
  6   4   7  1   
  7   5   8  1   
  8   5   9  1   
  9   5  28  1   
 10   6  10  1   
 11   6  29  1   
 12   6  30  1   
 13   7  11  1   
 14   7  31  1   
 15   7  32  1   
 16   8  33  1   
 17   9  12  1   
 18   9  34  1   
 19   9  35  1   
 20  10  12  1   
 21  10  13  1   
 22  10  36  1   
 23  11  14  ar  
 24  11  15  ar  
 25  12  37  1   
 26  12  38  1   
 27  13  16  1   
 28  13  39  1   
 29  13  40  1   
 30  14  17  ar  
 31  14  41  1   
 32  15  18  ar  
 33  15  42  1   
 34  16  19  ar  
 35  16  20  ar  
 36  17  21  ar  
 37  17  43  1   
 38  18  21  ar  
 39  18  44  1   
 40  19  22  ar  
 41  19  45  1   
 42  20  23  ar  
 43  20  46  1   
 44  21  47  1   
 45  22  24  ar  
 46  23  24  ar  
 47  23  48  1   
 48  24  25  1   
 49  25  26  1   
 50  25  27  1   
 51  26  49  1   
 52  26  50  1   
 53  26  51  1   
 54  27  52  1   
 55  27  53  1   
 56  27  54  1   
@<TRIPOS>SUBSTRUCTURE
  1 ****  10 GROUP 4 **** **** 0

# MOE 2024.06 (io_trps.svl 2023.06)
