@<TRIPOS>MOLECULE
NONAME
48 50 1 0 0 
SMALL
USER_CHARGES


@<TRIPOS>ATOM
  1 N        0.9460     0.0640    -1.5480 N.ar  1 <1>  -0.1790 
  2 C        2.0620    -0.4490    -0.9290 C.ar  1 <1>   0.3610 
  3 C        0.5940     1.3550    -1.4230 C.ar  1 <1>   0.2110 
  4 C        2.8670     0.4020    -0.1400 C.ar  1 <1>   0.0000 
  5 C        2.4150    -1.7940    -1.1120 C.ar  1 <1>  -0.1500 
  6 C        1.3260     2.1980    -0.6300 C.ar  1 <1>  -0.1500 
  7 C        2.4490     1.7590     0.0790 C.ar  1 <1>   0.1000 
  8 C        4.0720    -0.1420     0.3500 C.ar  1 <1>  -0.1500 
  9 C        3.5730    -2.2950    -0.5770 C.ar  1 <1>  -0.1500 
 10 N        3.0600     2.5910     0.9670 N.pl3 1 <1>  -0.8380 
 11 C        4.4130    -1.4550     0.1490 C.ar  1 <1>  -0.1500 
 12 C        3.2280     4.0660     0.7600 C.3   1 <1>   0.2090 
 13 C        3.3770     2.1330     2.3620 C.3   1 <1>   0.1290 
 14 C        4.7240     4.4360     0.7280 C.3   1 <1>   0.3430 
 15 N        4.9920     5.8760     0.3650 N.4   1 <1>  -0.9590 
 16 C        6.4460     6.1130     0.1150 C.3   1 <1>   0.4230 
 17 C        4.4740     6.8070     1.4240 C.3   1 <1>   0.2630 
 18 C        6.7100     7.5340    -0.4070 C.3   1 <1>  -0.1600 
 19 C        6.9970     5.1780    -0.9660 C.3   1 <1>  -0.1600 
 20 C        7.5570     7.4020    -1.6780 C.3   1 <1>  -0.1600 
 21 C        8.0930     5.9770    -1.6620 C.3   1 <1>  -0.1600 
 22 H        0.3940    -0.5740    -2.1270 H     1 <1>   0.4570 
 23 H       -0.2810     1.7100    -1.9470 H     1 <1>   0.1500 
 24 H        1.7810    -2.4490    -1.6840 H     1 <1>   0.1500 
 25 H        0.9950     3.2140    -0.5210 H     1 <1>   0.1500 
 26 H        4.7530     0.4870     0.8920 H     1 <1>   0.1500 
 27 H        3.8530    -3.3280    -0.7140 H     1 <1>   0.1500 
 28 H        5.3340    -1.8510     0.5470 H     1 <1>   0.1500 
 29 H        2.7230     4.5930     1.5520 H     1 <1>   0.0800 
 30 H        2.7940     4.3530    -0.1800 H     1 <1>   0.0800 
 31 H        3.0080     1.1340     2.5250 H     1 <1>   0.0800 
 32 H        2.9010     2.7770     3.0820 H     1 <1>   0.0800 
 33 H        4.4390     2.1400     2.5320 H     1 <1>   0.0800 
 34 H        5.1930     3.7910     0.0040 H     1 <1>   0.0800 
 35 H        5.1570     4.2220     1.6900 H     1 <1>   0.0800 
 36 H        4.5250     6.0870    -0.5280 H     1 <1>   0.4500 
 37 H        7.0110     5.9670     1.0220 H     1 <1>   0.0800 
 38 H        4.9680     6.6170     2.3640 H     1 <1>   0.0800 
 39 H        3.4130     6.6760     1.5600 H     1 <1>   0.0800 
 40 H        4.6520     7.8330     1.1480 H     1 <1>   0.0800 
 41 H        7.2690     8.0790     0.3340 H     1 <1>   0.0800 
 42 H        5.8110     8.0770    -0.6370 H     1 <1>   0.0800 
 43 H        6.2380     4.9450    -1.6930 H     1 <1>   0.0800 
 44 H        7.3960     4.2700    -0.5480 H     1 <1>   0.0800 
 45 H        8.3530     8.1270    -1.7140 H     1 <1>   0.0800 
 46 H        6.9320     7.5360    -2.5460 H     1 <1>   0.0800 
 47 H        8.2990     5.6110    -2.6540 H     1 <1>   0.0800 
 48 H        9.0010     5.9390    -1.0810 H     1 <1>   0.0800 
@<TRIPOS>BOND
  1   1   2  ar  
  2   1   3  ar  
  3   1  22  1   
  4   2   4  ar  
  5   2   5  ar  
  6   3   6  ar  
  7   3  23  1   
  8   4   7  ar  
  9   4   8  ar  
 10   5   9  ar  
 11   5  24  1   
 12   6   7  ar  
 13   6  25  1   
 14   7  10  1   
 15   8  11  ar  
 16   8  26  1   
 17   9  11  ar  
 18   9  27  1   
 19  10  12  1   
 20  10  13  1   
 21  11  28  1   
 22  12  14  1   
 23  12  29  1   
 24  12  30  1   
 25  13  31  1   
 26  13  32  1   
 27  13  33  1   
 28  14  15  1   
 29  14  34  1   
 30  14  35  1   
 31  15  16  1   
 32  15  17  1   
 33  15  36  1   
 34  16  18  1   
 35  16  19  1   
 36  16  37  1   
 37  17  38  1   
 38  17  39  1   
 39  17  40  1   
 40  18  20  1   
 41  18  41  1   
 42  18  42  1   
 43  19  21  1   
 44  19  43  1   
 45  19  44  1   
 46  20  21  1   
 47  20  45  1   
 48  20  46  1   
 49  21  47  1   
 50  21  48  1   
@<TRIPOS>SUBSTRUCTURE
  1 ****  10 GROUP 4 **** **** 0

# MOE 2024.06 (io_trps.svl 2023.06)
