@<TRIPOS>MOLECULE
NONAME
52 55 1 0 0 
SMALL
USER_CHARGES


@<TRIPOS>ATOM
  1 S       -2.4720     0.3130    -0.7850 S.3   1 <1>  -0.2820 
  2 C       -2.1270    -1.2530    -0.1060 C.2   1 <1>   0.6510 
  3 C       -0.8740     0.8730    -0.2900 C.2   1 <1>   0.5300 
  4 N       -2.9710    -2.2360    -0.1250 N.2   1 <1>  -0.6210 
  5 N       -0.8670    -1.2250     0.4260 N.am  1 <1>  -0.0580 
  6 N       -0.1820    -0.0050     0.3060 N.2   1 <1>  -0.5120 
  7 C       -0.5090     2.3080    -0.6260 C.3   1 <1>  -0.0990 
  8 C       -2.5430    -3.4000     0.4520 C.2   1 <1>   0.0330 
  9 C       -0.4190    -2.3890     1.0300 C.2   1 <1>   0.6160 
 10 C       -1.3000     3.3320     0.2030 C.3   1 <1>  -0.2400 
 11 C       -1.3090    -3.4960     1.0160 C.2   1 <1>  -0.1360 
 12 C       -3.5100    -4.5920     0.4190 C.3   1 <1>   0.4810 
 13 O        0.6750    -2.4760     1.5640 O.2   1 <1>  -0.5700 
 14 N       -4.7730    -4.3680     1.2130 N.4   1 <1>  -0.9590 
 15 C       -5.6890    -3.3820     0.5640 C.3   1 <1>   0.4230 
 16 C       -4.4480    -3.9620     2.6200 C.3   1 <1>   0.2630 
 17 C       -6.0960    -3.8070    -0.8450 C.3   1 <1>  -0.1600 
 18 C       -7.0210    -3.2800     1.3030 C.3   1 <1>  -0.1600 
 19 C       -7.4040    -3.0550    -1.1230 C.3   1 <1>  -0.0800 
 20 C       -8.0170    -2.7550     0.2620 C.3   1 <1>  -0.0800 
 21 C       -8.3340    -3.7910    -2.1090 C.3   1 <1>   0.1400 
 22 C       -9.4410    -3.3140     0.4450 C.3   1 <1>  -0.0990 
 23 N       -9.7140    -3.2590    -2.0040 N.am  1 <1>  -0.6600 
 24 C      -10.2830    -3.0290    -0.7820 C.2   1 <1>   0.5690 
 25 C      -10.4500    -3.0470    -3.2800 C.3   1 <1>   0.0600 
 26 O      -11.4090    -2.6210    -0.6360 O.2   1 <1>  -0.5700 
 27 H        0.5420     2.4420    -0.4420 H     1 <1>   0.0800 
 28 H       -0.6850     2.4750    -1.6740 H     1 <1>   0.0800 
 29 H       -1.1280     3.1730     1.2540 H     1 <1>   0.0800 
 30 H       -2.3540     3.2480     0.0080 H     1 <1>   0.0800 
 31 H       -0.9850     4.3300    -0.0470 H     1 <1>   0.0800 
 32 H       -0.9340    -4.3940     1.4720 H     1 <1>   0.1500 
 33 H       -2.9970    -5.4550     0.8120 H     1 <1>   0.0800 
 34 H       -3.7560    -4.8050    -0.6080 H     1 <1>   0.0800 
 35 H       -5.2830    -5.2590     1.2410 H     1 <1>   0.4500 
 36 H       -5.2360    -2.4030     0.5230 H     1 <1>   0.0800 
 37 H       -3.9670    -2.9970     2.6270 H     1 <1>   0.0800 
 38 H       -3.7880    -4.6810     3.0770 H     1 <1>   0.0800 
 39 H       -5.3470    -3.9010     3.2120 H     1 <1>   0.0800 
 40 H       -5.3480    -3.5430    -1.5730 H     1 <1>   0.0800 
 41 H       -6.2780    -4.8670    -0.8710 H     1 <1>   0.0800 
 42 H       -7.3300    -4.2540     1.6400 H     1 <1>   0.0800 
 43 H       -6.9630    -2.6080     2.1410 H     1 <1>   0.0800 
 44 H       -7.1520    -2.1080    -1.5740 H     1 <1>   0.0800 
 45 H       -8.0800    -1.6810     0.3560 H     1 <1>   0.0800 
 46 H       -8.3650    -4.8440    -1.8850 H     1 <1>   0.0800 
 47 H       -7.9670    -3.6710    -3.1150 H     1 <1>   0.0800 
 48 H       -9.9060    -2.8700     1.3060 H     1 <1>   0.0800 
 49 H       -9.4220    -4.3790     0.5830 H     1 <1>   0.0800 
 50 H       -9.9390    -2.3140    -3.8780 H     1 <1>   0.0800 
 51 H      -11.4490    -2.6950    -3.0860 H     1 <1>   0.0800 
 52 H      -10.5120    -3.9730    -3.8240 H     1 <1>   0.0800 
@<TRIPOS>BOND
  1   1   2  1   
  2   1   3  1   
  3   2   4  2   
  4   2   5  1   
  5   3   6  2   
  6   3   7  1   
  7   4   8  1   
  8   5   6  1   
  9   5   9  am  
 10   7  10  1   
 11   7  27  1   
 12   7  28  1   
 13   8  11  2   
 14   8  12  1   
 15   9  11  1   
 16   9  13  2   
 17  10  29  1   
 18  10  30  1   
 19  10  31  1   
 20  11  32  1   
 21  12  14  1   
 22  12  33  1   
 23  12  34  1   
 24  14  15  1   
 25  14  16  1   
 26  14  35  1   
 27  15  17  1   
 28  15  18  1   
 29  15  36  1   
 30  16  37  1   
 31  16  38  1   
 32  16  39  1   
 33  17  19  1   
 34  17  40  1   
 35  17  41  1   
 36  18  20  1   
 37  18  42  1   
 38  18  43  1   
 39  19  20  1   
 40  19  21  1   
 41  19  44  1   
 42  20  22  1   
 43  20  45  1   
 44  21  23  1   
 45  21  46  1   
 46  21  47  1   
 47  22  24  1   
 48  22  48  1   
 49  22  49  1   
 50  23  24  am  
 51  23  25  1   
 52  24  26  2   
 53  25  50  1   
 54  25  51  1   
 55  25  52  1   
@<TRIPOS>SUBSTRUCTURE
  1 ****  15 GROUP 4 **** **** 0

# MOE 2024.06 (io_trps.svl 2023.06)
