@<TRIPOS>MOLECULE
NONAME
51 52 1 0 0 
SMALL
USER_CHARGES


@<TRIPOS>ATOM
  1 O        0.4580     2.0830     0.1740 O.2   1 <1>  -0.5700 
  2 C       -0.6930     1.9320     0.5150 C.2   1 <1>   0.5690 
  3 N       -1.2940     2.7810     1.4020 N.am  1 <1>  -0.6600 
  4 C       -1.4710     0.7880    -0.1080 C.3   1 <1>  -0.0990 
  5 C       -2.7550     2.7960     1.6680 C.3   1 <1>   0.1400 
  6 C       -0.5200     3.9310     1.9900 C.3   1 <1>   0.2010 
  7 C       -2.5070     1.2730    -1.1360 C.3   1 <1>  -0.1600 
  8 C       -3.5440     3.0900     0.3870 C.3   1 <1>  -0.1600 
  9 C       -0.4240     5.1300     1.0490 C.2   1 <1>   0.5690 
 10 C       -3.7770     1.8550    -0.4990 C.3   1 <1>  -0.1600 
 11 O       -0.8690     6.1930     1.4130 O.2   1 <1>  -0.5700 
 12 N        0.1630     4.9270    -0.1580 N.am  1 <1>  -0.7300 
 13 C        0.6700     5.9110    -1.1220 C.3   1 <1>   0.4010 
 14 C        1.9010     6.6140    -0.5500 C.2   1 <1>  -0.1810 
 15 C       -0.4480     6.8090    -1.6510 C.3   1 <1>  -0.2400 
 16 C        3.1850     6.0860    -0.6820 C.2   1 <1>   0.1080 
 17 C        2.0870     7.7680     0.1430 C.2   1 <1>  -0.3320 
 18 N        4.0910     6.8390    -0.1500 N.2   1 <1>  -0.7070 
 19 C        3.5520     4.7780    -1.3500 C.3   1 <1>  -0.0590 
 20 N        3.4190     7.8800     0.3620 N.pl3 1 <1>   0.3140 
 21 C        1.0880     8.8010     0.6490 C.3   1 <1>  -0.0600 
 22 C        4.1400     8.9570     1.0730 C.3   1 <1>   0.0960 
 23 C        4.4690    10.1240     0.1320 C.3   1 <1>  -0.2400 
 24 H       -1.9430     0.2080     0.6630 H     1 <1>   0.0800 
 25 H       -0.7670     0.1460    -0.6060 H     1 <1>   0.0800 
 26 H       -2.9780     3.5630     2.3910 H     1 <1>   0.0800 
 27 H       -3.0590     1.8530     2.0910 H     1 <1>   0.0800 
 28 H        0.4800     3.6060     2.2160 H     1 <1>   0.0800 
 29 H       -0.9710     4.2460     2.9130 H     1 <1>   0.0800 
 30 H       -2.7930     0.4370    -1.7510 H     1 <1>   0.0800 
 31 H       -2.0530     2.0060    -1.7810 H     1 <1>   0.0800 
 32 H       -3.0610     3.8740    -0.1700 H     1 <1>   0.0800 
 33 H       -4.5100     3.4610     0.6810 H     1 <1>   0.0800 
 34 H       -4.2680     1.0900     0.0780 H     1 <1>   0.0800 
 35 H       -4.4500     2.1320    -1.2920 H     1 <1>   0.0800 
 36 H        0.4980     3.9680    -0.3220 H     1 <1>   0.3700 
 37 H        1.0100     5.3560    -1.9780 H     1 <1>   0.0800 
 38 H       -1.0060     7.2670    -0.8600 H     1 <1>   0.0800 
 39 H       -1.1240     6.2250    -2.2470 H     1 <1>   0.0800 
 40 H       -0.0250     7.5790    -2.2680 H     1 <1>   0.0800 
 41 H        2.9460     3.9820    -0.9600 H     1 <1>   0.0800 
 42 H        4.5850     4.5500    -1.1570 H     1 <1>   0.0800 
 43 H        3.4090     4.8580    -2.4110 H     1 <1>   0.0800 
 44 H        0.0800     8.4630     0.5350 H     1 <1>   0.0800 
 45 H        1.2020     9.7240     0.1100 H     1 <1>   0.0800 
 46 H        1.2420     8.9820     1.6960 H     1 <1>   0.0800 
 47 H        5.0500     8.5410     1.4660 H     1 <1>   0.0800 
 48 H        3.5400     9.2940     1.8970 H     1 <1>   0.0800 
 49 H        5.0810     9.7740    -0.6810 H     1 <1>   0.0800 
 50 H        5.0090    10.8840     0.6670 H     1 <1>   0.0800 
 51 H        3.5660    10.5540    -0.2630 H     1 <1>   0.0800 
@<TRIPOS>BOND
  1   1   2  2   
  2   2   3  am  
  3   2   4  1   
  4   3   5  1   
  5   3   6  1   
  6   4   7  1   
  7   4  24  1   
  8   4  25  1   
  9   5   8  1   
 10   5  26  1   
 11   5  27  1   
 12   6   9  1   
 13   6  28  1   
 14   6  29  1   
 15   7  10  1   
 16   7  30  1   
 17   7  31  1   
 18   8  10  1   
 19   8  32  1   
 20   8  33  1   
 21   9  11  2   
 22   9  12  am  
 23  10  34  1   
 24  10  35  1   
 25  12  13  1   
 26  12  36  1   
 27  13  14  1   
 28  13  15  1   
 29  13  37  1   
 30  14  16  1   
 31  14  17  2   
 32  15  38  1   
 33  15  39  1   
 34  15  40  1   
 35  16  18  2   
 36  16  19  1   
 37  17  20  1   
 38  17  21  1   
 39  18  20  1   
 40  19  41  1   
 41  19  42  1   
 42  19  43  1   
 43  20  22  1   
 44  21  44  1   
 45  21  45  1   
 46  21  46  1   
 47  22  23  1   
 48  22  47  1   
 49  22  48  1   
 50  23  49  1   
 51  23  50  1   
 52  23  51  1   
@<TRIPOS>SUBSTRUCTURE
  1 ****  12 GROUP 4 **** **** 0

# MOE 2024.06 (io_trps.svl 2023.06)
