@<TRIPOS>MOLECULE
NONAME
49 50 1 0 0 
SMALL
USER_CHARGES


@<TRIPOS>ATOM
  1 F        2.0400    -0.6000     2.2350 F     1 <1>  -0.1900 
  2 C        2.3450     0.4500     1.4990 C.ar  1 <1>   0.1900 
  3 C        3.0880     0.3340     0.3240 C.ar  1 <1>   0.4100 
  4 C        1.9320     1.6860     1.9090 C.ar  1 <1>   0.1600 
  5 N        3.3840     1.4220    -0.3650 N.ar  1 <1>  -0.6200 
  6 N        3.5520    -0.8790    -0.1860 N.pl3 1 <1>  -0.8380 
  7 N        2.2170     2.7740     1.2200 N.ar  1 <1>  -0.6200 
  8 C        2.9260     2.5670     0.1130 C.ar  1 <1>   0.7200 
  9 C        2.6530    -2.0620    -0.2730 C.3   1 <1>   0.1290 
 10 C        4.7330    -0.9160    -1.0930 C.3   1 <1>   0.1290 
 11 N        3.2480     3.6400    -0.6460 N.pl3 1 <1>  -0.8690 
 12 C        3.2500     5.0340    -0.1820 C.3   1 <1>   0.2890 
 13 C        3.0100     5.9520    -1.3770 C.3   1 <1>  -0.1600 
 14 C        4.5930     5.3440     0.4780 C.3   1 <1>  -0.1600 
 15 C        3.0820     7.4180    -0.9490 C.3   1 <1>   0.1400 
 16 C        4.6660     6.8140     0.8960 C.3   1 <1>   0.1400 
 17 N        4.3890     7.6910    -0.2800 N.am  1 <1>  -0.6600 
 18 C        5.2320     8.6670    -0.7630 C.2   1 <1>   0.5690 
 19 O        4.9990     9.2360    -1.8040 O.2   1 <1>  -0.5700 
 20 C        6.5040     9.0380    -0.0020 C.3   1 <1>  -0.0990 
 21 C        7.1260    10.4040    -0.3620 C.3   1 <1>  -0.0800 
 22 C        8.4980    10.5550     0.3070 C.3   1 <1>  -0.2400 
 23 C        6.2190    11.5670     0.0650 C.3   1 <1>  -0.2400 
 24 H        1.3600     1.7870     2.8140 H     1 <1>   0.1500 
 25 H        1.6460    -1.7920    -0.0090 H     1 <1>   0.0800 
 26 H        2.9990    -2.8270     0.3990 H     1 <1>   0.0800 
 27 H        2.6480    -2.4490    -1.2770 H     1 <1>   0.0800 
 28 H        5.4350    -0.1490    -0.8170 H     1 <1>   0.0800 
 29 H        4.4160    -0.7500    -2.1080 H     1 <1>   0.0800 
 30 H        5.2220    -1.8720    -1.0220 H     1 <1>   0.0800 
 31 H        3.9170     3.4080    -1.3770 H     1 <1>   0.4000 
 32 H        2.4570     5.1820     0.5330 H     1 <1>   0.0800 
 33 H        2.0390     5.7510    -1.7910 H     1 <1>   0.0800 
 34 H        3.7500     5.7770    -2.1370 H     1 <1>   0.0800 
 35 H        5.3970     5.1340    -0.2050 H     1 <1>   0.0800 
 36 H        4.7120     4.7240     1.3480 H     1 <1>   0.0800 
 37 H        2.2850     7.6370    -0.2590 H     1 <1>   0.0800 
 38 H        2.9510     8.0480    -1.8120 H     1 <1>   0.0800 
 39 H        5.6380     7.0040     1.3100 H     1 <1>   0.0800 
 40 H        3.9320     7.0130     1.6590 H     1 <1>   0.0800 
 41 H        7.2230     8.2650    -0.1970 H     1 <1>   0.0800 
 42 H        6.2930     9.0430     1.0500 H     1 <1>   0.0800 
 43 H        7.2670    10.4520    -1.4310 H     1 <1>   0.0800 
 44 H        8.4060    10.5150     1.3790 H     1 <1>   0.0800 
 45 H        8.9420    11.4970     0.0370 H     1 <1>   0.0800 
 46 H        9.1590     9.7700    -0.0120 H     1 <1>   0.0800 
 47 H        6.0520    11.5520     1.1280 H     1 <1>   0.0800 
 48 H        5.2680    11.5060    -0.4330 H     1 <1>   0.0800 
 49 H        6.6710    12.5070    -0.1990 H     1 <1>   0.0800 
@<TRIPOS>BOND
  1   1   2  1   
  2   2   3  ar  
  3   2   4  ar  
  4   3   5  ar  
  5   3   6  1   
  6   4   7  ar  
  7   4  24  1   
  8   5   8  ar  
  9   6   9  1   
 10   6  10  1   
 11   7   8  ar  
 12   8  11  1   
 13   9  25  1   
 14   9  26  1   
 15   9  27  1   
 16  10  28  1   
 17  10  29  1   
 18  10  30  1   
 19  11  12  1   
 20  11  31  1   
 21  12  13  1   
 22  12  14  1   
 23  12  32  1   
 24  13  15  1   
 25  13  33  1   
 26  13  34  1   
 27  14  16  1   
 28  14  35  1   
 29  14  36  1   
 30  15  17  1   
 31  15  37  1   
 32  15  38  1   
 33  16  17  1   
 34  16  39  1   
 35  16  40  1   
 36  17  18  am  
 37  18  19  2   
 38  18  20  1   
 39  20  21  1   
 40  20  41  1   
 41  20  42  1   
 42  21  22  1   
 43  21  23  1   
 44  21  43  1   
 45  22  44  1   
 46  22  45  1   
 47  22  46  1   
 48  23  47  1   
 49  23  48  1   
 50  23  49  1   
@<TRIPOS>SUBSTRUCTURE
  1 ****  12 GROUP 4 **** **** 0

# MOE 2024.06 (io_trps.svl 2023.06)
