@<TRIPOS>MOLECULE
NONAME
61 64 1 0 0 
SMALL
USER_CHARGES


@<TRIPOS>ATOM
  1 O       -0.7100    -0.2190    -0.4800 O.3   1 <1>  -0.5600 
  2 C        0.5450    -0.0160     0.0960 C.3   1 <1>   0.2640 
  3 C       -1.5420    -1.0730     0.2170 C.3   1 <1>   0.1200 
  4 C        1.2810     1.0440    -0.7070 C.ar  1 <1>  -0.1440 
  5 C       -2.8210    -1.1810    -0.6090 C.3   1 <1>  -0.1600 
  6 C        1.6320     0.8000    -2.0260 C.ar  1 <1>  -0.1500 
  7 C        1.6130     2.2620    -0.1310 C.ar  1 <1>  -0.1500 
  8 C       -3.9190    -1.9050     0.1650 C.3   1 <1>   0.3430 
  9 C        2.3110     1.7570    -2.7600 C.ar  1 <1>  -0.1500 
 10 C        2.2910     3.2210    -0.8650 C.ar  1 <1>  -0.1500 
 11 N       -5.1570    -2.0020    -0.6610 N.4   1 <1>  -0.9590 
 12 C        2.6410     2.9690    -2.1790 C.ar  1 <1>  -0.1500 
 13 C       -5.8330    -0.6700    -0.9030 C.3   1 <1>   0.3430 
 14 C       -6.1090    -3.0190    -0.0910 C.3   1 <1>   0.3430 
 15 C       -6.4320    -0.0180     0.3650 C.3   1 <1>   0.1430 
 16 C       -7.2490    -2.4040     0.7370 C.3   1 <1>  -0.1600 
 17 C       -7.5980     0.8060    -0.1380 C.ar  1 <1>   0.1670 
 18 C       -6.8710    -1.0740     1.4090 C.3   1 <1>  -0.1600 
 19 C       -5.5130     1.0600     1.0050 C.3   1 <1>  -0.1600 
 20 N       -8.7040     0.3070    -0.6240 N.ar  1 <1>  -0.6200 
 21 C       -7.3480     2.1420    -0.0680 C.ar  1 <1>  -0.1430 
 22 C       -5.9810     2.4350     0.4920 C.3   1 <1>  -0.0170 
 23 C       -9.6070     1.2080    -1.0250 C.ar  1 <1>   0.7200 
 24 C       -8.3260     2.9950    -0.5120 C.ar  1 <1>   0.1600 
 25 N       -9.4570     2.5360    -0.9910 N.ar  1 <1>  -0.6200 
 26 N      -10.7990     0.7230    -1.5250 N.pl3 1 <1>  -0.8380 
 27 C      -11.0340    -0.7180    -1.8120 C.3   1 <1>   0.1290 
 28 C      -11.9710     1.6170    -1.7500 C.3   1 <1>   0.1290 
 29 H        1.0910    -0.9440     0.0730 H     1 <1>   0.0800 
 30 H        0.4150     0.3050     1.1150 H     1 <1>   0.0800 
 31 H       -1.7350    -0.6420     1.1860 H     1 <1>   0.0800 
 32 H       -1.0570    -2.0300     0.3210 H     1 <1>   0.0800 
 33 H       -2.5960    -1.7170    -1.5150 H     1 <1>   0.0800 
 34 H       -3.1350    -0.1840    -0.8580 H     1 <1>   0.0800 
 35 H        1.3730    -0.1380    -2.4850 H     1 <1>   0.1500 
 36 H        1.3460     2.4720     0.8890 H     1 <1>   0.1500 
 37 H       -4.1280    -1.3830     1.0840 H     1 <1>   0.0800 
 38 H       -3.5720    -2.8960     0.4140 H     1 <1>   0.0800 
 39 H        2.5800     1.5600    -3.7830 H     1 <1>   0.1500 
 40 H        2.5460     4.1630    -0.4130 H     1 <1>   0.1500 
 41 H       -4.8660    -2.3560    -1.5830 H     1 <1>   0.4500 
 42 H        3.1670     3.7140    -2.7500 H     1 <1>   0.1500 
 43 H       -6.6460    -0.8320    -1.5930 H     1 <1>   0.0800 
 44 H       -5.1560     0.0220    -1.3730 H     1 <1>   0.0800 
 45 H       -5.5600    -3.7100     0.5290 H     1 <1>   0.0800 
 46 H       -6.5490    -3.5910    -0.8930 H     1 <1>   0.0800 
 47 H       -7.5600    -3.1130     1.4840 H     1 <1>   0.0800 
 48 H       -8.0970    -2.2470     0.0930 H     1 <1>   0.0800 
 49 H       -7.7110    -0.6990     1.9720 H     1 <1>   0.0800 
 50 H       -6.0750    -1.2610     2.1080 H     1 <1>   0.0800 
 51 H       -4.4710     0.9060     0.7960 H     1 <1>   0.0800 
 52 H       -5.6440     1.0560     2.0740 H     1 <1>   0.0800 
 53 H       -5.3370     2.7980    -0.2900 H     1 <1>   0.0800 
 54 H       -6.0300     3.1600     1.2880 H     1 <1>   0.0800 
 55 H       -8.1820     4.0610    -0.4770 H     1 <1>   0.1500 
 56 H      -10.1110    -1.2150    -2.0510 H     1 <1>   0.0800 
 57 H      -11.6990    -0.8230    -2.6510 H     1 <1>   0.0800 
 58 H      -11.4740    -1.1890    -0.9500 H     1 <1>   0.0800 
 59 H      -11.9840     2.4110    -1.0230 H     1 <1>   0.0800 
 60 H      -12.8880     1.0620    -1.6570 H     1 <1>   0.0800 
 61 H      -11.9130     2.0450    -2.7350 H     1 <1>   0.0800 
@<TRIPOS>BOND
  1   1   2  1   
  2   1   3  1   
  3   2   4  1   
  4   2  29  1   
  5   2  30  1   
  6   3   5  1   
  7   3  31  1   
  8   3  32  1   
  9   4   6  ar  
 10   4   7  ar  
 11   5   8  1   
 12   5  33  1   
 13   5  34  1   
 14   6   9  ar  
 15   6  35  1   
 16   7  10  ar  
 17   7  36  1   
 18   8  11  1   
 19   8  37  1   
 20   8  38  1   
 21   9  12  ar  
 22   9  39  1   
 23  10  12  ar  
 24  10  40  1   
 25  11  13  1   
 26  11  14  1   
 27  11  41  1   
 28  12  42  1   
 29  13  15  1   
 30  13  43  1   
 31  13  44  1   
 32  14  16  1   
 33  14  45  1   
 34  14  46  1   
 35  15  17  1   
 36  15  18  1   
 37  15  19  1   
 38  16  18  1   
 39  16  47  1   
 40  16  48  1   
 41  17  20  ar  
 42  17  21  ar  
 43  18  49  1   
 44  18  50  1   
 45  19  22  1   
 46  19  51  1   
 47  19  52  1   
 48  20  23  ar  
 49  21  22  1   
 50  21  24  ar  
 51  22  53  1   
 52  22  54  1   
 53  23  25  ar  
 54  23  26  1   
 55  24  25  ar  
 56  24  55  1   
 57  26  27  1   
 58  26  28  1   
 59  27  56  1   
 60  27  57  1   
 61  27  58  1   
 62  28  59  1   
 63  28  60  1   
 64  28  61  1   
@<TRIPOS>SUBSTRUCTURE
  1 ****  13 GROUP 4 **** **** 0

# MOE 2024.06 (io_trps.svl 2023.06)
