@<TRIPOS>MOLECULE
NONAME
54 57 1 0 0 
SMALL
USER_CHARGES


@<TRIPOS>ATOM
  1 O       -0.4370    -0.4520    -0.3350 O.3   1 <1>  -0.2800 
  2 C        0.6840    -1.1410    -0.4540 C.2   1 <1>  -0.0400 
  3 C       -0.4320     0.4800    -1.2690 C.2   1 <1>  -0.0100 
  4 C        1.4260    -0.6670    -1.4790 C.2   1 <1>  -0.1500 
  5 C        0.9170    -2.2860     0.5100 C.3   1 <1>   0.5230 
  6 C        0.6920     0.3990    -2.0130 C.2   1 <1>  -0.1500 
  7 N       -0.3490    -3.0810     0.5680 N.4   1 <1>  -0.9590 
  8 C       -0.3910    -3.9710     1.7580 C.3   1 <1>   0.3430 
  9 C       -0.6030    -3.7730    -0.7280 C.3   1 <1>   0.3430 
 10 C       -1.7490    -4.6730     1.8220 C.3   1 <1>  -0.1600 
 11 C       -1.9610    -4.4780    -0.6800 C.3   1 <1>  -0.1600 
 12 C       -2.0510    -5.4230     0.5220 C.3   1 <1>   0.4230 
 13 N       -3.4090    -6.0080     0.6200 N.4   1 <1>  -0.9060 
 14 C       -3.7650    -7.0540    -0.3860 C.3   1 <1>   0.4230 
 15 C       -5.2120    -7.4750    -0.1310 C.3   1 <1>  -0.0800 
 16 C       -3.0390    -8.3410    -0.0090 C.3   1 <1>   0.1200 
 17 C       -5.0680    -8.5510     0.9640 C.3   1 <1>   0.1200 
 18 C       -5.8830    -8.0310    -1.4040 C.3   1 <1>  -0.0170 
 19 O       -3.6910    -8.7080     1.1570 O.3   1 <1>  -0.5600 
 20 C       -7.3200    -8.4400    -1.1240 C.ar  1 <1>  -0.1430 
 21 C       -7.6880    -9.7620    -0.9670 C.ar  1 <1>  -0.1500 
 22 C       -8.3350    -7.5100    -1.0160 C.ar  1 <1>  -0.1500 
 23 C       -9.0110   -10.0790    -0.7030 C.ar  1 <1>   0.1600 
 24 C       -9.6270    -7.9320    -0.7510 C.ar  1 <1>   0.1600 
 25 N       -9.9860    -9.1940    -0.5870 N.ar  1 <1>  -0.6200 
 26 H       -1.2620     1.1640    -1.3380 H     1 <1>   0.1500 
 27 H        2.3840    -0.9910    -1.8500 H     1 <1>   0.1500 
 28 H        1.1410    -1.8760     1.4810 H     1 <1>   0.0800 
 29 H        1.7470    -2.8910     0.1850 H     1 <1>   0.0800 
 30 H        0.9920     1.0140    -2.8450 H     1 <1>   0.1500 
 31 H       -1.0580    -2.3330     0.6620 H     1 <1>   0.4500 
 32 H        0.3990    -4.7040     1.6960 H     1 <1>   0.0800 
 33 H       -0.2410    -3.3920     2.6580 H     1 <1>   0.0800 
 34 H       -0.6000    -3.0550    -1.5350 H     1 <1>   0.0800 
 35 H        0.1790    -4.4920    -0.9180 H     1 <1>   0.0800 
 36 H       -2.5080    -3.9370     2.0230 H     1 <1>   0.0800 
 37 H       -1.7290    -5.3670     2.6440 H     1 <1>   0.0800 
 38 H       -2.0800    -5.0300    -1.5950 H     1 <1>   0.0800 
 39 H       -2.7340    -3.7300    -0.6350 H     1 <1>   0.0800 
 40 H       -1.3250    -6.2140     0.4070 H     1 <1>   0.0800 
 41 H       -4.1320    -5.2810     0.6370 H     1 <1>   0.4500 
 42 H       -3.4870    -6.5220     1.5150 H     1 <1>   0.4500 
 43 H       -3.5860    -6.7320    -1.3990 H     1 <1>   0.0800 
 44 H       -5.8100    -6.6550     0.2270 H     1 <1>   0.0800 
 45 H       -1.9880    -8.2200     0.1840 H     1 <1>   0.0800 
 46 H       -3.1850    -9.1180    -0.7420 H     1 <1>   0.0800 
 47 H       -5.4750    -9.5030     0.6670 H     1 <1>   0.0800 
 48 H       -5.5150    -8.2510     1.8970 H     1 <1>   0.0800 
 49 H       -5.3410    -8.8800    -1.7840 H     1 <1>   0.0800 
 50 H       -5.8890    -7.2800    -2.1760 H     1 <1>   0.0800 
 51 H       -6.9680   -10.5560    -1.0470 H     1 <1>   0.1500 
 52 H       -8.1450    -6.4600    -1.1380 H     1 <1>   0.1500 
 53 H       -9.2810   -11.1140    -0.5820 H     1 <1>   0.1500 
 54 H      -10.4080    -7.1950    -0.6700 H     1 <1>   0.1500 
@<TRIPOS>BOND
  1   1   2  1   
  2   1   3  1   
  3   2   4  2   
  4   2   5  1   
  5   3   6  2   
  6   3  26  1   
  7   4   6  1   
  8   4  27  1   
  9   5   7  1   
 10   5  28  1   
 11   5  29  1   
 12   6  30  1   
 13   7   8  1   
 14   7   9  1   
 15   7  31  1   
 16   8  10  1   
 17   8  32  1   
 18   8  33  1   
 19   9  11  1   
 20   9  34  1   
 21   9  35  1   
 22  10  12  1   
 23  10  36  1   
 24  10  37  1   
 25  11  12  1   
 26  11  38  1   
 27  11  39  1   
 28  12  13  1   
 29  12  40  1   
 30  13  14  1   
 31  13  41  1   
 32  13  42  1   
 33  14  15  1   
 34  14  16  1   
 35  14  43  1   
 36  15  17  1   
 37  15  18  1   
 38  15  44  1   
 39  16  19  1   
 40  16  45  1   
 41  16  46  1   
 42  17  19  1   
 43  17  47  1   
 44  17  48  1   
 45  18  20  1   
 46  18  49  1   
 47  18  50  1   
 48  20  21  ar  
 49  20  22  ar  
 50  21  23  ar  
 51  21  51  1   
 52  22  24  ar  
 53  22  52  1   
 54  23  25  ar  
 55  23  53  1   
 56  24  25  ar  
 57  24  54  1   
@<TRIPOS>SUBSTRUCTURE
  1 ****  13 GROUP 4 **** **** 0

# MOE 2024.06 (io_trps.svl 2023.06)
