@<TRIPOS>MOLECULE
NONAME
48 50 1 0 0 
SMALL
USER_CHARGES


@<TRIPOS>ATOM
  1 S        1.3260     1.2450     0.7460 S.o2  1 <1>   1.4470 
  2 O        1.6970     2.2350    -0.2350 O.2   1 <1>  -0.6500 
  3 O        1.3620     1.5520     2.1530 O.2   1 <1>  -0.6500 
  4 N       -0.2900     1.0450     0.4580 N.am  1 <1>  -0.9780 
  5 C        2.0410    -0.3810     0.3770 C.ar  1 <1>  -0.0090 
  6 C        1.7250    -1.4880     1.1480 C.ar  1 <1>  -0.1500 
  7 C        2.9010    -0.5660    -0.6970 C.ar  1 <1>  -0.1500 
  8 C        2.2110    -2.7640     0.8700 C.ar  1 <1>   0.0860 
  9 C        3.4260    -1.8140    -0.9810 C.ar  1 <1>  -0.1500 
 10 C        3.0930    -2.9100    -0.2060 C.ar  1 <1>  -0.1430 
 11 C        1.7800    -3.8790     1.6940 C.2   1 <1>   0.5440 
 12 C        3.7080    -4.2650    -0.5340 C.3   1 <1>  -0.0960 
 13 O        2.1650    -3.9230     2.8470 O.2   1 <1>  -0.5700 
 14 N        0.9630    -4.8970     1.2290 N.am  1 <1>  -0.6600 
 15 C        0.0520    -4.8200     0.0350 C.3   1 <1>   0.2200 
 16 C        1.0630    -6.2380     1.8870 C.3   1 <1>   0.0600 
 17 C       -1.2290    -5.6370     0.2370 C.3   1 <1>  -0.1600 
 18 C       -0.4970    -3.4230    -0.2650 C.3   1 <1>  -0.1600 
 19 C       -2.2410    -5.0840    -0.7730 C.3   1 <1>  -0.0800 
 20 C       -1.7840    -3.6380    -1.0680 C.3   1 <1>  -0.0800 
 21 C       -3.7020    -5.2410    -0.3040 C.3   1 <1>   0.1400 
 22 C       -2.8520    -2.5600    -0.7920 C.3   1 <1>  -0.0990 
 23 N       -4.5650    -4.2900    -1.0360 N.am  1 <1>  -0.7300 
 24 C       -4.2080    -3.0140    -1.2860 C.2   1 <1>   0.5690 
 25 O       -4.9400    -2.2570    -1.8710 O.2   1 <1>  -0.5700 
 26 H       -0.4710     1.6990    -0.3010 H     1 <1>   0.4200 
 27 H       -0.7210     1.4510     1.2850 H     1 <1>   0.4200 
 28 H        1.0700    -1.3680     1.9950 H     1 <1>   0.1500 
 29 H        3.1660     0.2750    -1.3170 H     1 <1>   0.1500 
 30 H        4.1010    -1.9210    -1.8140 H     1 <1>   0.1500 
 31 H        4.5310    -4.1590    -1.2190 H     1 <1>   0.0800 
 32 H        2.9730    -4.9090    -0.9800 H     1 <1>   0.0800 
 33 H        4.0790    -4.7310     0.3620 H     1 <1>   0.0800 
 34 H        0.5700    -5.1910    -0.8330 H     1 <1>   0.0800 
 35 H        1.0830    -7.0160     1.1450 H     1 <1>   0.0800 
 36 H        0.2230    -6.3850     2.5430 H     1 <1>   0.0800 
 37 H        1.9650    -6.3090     2.4700 H     1 <1>   0.0800 
 38 H       -1.0650    -6.6880     0.0820 H     1 <1>   0.0800 
 39 H       -1.5930    -5.4680     1.2370 H     1 <1>   0.0800 
 40 H       -0.7260    -2.9290     0.6630 H     1 <1>   0.0800 
 41 H        0.1940    -2.8330    -0.8380 H     1 <1>   0.0800 
 42 H       -2.1340    -5.6460    -1.6860 H     1 <1>   0.0800 
 43 H       -1.5410    -3.5920    -2.1170 H     1 <1>   0.0800 
 44 H       -3.7820    -5.0270     0.7480 H     1 <1>   0.0800 
 45 H       -4.0390    -6.2490    -0.4750 H     1 <1>   0.0800 
 46 H       -2.5810    -1.6380    -1.2740 H     1 <1>   0.0800 
 47 H       -2.9390    -2.3760     0.2620 H     1 <1>   0.0800 
 48 H       -5.4950    -4.5900    -1.3340 H     1 <1>   0.3700 
@<TRIPOS>BOND
  1   1   2  2   
  2   1   3  2   
  3   1   4  am  
  4   1   5  1   
  5   4  26  1   
  6   4  27  1   
  7   5   6  ar  
  8   5   7  ar  
  9   6   8  ar  
 10   6  28  1   
 11   7   9  ar  
 12   7  29  1   
 13   8  10  ar  
 14   8  11  1   
 15   9  10  ar  
 16   9  30  1   
 17  10  12  1   
 18  11  13  2   
 19  11  14  am  
 20  12  31  1   
 21  12  32  1   
 22  12  33  1   
 23  14  15  1   
 24  14  16  1   
 25  15  17  1   
 26  15  18  1   
 27  15  34  1   
 28  16  35  1   
 29  16  36  1   
 30  16  37  1   
 31  17  19  1   
 32  17  38  1   
 33  17  39  1   
 34  18  20  1   
 35  18  40  1   
 36  18  41  1   
 37  19  20  1   
 38  19  21  1   
 39  19  42  1   
 40  20  22  1   
 41  20  43  1   
 42  21  23  1   
 43  21  44  1   
 44  21  45  1   
 45  22  24  1   
 46  22  46  1   
 47  22  47  1   
 48  23  24  am  
 49  23  48  1   
 50  24  25  2   
@<TRIPOS>SUBSTRUCTURE
  1 ****  18 GROUP 4 **** **** 0

# MOE 2024.06 (io_trps.svl 2023.06)
