@<TRIPOS>MOLECULE
NONAME
42 44 1 0 0 
SMALL
USER_CHARGES


@<TRIPOS>ATOM
  1 F        0.5140     0.3730    -0.8660 F     1 <1>  -0.1900 
  2 C        1.4630     1.1160    -0.3350 C.ar  1 <1>   0.1900 
  3 C        2.6700     0.5660     0.0950 C.ar  1 <1>   0.4100 
  4 C        1.2640     2.4630    -0.2170 C.ar  1 <1>   0.1600 
  5 N        3.5990     1.3550     0.6040 N.ar  1 <1>  -0.6200 
  6 N        2.9690    -0.7900     0.0200 N.pl3 1 <1>  -0.8380 
  7 N        2.1860     3.2550     0.2960 N.ar  1 <1>  -0.6200 
  8 C        3.3000     2.6390     0.6800 C.ar  1 <1>   0.7200 
  9 C        2.0970    -1.7760     0.7240 C.3   1 <1>   0.2090 
 10 C        4.3970    -1.2340    -0.0120 C.3   1 <1>   0.2090 
 11 N        4.2750     3.3980     1.2200 N.pl3 1 <1>  -0.8690 
 12 C        2.3260    -3.1950     0.1730 C.3   1 <1>   0.1200 
 13 C        4.5090    -2.6850    -0.5150 C.3   1 <1>   0.1200 
 14 C        4.5280     4.7860     0.7480 C.3   1 <1>   0.3900 
 15 O        3.6820    -3.5430     0.2250 O.3   1 <1>  -0.5600 
 16 C        6.0220     5.1010     0.6280 C.2   1 <1>   0.3350 
 17 N        6.9770     4.2720     0.8020 N.2   1 <1>  -0.4100 
 18 N        6.4420     6.3220     0.3160 N.2   1 <1>  -0.5650 
 19 O        8.0870     4.9170     0.6130 O.3   1 <1>  -0.0190 
 20 C        7.7040     6.1370     0.3260 C.2   1 <1>   0.2980 
 21 C        8.7890     7.1780     0.0420 C.3   1 <1>   0.1000 
 22 C        9.5320     7.5500     1.3330 C.3   1 <1>  -0.2400 
 23 C        8.2320     8.4480    -0.6200 C.3   1 <1>  -0.2400 
 24 H        0.3380     2.9000    -0.5470 H     1 <1>   0.1500 
 25 H        1.0610    -1.5140     0.6080 H     1 <1>   0.0800 
 26 H        2.3270    -1.7650     1.7760 H     1 <1>   0.0800 
 27 H        4.8170    -1.1640     0.9760 H     1 <1>   0.0800 
 28 H        4.9610    -0.5870    -0.6610 H     1 <1>   0.0800 
 29 H        5.1410     2.8680     1.3300 H     1 <1>   0.4000 
 30 H        1.9930    -3.2570    -0.8480 H     1 <1>   0.0800 
 31 H        1.7810    -3.9120     0.7600 H     1 <1>   0.0800 
 32 H        5.5210    -3.0340    -0.4120 H     1 <1>   0.0800 
 33 H        4.2250    -2.7430    -1.5510 H     1 <1>   0.0800 
 34 H        4.0830     5.4750     1.4420 H     1 <1>   0.0800 
 35 H        4.0740     4.9390    -0.2150 H     1 <1>   0.0800 
 36 H        9.4930     6.7320    -0.6390 H     1 <1>   0.0800 
 37 H        8.8500     7.9870     2.0420 H     1 <1>   0.0800 
 38 H       10.3180     8.2550     1.1270 H     1 <1>   0.0800 
 39 H        9.9680     6.6720     1.7770 H     1 <1>   0.0800 
 40 H        7.5290     8.9350     0.0330 H     1 <1>   0.0800 
 41 H        7.7250     8.1940    -1.5350 H     1 <1>   0.0800 
 42 H        9.0270     9.1350    -0.8490 H     1 <1>   0.0800 
@<TRIPOS>BOND
  1   1   2  1   
  2   2   3  ar  
  3   2   4  ar  
  4   3   5  ar  
  5   3   6  1   
  6   4   7  ar  
  7   4  24  1   
  8   5   8  ar  
  9   6   9  1   
 10   6  10  1   
 11   7   8  ar  
 12   8  11  1   
 13   9  12  1   
 14   9  25  1   
 15   9  26  1   
 16  10  13  1   
 17  10  27  1   
 18  10  28  1   
 19  11  14  1   
 20  11  29  1   
 21  12  15  1   
 22  12  30  1   
 23  12  31  1   
 24  13  15  1   
 25  13  32  1   
 26  13  33  1   
 27  14  16  1   
 28  14  34  1   
 29  14  35  1   
 30  16  17  2   
 31  16  18  1   
 32  17  19  1   
 33  18  20  2   
 34  19  20  1   
 35  20  21  1   
 36  21  22  1   
 37  21  23  1   
 38  21  36  1   
 39  22  37  1   
 40  22  38  1   
 41  22  39  1   
 42  23  40  1   
 43  23  41  1   
 44  23  42  1   
@<TRIPOS>SUBSTRUCTURE
  1 ****   8 GROUP 4 **** **** 0

# MOE 2024.06 (io_trps.svl 2023.06)
