@<TRIPOS>MOLECULE
NONAME
52 55 1 0 0 
SMALL
USER_CHARGES


@<TRIPOS>ATOM
  1 O        1.6040    -0.1150     1.6920 O.2   1 <1>  -0.5700 
  2 C        1.5020    -1.1340     1.0290 C.2   1 <1>   0.5440 
  3 N        2.5830    -1.7980     0.4870 N.am  1 <1>  -0.4770 
  4 C        0.2890    -1.7860     0.6260 C.ar  1 <1>   0.0860 
  5 C        2.0980    -2.8240    -0.3400 C.ar  1 <1>   0.1170 
  6 C        3.9830    -1.3330     0.7430 C.3   1 <1>   0.2810 
  7 C        0.7080    -2.8080    -0.2190 C.ar  1 <1>   0.0000 
  8 C       -1.0610    -1.6360     0.8580 C.ar  1 <1>  -0.1500 
  9 C        2.6610    -3.7540    -1.1850 C.ar  1 <1>  -0.1500 
 10 C        4.3590    -0.1580    -0.1810 C.2   1 <1>   0.5690 
 11 C        4.9940    -2.4910     0.7610 C.3   1 <1>  -0.2400 
 12 C       -0.1540    -3.6880    -0.8690 C.ar  1 <1>   0.0000 
 13 C       -1.9660    -2.5100     0.2350 C.ar  1 <1>  -0.1500 
 14 C        1.8310    -4.6620    -1.8630 C.ar  1 <1>  -0.1500 
 15 O        5.2740    -0.2500    -0.9680 O.2   1 <1>  -0.5700 
 16 N        3.6460     0.9970    -0.0720 N.am  1 <1>  -0.7300 
 17 C        0.4620    -4.6360    -1.7090 C.ar  1 <1>  -0.1500 
 18 C       -1.5280    -3.5090    -0.6060 C.ar  1 <1>  -0.1500 
 19 C        3.8270     2.1830    -0.9240 C.3   1 <1>   0.1400 
 20 C        4.9360     3.0470    -0.3260 C.3   1 <1>  -0.1600 
 21 C        5.2210     4.2640    -1.2060 C.3   1 <1>   0.3540 
 22 N        6.3580     5.0340    -0.6440 N.pl3 1 <1>  -0.4570 
 23 N        7.6310     4.7600    -1.0290 N.2   1 <1>  -0.2600 
 24 C        6.3550     6.0130     0.2420 C.cat 1 <1>   0.6560 
 25 C        8.3520     5.5840    -0.3580 C.2   1 <1>   0.4850 
 26 N        7.5970     6.3790     0.4390 N.pl3 1 <1>  -0.7000 
 27 C        5.1490     6.6190     0.9220 C.3   1 <1>  -0.0960 
 28 C        9.8590     5.6890    -0.4200 C.3   1 <1>  -0.0720 
 29 H        3.9910    -0.9290     1.7390 H     1 <1>   0.0800 
 30 H       -1.4170    -0.8560     1.5090 H     1 <1>   0.1500 
 31 H        3.7190    -3.8050    -1.3470 H     1 <1>   0.1500 
 32 H        5.2430    -2.8000    -0.2350 H     1 <1>   0.0800 
 33 H        4.6090    -3.3210     1.3250 H     1 <1>   0.0800 
 34 H        5.9030    -2.1540     1.2240 H     1 <1>   0.0800 
 35 H       -3.0190    -2.3850     0.4250 H     1 <1>   0.1500 
 36 H        2.2870    -5.3870    -2.5160 H     1 <1>   0.1500 
 37 H        2.8410     0.9960     0.5770 H     1 <1>   0.3700 
 38 H       -0.1610    -5.3390    -2.2330 H     1 <1>   0.1500 
 39 H       -2.2300    -4.1720    -1.0810 H     1 <1>   0.1500 
 40 H        2.8980     2.7260    -0.9790 H     1 <1>   0.0800 
 41 H        4.0990     1.8620    -1.9170 H     1 <1>   0.0800 
 42 H        5.8330     2.4540    -0.2580 H     1 <1>   0.0800 
 43 H        4.6460     3.3640     0.6590 H     1 <1>   0.0800 
 44 H        4.3490     4.8920    -1.2690 H     1 <1>   0.0800 
 45 H        5.4780     3.9410    -2.2010 H     1 <1>   0.0800 
 46 H        7.9490     7.1070     1.0600 H     1 <1>   0.4500 
 47 H        4.5970     5.8550     1.4380 H     1 <1>   0.0800 
 48 H        4.5130     7.0840     0.1920 H     1 <1>   0.0800 
 49 H        5.4550     7.3620     1.6360 H     1 <1>   0.0800 
 50 H       10.2490     4.9610    -1.1100 H     1 <1>   0.0800 
 51 H       10.2810     5.5040     0.5500 H     1 <1>   0.0800 
 52 H       10.1460     6.6690    -0.7540 H     1 <1>   0.0800 
@<TRIPOS>BOND
  1   1   2  2   
  2   2   3  am  
  3   2   4  1   
  4   3   5  1   
  5   3   6  1   
  6   4   7  ar  
  7   4   8  ar  
  8   5   7  ar  
  9   5   9  ar  
 10   6  10  1   
 11   6  11  1   
 12   6  29  1   
 13   7  12  ar  
 14   8  13  ar  
 15   8  30  1   
 16   9  14  ar  
 17   9  31  1   
 18  10  15  2   
 19  10  16  am  
 20  11  32  1   
 21  11  33  1   
 22  11  34  1   
 23  12  17  ar  
 24  12  18  ar  
 25  13  18  ar  
 26  13  35  1   
 27  14  17  ar  
 28  14  36  1   
 29  16  19  1   
 30  16  37  1   
 31  17  38  1   
 32  18  39  1   
 33  19  20  1   
 34  19  40  1   
 35  19  41  1   
 36  20  21  1   
 37  20  42  1   
 38  20  43  1   
 39  21  22  1   
 40  21  44  1   
 41  21  45  1   
 42  22  23  1   
 43  22  24  ar  
 44  23  25  2   
 45  24  26  ar  
 46  24  27  1   
 47  25  26  1   
 48  25  28  1   
 49  26  46  1   
 50  27  47  1   
 51  27  48  1   
 52  27  49  1   
 53  28  50  1   
 54  28  51  1   
 55  28  52  1   
@<TRIPOS>SUBSTRUCTURE
  1 ****  16 GROUP 4 **** **** 0

# MOE 2024.06 (io_trps.svl 2023.06)
