@<TRIPOS>MOLECULE
NONAME
45 46 1 0 0 
SMALL
USER_CHARGES


@<TRIPOS>ATOM
  1 N       -0.4140     1.4530     3.3560 N.1   1 <1>  -0.5570 
  2 C       -1.2580     1.7780     2.6580 C.1   1 <1>   0.4840 
  3 C       -2.3550     2.1200     1.8070 C.ar  1 <1>   0.0730 
  4 C       -2.2820     3.2180     0.9410 C.ar  1 <1>   0.4100 
  5 C       -3.5130     1.3670     1.8150 C.ar  1 <1>  -0.1500 
  6 N       -3.2590     3.5720     0.1120 N.ar  1 <1>  -0.6200 
  7 N       -1.1590     4.0150     0.8890 N.pl3 1 <1>  -0.8380 
  8 C       -4.5290     1.7410     0.9610 C.ar  1 <1>  -0.1500 
  9 C       -4.3600     2.8400     0.1330 C.ar  1 <1>   0.1670 
 10 C       -0.4500     4.0200    -0.4170 C.3   1 <1>   0.3900 
 11 C       -1.2600     5.3520     1.5260 C.3   1 <1>   0.2090 
 12 C       -5.4760     3.2670    -0.8240 C.3   1 <1>   0.0640 
 13 C        1.0180     4.3480    -0.2200 C.2   1 <1>  -0.1810 
 14 C       -0.5510     5.3130     2.8750 C.3   1 <1>  -0.2400 
 15 C       -6.7490     3.6630    -0.0650 C.3   1 <1>  -0.2400 
 16 C       -5.7790     2.1740    -1.8580 C.3   1 <1>  -0.2400 
 17 C        1.8820     3.7080     0.6600 C.2   1 <1>   0.1390 
 18 C        1.7810     5.2850    -0.8240 C.2   1 <1>  -0.3020 
 19 N        3.0850     4.1970     0.6090 N.2   1 <1>  -0.7070 
 20 N        3.0220     5.1750    -0.3100 N.pl3 1 <1>   0.3140 
 21 C        4.2000     5.9940    -0.6590 C.3   1 <1>   0.0960 
 22 C        4.8280     5.5300    -1.9790 C.3   1 <1>  -0.2400 
 23 H       -3.6210     0.5150     2.4650 H     1 <1>   0.1500 
 24 H       -5.4450     1.1800     0.9390 H     1 <1>   0.1500 
 25 H       -0.9060     4.7430    -1.0720 H     1 <1>   0.0800 
 26 H       -0.5350     3.0510    -0.8780 H     1 <1>   0.0800 
 27 H       -2.2960     5.6150     1.6670 H     1 <1>   0.0800 
 28 H       -0.8080     6.1040     0.9010 H     1 <1>   0.0800 
 29 H       -5.1350     4.1370    -1.3620 H     1 <1>   0.0800 
 30 H       -1.0200     4.5980     3.5250 H     1 <1>   0.0800 
 31 H       -0.6010     6.2810     3.3380 H     1 <1>   0.0800 
 32 H        0.4830     5.0510     2.7430 H     1 <1>   0.0800 
 33 H       -7.1670     2.8210     0.4560 H     1 <1>   0.0800 
 34 H       -7.4850     4.0450    -0.7490 H     1 <1>   0.0800 
 35 H       -6.5200     4.4320     0.6520 H     1 <1>   0.0800 
 36 H       -6.1710     1.2920    -1.3850 H     1 <1>   0.0800 
 37 H       -4.8780     1.9120    -2.3840 H     1 <1>   0.0800 
 38 H       -6.4990     2.5300    -2.5730 H     1 <1>   0.0800 
 39 H        1.5910     2.9030     1.3160 H     1 <1>   0.1500 
 40 H        1.5190     6.0080    -1.5740 H     1 <1>   0.1500 
 41 H        4.9150     5.9050     0.1390 H     1 <1>   0.0800 
 42 H        3.8920     7.0210    -0.7300 H     1 <1>   0.0800 
 43 H        5.1340     4.5010    -1.8970 H     1 <1>   0.0800 
 44 H        5.6930     6.1280    -2.2020 H     1 <1>   0.0800 
 45 H        4.1230     5.6290    -2.7860 H     1 <1>   0.0800 
@<TRIPOS>BOND
  1   1   2  3   
  2   2   3  1   
  3   3   4  ar  
  4   3   5  ar  
  5   4   6  ar  
  6   4   7  1   
  7   5   8  ar  
  8   5  23  1   
  9   6   9  ar  
 10   7  10  1   
 11   7  11  1   
 12   8   9  ar  
 13   8  24  1   
 14   9  12  1   
 15  10  13  1   
 16  10  25  1   
 17  10  26  1   
 18  11  14  1   
 19  11  27  1   
 20  11  28  1   
 21  12  15  1   
 22  12  16  1   
 23  12  29  1   
 24  13  17  1   
 25  13  18  2   
 26  14  30  1   
 27  14  31  1   
 28  14  32  1   
 29  15  33  1   
 30  15  34  1   
 31  15  35  1   
 32  16  36  1   
 33  16  37  1   
 34  16  38  1   
 35  17  19  2   
 36  17  39  1   
 37  18  20  1   
 38  18  40  1   
 39  19  20  1   
 40  20  21  1   
 41  21  22  1   
 42  21  41  1   
 43  21  42  1   
 44  22  43  1   
 45  22  44  1   
 46  22  45  1   
@<TRIPOS>SUBSTRUCTURE
  1 ****   7 GROUP 4 **** **** 0

# MOE 2024.06 (io_trps.svl 2023.06)
