@<TRIPOS>MOLECULE
NONAME
47 48 1 0 0 
SMALL
USER_CHARGES


@<TRIPOS>ATOM
  1 S        0.2090     0.7070    -0.7310 S.o2  1 <1>   1.3330 
  2 O        0.0350    -0.7230    -0.8460 O.2   1 <1>  -0.6500 
  3 O        0.0830     1.5390    -1.9060 O.2   1 <1>  -0.6500 
  4 N       -0.8850     1.2730     0.4360 N.am  1 <1>  -0.8490 
  5 C        1.8010     1.0870    -0.0020 C.3   1 <1>  -0.0550 
  6 C       -1.0880     0.3290     1.5420 C.3   1 <1>   0.1160 
  7 C       -2.1790     1.6300    -0.1510 C.3   1 <1>   0.1160 
  8 C        2.9970     0.6310    -0.8740 C.3   1 <1>  -0.0800 
  9 C        4.3440     1.2060    -0.4490 C.3   1 <1>   0.2200 
 10 C        3.2630    -0.8540    -0.6450 C.3   1 <1>   0.1200 
 11 N        4.2740     2.6260    -0.0200 N.am  1 <1>  -0.7300 
 12 C        4.7960     0.2420     0.6540 C.3   1 <1>   0.1200 
 13 O        3.9930    -0.8990     0.5380 O.3   1 <1>  -0.5600 
 14 C        5.3060     3.3150     0.5270 C.2   1 <1>   0.5690 
 15 O        6.3700     2.8000     0.7630 O.2   1 <1>  -0.5700 
 16 C        5.1190     4.7840     0.8300 C.3   1 <1>  -0.0990 
 17 C        5.7340     5.6550    -0.2700 C.3   1 <1>  -0.0170 
 18 C        5.5030     7.1270     0.0290 C.ar  1 <1>  -0.1440 
 19 C        4.4110     7.7900    -0.5180 C.ar  1 <1>  -0.1500 
 20 C        6.3870     7.8110     0.8550 C.ar  1 <1>  -0.1500 
 21 C        4.1980     9.1300    -0.2430 C.ar  1 <1>  -0.1500 
 22 C        6.1840     9.1520     1.1380 C.ar  1 <1>  -0.1500 
 23 C        5.0910     9.7860     0.5810 C.ar  1 <1>   0.1900 
 24 F        4.8940    11.0510     0.8440 F     1 <1>  -0.1900 
 25 H        1.8310     2.1470     0.1390 H     1 <1>   0.0800 
 26 H        1.8760     0.6340     0.9680 H     1 <1>   0.0800 
 27 H       -1.7230     0.7700     2.2920 H     1 <1>   0.0800 
 28 H       -0.1460     0.0810     2.0000 H     1 <1>   0.0800 
 29 H       -1.5470    -0.5780     1.1850 H     1 <1>   0.0800 
 30 H       -2.8460     1.9990     0.6090 H     1 <1>   0.0800 
 31 H       -2.6240     0.7720    -0.6280 H     1 <1>   0.0800 
 32 H       -2.0490     2.4060    -0.8880 H     1 <1>   0.0800 
 33 H        2.8060     0.8320    -1.9150 H     1 <1>   0.0800 
 34 H        5.0430     1.1290    -1.2660 H     1 <1>   0.0800 
 35 H        3.8770    -1.2660    -1.4290 H     1 <1>   0.0800 
 36 H        2.3750    -1.4520    -0.5340 H     1 <1>   0.0800 
 37 H        3.4380     3.1340    -0.3070 H     1 <1>   0.3700 
 38 H        4.6430     0.6570     1.6340 H     1 <1>   0.0800 
 39 H        5.8260    -0.0430     0.5270 H     1 <1>   0.0800 
 40 H        4.0720     5.0050     0.9300 H     1 <1>   0.0800 
 41 H        5.5950     5.0020     1.7690 H     1 <1>   0.0800 
 42 H        5.2980     5.4040    -1.2220 H     1 <1>   0.0800 
 43 H        6.7910     5.4590    -0.3350 H     1 <1>   0.0800 
 44 H        3.7230     7.2670    -1.1600 H     1 <1>   0.1500 
 45 H        7.2340     7.3010     1.2820 H     1 <1>   0.1500 
 46 H        3.3590     9.6590    -0.6580 H     1 <1>   0.1500 
 47 H        6.8570     9.6960     1.7750 H     1 <1>   0.1500 
@<TRIPOS>BOND
  1   1   2  2   
  2   1   3  2   
  3   1   4  am  
  4   1   5  1   
  5   4   6  1   
  6   4   7  1   
  7   5   8  1   
  8   5  25  1   
  9   5  26  1   
 10   6  27  1   
 11   6  28  1   
 12   6  29  1   
 13   7  30  1   
 14   7  31  1   
 15   7  32  1   
 16   8   9  1   
 17   8  10  1   
 18   8  33  1   
 19   9  11  1   
 20   9  12  1   
 21   9  34  1   
 22  10  13  1   
 23  10  35  1   
 24  10  36  1   
 25  11  14  am  
 26  11  37  1   
 27  12  13  1   
 28  12  38  1   
 29  12  39  1   
 30  14  15  2   
 31  14  16  1   
 32  16  17  1   
 33  16  40  1   
 34  16  41  1   
 35  17  18  1   
 36  17  42  1   
 37  17  43  1   
 38  18  19  ar  
 39  18  20  ar  
 40  19  21  ar  
 41  19  44  1   
 42  20  22  ar  
 43  20  45  1   
 44  21  23  ar  
 45  21  46  1   
 46  22  23  ar  
 47  22  47  1   
 48  23  24  1   
@<TRIPOS>SUBSTRUCTURE
  1 ****  11 GROUP 4 **** **** 0

# MOE 2024.06 (io_trps.svl 2023.06)
