@<TRIPOS>MOLECULE
NONAME
49 52 1 0 0 
SMALL
USER_CHARGES


@<TRIPOS>ATOM
  1 O       -1.7790     1.3600     1.8980 O.2   1 <1>  -0.5700 
  2 C       -1.9480     1.1330     0.7120 C.2   1 <1>   0.7160 
  3 N       -2.2220    -0.1520     0.3180 N.am  1 <1>  -0.6600 
  4 C       -1.8390     2.1810    -0.2460 C.2   1 <1>  -0.0860 
  5 C       -2.3430    -1.2960     1.2540 C.3   1 <1>   0.1400 
  6 C       -2.6590    -0.5390    -1.0450 C.3   1 <1>   0.1400 
  7 C       -2.9040     2.8980    -0.7990 C.2   1 <1>   0.3720 
  8 C       -0.7470     2.6780    -0.8810 C.2   1 <1>   0.0870 
  9 C       -2.4530    -2.5180     0.3440 C.3   1 <1>   0.2000 
 10 C       -3.1460    -1.9820    -0.9040 C.3   1 <1>  -0.1600 
 11 N       -2.4790     3.7310    -1.6850 N.2   1 <1>  -0.4100 
 12 N       -4.2520     2.7160    -0.4480 N.pl3 1 <1>  -0.8210 
 13 O       -1.1800     3.5870    -1.7160 O.3   1 <1>  -0.0190 
 14 C        0.6560     2.3600    -0.7980 C.ar  1 <1>   0.0530 
 15 O       -1.1780    -2.9130    -0.0200 O.3   1 <1>  -0.6800 
 16 C       -5.2940     3.4070    -1.2620 C.3   1 <1>   0.2090 
 17 C       -4.5560     2.9210     0.9950 C.3   1 <1>   0.2090 
 18 C        1.4820     2.4820    -1.9160 C.ar  1 <1>  -0.1500 
 19 C        1.2450     1.9160     0.3870 C.ar  1 <1>  -0.1500 
 20 C       -6.0540     4.2940    -0.2870 C.3   1 <1>  -0.1600 
 21 C       -5.9310     3.5710     1.0460 C.3   1 <1>  -0.1600 
 22 C        2.8250     2.1620    -1.8580 C.ar  1 <1>  -0.1500 
 23 C        2.5870     1.5910     0.4530 C.ar  1 <1>  -0.1500 
 24 C        3.3900     1.7100    -0.6770 C.ar  1 <1>   0.0830 
 25 O        4.7100     1.4120    -0.7020 O.3   1 <1>  -0.3630 
 26 C        5.3820     0.9420     0.4450 C.3   1 <1>   0.0400 
 27 H       -1.4960    -1.3590     1.9170 H     1 <1>   0.0800 
 28 H       -3.2430    -1.1800     1.8310 H     1 <1>   0.0800 
 29 H       -3.4460     0.1080    -1.3960 H     1 <1>   0.0800 
 30 H       -1.8190    -0.4860    -1.7170 H     1 <1>   0.0800 
 31 H       -2.9570    -3.3530     0.8010 H     1 <1>   0.0800 
 32 H       -2.9430    -2.5750    -1.7780 H     1 <1>   0.0800 
 33 H       -4.2080    -1.9690    -0.7390 H     1 <1>   0.0800 
 34 H       -0.6730    -2.1240    -0.2980 H     1 <1>   0.4000 
 35 H       -4.8840     3.9870    -2.0710 H     1 <1>   0.0800 
 36 H       -5.9540     2.6620    -1.6720 H     1 <1>   0.0800 
 37 H       -4.5520     1.9810     1.5220 H     1 <1>   0.0800 
 38 H       -3.8210     3.5760     1.4340 H     1 <1>   0.0800 
 39 H        1.0640     2.8300    -2.8450 H     1 <1>   0.1500 
 40 H        0.6480     1.8280     1.2770 H     1 <1>   0.1500 
 41 H       -5.5620     5.2500    -0.2340 H     1 <1>   0.0800 
 42 H       -7.0760     4.4380    -0.5880 H     1 <1>   0.0800 
 43 H       -6.6790     2.8010     1.1180 H     1 <1>   0.0800 
 44 H       -6.0270     4.2360     1.8860 H     1 <1>   0.0800 
 45 H        3.4470     2.2590    -2.7300 H     1 <1>   0.1500 
 46 H        2.9900     1.2520     1.3880 H     1 <1>   0.1500 
 47 H        6.4100     0.7700     0.1820 H     1 <1>   0.0800 
 48 H        4.9280     0.0200     0.7630 H     1 <1>   0.0800 
 49 H        5.3220     1.6890     1.2160 H     1 <1>   0.0800 
@<TRIPOS>BOND
  1   1   2  2   
  2   2   3  am  
  3   2   4  1   
  4   3   5  1   
  5   3   6  1   
  6   4   7  1   
  7   4   8  2   
  8   5   9  1   
  9   5  27  1   
 10   5  28  1   
 11   6  10  1   
 12   6  29  1   
 13   6  30  1   
 14   7  11  2   
 15   7  12  1   
 16   8  13  1   
 17   8  14  1   
 18   9  10  1   
 19   9  15  1   
 20   9  31  1   
 21  10  32  1   
 22  10  33  1   
 23  11  13  1   
 24  12  16  1   
 25  12  17  1   
 26  14  18  ar  
 27  14  19  ar  
 28  15  34  1   
 29  16  20  1   
 30  16  35  1   
 31  16  36  1   
 32  17  21  1   
 33  17  37  1   
 34  17  38  1   
 35  18  22  ar  
 36  18  39  1   
 37  19  23  ar  
 38  19  40  1   
 39  20  21  1   
 40  20  41  1   
 41  20  42  1   
 42  21  43  1   
 43  21  44  1   
 44  22  24  ar  
 45  22  45  1   
 46  23  24  ar  
 47  23  46  1   
 48  24  25  1   
 49  25  26  1   
 50  26  47  1   
 51  26  48  1   
 52  26  49  1   
@<TRIPOS>SUBSTRUCTURE
  1 ****   4 GROUP 4 **** **** 0

# MOE 2024.06 (io_trps.svl 2023.06)
