@<TRIPOS>MOLECULE
NONAME
49 52 1 0 0 
SMALL
USER_CHARGES


@<TRIPOS>ATOM
  1 O        0.7220    -0.4260    -1.0150 O.3   1 <1>  -0.5600 
  2 C        1.8260    -0.9260    -0.2890 C.3   1 <1>   0.4240 
  3 C       -0.5510    -0.7730    -0.5830 C.3   1 <1>   0.1200 
  4 C        1.5900    -2.4000     0.1580 C.ar  1 <1>  -0.1440 
  5 C        2.9990    -0.8120    -1.2740 C.3   1 <1>  -0.1600 
  6 C        2.0510     0.0240     0.9020 C.3   1 <1>  -0.1600 
  7 C       -0.7350    -2.2640    -0.8190 C.3   1 <1>  -0.0160 
  8 C        2.5660    -3.1410     0.8390 C.ar  1 <1>   0.0820 
  9 C        0.3720    -3.0230    -0.1170 C.ar  1 <1>  -0.1440 
 10 C        3.2510     0.6340    -1.7070 C.3   1 <1>   0.2090 
 11 C        2.2800     1.4640     0.4460 C.3   1 <1>   0.2090 
 12 O        3.7480    -2.5470     1.1450 O.3   1 <1>  -0.3630 
 13 C        2.3200    -4.4630     1.2030 C.ar  1 <1>  -0.1500 
 14 C        0.1400    -4.3390     0.2470 C.ar  1 <1>  -0.1500 
 15 N        3.4140     1.5160    -0.5160 N.pl3 1 <1>  -0.8380 
 16 C        4.8610    -3.2570     1.6380 C.3   1 <1>   0.0400 
 17 C        1.1130    -5.0610     0.9050 C.ar  1 <1>  -0.1500 
 18 C        4.6800     1.8880    -0.0870 C.ar  1 <1>   0.4100 
 19 N        5.5940     0.9200    -0.0970 N.ar  1 <1>  -0.6200 
 20 C        4.9590     3.2010     0.3220 C.ar  1 <1>   0.0730 
 21 C        6.8050     1.2310     0.3150 C.ar  1 <1>   0.1670 
 22 C        3.9550     4.2190     0.2950 C.1   1 <1>   0.4840 
 23 C        6.2380     3.5030     0.7510 C.ar  1 <1>  -0.1500 
 24 C        7.1750     2.4920     0.7460 C.ar  1 <1>  -0.1500 
 25 C        7.8140     0.1030     0.2960 C.3   1 <1>  -0.0970 
 26 N        3.1800     5.0580     0.3180 N.1   1 <1>  -0.5570 
 27 H       -1.2620    -0.2070    -1.1590 H     1 <1>   0.0800 
 28 H       -0.6570    -0.5250     0.4580 H     1 <1>   0.0800 
 29 H        2.7960    -1.4200    -2.1350 H     1 <1>   0.0800 
 30 H        3.9040    -1.1770    -0.8340 H     1 <1>   0.0800 
 31 H        2.9180    -0.2770     1.4550 H     1 <1>   0.0800 
 32 H        1.2180    -0.0240     1.5750 H     1 <1>   0.0800 
 33 H       -0.7040    -2.4670    -1.8740 H     1 <1>   0.0800 
 34 H       -1.6940    -2.5650    -0.4410 H     1 <1>   0.0800 
 35 H        2.4220     0.9910    -2.2940 H     1 <1>   0.0800 
 36 H        4.1360     0.6800    -2.3180 H     1 <1>   0.0800 
 37 H        2.4920     2.0770     1.3040 H     1 <1>   0.0800 
 38 H        1.3960     1.8500    -0.0320 H     1 <1>   0.0800 
 39 H        3.0540    -5.0450     1.7240 H     1 <1>   0.1500 
 40 H       -0.8020    -4.8070     0.0200 H     1 <1>   0.1500 
 41 H        5.6870    -2.5720     1.7020 H     1 <1>   0.0800 
 42 H        5.0970    -4.0530     0.9540 H     1 <1>   0.0800 
 43 H        4.6260    -3.6400     2.6150 H     1 <1>   0.0800 
 44 H        0.9300    -6.0830     1.1870 H     1 <1>   0.1500 
 45 H        6.4970     4.4960     1.0770 H     1 <1>   0.1500 
 46 H        8.1810     2.6860     1.0730 H     1 <1>   0.1500 
 47 H        7.4720    -0.6920     0.9330 H     1 <1>   0.0800 
 48 H        8.7770     0.4340     0.6350 H     1 <1>   0.0800 
 49 H        7.9070    -0.2750    -0.7060 H     1 <1>   0.0800 
@<TRIPOS>BOND
  1   1   2  1   
  2   1   3  1   
  3   2   4  1   
  4   2   5  1   
  5   2   6  1   
  6   3   7  1   
  7   3  27  1   
  8   3  28  1   
  9   4   8  ar  
 10   4   9  ar  
 11   5  10  1   
 12   5  29  1   
 13   5  30  1   
 14   6  11  1   
 15   6  31  1   
 16   6  32  1   
 17   7   9  1   
 18   7  33  1   
 19   7  34  1   
 20   8  12  1   
 21   8  13  ar  
 22   9  14  ar  
 23  10  15  1   
 24  10  35  1   
 25  10  36  1   
 26  11  15  1   
 27  11  37  1   
 28  11  38  1   
 29  12  16  1   
 30  13  17  ar  
 31  13  39  1   
 32  14  17  ar  
 33  14  40  1   
 34  15  18  1   
 35  16  41  1   
 36  16  42  1   
 37  16  43  1   
 38  17  44  1   
 39  18  19  ar  
 40  18  20  ar  
 41  19  21  ar  
 42  20  22  1   
 43  20  23  ar  
 44  21  24  ar  
 45  21  25  1   
 46  22  26  3   
 47  23  24  ar  
 48  23  45  1   
 49  24  46  1   
 50  25  47  1   
 51  25  48  1   
 52  25  49  1   
@<TRIPOS>SUBSTRUCTURE
  1 ****   6 GROUP 4 **** **** 0

# MOE 2024.06 (io_trps.svl 2023.06)
