@<TRIPOS>MOLECULE
NONAME
60 63 1 0 0 
SMALL
USER_CHARGES


@<TRIPOS>ATOM
  1 O       -1.2200     0.3480     0.2970 O.2   1 <1>  -0.5700 
  2 C       -1.9070     1.0570    -0.4190 C.2   1 <1>   0.5440 
  3 N       -3.0060     0.4710    -1.0120 N.am  1 <1>  -0.6600 
  4 C       -1.5920     2.4640    -0.5910 C.ar  1 <1>   0.0860 
  5 C       -3.0690    -1.0100    -1.1060 C.3   1 <1>   0.1400 
  6 C       -4.3430     1.1200    -0.9320 C.3   1 <1>   0.1400 
  7 C       -1.8550     3.1340    -1.7880 C.ar  1 <1>  -0.1500 
  8 C       -1.0100     3.2010     0.4420 C.ar  1 <1>  -0.1500 
  9 C       -3.7440    -1.5550     0.1730 C.3   1 <1>   0.4230 
 10 C       -5.0530     0.5970     0.3250 C.3   1 <1>  -0.1600 
 11 C       -1.5660     4.4770    -1.9420 C.ar  1 <1>  -0.1500 
 12 C       -0.7180     4.5450     0.2980 C.ar  1 <1>  -0.1500 
 13 N       -3.6770    -3.0690     0.3120 N.4   1 <1>  -0.9590 
 14 C       -5.1680    -0.9560     0.3820 C.3   1 <1>   0.0000 
 15 C       -0.9920     5.1900    -0.9020 C.ar  1 <1>   0.0820 
 16 C       -4.6540    -3.6370     1.2960 C.3   1 <1>   0.3430 
 17 C       -3.7310    -3.8410    -0.9720 C.3   1 <1>   0.2630 
 18 C       -5.6960    -1.3660     1.7890 C.3   1 <1>  -0.1600 
 19 C       -6.1310    -1.4660    -0.7280 C.3   1 <1>   0.1200 
 20 O       -0.7330     6.5040    -1.0970 O.3   1 <1>  -0.1650 
 21 C       -5.0050    -2.6130     2.3740 C.3   1 <1>  -0.1600 
 22 O       -7.3460    -0.8020    -0.7000 O.3   1 <1>  -0.6800 
 23 C        0.2990     7.1370    -0.4850 C.ar  1 <1>   0.0820 
 24 C        0.0790     8.4000     0.0410 C.ar  1 <1>  -0.1500 
 25 C        1.5580     6.5570    -0.3950 C.ar  1 <1>  -0.1500 
 26 C        1.1050     9.0840     0.6730 C.ar  1 <1>  -0.1440 
 27 C        2.5840     7.2370     0.2370 C.ar  1 <1>  -0.1500 
 28 C        2.3560     8.4950     0.7700 C.ar  1 <1>  -0.1500 
 29 C        0.8690    10.4650     1.2570 C.3   1 <1>  -0.0970 
 30 H       -3.6130    -1.2790    -1.9920 H     1 <1>   0.0800 
 31 H       -2.0700    -1.4020    -1.1870 H     1 <1>   0.0800 
 32 H       -4.2420     2.1900    -0.8680 H     1 <1>   0.0800 
 33 H       -4.9140     0.8930    -1.8170 H     1 <1>   0.0800 
 34 H       -2.2900     2.5930    -2.6100 H     1 <1>   0.1500 
 35 H       -0.7860     2.7080     1.3730 H     1 <1>   0.1500 
 36 H       -3.1520    -1.1560     0.9820 H     1 <1>   0.0800 
 37 H       -4.4950     0.9520     1.1750 H     1 <1>   0.0800 
 38 H       -6.0250     1.0550     0.3870 H     1 <1>   0.0800 
 39 H       -1.7790     4.9800    -2.8690 H     1 <1>   0.1500 
 40 H       -0.2820     5.0890     1.1170 H     1 <1>   0.1500 
 41 H       -2.7420    -3.2350     0.7170 H     1 <1>   0.4500 
 42 H       -5.5620    -3.9190     0.7870 H     1 <1>   0.0800 
 43 H       -4.2410    -4.5220     1.7530 H     1 <1>   0.0800 
 44 H       -4.6690    -3.6720    -1.4750 H     1 <1>   0.0800 
 45 H       -3.6320    -4.8970    -0.7780 H     1 <1>   0.0800 
 46 H       -2.9290    -3.5430    -1.6280 H     1 <1>   0.0800 
 47 H       -5.5560    -0.5640     2.4950 H     1 <1>   0.0800 
 48 H       -6.7570    -1.5420     1.7490 H     1 <1>   0.0800 
 49 H       -6.3380    -2.5160    -0.6200 H     1 <1>   0.0800 
 50 H       -5.7240    -1.3010    -1.7090 H     1 <1>   0.0800 
 51 H       -5.6570    -3.0700     3.0990 H     1 <1>   0.0800 
 52 H       -4.1060    -2.3290     2.8960 H     1 <1>   0.0800 
 53 H       -7.8260    -0.9410     0.1410 H     1 <1>   0.4000 
 54 H       -0.8990     8.8370    -0.0460 H     1 <1>   0.1500 
 55 H        1.7360     5.5840    -0.8170 H     1 <1>   0.1500 
 56 H        3.5600     6.7900     0.3130 H     1 <1>   0.1500 
 57 H        3.1600     9.0160     1.2610 H     1 <1>   0.1500 
 58 H        1.6920    11.1140     1.0180 H     1 <1>   0.0800 
 59 H        0.7780    10.3960     2.3260 H     1 <1>   0.0800 
 60 H       -0.0310    10.8980     0.8600 H     1 <1>   0.0800 
@<TRIPOS>BOND
  1   1   2  2   
  2   2   3  am  
  3   2   4  1   
  4   3   5  1   
  5   3   6  1   
  6   4   7  ar  
  7   4   8  ar  
  8   5   9  1   
  9   5  30  1   
 10   5  31  1   
 11   6  10  1   
 12   6  32  1   
 13   6  33  1   
 14   7  11  ar  
 15   7  34  1   
 16   8  12  ar  
 17   8  35  1   
 18   9  13  1   
 19   9  14  1   
 20   9  36  1   
 21  10  14  1   
 22  10  37  1   
 23  10  38  1   
 24  11  15  ar  
 25  11  39  1   
 26  12  15  ar  
 27  12  40  1   
 28  13  16  1   
 29  13  17  1   
 30  13  41  1   
 31  14  18  1   
 32  14  19  1   
 33  15  20  1   
 34  16  21  1   
 35  16  42  1   
 36  16  43  1   
 37  17  44  1   
 38  17  45  1   
 39  17  46  1   
 40  18  21  1   
 41  18  47  1   
 42  18  48  1   
 43  19  22  1   
 44  19  49  1   
 45  19  50  1   
 46  20  23  1   
 47  21  51  1   
 48  21  52  1   
 49  22  53  1   
 50  23  24  ar  
 51  23  25  ar  
 52  24  26  ar  
 53  24  54  1   
 54  25  27  ar  
 55  25  55  1   
 56  26  28  ar  
 57  26  29  1   
 58  27  28  ar  
 59  27  56  1   
 60  28  57  1   
 61  29  58  1   
 62  29  59  1   
 63  29  60  1   
@<TRIPOS>SUBSTRUCTURE
  1 ****   4 GROUP 4 **** **** 0

# MOE 2024.06 (io_trps.svl 2023.06)
