@<TRIPOS>MOLECULE
NONAME
52 55 1 0 0 
SMALL
USER_CHARGES


@<TRIPOS>ATOM
  1 S       -0.7730    -2.8780    -1.4930 S.3   1 <1>  -0.0800 
  2 C       -1.9010    -4.2160    -1.6620 C.2   1 <1>  -0.1400 
  3 C       -1.8020    -1.8320    -2.4530 C.2   1 <1>  -0.1100 
  4 C       -2.9610    -3.8470    -2.4050 C.2   1 <1>  -0.1500 
  5 C       -1.5230    -5.5180    -0.9850 C.3   1 <1>   0.5230 
  6 C       -2.9060    -2.4890    -2.8540 C.2   1 <1>  -0.1500 
  7 N       -2.3170    -5.7170     0.2560 N.4   1 <1>  -0.9590 
  8 C       -2.3010    -4.5480     1.1860 C.3   1 <1>   0.3430 
  9 C       -1.9530    -6.9760     0.9480 C.3   1 <1>   0.3430 
 10 C       -3.7040    -4.2700     1.7590 C.3   1 <1>   0.1100 
 11 C       -3.1010    -7.5430     1.7860 C.3   1 <1>  -0.1600 
 12 N       -4.4660    -5.4720     2.1690 N.3   1 <1>  -0.8100 
 13 C       -3.7540    -6.5920     2.7990 C.3   1 <1>   0.1100 
 14 C       -5.7640    -5.7320     1.4720 C.3   1 <1>   0.1710 
 15 C       -5.6360    -6.3680     0.0740 C.2   1 <1>   0.5690 
 16 O       -4.9400    -5.7760    -0.7220 O.2   1 <1>  -0.5700 
 17 N       -6.1940    -7.5970    -0.2310 N.am  1 <1>  -0.4770 
 18 C       -5.6020    -8.4980    -1.1430 C.ar  1 <1>   0.1170 
 19 C       -7.2180    -8.2780     0.6050 C.3   1 <1>   0.1400 
 20 C       -5.3980    -9.8270    -0.7440 C.ar  1 <1>   0.0830 
 21 C       -5.2080    -8.1260    -2.4240 C.ar  1 <1>  -0.1500 
 22 C       -6.5510    -9.4420     1.3520 C.3   1 <1>   0.1200 
 23 O       -5.8120   -10.2830     0.4740 O.3   1 <1>  -0.3630 
 24 C       -4.7810   -10.7300    -1.5910 C.ar  1 <1>  -0.1500 
 25 C       -4.5960    -9.0330    -3.2710 C.ar  1 <1>  -0.1500 
 26 C       -4.3760   -10.3340    -2.8540 C.ar  1 <1>  -0.1500 
 27 H       -1.4680    -0.8220    -2.6220 H     1 <1>   0.1500 
 28 H       -3.8010    -4.4710    -2.6670 H     1 <1>   0.1500 
 29 H       -0.4700    -5.5100    -0.7580 H     1 <1>   0.0800 
 30 H       -1.7180    -6.3310    -1.6660 H     1 <1>   0.0800 
 31 H       -3.6960    -2.0740    -3.4560 H     1 <1>   0.1500 
 32 H       -3.3080    -5.7940    -0.0540 H     1 <1>   0.4500 
 33 H       -1.9700    -3.6590     0.6800 H     1 <1>   0.0800 
 34 H       -1.6170    -4.7340     1.9970 H     1 <1>   0.0800 
 35 H       -1.0980    -6.8020     1.5810 H     1 <1>   0.0800 
 36 H       -1.6760    -7.7200     0.2180 H     1 <1>   0.0800 
 37 H       -4.2670    -3.7220     1.0230 H     1 <1>   0.0800 
 38 H       -3.5980    -3.6240     2.6140 H     1 <1>   0.0800 
 39 H       -2.6990    -8.3710     2.3410 H     1 <1>   0.0800 
 40 H       -3.8390    -7.9690     1.1360 H     1 <1>   0.0800 
 41 H       -3.0080    -6.2050     3.4740 H     1 <1>   0.0800 
 42 H       -4.4570    -7.1490     3.3970 H     1 <1>   0.0800 
 43 H       -6.2880    -4.8000     1.3590 H     1 <1>   0.0800 
 44 H       -6.3570    -6.3450     2.1190 H     1 <1>   0.0800 
 45 H       -7.9830    -8.6740    -0.0410 H     1 <1>   0.0800 
 46 H       -7.6990    -7.6040     1.2880 H     1 <1>   0.0800 
 47 H       -5.3860    -7.1220    -2.7660 H     1 <1>   0.1500 
 48 H       -7.2920   -10.0510     1.8380 H     1 <1>   0.0800 
 49 H       -5.8710    -9.0680     2.0960 H     1 <1>   0.0800 
 50 H       -4.6290   -11.7430    -1.2630 H     1 <1>   0.1500 
 51 H       -4.2950    -8.7290    -4.2600 H     1 <1>   0.1500 
 52 H       -3.9000   -11.0410    -3.5130 H     1 <1>   0.1500 
@<TRIPOS>BOND
  1   1   2  1   
  2   1   3  1   
  3   2   4  2   
  4   2   5  1   
  5   3   6  2   
  6   3  27  1   
  7   4   6  1   
  8   4  28  1   
  9   5   7  1   
 10   5  29  1   
 11   5  30  1   
 12   6  31  1   
 13   7   8  1   
 14   7   9  1   
 15   7  32  1   
 16   8  10  1   
 17   8  33  1   
 18   8  34  1   
 19   9  11  1   
 20   9  35  1   
 21   9  36  1   
 22  10  12  1   
 23  10  37  1   
 24  10  38  1   
 25  11  13  1   
 26  11  39  1   
 27  11  40  1   
 28  12  13  1   
 29  12  14  1   
 30  13  41  1   
 31  13  42  1   
 32  14  15  1   
 33  14  43  1   
 34  14  44  1   
 35  15  16  2   
 36  15  17  am  
 37  17  18  1   
 38  17  19  1   
 39  18  20  ar  
 40  18  21  ar  
 41  19  22  1   
 42  19  45  1   
 43  19  46  1   
 44  20  23  1   
 45  20  24  ar  
 46  21  25  ar  
 47  21  47  1   
 48  22  23  1   
 49  22  48  1   
 50  22  49  1   
 51  24  26  ar  
 52  24  50  1   
 53  25  26  ar  
 54  25  51  1   
 55  26  52  1   
@<TRIPOS>SUBSTRUCTURE
  1 ****  16 GROUP 4 **** **** 0

# MOE 2024.06 (io_trps.svl 2023.06)
