@<TRIPOS>MOLECULE
NONAME
48 50 1 0 0 
SMALL
USER_CHARGES


@<TRIPOS>ATOM
  1 O        0.5380    -0.0510     1.0860 O.2   1 <1>  -0.5700 
  2 C        1.3520    -0.2530     0.2150 C.2   1 <1>   0.5690 
  3 N        2.1820     0.7420    -0.2420 N.am  1 <1>  -0.6600 
  4 C        1.4500    -1.6600    -0.3610 C.3   1 <1>  -0.0990 
  5 C        3.1810     0.5690    -1.3410 C.3   1 <1>   0.1400 
  6 C        2.0900     2.1150     0.3380 C.3   1 <1>   0.1400 
  7 C        0.4400    -2.6500     0.2350 C.3   1 <1>   0.0200 
  8 C        4.5650     0.1900    -0.7890 C.3   1 <1>   0.1100 
  9 C        3.4460     2.8180     0.4880 C.3   1 <1>  -0.1600 
 10 C        0.6640    -4.0350    -0.3490 C.2   1 <1>  -0.3320 
 11 N        5.2900     1.3190    -0.1710 N.3   1 <1>  -0.8100 
 12 C        4.5780     1.9120     0.9770 C.3   1 <1>   0.1100 
 13 N        1.5350    -4.9540     0.1290 N.pl3 1 <1>   0.3140 
 14 C        0.0610    -4.5950    -1.4190 C.2   1 <1>  -0.1500 
 15 C        6.6800     0.9210     0.1810 C.3   1 <1>   0.2900 
 16 N        1.5160    -6.0770    -0.6070 N.2   1 <1>  -0.7070 
 17 C        2.4070    -4.8380     1.3060 C.3   1 <1>   0.0160 
 18 C        0.6300    -5.8570    -1.5290 C.2   1 <1>   0.1390 
 19 C        7.6790     2.0770     0.2050 C.2   1 <1>   0.2980 
 20 O        7.6320     2.9430     1.1880 O.3   1 <1>  -0.0190 
 21 N        8.6070     2.2750    -0.6480 N.2   1 <1>  -0.5650 
 22 N        8.6030     3.7650     0.9340 N.2   1 <1>  -0.4100 
 23 C        9.1560     3.3650    -0.1390 C.2   1 <1>   0.3350 
 24 C       10.3310     4.0300    -0.8130 C.3   1 <1>  -0.0590 
 25 H        2.4440    -2.0280    -0.1930 H     1 <1>   0.0800 
 26 H        1.2780    -1.6130    -1.4200 H     1 <1>   0.0800 
 27 H        3.2590     1.4740    -1.9190 H     1 <1>   0.0800 
 28 H        2.8540    -0.2010    -2.0140 H     1 <1>   0.0800 
 29 H        1.6390     2.0560     1.3140 H     1 <1>   0.0800 
 30 H        1.4420     2.7120    -0.2790 H     1 <1>   0.0800 
 31 H       -0.5570    -2.3200    -0.0020 H     1 <1>   0.0800 
 32 H        0.5250    -2.6790     1.3080 H     1 <1>   0.0800 
 33 H        5.1480    -0.1690    -1.6190 H     1 <1>   0.0800 
 34 H        4.4630    -0.6160    -0.0830 H     1 <1>   0.0800 
 35 H        3.3140     3.6090     1.2040 H     1 <1>   0.0800 
 36 H        3.7300     3.2890    -0.4370 H     1 <1>   0.0800 
 37 H        4.2020     1.1450     1.6350 H     1 <1>   0.0800 
 38 H        5.2550     2.5270     1.5430 H     1 <1>   0.0800 
 39 H       -0.6940    -4.1840    -2.0650 H     1 <1>   0.1500 
 40 H        7.0430     0.2230    -0.5540 H     1 <1>   0.0800 
 41 H        6.6890     0.4220     1.1340 H     1 <1>   0.0800 
 42 H        3.0620    -3.9980     1.1810 H     1 <1>   0.0800 
 43 H        2.9870    -5.7370     1.4030 H     1 <1>   0.0800 
 44 H        1.8000    -4.7070     2.1810 H     1 <1>   0.0800 
 45 H        0.3730    -6.5780    -2.2870 H     1 <1>   0.1500 
 46 H       10.0520     4.3290    -1.8060 H     1 <1>   0.0800 
 47 H       11.1520     3.3400    -0.8690 H     1 <1>   0.0800 
 48 H       10.6350     4.8970    -0.2550 H     1 <1>   0.0800 
@<TRIPOS>BOND
  1   1   2  2   
  2   2   3  am  
  3   2   4  1   
  4   3   5  1   
  5   3   6  1   
  6   4   7  1   
  7   4  25  1   
  8   4  26  1   
  9   5   8  1   
 10   5  27  1   
 11   5  28  1   
 12   6   9  1   
 13   6  29  1   
 14   6  30  1   
 15   7  10  1   
 16   7  31  1   
 17   7  32  1   
 18   8  11  1   
 19   8  33  1   
 20   8  34  1   
 21   9  12  1   
 22   9  35  1   
 23   9  36  1   
 24  10  13  1   
 25  10  14  2   
 26  11  12  1   
 27  11  15  1   
 28  12  37  1   
 29  12  38  1   
 30  13  16  1   
 31  13  17  1   
 32  14  18  1   
 33  14  39  1   
 34  15  19  1   
 35  15  40  1   
 36  15  41  1   
 37  16  18  2   
 38  17  42  1   
 39  17  43  1   
 40  17  44  1   
 41  18  45  1   
 42  19  20  1   
 43  19  21  2   
 44  20  22  1   
 45  21  23  1   
 46  22  23  2   
 47  23  24  1   
 48  24  46  1   
 49  24  47  1   
 50  24  48  1   
@<TRIPOS>SUBSTRUCTURE
  1 ****   8 GROUP 4 **** **** 0

# MOE 2024.06 (io_trps.svl 2023.06)
