@<TRIPOS>MOLECULE
NONAME
52 54 1 0 0 
SMALL
USER_CHARGES


@<TRIPOS>ATOM
  1 O       -0.5380    -0.6840     0.7140 O.3   1 <1>  -0.3630 
  2 C        0.7170    -1.1820     0.5860 C.ar  1 <1>   0.0830 
  3 C       -1.5180    -0.9090    -0.2660 C.3   1 <1>   0.1200 
  4 C        1.6080    -0.8970     1.6090 C.ar  1 <1>  -0.1500 
  5 C        1.1420    -1.9490    -0.4970 C.ar  1 <1>  -0.1500 
  6 C       -2.7900    -0.2040     0.2010 C.3   1 <1>  -0.1600 
  7 C        2.9080    -1.3660     1.5590 C.ar  1 <1>  -0.1500 
  8 C        2.4440    -2.4170    -0.5450 C.ar  1 <1>  -0.1500 
  9 C       -3.9170    -0.3890    -0.8120 C.3   1 <1>   0.3430 
 10 C        3.3270    -2.1270     0.4820 C.ar  1 <1>  -0.1500 
 11 N       -5.1760     0.2130    -0.2940 N.4   1 <1>  -0.9590 
 12 C       -6.3640    -0.2300    -1.0930 C.3   1 <1>   0.3430 
 13 C       -5.1360     1.7010    -0.2690 C.3   1 <1>   0.3430 
 14 C       -7.6930    -0.0400    -0.2640 C.3   1 <1>   0.0000 
 15 C       -6.5110     2.2370     0.1250 C.3   1 <1>  -0.1600 
 16 C       -9.0740     0.1190     0.5210 C.3   1 <1>   0.2000 
 17 C       -7.6550     1.5220    -0.6260 C.3   1 <1>  -0.1600 
 18 C       -7.6430    -1.5850     0.1100 C.3   1 <1>  -0.1600 
 19 O      -10.0860     0.2400    -0.4420 O.3   1 <1>  -0.5600 
 20 C       -9.4600    -1.0370     1.4400 C.3   1 <1>  -0.1600 
 21 C       -8.2170    -1.8520     1.4860 C.3   1 <1>  -0.1600 
 22 C      -11.2580     0.8670    -0.0160 C.3   1 <1>   0.0400 
 23 H       -1.1620    -0.5010    -1.1970 H     1 <1>   0.0800 
 24 H       -1.6680    -1.9720    -0.3530 H     1 <1>   0.0800 
 25 H        1.2780    -0.3060     2.4440 H     1 <1>   0.1500 
 26 H        0.4840    -2.1920    -1.3080 H     1 <1>   0.1500 
 27 H       -3.0810    -0.6230     1.1480 H     1 <1>   0.0800 
 28 H       -2.5660     0.8410     0.3230 H     1 <1>   0.0800 
 29 H        3.5930    -1.1400     2.3580 H     1 <1>   0.1500 
 30 H        2.7730    -3.0090    -1.3810 H     1 <1>   0.1500 
 31 H       -4.0660    -1.4450    -0.9760 H     1 <1>   0.0800 
 32 H       -3.6480     0.0640    -1.7520 H     1 <1>   0.0800 
 33 H        4.3390    -2.4920     0.4420 H     1 <1>   0.1500 
 34 H       -5.3290    -0.1170     0.6680 H     1 <1>   0.4500 
 35 H       -6.3930     0.3220    -2.0170 H     1 <1>   0.0800 
 36 H       -6.2230    -1.2470    -1.4210 H     1 <1>   0.0800 
 37 H       -4.3900     2.0520     0.4260 H     1 <1>   0.0800 
 38 H       -4.8850     2.0690    -1.2510 H     1 <1>   0.0800 
 39 H       -6.6470     2.1210     1.1870 H     1 <1>   0.0800 
 40 H       -6.5420     3.2930    -0.0870 H     1 <1>   0.0800 
 41 H       -9.0750     0.9940     1.1540 H     1 <1>   0.0800 
 42 H       -7.5650     1.6950    -1.6880 H     1 <1>   0.0800 
 43 H       -8.5350     2.1090    -0.4130 H     1 <1>   0.0800 
 44 H       -8.2340    -2.1260    -0.6150 H     1 <1>   0.0800 
 45 H       -6.6810    -2.0750     0.1590 H     1 <1>   0.0800 
 46 H       -9.7420    -0.6990     2.4220 H     1 <1>   0.0800 
 47 H      -10.2560    -1.6240     1.0120 H     1 <1>   0.0800 
 48 H       -7.5550    -1.4870     2.2530 H     1 <1>   0.0800 
 49 H       -8.4270    -2.8960     1.6510 H     1 <1>   0.0800 
 50 H      -11.9370     0.9060    -0.8500 H     1 <1>   0.0800 
 51 H      -11.0320     1.8670     0.3100 H     1 <1>   0.0800 
 52 H      -11.7050     0.3010     0.7820 H     1 <1>   0.0800 
@<TRIPOS>BOND
  1   1   2  1   
  2   1   3  1   
  3   2   4  ar  
  4   2   5  ar  
  5   3   6  1   
  6   3  23  1   
  7   3  24  1   
  8   4   7  ar  
  9   4  25  1   
 10   5   8  ar  
 11   5  26  1   
 12   6   9  1   
 13   6  27  1   
 14   6  28  1   
 15   7  10  ar  
 16   7  29  1   
 17   8  10  ar  
 18   8  30  1   
 19   9  11  1   
 20   9  31  1   
 21   9  32  1   
 22  10  33  1   
 23  11  12  1   
 24  11  13  1   
 25  11  34  1   
 26  12  14  1   
 27  12  35  1   
 28  12  36  1   
 29  13  15  1   
 30  13  37  1   
 31  13  38  1   
 32  14  16  1   
 33  14  17  1   
 34  14  18  1   
 35  15  17  1   
 36  15  39  1   
 37  15  40  1   
 38  16  19  1   
 39  16  20  1   
 40  16  41  1   
 41  17  42  1   
 42  17  43  1   
 43  18  21  1   
 44  18  44  1   
 45  18  45  1   
 46  19  22  1   
 47  20  21  1   
 48  20  46  1   
 49  20  47  1   
 50  21  48  1   
 51  21  49  1   
 52  22  50  1   
 53  22  51  1   
 54  22  52  1   
@<TRIPOS>SUBSTRUCTURE
  1 ****   9 GROUP 4 **** **** 0

# MOE 2024.06 (io_trps.svl 2023.06)
