@<TRIPOS>MOLECULE
NONAME
55 59 1 0 0 
SMALL
USER_CHARGES


@<TRIPOS>ATOM
  1 O       -1.5930     1.3970     2.5570 O.2   1 <1>  -0.5700 
  2 C       -2.6170     1.5860     1.9360 C.2   1 <1>   0.5690 
  3 N       -3.7220     0.7910     2.1530 N.am  1 <1>  -0.6600 
  4 C       -2.6510     2.7480     0.9260 C.3   1 <1>   0.2610 
  5 C       -5.0480     0.9510     1.4930 C.3   1 <1>   0.1400 
  6 C       -3.6330    -0.4610     2.9550 C.3   1 <1>   0.1400 
  7 O       -3.0620     2.2990    -0.3610 O.3   1 <1>  -0.2170 
  8 C       -1.3220     3.4590     0.6410 C.3   1 <1>  -0.0990 
  9 C       -5.2460    -0.2070     0.5150 C.3   1 <1>  -0.1600 
 10 C       -3.8080    -1.6520     2.0110 C.3   1 <1>  -0.1600 
 11 N       -2.2970     2.7690    -1.3260 N.2   1 <1>  -0.5130 
 12 C       -1.3270     3.4110    -0.8580 C.2   1 <1>   0.3280 
 13 C       -5.1200    -1.5630     1.2230 C.3   1 <1>   0.4600 
 14 C       -0.2280     4.0890    -1.6740 C.3   1 <1>  -0.0190 
 15 O       -6.1560    -1.6810     2.1760 O.3   1 <1>  -0.5600 
 16 C       -5.2130    -2.7130     0.2270 C.2   1 <1>  -0.3320 
 17 C        1.1550     3.4940    -1.3700 C.3   1 <1>  -0.2400 
 18 C       -0.2140     5.6100    -1.4630 C.3   1 <1>  -0.2400 
 19 C       -7.4220    -2.1110     1.7320 C.3   1 <1>   0.1200 
 20 N       -4.3200    -2.9960    -0.7680 N.pl3 1 <1>   0.0330 
 21 C       -6.2120    -3.6170     0.2000 C.2   1 <1>  -0.1810 
 22 C       -7.3590    -3.5430     1.1750 C.3   1 <1>   0.0210 
 23 C       -4.7650    -4.1150    -1.4320 C.ar  1 <1>  -0.1520 
 24 C       -5.9560    -4.5320    -0.8420 C.ar  1 <1>   0.0000 
 25 C       -4.2210    -4.8090    -2.5140 C.ar  1 <1>  -0.1500 
 26 C       -6.6150    -5.6620    -1.3370 C.ar  1 <1>  -0.1500 
 27 C       -4.8790    -5.9190    -2.9920 C.ar  1 <1>  -0.1500 
 28 C       -6.0760    -6.3460    -2.4030 C.ar  1 <1>  -0.1500 
 29 H       -3.3790     3.4670     1.2490 H     1 <1>   0.0800 
 30 H       -5.1220     1.8900     0.9750 H     1 <1>   0.0800 
 31 H       -5.8190     0.9290     2.2450 H     1 <1>   0.0800 
 32 H       -4.4080    -0.4620     3.7020 H     1 <1>   0.0800 
 33 H       -2.6840    -0.5310     3.4580 H     1 <1>   0.0800 
 34 H       -0.4720     2.9290     1.0270 H     1 <1>   0.0800 
 35 H       -1.3360     4.4640     1.0170 H     1 <1>   0.0800 
 36 H       -4.4970    -0.1350    -0.2530 H     1 <1>   0.0800 
 37 H       -6.2010    -0.1280     0.0330 H     1 <1>   0.0800 
 38 H       -3.7940    -2.5690     2.5700 H     1 <1>   0.0800 
 39 H       -2.9760    -1.6700     1.3330 H     1 <1>   0.0800 
 40 H       -0.4450     3.9020    -2.7120 H     1 <1>   0.0800 
 41 H        1.4480     3.6960    -0.3550 H     1 <1>   0.0800 
 42 H        1.8930     3.9150    -2.0280 H     1 <1>   0.0800 
 43 H        1.1370     2.4280    -1.5180 H     1 <1>   0.0800 
 44 H        0.0500     5.8570    -0.4510 H     1 <1>   0.0800 
 45 H       -1.1850     6.0200    -1.6790 H     1 <1>   0.0800 
 46 H        0.5000     6.0680    -2.1240 H     1 <1>   0.0800 
 47 H       -7.7680    -1.4310     0.9740 H     1 <1>   0.0800 
 48 H       -8.0950    -2.0670     2.5700 H     1 <1>   0.0800 
 49 H       -3.4670    -2.4750    -0.9930 H     1 <1>   0.2700 
 50 H       -8.2830    -3.7800     0.6800 H     1 <1>   0.0800 
 51 H       -7.2040    -4.2440     1.9750 H     1 <1>   0.0800 
 52 H       -3.3010    -4.4750    -2.9600 H     1 <1>   0.1500 
 53 H       -7.5310    -5.9780    -0.8750 H     1 <1>   0.1500 
 54 H       -4.4800    -6.4710    -3.8250 H     1 <1>   0.1500 
 55 H       -6.5710    -7.2170    -2.7950 H     1 <1>   0.1500 
@<TRIPOS>BOND
  1   1   2  2   
  2   2   3  am  
  3   2   4  1   
  4   3   5  1   
  5   3   6  1   
  6   4   7  1   
  7   4   8  1   
  8   4  29  1   
  9   5   9  1   
 10   5  30  1   
 11   5  31  1   
 12   6  10  1   
 13   6  32  1   
 14   6  33  1   
 15   7  11  1   
 16   8  12  1   
 17   8  34  1   
 18   8  35  1   
 19   9  13  1   
 20   9  36  1   
 21   9  37  1   
 22  10  13  1   
 23  10  38  1   
 24  10  39  1   
 25  11  12  2   
 26  12  14  1   
 27  13  15  1   
 28  13  16  1   
 29  14  17  1   
 30  14  18  1   
 31  14  40  1   
 32  15  19  1   
 33  16  20  1   
 34  16  21  2   
 35  17  41  1   
 36  17  42  1   
 37  17  43  1   
 38  18  44  1   
 39  18  45  1   
 40  18  46  1   
 41  19  22  1   
 42  19  47  1   
 43  19  48  1   
 44  20  23  1   
 45  20  49  1   
 46  21  22  1   
 47  21  24  1   
 48  22  50  1   
 49  22  51  1   
 50  23  24  ar  
 51  23  25  ar  
 52  24  26  ar  
 53  25  27  ar  
 54  25  52  1   
 55  26  28  ar  
 56  26  53  1   
 57  27  28  ar  
 58  27  54  1   
 59  28  55  1   
@<TRIPOS>SUBSTRUCTURE
  1 ****   9 GROUP 4 **** **** 0

# MOE 2024.06 (io_trps.svl 2023.06)
