@<TRIPOS>MOLECULE
NONAME
47 49 1 0 0 
SMALL
USER_CHARGES


@<TRIPOS>ATOM
  1 O        0.2610    -0.4850     1.3470 O.3   1 <1>  -0.3630 
  2 C        0.7860    -0.3750     0.0920 C.ar  1 <1>   0.0830 
  3 C        1.0740    -0.8950     2.4350 C.3   1 <1>   0.1200 
  4 C       -0.0200     0.1500    -0.9180 C.ar  1 <1>   0.0820 
  5 C        2.0610    -0.8460    -0.2030 C.ar  1 <1>  -0.1440 
  6 C        2.0570    -2.0130     2.0370 C.3   1 <1>   0.2890 
  7 O       -1.3090     0.4640    -0.6180 O.3   1 <1>  -0.3630 
  8 C        0.4860     0.2810    -2.2040 C.ar  1 <1>  -0.1500 
  9 C        2.5520    -0.7130    -1.4920 C.ar  1 <1>  -0.1500 
 10 C        2.9120    -1.5220     0.8620 C.3   1 <1>  -0.0160 
 11 N        1.4310    -3.3580     1.7450 N.pl3 1 <1>  -0.8690 
 12 C       -1.8840     1.6130    -1.2070 C.3   1 <1>   0.0400 
 13 C        1.7730    -0.1430    -2.4840 C.ar  1 <1>  -0.1500 
 14 C        0.3310    -3.7800     1.0560 C.ar  1 <1>   0.4610 
 15 N       -0.5350    -2.9270     0.5000 N.ar  1 <1>  -0.1790 
 16 C        0.0320    -5.1120     0.8780 C.ar  1 <1>  -0.1500 
 17 C       -1.6020    -3.3180    -0.2100 C.ar  1 <1>   0.7710 
 18 C       -1.0900    -5.4660     0.1560 C.ar  1 <1>   0.3930 
 19 N       -1.9160    -4.5760    -0.3970 N.ar  1 <1>  -0.6200 
 20 N       -2.3870    -2.3920    -0.7590 N.pl3 1 <1>  -0.9000 
 21 O       -1.3390    -6.7660     0.0140 O.3   1 <1>  -0.3620 
 22 C       -2.4560    -7.3050    -0.6630 C.3   1 <1>   0.2000 
 23 C       -3.6410    -7.3450     0.3040 C.3   1 <1>  -0.2400 
 24 C       -2.0710    -8.7070    -1.1260 C.3   1 <1>  -0.2400 
 25 H        0.4330    -1.2170     3.2370 H     1 <1>   0.0800 
 26 H        1.6220    -0.0290     2.7630 H     1 <1>   0.0800 
 27 H        2.7180    -2.1580     2.8760 H     1 <1>   0.0800 
 28 H       -0.1090     0.6950    -2.9970 H     1 <1>   0.1500 
 29 H        3.5460    -1.0520    -1.7350 H     1 <1>   0.1500 
 30 H        3.6180    -0.7960     1.2260 H     1 <1>   0.0800 
 31 H        3.4700    -2.3410     0.4450 H     1 <1>   0.0800 
 32 H        2.0280    -4.1080     2.1170 H     1 <1>   0.4000 
 33 H       -2.7910     1.8460    -0.6780 H     1 <1>   0.0800 
 34 H       -2.1070     1.4110    -2.2390 H     1 <1>   0.0800 
 35 H       -1.1930     2.4340    -1.1200 H     1 <1>   0.0800 
 36 H        2.1680    -0.0380    -3.4810 H     1 <1>   0.1500 
 37 H       -0.3820    -1.9280     0.6050 H     1 <1>   0.4570 
 38 H        0.6580    -5.8800     1.2900 H     1 <1>   0.1500 
 39 H       -3.2020    -2.6900    -1.3010 H     1 <1>   0.4000 
 40 H       -2.2200    -1.3760    -0.7490 H     1 <1>   0.4000 
 41 H       -2.6790    -6.6920    -1.5210 H     1 <1>   0.0800 
 42 H       -3.4010    -7.9350     1.1700 H     1 <1>   0.0800 
 43 H       -4.4940    -7.7830    -0.1830 H     1 <1>   0.0800 
 44 H       -3.9070    -6.3500     0.6110 H     1 <1>   0.0800 
 45 H       -1.8210    -9.3280    -0.2840 H     1 <1>   0.0800 
 46 H       -1.2300    -8.6560    -1.7940 H     1 <1>   0.0800 
 47 H       -2.8930    -9.1590    -1.6520 H     1 <1>   0.0800 
@<TRIPOS>BOND
  1   1   2  1   
  2   1   3  1   
  3   2   4  ar  
  4   2   5  ar  
  5   3   6  1   
  6   3  25  1   
  7   3  26  1   
  8   4   7  1   
  9   4   8  ar  
 10   5   9  ar  
 11   5  10  1   
 12   6  10  1   
 13   6  11  1   
 14   6  27  1   
 15   7  12  1   
 16   8  13  ar  
 17   8  28  1   
 18   9  13  ar  
 19   9  29  1   
 20  10  30  1   
 21  10  31  1   
 22  11  14  1   
 23  11  32  1   
 24  12  33  1   
 25  12  34  1   
 26  12  35  1   
 27  13  36  1   
 28  14  15  ar  
 29  14  16  ar  
 30  15  17  ar  
 31  15  37  1   
 32  16  18  ar  
 33  16  38  1   
 34  17  19  ar  
 35  17  20  1   
 36  18  19  ar  
 37  18  21  1   
 38  20  39  1   
 39  20  40  1   
 40  21  22  1   
 41  22  23  1   
 42  22  24  1   
 43  22  41  1   
 44  23  42  1   
 45  23  43  1   
 46  23  44  1   
 47  24  45  1   
 48  24  46  1   
 49  24  47  1   
@<TRIPOS>SUBSTRUCTURE
  1 ****  15 GROUP 4 **** **** 0

# MOE 2024.06 (io_trps.svl 2023.06)
