@<TRIPOS>MOLECULE
NONAME
56 59 1 0 0 
SMALL
USER_CHARGES


@<TRIPOS>ATOM
  1 S       -0.3640     0.0500     1.5830 S.o2  1 <1>   1.4470 
  2 O       -0.1030    -1.3490     1.8580 O.2   1 <1>  -0.6500 
  3 O       -0.9490     0.8760     2.6120 O.2   1 <1>  -0.6500 
  4 N       -1.4190     0.0650     0.2420 N.am  1 <1>  -0.8490 
  5 C        1.1340     0.8400     0.9340 C.ar  1 <1>  -0.0090 
  6 C       -1.3770    -1.1540    -0.5810 C.3   1 <1>   0.1960 
  7 C       -2.7950     0.5030     0.5250 C.3   1 <1>   0.1960 
  8 C        1.0710     2.0370     0.2410 C.ar  1 <1>  -0.1500 
  9 C        2.3880     0.2610     1.1260 C.ar  1 <1>  -0.1500 
 10 C       -2.1830    -2.3290     0.0500 C.3   1 <1>   0.4230 
 11 C       -3.5940    -0.6170     1.2090 C.3   1 <1>  -0.1600 
 12 C        2.2060     2.6720    -0.2760 C.ar  1 <1>   0.0280 
 13 C        3.5270     0.8560     0.6310 C.ar  1 <1>  -0.1500 
 14 N       -2.0560    -3.6530    -0.6930 N.4   1 <1>  -0.9590 
 15 C       -3.6490    -1.9250     0.3720 C.3   1 <1>   0.0000 
 16 C        3.4540     2.0540    -0.0710 C.ar  1 <1>   0.1170 
 17 C        2.1740     3.9180    -1.0040 C.2   1 <1>  -0.1670 
 18 C       -3.1110    -4.6580    -0.3320 C.3   1 <1>   0.3430 
 19 C       -1.9300    -3.5570    -2.1850 C.3   1 <1>   0.2630 
 20 C       -4.3140    -3.0420     1.2280 C.3   1 <1>  -0.1600 
 21 C       -4.4480    -1.7020    -0.9440 C.3   1 <1>   0.1200 
 22 N        4.6040     2.6500    -0.5720 N.am  1 <1>  -0.5470 
 23 C        3.3320     4.4530    -1.4680 C.2   1 <1>  -0.1360 
 24 C        0.8480     4.6270    -1.2460 C.3   1 <1>  -0.1020 
 25 C       -3.6380    -4.4190     1.0830 C.3   1 <1>  -0.1600 
 26 O       -5.6720    -1.1030    -0.7040 O.3   1 <1>  -0.6800 
 27 C        4.5920     3.8220    -1.2590 C.2   1 <1>   0.6160 
 28 O        5.6450     4.2790    -1.6620 O.2   1 <1>  -0.5700 
 29 H       -1.7750    -0.9120    -1.5490 H     1 <1>   0.0800 
 30 H       -0.3500    -1.4510    -0.7130 H     1 <1>   0.0800 
 31 H       -2.7910     1.3850     1.1450 H     1 <1>   0.0800 
 32 H       -3.2780     0.7780    -0.3980 H     1 <1>   0.0800 
 33 H        0.1070     2.4910     0.1030 H     1 <1>   0.1500 
 34 H        2.4650    -0.6640     1.6730 H     1 <1>   0.1500 
 35 H       -1.7380    -2.5010     1.0150 H     1 <1>   0.0800 
 36 H       -3.1450    -0.8060     2.1700 H     1 <1>   0.0800 
 37 H       -4.5860    -0.2530     1.4100 H     1 <1>   0.0800 
 38 H        4.4870     0.3950     0.7890 H     1 <1>   0.1500 
 39 H       -1.1690    -4.0490    -0.3430 H     1 <1>   0.4500 
 40 H       -3.9370    -4.5820    -1.0200 H     1 <1>   0.0800 
 41 H       -2.7080    -5.6550    -0.4070 H     1 <1>   0.0800 
 42 H       -2.8150    -3.1140    -2.6110 H     1 <1>   0.0800 
 43 H       -1.8010    -4.5390    -2.6120 H     1 <1>   0.0800 
 44 H       -1.0770    -2.9580    -2.4570 H     1 <1>   0.0800 
 45 H       -4.2890    -2.7830     2.2740 H     1 <1>   0.0800 
 46 H       -5.3550    -3.1330     0.9710 H     1 <1>   0.0800 
 47 H       -4.6400    -2.6300    -1.4520 H     1 <1>   0.0800 
 48 H       -3.9230    -1.0500    -1.6190 H     1 <1>   0.0800 
 49 H        5.5260     2.2380    -0.4370 H     1 <1>   0.3700 
 50 H        3.3700     5.3750    -2.0150 H     1 <1>   0.1500 
 51 H        0.1890     3.9980    -1.8170 H     1 <1>   0.0800 
 52 H        0.9970     5.5420    -1.7930 H     1 <1>   0.0800 
 53 H        0.3810     4.8710    -0.3080 H     1 <1>   0.0800 
 54 H       -4.3490    -5.1880     1.3310 H     1 <1>   0.0800 
 55 H       -2.8230    -4.5070     1.7820 H     1 <1>   0.0800 
 56 H       -6.2550    -1.6560    -0.1470 H     1 <1>   0.4000 
@<TRIPOS>BOND
  1   1   2  2   
  2   1   3  2   
  3   1   4  am  
  4   1   5  1   
  5   4   6  1   
  6   4   7  1   
  7   5   8  ar  
  8   5   9  ar  
  9   6  10  1   
 10   6  29  1   
 11   6  30  1   
 12   7  11  1   
 13   7  31  1   
 14   7  32  1   
 15   8  12  ar  
 16   8  33  1   
 17   9  13  ar  
 18   9  34  1   
 19  10  14  1   
 20  10  15  1   
 21  10  35  1   
 22  11  15  1   
 23  11  36  1   
 24  11  37  1   
 25  12  16  ar  
 26  12  17  1   
 27  13  16  ar  
 28  13  38  1   
 29  14  18  1   
 30  14  19  1   
 31  14  39  1   
 32  15  20  1   
 33  15  21  1   
 34  16  22  1   
 35  17  23  2   
 36  17  24  1   
 37  18  25  1   
 38  18  40  1   
 39  18  41  1   
 40  19  42  1   
 41  19  43  1   
 42  19  44  1   
 43  20  25  1   
 44  20  45  1   
 45  20  46  1   
 46  21  26  1   
 47  21  47  1   
 48  21  48  1   
 49  22  27  am  
 50  22  49  1   
 51  23  27  1   
 52  23  50  1   
 53  24  51  1   
 54  24  52  1   
 55  24  53  1   
 56  25  54  1   
 57  25  55  1   
 58  26  56  1   
 59  27  28  2   
@<TRIPOS>SUBSTRUCTURE
  1 ****   4 GROUP 4 **** **** 0

# MOE 2024.06 (io_trps.svl 2023.06)
