@<TRIPOS>MOLECULE
NONAME
45 48 1 0 0 
SMALL
USER_CHARGES


@<TRIPOS>ATOM
  1 S        1.2470    -0.6100    -0.1240 S.3   1 <1>  -0.0800 
  2 C        1.7710     0.8250     0.6850 C.2   1 <1>   0.4620 
  3 C       -0.3990    -0.1210     0.1800 C.2   1 <1>   0.3250 
  4 N        0.7840     1.5390     1.0940 N.2   1 <1>  -0.3380 
  5 N        3.1080     1.1250     0.8110 N.pl3 1 <1>  -0.8220 
  6 N       -0.4310     1.0060     0.8040 N.2   1 <1>  -0.3380 
  7 C       -1.4980    -0.9490    -0.2640 C.ar  1 <1>   0.0530 
  8 C        3.5650     2.0720     1.8990 C.3   1 <1>   0.2090 
  9 C        4.1170     0.7880    -0.2430 C.3   1 <1>   0.2090 
 10 C       -2.8150    -0.5390    -0.0350 C.ar  1 <1>  -0.1500 
 11 C       -1.3240    -2.1690    -0.9260 C.ar  1 <1>  -0.1500 
 12 C        3.8260     3.5070     1.3680 C.3   1 <1>   0.4230 
 13 C        4.6780     2.0160    -1.0060 C.3   1 <1>  -0.0800 
 14 C       -3.8970    -1.2970    -0.4440 C.ar  1 <1>  -0.1500 
 15 C       -2.4020    -2.9310    -1.3380 C.ar  1 <1>  -0.1500 
 16 N        3.0470     3.6730     0.0830 N.4   1 <1>  -0.9590 
 17 C        5.3470     3.7980     1.2810 C.3   1 <1>   0.1200 
 18 C        6.0680     2.4480    -0.5130 C.3   1 <1>   0.1200 
 19 C        3.7580     3.2430    -1.1580 C.3   1 <1>   0.3430 
 20 C       -3.6920    -2.4970    -1.0990 C.ar  1 <1>  -0.1500 
 21 C        2.5380     5.1000    -0.0660 C.3   1 <1>   0.2370 
 22 O        6.0740     2.6790     0.8530 O.3   1 <1>  -0.5600 
 23 C        3.6390     6.1610    -0.0940 C.2   1 <1>   0.9060 
 24 O        3.9960     6.6410     0.9860 O.co2 1 <1>  -0.9000 
 25 O        4.2360     6.3490    -1.1570 O.co2 1 <1>  -0.9000 
 26 H        2.8030     2.1320     2.6580 H     1 <1>   0.0800 
 27 H        4.4410     1.6760     2.3830 H     1 <1>   0.0800 
 28 H        4.9270     0.2440     0.2150 H     1 <1>   0.0800 
 29 H        3.6690     0.1270    -0.9640 H     1 <1>   0.0800 
 30 H       -2.9970     0.3910     0.4750 H     1 <1>   0.1500 
 31 H       -0.3380    -2.5430    -1.1300 H     1 <1>   0.1500 
 32 H        3.4290     4.2030     2.0880 H     1 <1>   0.0800 
 33 H        4.8580     1.6780    -2.0110 H     1 <1>   0.0800 
 34 H       -4.8990    -0.9530    -0.2530 H     1 <1>   0.1500 
 35 H       -2.2400    -3.8670    -1.8460 H     1 <1>   0.1500 
 36 H        2.2530     3.0220     0.2040 H     1 <1>   0.4500 
 37 H        5.7030     4.0310     2.2680 H     1 <1>   0.0800 
 38 H        5.5760     4.6420     0.6530 H     1 <1>   0.0800 
 39 H        6.4110     3.3390    -1.0170 H     1 <1>   0.0800 
 40 H        6.7820     1.6640    -0.6980 H     1 <1>   0.0800 
 41 H        3.0200     3.0300    -1.9120 H     1 <1>   0.0800 
 42 H        4.3540     4.0650    -1.5240 H     1 <1>   0.0800 
 43 H       -4.5320    -3.0890    -1.4190 H     1 <1>   0.1500 
 44 H        1.9770     5.1950    -0.9770 H     1 <1>   0.0800 
 45 H        1.8900     5.3410     0.7570 H     1 <1>   0.0800 
@<TRIPOS>BOND
  1   1   2  1   
  2   1   3  1   
  3   2   4  2   
  4   2   5  1   
  5   3   6  2   
  6   3   7  1   
  7   4   6  1   
  8   5   8  1   
  9   5   9  1   
 10   7  10  ar  
 11   7  11  ar  
 12   8  12  1   
 13   8  26  1   
 14   8  27  1   
 15   9  13  1   
 16   9  28  1   
 17   9  29  1   
 18  10  14  ar  
 19  10  30  1   
 20  11  15  ar  
 21  11  31  1   
 22  12  16  1   
 23  12  17  1   
 24  12  32  1   
 25  13  18  1   
 26  13  19  1   
 27  13  33  1   
 28  14  20  ar  
 29  14  34  1   
 30  15  20  ar  
 31  15  35  1   
 32  16  19  1   
 33  16  21  1   
 34  16  36  1   
 35  17  22  1   
 36  17  37  1   
 37  17  38  1   
 38  18  22  1   
 39  18  39  1   
 40  18  40  1   
 41  19  41  1   
 42  19  42  1   
 43  20  43  1   
 44  21  23  1   
 45  21  44  1   
 46  21  45  1   
 47  23  24  ar  
 48  23  25  ar  
@<TRIPOS>SUBSTRUCTURE
  1 ****   2 GROUP 4 **** **** 0

# MOE 2024.06 (io_trps.svl 2023.06)
