@<TRIPOS>MOLECULE
NONAME
38 40 1 0 0 
SMALL
USER_CHARGES


@<TRIPOS>ATOM
  1 F        2.2510     1.4090    -2.4210 F     1 <1>  -0.1900 
  2 C        2.4690     1.2060    -1.1450 C.ar  1 <1>   0.1900 
  3 C        1.9530     0.0690    -0.5300 C.ar  1 <1>   0.0820 
  4 C        3.2110     2.1500    -0.4610 C.ar  1 <1>  -0.1500 
  5 O        1.2310    -0.8080    -1.2840 O.3   1 <1>  -0.3630 
  6 C        2.2110    -0.1060     0.8290 C.ar  1 <1>  -0.1500 
  7 C        3.4540     1.9590     0.8880 C.ar  1 <1>  -0.1500 
  8 C        0.4950    -1.8790    -0.7340 C.3   1 <1>   0.2000 
  9 C        2.9550     0.8340     1.5270 C.ar  1 <1>  -0.1500 
 10 C        0.1580    -2.8400    -1.8740 C.3   1 <1>  -0.1600 
 11 C       -0.7860    -1.3430    -0.0860 C.3   1 <1>  -0.1600 
 12 C       -0.7200    -3.9800    -1.3600 C.3   1 <1>   0.2090 
 13 C       -1.6520    -2.5030     0.4020 C.3   1 <1>   0.2090 
 14 N       -1.9430    -3.4260    -0.7250 N.pl3 1 <1>  -0.8380 
 15 C       -2.8920    -4.3870    -0.4240 C.ar  1 <1>   0.4100 
 16 N       -2.5710    -5.2400     0.5300 N.ar  1 <1>  -0.6200 
 17 C       -4.1140    -4.4370    -1.1030 C.ar  1 <1>   0.1600 
 18 C       -3.5240    -6.1600     0.7940 C.ar  1 <1>   0.1310 
 19 N       -5.0700    -5.3160    -0.8820 N.ar  1 <1>  -0.6200 
 20 C       -3.3610    -7.1950     1.8260 C.2   1 <1>   0.9790 
 21 C       -4.7290    -6.1650     0.0810 C.ar  1 <1>   0.1600 
 22 O       -2.4240    -7.1920     2.6500 O.co2 1 <1>  -0.9000 
 23 O       -4.1910    -8.1250     1.9140 O.co2 1 <1>  -0.9000 
 24 H        3.5880     3.0140    -0.9780 H     1 <1>   0.1500 
 25 H        1.8480    -0.9630     1.3630 H     1 <1>   0.1500 
 26 H        4.0300     2.6830     1.4400 H     1 <1>   0.1500 
 27 H        1.1080    -2.3960    -0.0180 H     1 <1>   0.0800 
 28 H        3.1480     0.6900     2.5760 H     1 <1>   0.1500 
 29 H        1.0640    -3.2480    -2.2820 H     1 <1>   0.0800 
 30 H       -0.3700    -2.3190    -2.6520 H     1 <1>   0.0800 
 31 H       -1.3470    -0.7710    -0.8040 H     1 <1>   0.0800 
 32 H       -0.5500    -0.7110     0.7480 H     1 <1>   0.0800 
 33 H       -0.1800    -4.5710    -0.6370 H     1 <1>   0.0800 
 34 H       -1.0000    -4.6240    -2.1760 H     1 <1>   0.0800 
 35 H       -2.5780    -2.1270     0.8040 H     1 <1>   0.0800 
 36 H       -1.1440    -3.0440     1.1840 H     1 <1>   0.0800 
 37 H       -4.2780    -3.6970    -1.8620 H     1 <1>   0.1500 
 38 H       -5.4550    -6.9210     0.3280 H     1 <1>   0.1500 
@<TRIPOS>BOND
  1   1   2  1   
  2   2   3  ar  
  3   2   4  ar  
  4   3   5  1   
  5   3   6  ar  
  6   4   7  ar  
  7   4  24  1   
  8   5   8  1   
  9   6   9  ar  
 10   6  25  1   
 11   7   9  ar  
 12   7  26  1   
 13   8  10  1   
 14   8  11  1   
 15   8  27  1   
 16   9  28  1   
 17  10  12  1   
 18  10  29  1   
 19  10  30  1   
 20  11  13  1   
 21  11  31  1   
 22  11  32  1   
 23  12  14  1   
 24  12  33  1   
 25  12  34  1   
 26  13  14  1   
 27  13  35  1   
 28  13  36  1   
 29  14  15  1   
 30  15  16  ar  
 31  15  17  ar  
 32  16  18  ar  
 33  17  19  ar  
 34  17  37  1   
 35  18  20  1   
 36  18  21  ar  
 37  19  21  ar  
 38  20  22  ar  
 39  20  23  ar  
 40  21  38  1   
@<TRIPOS>SUBSTRUCTURE
  1 ****  13 GROUP 4 **** **** 0

# MOE 2024.06 (io_trps.svl 2023.06)
