@<TRIPOS>MOLECULE
NONAME
47 49 1 0 0 
SMALL
USER_CHARGES


@<TRIPOS>ATOM
  1 CL       0.4890    -5.2010     3.6210 Cl    1 <1>  -0.1770 
  2 C       -0.2170    -5.1950     2.0240 C.ar  1 <1>   0.1770 
  3 C       -1.4630    -4.6270     1.8360 C.ar  1 <1>  -0.1500 
  4 C        0.4810    -5.7570     0.9740 C.ar  1 <1>  -0.1500 
  5 C       -2.0330    -4.6230     0.5720 C.ar  1 <1>  -0.1440 
  6 C       -0.0830    -5.7570    -0.2890 C.ar  1 <1>  -0.1500 
  7 C       -1.3470    -5.2030    -0.4950 C.ar  1 <1>   0.0830 
  8 C       -3.4030    -3.9880     0.3750 C.3   1 <1>  -0.0960 
  9 O       -1.9600    -5.2100    -1.7090 O.3   1 <1>  -0.3630 
 10 C       -1.5820    -6.1110    -2.7460 C.3   1 <1>   0.1810 
 11 C       -1.6110    -7.5760    -2.3060 C.2   1 <1>   0.5690 
 12 O       -0.5810    -8.2030    -2.4010 O.2   1 <1>  -0.5700 
 13 N       -2.7490    -8.1640    -1.8190 N.am  1 <1>  -0.6600 
 14 C       -4.0790    -7.5330    -1.6130 C.3   1 <1>   0.1400 
 15 C       -2.7130    -9.4810    -1.1330 C.3   1 <1>   0.1400 
 16 C       -4.5880    -8.1620    -0.3190 C.3   1 <1>   0.2000 
 17 C       -4.0470    -9.5940    -0.3850 C.3   1 <1>  -0.0800 
 18 O       -4.0100    -7.4830     0.7440 O.3   1 <1>  -0.6800 
 19 C       -3.9380   -10.3260     0.9650 C.3   1 <1>   0.0210 
 20 C       -3.3960   -11.7290     0.7760 C.2   1 <1>   0.1080 
 21 N       -4.0070   -12.6330     0.0750 N.2   1 <1>  -0.7070 
 22 C       -2.2000   -12.1970     1.3100 C.2   1 <1>  -0.1500 
 23 N       -3.2090   -13.7150     0.1470 N.pl3 1 <1>   0.3000 
 24 C       -2.1070   -13.4750     0.8880 C.2   1 <1>  -0.3320 
 25 C       -1.0160   -14.4970     1.1510 C.3   1 <1>  -0.0600 
 26 H       -1.9730    -4.1950     2.6770 H     1 <1>   0.1500 
 27 H        1.4510    -6.1880     1.1450 H     1 <1>   0.1500 
 28 H        0.4770    -6.1920    -1.0970 H     1 <1>   0.1500 
 29 H       -3.6930    -3.4200     1.2400 H     1 <1>   0.0800 
 30 H       -4.1400    -4.7510     0.2050 H     1 <1>   0.0800 
 31 H       -3.3850    -3.3270    -0.4730 H     1 <1>   0.0800 
 32 H       -2.2670    -5.9730    -3.5600 H     1 <1>   0.0800 
 33 H       -0.5960    -5.8450    -3.0790 H     1 <1>   0.0800 
 34 H       -4.0380    -6.4620    -1.5400 H     1 <1>   0.0800 
 35 H       -4.7240    -7.8110    -2.4290 H     1 <1>   0.0800 
 36 H       -2.5990   -10.2800    -1.8470 H     1 <1>   0.0800 
 37 H       -1.8820    -9.5010    -0.4470 H     1 <1>   0.0800 
 38 H       -5.6590    -8.1160    -0.2140 H     1 <1>   0.0800 
 39 H       -4.7110   -10.1620    -1.0130 H     1 <1>   0.0800 
 40 H       -3.0640    -7.3250     0.5410 H     1 <1>   0.4000 
 41 H       -4.9110   -10.3900     1.4190 H     1 <1>   0.0800 
 42 H       -3.2930    -9.7880     1.6360 H     1 <1>   0.0800 
 43 H       -1.5160   -11.6370     1.9230 H     1 <1>   0.1500 
 44 H       -3.4440   -14.5990    -0.3200 H     1 <1>   0.2700 
 45 H       -0.2470   -14.0660     1.7660 H     1 <1>   0.0800 
 46 H       -0.5750   -14.8170     0.2230 H     1 <1>   0.0800 
 47 H       -1.4230   -15.3530     1.6600 H     1 <1>   0.0800 
@<TRIPOS>BOND
  1   1   2  1   
  2   2   3  ar  
  3   2   4  ar  
  4   3   5  ar  
  5   3  26  1   
  6   4   6  ar  
  7   4  27  1   
  8   5   7  ar  
  9   5   8  1   
 10   6   7  ar  
 11   6  28  1   
 12   7   9  1   
 13   8  29  1   
 14   8  30  1   
 15   8  31  1   
 16   9  10  1   
 17  10  11  1   
 18  10  32  1   
 19  10  33  1   
 20  11  12  2   
 21  11  13  am  
 22  13  14  1   
 23  13  15  1   
 24  14  16  1   
 25  14  34  1   
 26  14  35  1   
 27  15  17  1   
 28  15  36  1   
 29  15  37  1   
 30  16  17  1   
 31  16  18  1   
 32  16  38  1   
 33  17  19  1   
 34  17  39  1   
 35  18  40  1   
 36  19  20  1   
 37  19  41  1   
 38  19  42  1   
 39  20  21  2   
 40  20  22  1   
 41  21  23  1   
 42  22  24  2   
 43  22  43  1   
 44  23  24  1   
 45  23  44  1   
 46  24  25  1   
 47  25  45  1   
 48  25  46  1   
 49  25  47  1   
@<TRIPOS>SUBSTRUCTURE
  1 ****  15 GROUP 4 **** **** 0

# MOE 2024.06 (io_trps.svl 2023.06)
