@<TRIPOS>MOLECULE
NONAME
49 52 1 0 0 
SMALL
USER_CHARGES


@<TRIPOS>ATOM
  1 O       -0.4970    -0.2070     0.1560 O.2   1 <1>  -0.5700 
  2 C       -1.4160     0.5390    -0.1190 C.2   1 <1>   0.7160 
  3 N       -2.5760    -0.0060    -0.5770 N.am  1 <1>  -0.7300 
  4 C       -1.3140     1.9590     0.0380 C.2   1 <1>  -0.0860 
  5 C       -2.9020    -1.4460    -0.7040 C.3   1 <1>   0.1400 
  6 C       -2.3900     2.8570     0.0760 C.2   1 <1>   0.3720 
  7 C       -0.2310     2.7710     0.2010 C.2   1 <1>   0.0870 
  8 C       -4.0100    -1.8370     0.2880 C.3   1 <1>   0.0000 
  9 N       -1.9880     4.0650     0.2510 N.2   1 <1>  -0.4100 
 10 N       -3.7460     2.5190    -0.0390 N.pl3 1 <1>  -0.8210 
 11 O       -0.6880     3.9920     0.3260 O.3   1 <1>  -0.0190 
 12 C        1.1930     2.5480     0.2430 C.ar  1 <1>   0.0530 
 13 C       -5.4070    -1.3520    -0.1310 C.3   1 <1>   0.2580 
 14 C       -4.6160    -3.2160    -0.0210 C.3   1 <1>   0.2580 
 15 C       -3.6650    -1.6150     1.7740 C.3   1 <1>  -0.2400 
 16 C       -4.4500     3.2600    -1.1330 C.3   1 <1>   0.2090 
 17 C       -4.4890     2.7110     1.2440 C.3   1 <1>   0.2090 
 18 C        2.0010     3.2890     1.1060 C.ar  1 <1>  -0.1500 
 19 C        1.8240     1.6130    -0.5780 C.ar  1 <1>  -0.1500 
 20 O       -5.5300    -2.5510    -0.8850 O.3   1 <1>  -0.5160 
 21 C       -5.9320     2.8500    -1.2060 C.3   1 <1>   0.1200 
 22 C       -5.9730     2.3320     1.0880 C.3   1 <1>   0.1200 
 23 C        3.3700     3.1030     1.1550 C.ar  1 <1>  -0.1500 
 24 C        3.1920     1.4200    -0.5340 C.ar  1 <1>  -0.1500 
 25 O       -6.5640     3.0360     0.0310 O.3   1 <1>  -0.5600 
 26 C        3.9700     2.1650     0.3340 C.ar  1 <1>  -0.1500 
 27 H       -3.3560     0.6620    -0.6520 H     1 <1>   0.3700 
 28 H       -2.0230    -2.0380    -0.5110 H     1 <1>   0.0800 
 29 H       -3.2180    -1.6430    -1.7140 H     1 <1>   0.0800 
 30 H       -5.4240    -0.4950    -0.7800 H     1 <1>   0.0000 
 31 H       -6.1420    -1.3360     0.6560 H     1 <1>   0.0000 
 32 H       -5.1500    -3.6760     0.7930 H     1 <1>   0.0000 
 33 H       -3.9850    -3.8830    -0.5810 H     1 <1>   0.0000 
 34 H       -3.5030    -0.5700     1.9680 H     1 <1>   0.0800 
 35 H       -2.7660    -2.1500     2.0260 H     1 <1>   0.0800 
 36 H       -4.4610    -1.9610     2.4090 H     1 <1>   0.0800 
 37 H       -3.9720     3.0480    -2.0740 H     1 <1>   0.0800 
 38 H       -4.3870     4.3210    -0.9590 H     1 <1>   0.0800 
 39 H       -4.4190     3.7400     1.5570 H     1 <1>   0.0800 
 40 H       -4.0430     2.1000     2.0100 H     1 <1>   0.0800 
 41 H        1.5460     4.0210     1.7500 H     1 <1>   0.1500 
 42 H        1.2360     1.0270    -1.2610 H     1 <1>   0.1500 
 43 H       -6.0250     1.8160    -1.4890 H     1 <1>   0.0800 
 44 H       -6.4480     3.4550    -1.9300 H     1 <1>   0.0800 
 45 H       -6.5140     2.5760     1.9840 H     1 <1>   0.0800 
 46 H       -6.0760     1.2790     0.8980 H     1 <1>   0.0800 
 47 H        3.9700     3.6860     1.8310 H     1 <1>   0.1500 
 48 H        3.6520     0.6870    -1.1740 H     1 <1>   0.1500 
 49 H        5.0350     2.0160     0.3690 H     1 <1>   0.1500 
@<TRIPOS>BOND
  1   1   2  2   
  2   2   3  am  
  3   2   4  1   
  4   3   5  1   
  5   3  27  1   
  6   4   6  1   
  7   4   7  2   
  8   5   8  1   
  9   5  28  1   
 10   5  29  1   
 11   6   9  2   
 12   6  10  1   
 13   7  11  1   
 14   7  12  1   
 15   8  13  1   
 16   8  14  1   
 17   8  15  1   
 18   9  11  1   
 19  10  16  1   
 20  10  17  1   
 21  12  18  ar  
 22  12  19  ar  
 23  13  20  1   
 24  13  30  1   
 25  13  31  1   
 26  14  20  1   
 27  14  32  1   
 28  14  33  1   
 29  15  34  1   
 30  15  35  1   
 31  15  36  1   
 32  16  21  1   
 33  16  37  1   
 34  16  38  1   
 35  17  22  1   
 36  17  39  1   
 37  17  40  1   
 38  18  23  ar  
 39  18  41  1   
 40  19  24  ar  
 41  19  42  1   
 42  21  25  1   
 43  21  43  1   
 44  21  44  1   
 45  22  25  1   
 46  22  45  1   
 47  22  46  1   
 48  23  26  ar  
 49  23  47  1   
 50  24  26  ar  
 51  24  48  1   
 52  26  49  1   
@<TRIPOS>SUBSTRUCTURE
  1 ****   4 GROUP 4 **** **** 0

# MOE 2024.06 (io_trps.svl 2023.06)
