@<TRIPOS>MOLECULE
NONAME
44 46 1 0 0 
SMALL
USER_CHARGES


@<TRIPOS>ATOM
  1 S       -0.8670    -0.0460     1.2200 S.3   1 <1>  -0.0800 
  2 C       -0.5390    -1.5850     0.5030 C.2   1 <1>   0.1980 
  3 C        0.0540    -0.5820     2.5800 C.2   1 <1>   0.1980 
  4 N        0.1720    -2.3370     1.2450 N.2   1 <1>  -0.3380 
  5 C       -1.1060    -1.8760    -0.8790 C.3   1 <1>   0.2900 
  6 N        0.5110    -1.7600     2.4390 N.2   1 <1>  -0.3380 
  7 C        0.2140     0.3630     3.7480 C.3   1 <1>  -0.0600 
  8 N       -2.5870    -1.9530    -0.9000 N.3   1 <1>  -0.8100 
  9 C       -3.0630    -3.0460    -0.0160 C.3   1 <1>   0.1100 
 10 C       -3.0700    -2.0660    -2.2870 C.3   1 <1>   0.1100 
 11 C       -4.5930    -3.1650     0.0800 C.3   1 <1>   0.1400 
 12 C       -4.5300    -1.6150    -2.3820 C.3   1 <1>  -0.1600 
 13 N       -5.1740    -3.7430    -1.1710 N.am  1 <1>  -0.6600 
 14 C       -5.5520    -2.7480    -2.2150 C.3   1 <1>   0.1400 
 15 C       -5.4180    -5.0830    -1.3720 C.2   1 <1>   0.5690 
 16 O       -5.8940    -5.4890    -2.4080 O.2   1 <1>  -0.5700 
 17 C       -5.0790    -6.1390    -0.3300 C.3   1 <1>   0.0810 
 18 C       -6.2310    -6.3780     0.6290 C.2   1 <1>  -0.0400 
 19 O       -6.5210    -5.4970     1.5490 O.3   1 <1>  -0.0190 
 20 C       -7.0940    -7.3980     0.7500 C.2   1 <1>  -0.1500 
 21 N       -7.5300    -5.8720     2.2800 N.2   1 <1>  -0.4100 
 22 C       -7.8980    -7.0140     1.8200 C.2   1 <1>   0.1080 
 23 C       -9.0520    -7.8220     2.3710 C.3   1 <1>  -0.0590 
 24 H       -0.6920    -2.8030    -1.2360 H     1 <1>   0.0800 
 25 H       -0.7810    -1.0900    -1.5380 H     1 <1>   0.0800 
 26 H        0.7040     1.2630     3.4240 H     1 <1>   0.0800 
 27 H        0.8060    -0.1030     4.5140 H     1 <1>   0.0800 
 28 H       -0.7510     0.6100     4.1520 H     1 <1>   0.0800 
 29 H       -2.7040    -2.8620     0.9820 H     1 <1>   0.0800 
 30 H       -2.6520    -3.9870    -0.3400 H     1 <1>   0.0800 
 31 H       -2.9490    -3.0710    -2.6570 H     1 <1>   0.0800 
 32 H       -2.4900    -1.4090    -2.9130 H     1 <1>   0.0800 
 33 H       -5.0200    -2.1980     0.2800 H     1 <1>   0.0800 
 34 H       -4.8360    -3.7890     0.9190 H     1 <1>   0.0800 
 35 H       -4.6910    -1.1870    -3.3550 H     1 <1>   0.0800 
 36 H       -4.7180    -0.8340    -1.6670 H     1 <1>   0.0800 
 37 H       -5.6510    -3.2480    -3.1640 H     1 <1>   0.0800 
 38 H       -6.5140    -2.3320    -1.9690 H     1 <1>   0.0800 
 39 H       -4.1960    -5.8700     0.2150 H     1 <1>   0.0800 
 40 H       -4.8680    -7.0560    -0.8460 H     1 <1>   0.0800 
 41 H       -7.1780    -8.3030     0.1770 H     1 <1>   0.1500 
 42 H       -9.7870    -7.9760     1.6030 H     1 <1>   0.0800 
 43 H       -9.5090    -7.2970     3.1900 H     1 <1>   0.0800 
 44 H       -8.6970    -8.7730     2.7210 H     1 <1>   0.0800 
@<TRIPOS>BOND
  1   1   2  1   
  2   1   3  1   
  3   2   4  2   
  4   2   5  1   
  5   3   6  2   
  6   3   7  1   
  7   4   6  1   
  8   5   8  1   
  9   5  24  1   
 10   5  25  1   
 11   7  26  1   
 12   7  27  1   
 13   7  28  1   
 14   8   9  1   
 15   8  10  1   
 16   9  11  1   
 17   9  29  1   
 18   9  30  1   
 19  10  12  1   
 20  10  31  1   
 21  10  32  1   
 22  11  13  1   
 23  11  33  1   
 24  11  34  1   
 25  12  14  1   
 26  12  35  1   
 27  12  36  1   
 28  13  14  1   
 29  13  15  am  
 30  14  37  1   
 31  14  38  1   
 32  15  16  2   
 33  15  17  1   
 34  17  18  1   
 35  17  39  1   
 36  17  40  1   
 37  18  19  1   
 38  18  20  2   
 39  19  21  1   
 40  20  22  1   
 41  20  41  1   
 42  21  22  2   
 43  22  23  1   
 44  23  42  1   
 45  23  43  1   
 46  23  44  1   
@<TRIPOS>SUBSTRUCTURE
  1 ****  11 GROUP 4 **** **** 0

# MOE 2024.06 (io_trps.svl 2023.06)
