@<TRIPOS>MOLECULE
NONAME
31 32 1 0 0 
SMALL
USER_CHARGES


@<TRIPOS>ATOM
  1 F       -0.8710     0.2370    -0.6590 F     1 <1>  -0.3400 
  2 C       -2.0450    -0.3360    -0.3980 C.3   1 <1>   1.1640 
  3 F       -2.8020    -0.0990    -1.4650 F     1 <1>  -0.3400 
  4 F       -2.5710     0.3710     0.5990 F     1 <1>  -0.3400 
  5 C       -1.9140    -1.8480    -0.0710 C.ar  1 <1>   0.1660 
  6 N       -2.9770    -2.5260     0.3350 N.ar  1 <1>  -0.6200 
  7 C       -0.6980    -2.4910    -0.2000 C.ar  1 <1>  -0.1500 
  8 C       -2.8290    -3.8250     0.5900 C.ar  1 <1>   0.7200 
  9 C       -0.6370    -3.8270     0.1070 C.ar  1 <1>   0.1600 
 10 N       -1.6840    -4.4980     0.5060 N.ar  1 <1>  -0.6200 
 11 N       -3.9430    -4.5230     0.9950 N.pl3 1 <1>  -0.8380 
 12 C       -4.0450    -6.0160     0.8120 C.3   1 <1>   0.2090 
 13 C       -5.1640    -3.8640     1.5470 C.3   1 <1>   0.2090 
 14 C       -5.3420    -6.4690     0.1070 C.3   1 <1>   0.2000 
 15 C       -6.4130    -4.2720     0.7620 C.3   1 <1>  -0.1600 
 16 O       -5.2880    -6.1500    -1.2420 O.3   1 <1>  -0.6800 
 17 C       -6.5780    -5.8060     0.7260 C.3   1 <1>  -0.1860 
 18 C       -7.8450    -6.2500     0.0220 C.2   1 <1>   0.9060 
 19 O       -8.7570    -6.7280     0.7010 O.co2 1 <1>  -0.9000 
 20 O       -7.9180    -6.1370    -1.2090 O.co2 1 <1>  -0.9000 
 21 H        0.1890    -1.9800    -0.5280 H     1 <1>   0.1500 
 22 H        0.2960    -4.3570     0.0210 H     1 <1>   0.1500 
 23 H       -3.2130    -6.3960     0.2470 H     1 <1>   0.0800 
 24 H       -4.0110    -6.4700     1.7850 H     1 <1>   0.0800 
 25 H       -5.2780    -4.1630     2.5740 H     1 <1>   0.0800 
 26 H       -5.0730    -2.7920     1.5300 H     1 <1>   0.0800 
 27 H       -5.4370    -7.5390     0.1700 H     1 <1>   0.0800 
 28 H       -7.2820    -3.8330     1.2190 H     1 <1>   0.0800 
 29 H       -6.3420    -3.8870    -0.2410 H     1 <1>   0.0800 
 30 H       -6.2420    -6.0970    -1.5470 H     1 <1>   0.4000 
 31 H       -6.6600    -6.1530     1.7390 H     1 <1>   0.0800 
@<TRIPOS>BOND
  1   1   2  1   
  2   2   3  1   
  3   2   4  1   
  4   2   5  1   
  5   5   6  ar  
  6   5   7  ar  
  7   6   8  ar  
  8   7   9  ar  
  9   7  21  1   
 10   8  10  ar  
 11   8  11  1   
 12   9  10  ar  
 13   9  22  1   
 14  11  12  1   
 15  11  13  1   
 16  12  14  1   
 17  12  23  1   
 18  12  24  1   
 19  13  15  1   
 20  13  25  1   
 21  13  26  1   
 22  14  16  1   
 23  14  17  1   
 24  14  27  1   
 25  15  17  1   
 26  15  28  1   
 27  15  29  1   
 28  16  30  1   
 29  17  18  1   
 30  17  31  1   
 31  18  19  ar  
 32  18  20  ar  
@<TRIPOS>SUBSTRUCTURE
  1 ****  11 GROUP 4 **** **** 0

# MOE 2024.06 (io_trps.svl 2023.06)
