@<TRIPOS>MOLECULE
NONAME
49 50 1 0 0 
SMALL
USER_CHARGES


@<TRIPOS>ATOM
  1 O        1.2390     0.4060     2.4340 O.co2 1 <1>  -0.9000 
  2 C        1.5680    -0.1410     1.3800 C.2   1 <1>   0.9060 
  3 O        1.4020    -1.3510     1.1770 O.co2 1 <1>  -0.9000 
  4 C        2.2820     0.6800     0.2950 C.3   1 <1>  -0.1060 
  5 C        3.5920    -0.0790    -0.0180 C.3   1 <1>   0.2000 
  6 C        2.7000     2.0740     0.8420 C.3   1 <1>  -0.1600 
  7 C        1.3780     0.8170    -0.9730 C.3   1 <1>  -0.1600 
  8 O        3.3150    -1.2880    -0.6230 O.3   1 <1>  -0.6800 
  9 C        4.5260     0.7080    -0.9450 C.3   1 <1>   0.3430 
 10 C        3.5730     2.8560    -0.1330 C.3   1 <1>   0.3430 
 11 C        0.0710     1.5970    -0.7490 C.3   1 <1>  -0.1600 
 12 N        4.8190     2.0830    -0.4160 N.4   1 <1>  -0.9590 
 13 C       -0.8110     1.5560    -2.0010 C.3   1 <1>  -0.2400 
 14 C        5.7460     2.8170    -1.3120 C.3   1 <1>   0.4860 
 15 C        6.2820     4.0270    -0.5710 C.ar  1 <1>  -0.1430 
 16 C        7.3450     3.9290     0.3260 C.ar  1 <1>  -0.1430 
 17 C        5.6900     5.2620    -0.8050 C.ar  1 <1>  -0.1500 
 18 C        7.7810     5.0700     0.9820 C.ar  1 <1>  -0.1500 
 19 C        8.0770     2.6200     0.6150 C.3   1 <1>  -0.0170 
 20 C        6.1350     6.3920    -0.1440 C.ar  1 <1>  -0.1500 
 21 C        7.1810     6.2940     0.7530 C.ar  1 <1>  -0.1500 
 22 C        9.1870     2.3850    -0.4120 C.3   1 <1>  -0.2400 
 23 H        4.1040    -0.3060     0.9020 H     1 <1>   0.0800 
 24 H        3.2350     1.9520     1.7690 H     1 <1>   0.0800 
 25 H        1.8260     2.6510     1.0860 H     1 <1>   0.0800 
 26 H        1.9170     1.2710    -1.7830 H     1 <1>   0.0800 
 27 H        1.1040    -0.1740    -1.2960 H     1 <1>   0.0800 
 28 H        2.5660    -1.6880    -0.0830 H     1 <1>   0.4000 
 29 H        4.0520     0.7860    -1.9080 H     1 <1>   0.0800 
 30 H        5.4410     0.1520    -1.0560 H     1 <1>   0.0800 
 31 H        3.8220     3.8100     0.3040 H     1 <1>   0.0800 
 32 H        3.0270     3.0290    -1.0450 H     1 <1>   0.0800 
 33 H       -0.4730     1.1630     0.0750 H     1 <1>   0.0800 
 34 H        0.2740     2.6240    -0.5080 H     1 <1>   0.0800 
 35 H        5.2980     1.9870     0.4880 H     1 <1>   0.4500 
 36 H       -1.0670     0.5390    -2.2420 H     1 <1>   0.0800 
 37 H       -0.3030     1.9960    -2.8400 H     1 <1>   0.0800 
 38 H       -1.7210     2.1010    -1.8250 H     1 <1>   0.0800 
 39 H        6.5700     2.1820    -1.5920 H     1 <1>   0.0800 
 40 H        5.2340     3.1260    -2.2080 H     1 <1>   0.0800 
 41 H        4.8790     5.3640    -1.5050 H     1 <1>   0.1500 
 42 H        8.6030     5.0180     1.6760 H     1 <1>   0.1500 
 43 H        8.5190     2.6650     1.5970 H     1 <1>   0.0800 
 44 H        7.4020     1.7850     0.6190 H     1 <1>   0.0800 
 45 H        5.6740     7.3480    -0.3260 H     1 <1>   0.1500 
 46 H        7.5330     7.1720     1.2690 H     1 <1>   0.1500 
 47 H        9.8910     3.1990    -0.3850 H     1 <1>   0.0800 
 48 H        8.7860     2.3170    -1.4070 H     1 <1>   0.0800 
 49 H        9.7130     1.4740    -0.1890 H     1 <1>   0.0800 
@<TRIPOS>BOND
  1   1   2  ar  
  2   2   3  ar  
  3   2   4  1   
  4   4   5  1   
  5   4   6  1   
  6   4   7  1   
  7   5   8  1   
  8   5   9  1   
  9   5  23  1   
 10   6  10  1   
 11   6  24  1   
 12   6  25  1   
 13   7  11  1   
 14   7  26  1   
 15   7  27  1   
 16   8  28  1   
 17   9  12  1   
 18   9  29  1   
 19   9  30  1   
 20  10  12  1   
 21  10  31  1   
 22  10  32  1   
 23  11  13  1   
 24  11  33  1   
 25  11  34  1   
 26  12  14  1   
 27  12  35  1   
 28  13  36  1   
 29  13  37  1   
 30  13  38  1   
 31  14  15  1   
 32  14  39  1   
 33  14  40  1   
 34  15  16  ar  
 35  15  17  ar  
 36  16  18  ar  
 37  16  19  1   
 38  17  20  ar  
 39  17  41  1   
 40  18  21  ar  
 41  18  42  1   
 42  19  22  1   
 43  19  43  1   
 44  19  44  1   
 45  20  21  ar  
 46  20  45  1   
 47  21  46  1   
 48  22  47  1   
 49  22  48  1   
 50  22  49  1   
@<TRIPOS>SUBSTRUCTURE
  1 ****  12 GROUP 4 **** **** 0

# MOE 2024.06 (io_trps.svl 2023.06)
