@<TRIPOS>MOLECULE
NONAME
48 50 1 0 0 
SMALL
USER_CHARGES


@<TRIPOS>ATOM
  1 O        1.4190    -1.0110    -2.4930 O.2   1 <1>  -0.5700 
  2 C        1.4360    -1.6830    -1.4740 C.2   1 <1>   0.5440 
  3 N        1.3340    -1.0030    -0.2710 N.am  1 <1>  -0.6600 
  4 C        1.5950    -3.1350    -1.5910 C.ar  1 <1>   0.3960 
  5 C        1.4320    -1.6010     1.0810 C.3   1 <1>   0.1400 
  6 C        1.2820     0.4740    -0.1890 C.3   1 <1>   0.1400 
  7 N        1.0420    -3.9760    -0.6990 N.ar  1 <1>  -0.6200 
  8 C        2.3390    -3.6150    -2.6760 C.ar  1 <1>   0.1600 
  9 C        1.3240    -0.4260     2.0470 C.3   1 <1>  -0.1600 
 10 C        1.7310     0.7960     1.2300 C.3   1 <1>  -0.1600 
 11 C        1.2760    -5.2450    -0.9530 C.ar  1 <1>   0.4100 
 12 N        2.5950    -4.8910    -2.9380 N.ar  1 <1>  -0.6200 
 13 N        0.6950    -6.0960    -0.0520 N.pl3 1 <1>  -0.8690 
 14 C        2.0450    -5.6830    -2.0420 C.ar  1 <1>   0.1600 
 15 C       -0.1310    -7.2330    -0.5030 C.3   1 <1>   0.2090 
 16 C       -1.5280    -7.0830     0.0910 C.3   1 <1>  -0.1600 
 17 C       -2.4560    -8.2120    -0.3700 C.3   1 <1>   0.0210 
 18 C       -3.8340    -8.0330     0.2390 C.2   1 <1>  -0.1810 
 19 C       -4.2910    -8.5670     1.4430 C.2   1 <1>   0.1080 
 20 C       -4.8830    -7.3320    -0.2460 C.2   1 <1>  -0.3320 
 21 N       -5.5180    -8.2360     1.6930 N.2   1 <1>  -0.7070 
 22 C       -3.4950    -9.4400     2.3870 C.3   1 <1>  -0.0590 
 23 N       -5.8830    -7.4730     0.6490 N.pl3 1 <1>   0.3000 
 24 C       -5.0210    -6.5120    -1.5180 C.3   1 <1>  -0.0600 
 25 H        2.3850    -2.0930     1.1840 H     1 <1>   0.0800 
 26 H        0.6370    -2.3070     1.2470 H     1 <1>   0.0800 
 27 H        0.2670     0.7960    -0.3500 H     1 <1>   0.0800 
 28 H        1.9260     0.9290    -0.9220 H     1 <1>   0.0800 
 29 H        2.7470    -2.8950    -3.3630 H     1 <1>   0.1500 
 30 H        1.9430    -0.5650     2.9160 H     1 <1>   0.0800 
 31 H        0.2990    -0.3290     2.3610 H     1 <1>   0.0800 
 32 H        1.2830     1.7040     1.5940 H     1 <1>   0.0800 
 33 H        2.8010     0.9040     1.2400 H     1 <1>   0.0800 
 34 H        0.2380    -5.5610     0.6920 H     1 <1>   0.4000 
 35 H        2.1990    -6.7400    -2.1500 H     1 <1>   0.1500 
 36 H        0.3200    -8.1520    -0.1690 H     1 <1>   0.0800 
 37 H       -0.1910    -7.2460    -1.5790 H     1 <1>   0.0800 
 38 H       -1.9490    -6.1420    -0.2180 H     1 <1>   0.0800 
 39 H       -1.4670    -7.0960     1.1650 H     1 <1>   0.0800 
 40 H       -2.0570    -9.1670    -0.0800 H     1 <1>   0.0800 
 41 H       -2.5390    -8.2030    -1.4420 H     1 <1>   0.0800 
 42 H       -2.5110    -9.0360     2.5260 H     1 <1>   0.0800 
 43 H       -3.4240   -10.4330     1.9860 H     1 <1>   0.0800 
 44 H       -3.9890    -9.4850     3.3410 H     1 <1>   0.0800 
 45 H       -6.8210    -7.0620     0.5790 H     1 <1>   0.2700 
 46 H       -4.0960    -6.4990    -2.0640 H     1 <1>   0.0800 
 47 H       -5.2860    -5.4980    -1.2770 H     1 <1>   0.0800 
 48 H       -5.7840    -6.9330    -2.1480 H     1 <1>   0.0800 
@<TRIPOS>BOND
  1   1   2  2   
  2   2   3  am  
  3   2   4  1   
  4   3   5  1   
  5   3   6  1   
  6   4   7  ar  
  7   4   8  ar  
  8   5   9  1   
  9   5  25  1   
 10   5  26  1   
 11   6  10  1   
 12   6  27  1   
 13   6  28  1   
 14   7  11  ar  
 15   8  12  ar  
 16   8  29  1   
 17   9  10  1   
 18   9  30  1   
 19   9  31  1   
 20  10  32  1   
 21  10  33  1   
 22  11  13  1   
 23  11  14  ar  
 24  12  14  ar  
 25  13  15  1   
 26  13  34  1   
 27  14  35  1   
 28  15  16  1   
 29  15  36  1   
 30  15  37  1   
 31  16  17  1   
 32  16  38  1   
 33  16  39  1   
 34  17  18  1   
 35  17  40  1   
 36  17  41  1   
 37  18  19  1   
 38  18  20  2   
 39  19  21  2   
 40  19  22  1   
 41  20  23  1   
 42  20  24  1   
 43  21  23  1   
 44  22  42  1   
 45  22  43  1   
 46  22  44  1   
 47  23  45  1   
 48  24  46  1   
 49  24  47  1   
 50  24  48  1   
@<TRIPOS>SUBSTRUCTURE
  1 ****  13 GROUP 4 **** **** 0

# MOE 2024.06 (io_trps.svl 2023.06)
