@<TRIPOS>MOLECULE
NONAME
46 48 1 0 0 
SMALL
USER_CHARGES


@<TRIPOS>ATOM
  1 O       -3.5980     1.4210    -2.1830 O.2   1 <1>  -0.5700 
  2 C       -2.7050     1.4370    -1.3560 C.2   1 <1>   0.5440 
  3 N       -2.2150     0.2300    -0.9510 N.am  1 <1>  -0.7300 
  4 C       -2.1920     2.6990    -0.8540 C.ar  1 <1>   0.0860 
  5 C       -2.6930    -1.0960    -1.4000 C.3   1 <1>   0.2200 
  6 C       -1.4610     2.8390     0.3410 C.ar  1 <1>   0.3920 
  7 C       -2.4210     3.8650    -1.5810 C.ar  1 <1>  -0.1500 
  8 C       -3.7460    -1.6040    -0.4300 C.3   1 <1>  -0.0800 
  9 C       -1.5800    -2.1270    -1.2270 C.3   1 <1>   0.1200 
 10 O       -1.2290     1.7390     1.0940 O.3   1 <1>  -0.3620 
 11 N       -0.9690     3.9830     0.8120 N.ar  1 <1>  -0.6200 
 12 C       -1.9220     5.0520    -1.1020 C.ar  1 <1>  -0.1500 
 13 C       -2.8790    -2.2050     0.6790 C.3   1 <1>   0.1200 
 14 C       -4.6620    -2.6510    -1.0930 C.3   1 <1>  -0.0170 
 15 O       -1.6820    -2.6120     0.0820 O.3   1 <1>  -0.5600 
 16 C       -0.5090     1.7870     2.3130 C.3   1 <1>   0.0400 
 17 C       -1.2080     5.0640     0.0830 C.ar  1 <1>   0.3930 
 18 C       -5.7230    -3.1620    -0.1300 C.ar  1 <1>  -0.1430 
 19 O       -0.7390     6.2530     0.5030 O.3   1 <1>  -0.3630 
 20 C       -5.6390    -4.4060     0.4610 C.ar  1 <1>  -0.1500 
 21 C       -6.8280    -2.4040     0.2000 C.ar  1 <1>  -0.1500 
 22 C       -0.0010     6.3720     1.7040 C.3   1 <1>   0.0400 
 23 C       -6.6350    -4.8200     1.3300 C.ar  1 <1>   0.1600 
 24 C       -7.7680    -2.9120     1.0810 C.ar  1 <1>   0.1600 
 25 N       -7.6980    -4.1020     1.6560 N.ar  1 <1>  -0.6200 
 26 H       -1.5760     0.2130    -0.1480 H     1 <1>   0.3700 
 27 H       -3.0420    -1.0380    -2.4170 H     1 <1>   0.0800 
 28 H       -2.9790     3.8340    -2.5020 H     1 <1>   0.1500 
 29 H       -4.3530    -0.7990    -0.0560 H     1 <1>   0.0800 
 30 H       -0.6010    -1.7080    -1.3820 H     1 <1>   0.0800 
 31 H       -1.7290    -2.9590    -1.8920 H     1 <1>   0.0800 
 32 H       -2.0740     5.9740    -1.6320 H     1 <1>   0.1500 
 33 H       -3.3350    -3.0480     1.1680 H     1 <1>   0.0800 
 34 H       -2.6360    -1.4560     1.4120 H     1 <1>   0.0800 
 35 H       -4.0800    -3.4790    -1.4570 H     1 <1>   0.0800 
 36 H       -5.1540    -2.2040    -1.9400 H     1 <1>   0.0800 
 37 H       -0.4600     0.7930     2.7190 H     1 <1>   0.0800 
 38 H       -1.0240     2.4400     2.9960 H     1 <1>   0.0800 
 39 H        0.4830     2.1570     2.1170 H     1 <1>   0.0800 
 40 H       -4.8100    -5.0590     0.2550 H     1 <1>   0.1500 
 41 H       -6.9670    -1.4250    -0.2210 H     1 <1>   0.1500 
 42 H        0.2670     7.4040     1.8350 H     1 <1>   0.0800 
 43 H        0.8840     5.7650     1.6280 H     1 <1>   0.0800 
 44 H       -0.6150     6.0410     2.5230 H     1 <1>   0.0800 
 45 H       -6.5520    -5.7940     1.7820 H     1 <1>   0.1500 
 46 H       -8.6240    -2.3060     1.3260 H     1 <1>   0.1500 
@<TRIPOS>BOND
  1   1   2  2   
  2   2   3  am  
  3   2   4  1   
  4   3   5  1   
  5   3  26  1   
  6   4   6  ar  
  7   4   7  ar  
  8   5   8  1   
  9   5   9  1   
 10   5  27  1   
 11   6  10  1   
 12   6  11  ar  
 13   7  12  ar  
 14   7  28  1   
 15   8  13  1   
 16   8  14  1   
 17   8  29  1   
 18   9  15  1   
 19   9  30  1   
 20   9  31  1   
 21  10  16  1   
 22  11  17  ar  
 23  12  17  ar  
 24  12  32  1   
 25  13  15  1   
 26  13  33  1   
 27  13  34  1   
 28  14  18  1   
 29  14  35  1   
 30  14  36  1   
 31  16  37  1   
 32  16  38  1   
 33  16  39  1   
 34  17  19  1   
 35  18  20  ar  
 36  18  21  ar  
 37  19  22  1   
 38  20  23  ar  
 39  20  40  1   
 40  21  24  ar  
 41  21  41  1   
 42  22  42  1   
 43  22  43  1   
 44  22  44  1   
 45  23  25  ar  
 46  23  45  1   
 47  24  25  ar  
 48  24  46  1   
@<TRIPOS>SUBSTRUCTURE
  1 ****   3 GROUP 4 **** **** 0

# MOE 2024.06 (io_trps.svl 2023.06)
