@<TRIPOS>MOLECULE
NONAME
52 56 1 0 0 
SMALL
USER_CHARGES


@<TRIPOS>ATOM
  1 O        2.1780    -5.1590    -1.9000 O.3   1 <1>  -0.3630 
  2 C        1.0340    -5.3230    -1.2210 C.ar  1 <1>   0.0820 
  3 C        3.1820    -6.0110    -1.3640 C.3   1 <1>   0.1200 
  4 C        1.1340    -6.2480    -0.2180 C.ar  1 <1>  -0.1440 
  5 C       -0.1490    -4.6530    -1.4680 C.ar  1 <1>  -0.1500 
  6 C        2.5390    -6.7730    -0.1900 C.3   1 <1>  -0.0160 
  7 C        0.0420    -6.5560     0.5690 C.ar  1 <1>  -0.1500 
  8 C       -1.2500    -4.9440    -0.6780 C.ar  1 <1>  -0.1500 
  9 C       -1.1620    -5.8990     0.3340 C.ar  1 <1>  -0.1440 
 10 C       -2.3660    -6.2440     1.1820 C.3   1 <1>   0.4870 
 11 N       -3.0750    -7.3480     0.5010 N.4   1 <1>  -0.9590 
 12 C       -3.9270    -6.9400    -0.6530 C.3   1 <1>   0.3430 
 13 C       -3.8750    -8.2620     1.3440 C.3   1 <1>   0.3430 
 14 C       -5.0270    -8.0050    -0.7660 C.3   1 <1>   0.2000 
 15 C       -4.7720    -9.0170     0.3610 C.3   1 <1>  -0.0800 
 16 O       -6.2670    -7.4090    -0.5670 O.3   1 <1>  -0.6800 
 17 C       -4.1510   -10.3460    -0.1430 C.3   1 <1>  -0.0170 
 18 C       -2.6740   -10.3360    -0.5430 C.ar  1 <1>   0.1670 
 19 N       -2.2400    -9.3820    -1.3120 N.ar  1 <1>  -0.6200 
 20 C       -1.8520   -11.3750    -0.0770 C.ar  1 <1>  -0.1500 
 21 C       -0.9370    -9.4120    -1.7030 C.ar  1 <1>   0.3100 
 22 C       -0.5400   -11.4240    -0.4390 C.ar  1 <1>  -0.1500 
 23 C       -0.0440   -10.4230    -1.2880 C.ar  1 <1>   0.0000 
 24 C       -0.4530    -8.4010    -2.5490 C.ar  1 <1>  -0.1500 
 25 C        1.2880   -10.3930    -1.7460 C.ar  1 <1>  -0.1500 
 26 C        0.8470    -8.3870    -2.9800 C.ar  1 <1>  -0.1500 
 27 C        1.7250    -9.3980    -2.5780 C.ar  1 <1>  -0.1500 
 28 H        3.5030    -6.6810    -2.1410 H     1 <1>   0.0800 
 29 H        4.0030    -5.3980    -1.0360 H     1 <1>   0.0800 
 30 H       -0.1920    -3.9240    -2.2570 H     1 <1>   0.1500 
 31 H        2.5680    -7.8350    -0.3530 H     1 <1>   0.0800 
 32 H        3.0280    -6.5310     0.7360 H     1 <1>   0.0800 
 33 H        0.1430    -7.2940     1.3450 H     1 <1>   0.1500 
 34 H       -2.1700    -4.4180    -0.8640 H     1 <1>   0.1500 
 35 H       -3.0100    -5.3880     1.2980 H     1 <1>   0.0800 
 36 H       -2.0300    -6.5620     2.1560 H     1 <1>   0.0800 
 37 H       -2.3450    -7.9400     0.0520 H     1 <1>   0.4500 
 38 H       -4.3710    -5.9720    -0.4870 H     1 <1>   0.0800 
 39 H       -3.3350    -6.9180    -1.5540 H     1 <1>   0.0800 
 40 H       -3.2460    -8.9350     1.9050 H     1 <1>   0.0800 
 41 H       -4.4850    -7.6890     2.0230 H     1 <1>   0.0800 
 42 H       -5.0320    -8.4570    -1.7440 H     1 <1>   0.0800 
 43 H       -5.6990    -9.2730     0.8440 H     1 <1>   0.0800 
 44 H       -6.4170    -7.1260     0.3550 H     1 <1>   0.4000 
 45 H       -4.7180   -10.6970    -0.9880 H     1 <1>   0.0800 
 46 H       -4.2860   -11.0800     0.6320 H     1 <1>   0.0800 
 47 H       -2.2630   -12.1400     0.5580 H     1 <1>   0.1500 
 48 H        0.1150   -12.2100    -0.1030 H     1 <1>   0.1500 
 49 H       -1.1320    -7.6280    -2.8570 H     1 <1>   0.1500 
 50 H        1.9600   -11.1730    -1.4330 H     1 <1>   0.1500 
 51 H        1.2040    -7.6030    -3.6280 H     1 <1>   0.1500 
 52 H        2.7420    -9.3790    -2.9330 H     1 <1>   0.1500 
@<TRIPOS>BOND
  1   1   2  1   
  2   1   3  1   
  3   2   4  ar  
  4   2   5  ar  
  5   3   6  1   
  6   3  28  1   
  7   3  29  1   
  8   4   6  1   
  9   4   7  ar  
 10   5   8  ar  
 11   5  30  1   
 12   6  31  1   
 13   6  32  1   
 14   7   9  ar  
 15   7  33  1   
 16   8   9  ar  
 17   8  34  1   
 18   9  10  1   
 19  10  11  1   
 20  10  35  1   
 21  10  36  1   
 22  11  12  1   
 23  11  13  1   
 24  11  37  1   
 25  12  14  1   
 26  12  38  1   
 27  12  39  1   
 28  13  15  1   
 29  13  40  1   
 30  13  41  1   
 31  14  15  1   
 32  14  16  1   
 33  14  42  1   
 34  15  17  1   
 35  15  43  1   
 36  16  44  1   
 37  17  18  1   
 38  17  45  1   
 39  17  46  1   
 40  18  19  ar  
 41  18  20  ar  
 42  19  21  ar  
 43  20  22  ar  
 44  20  47  1   
 45  21  23  ar  
 46  21  24  ar  
 47  22  23  ar  
 48  22  48  1   
 49  23  25  ar  
 50  24  26  ar  
 51  24  49  1   
 52  25  27  ar  
 53  25  50  1   
 54  26  27  ar  
 55  26  51  1   
 56  27  52  1   
@<TRIPOS>SUBSTRUCTURE
  1 ****  21 GROUP 4 **** **** 0

# MOE 2024.06 (io_trps.svl 2023.06)
