@<TRIPOS>MOLECULE
NONAME
28 29 1 0 0 
SMALL
USER_CHARGES


@<TRIPOS>ATOM
  1 CL      -0.2070    -0.0670     0.1240 Cl    1 <1>  -0.1770 
  2 C       -1.7380    -0.9130     0.0710 C.ar  1 <1>   0.1770 
  3 C       -1.9290    -2.0760     0.7730 C.ar  1 <1>   0.1600 
  4 C       -2.7870    -0.4350    -0.6740 C.ar  1 <1>   0.1600 
  5 N       -3.0730    -2.7210     0.7410 N.ar  1 <1>  -0.6200 
  6 N       -3.9420    -1.0600    -0.7240 N.ar  1 <1>  -0.6200 
  7 C       -4.0400    -2.1890    -0.0130 C.ar  1 <1>   0.7200 
  8 N       -5.2400    -2.8610    -0.0610 N.pl3 1 <1>  -0.8380 
  9 C       -5.3290    -4.3090     0.3360 C.3   1 <1>   0.2090 
 10 C       -6.4690    -2.2310    -0.6310 C.3   1 <1>   0.2090 
 11 C       -6.4850    -4.9870    -0.3870 C.3   1 <1>  -0.1860 
 12 C       -7.7260    -2.7870     0.0430 C.3   1 <1>  -0.1600 
 13 C       -6.4630    -6.4720    -0.1230 C.2   1 <1>   0.9060 
 14 C       -7.8220    -4.3200    -0.0350 C.3   1 <1>   0.2000 
 15 O       -6.1080    -7.2270    -1.0300 O.co2 1 <1>  -0.9000 
 16 O       -6.8100    -6.8900     0.9890 O.co2 1 <1>  -0.9000 
 17 O       -8.2580    -4.7580     1.2000 O.3   1 <1>  -0.6800 
 18 H       -1.1300    -2.4800     1.3690 H     1 <1>   0.1500 
 19 H       -2.6700     0.4750    -1.2360 H     1 <1>   0.1500 
 20 H       -4.4130    -4.8170     0.0870 H     1 <1>   0.0800 
 21 H       -5.4760    -4.3800     1.4010 H     1 <1>   0.0800 
 22 H       -6.4390    -1.1650    -0.4850 H     1 <1>   0.0800 
 23 H       -6.5010    -2.4270    -1.6890 H     1 <1>   0.0800 
 24 H       -6.3140    -4.8720    -1.4400 H     1 <1>   0.0800 
 25 H       -8.5940    -2.3570    -0.4190 H     1 <1>   0.0800 
 26 H       -7.7070    -2.4690     1.0710 H     1 <1>   0.0800 
 27 H       -8.5620    -4.6210    -0.7570 H     1 <1>   0.0800 
 28 H       -7.8460    -5.6660     1.3450 H     1 <1>   0.4000 
@<TRIPOS>BOND
  1   1   2  1   
  2   2   3  ar  
  3   2   4  ar  
  4   3   5  ar  
  5   3  18  1   
  6   4   6  ar  
  7   4  19  1   
  8   5   7  ar  
  9   6   7  ar  
 10   7   8  1   
 11   8   9  1   
 12   8  10  1   
 13   9  11  1   
 14   9  20  1   
 15   9  21  1   
 16  10  12  1   
 17  10  22  1   
 18  10  23  1   
 19  11  13  1   
 20  11  14  1   
 21  11  24  1   
 22  12  14  1   
 23  12  25  1   
 24  12  26  1   
 25  13  15  ar  
 26  13  16  ar  
 27  14  17  1   
 28  14  27  1   
 29  17  28  1   
@<TRIPOS>SUBSTRUCTURE
  1 ****   8 GROUP 4 **** **** 0

# MOE 2024.06 (io_trps.svl 2023.06)
