@<TRIPOS>MOLECULE
NONAME
43 45 1 0 0 
SMALL
USER_CHARGES


@<TRIPOS>ATOM
  1 S        0.1550    -0.8970     0.7470 S.o2  1 <1>   1.5010 
  2 O        0.6120    -2.1710     1.2590 O.2   1 <1>  -0.6500 
  3 O       -0.9950    -0.2710     1.3630 O.2   1 <1>  -0.6500 
  4 N       -0.3310    -1.1220    -0.8500 N.am  1 <1>  -0.9140 
  5 C        1.5630     0.2780     0.6310 C.2   1 <1>   0.1640 
  6 C       -1.0290    -2.3510    -1.2430 C.3   1 <1>   0.2760 
  7 N        1.5390     1.4280    -0.1050 N.2   1 <1>  -0.5650 
  8 C        2.7720     0.1800     1.2430 C.2   1 <1>  -0.3020 
  9 C       -2.1590    -2.8280    -0.3190 C.3   1 <1>  -0.0800 
 10 C       -0.1140    -3.5730    -1.3840 C.3   1 <1>   0.1200 
 11 C        2.6970     1.9710     0.0790 C.2   1 <1>   0.0060 
 12 N        3.4970     1.2550     0.8930 N.pl3 1 <1>   0.0330 
 13 C       -1.7070    -4.2410     0.0610 C.3   1 <1>   0.1200 
 14 C       -3.5140    -2.8330    -1.0480 C.3   1 <1>  -0.0170 
 15 O       -0.8910    -4.6550    -0.9830 O.3   1 <1>  -0.5600 
 16 C        3.1270     3.2820    -0.5520 C.3   1 <1>   0.0200 
 17 C       -4.6410    -3.2970    -0.1380 C.ar  1 <1>  -0.1430 
 18 C        3.2940     4.3830     0.5000 C.3   1 <1>  -0.2400 
 19 C       -5.0960    -2.5190     0.9080 C.ar  1 <1>  -0.1500 
 20 C       -5.2670    -4.5150    -0.3090 C.ar  1 <1>  -0.1500 
 21 C       -6.1240    -2.9850     1.7110 C.ar  1 <1>   0.1600 
 22 C       -6.2870    -4.8870     0.5510 C.ar  1 <1>   0.1600 
 23 N       -6.7310    -4.1510     1.5570 N.ar  1 <1>  -0.6200 
 24 H       -0.9500    -0.3290    -1.0060 H     1 <1>   0.4200 
 25 H       -1.4350    -2.1750    -2.2250 H     1 <1>   0.0800 
 26 H        3.1340    -0.5940     1.8970 H     1 <1>   0.1500 
 27 H       -2.2590    -2.2470     0.5760 H     1 <1>   0.0800 
 28 H        0.7450    -3.5230    -0.7400 H     1 <1>   0.0800 
 29 H        0.1950    -3.7290    -2.4020 H     1 <1>   0.0800 
 30 H        4.4510     1.4930     1.1800 H     1 <1>   0.2700 
 31 H       -2.5170    -4.9390     0.1790 H     1 <1>   0.0800 
 32 H       -1.1110    -4.2240     0.9590 H     1 <1>   0.0800 
 33 H       -3.4590    -3.4720    -1.9130 H     1 <1>   0.0800 
 34 H       -3.7400    -1.8380    -1.3910 H     1 <1>   0.0800 
 35 H        4.0500     3.1390    -1.0860 H     1 <1>   0.0800 
 36 H        2.3790     3.5850    -1.2650 H     1 <1>   0.0800 
 37 H        4.0650     4.1250     1.2030 H     1 <1>   0.0800 
 38 H        2.3690     4.5200     1.0340 H     1 <1>   0.0800 
 39 H        3.5560     5.3110     0.0240 H     1 <1>   0.0800 
 40 H       -4.6610    -1.5570     1.1090 H     1 <1>   0.1500 
 41 H       -4.9710    -5.1800    -1.0990 H     1 <1>   0.1500 
 42 H       -6.4650    -2.3660     2.5230 H     1 <1>   0.1500 
 43 H       -6.7630    -5.8410     0.4030 H     1 <1>   0.1500 
@<TRIPOS>BOND
  1   1   2  2   
  2   1   3  2   
  3   1   4  am  
  4   1   5  1   
  5   4   6  1   
  6   4  24  1   
  7   5   7  1   
  8   5   8  2   
  9   6   9  1   
 10   6  10  1   
 11   6  25  1   
 12   7  11  2   
 13   8  12  1   
 14   8  26  1   
 15   9  13  1   
 16   9  14  1   
 17   9  27  1   
 18  10  15  1   
 19  10  28  1   
 20  10  29  1   
 21  11  12  1   
 22  11  16  1   
 23  12  30  1   
 24  13  15  1   
 25  13  31  1   
 26  13  32  1   
 27  14  17  1   
 28  14  33  1   
 29  14  34  1   
 30  16  18  1   
 31  16  35  1   
 32  16  36  1   
 33  17  19  ar  
 34  17  20  ar  
 35  18  37  1   
 36  18  38  1   
 37  18  39  1   
 38  19  21  ar  
 39  19  40  1   
 40  20  22  ar  
 41  20  41  1   
 42  21  23  ar  
 43  21  42  1   
 44  22  23  ar  
 45  22  43  1   
@<TRIPOS>SUBSTRUCTURE
  1 ****   4 GROUP 4 **** **** 0

# MOE 2024.06 (io_trps.svl 2023.06)
