@<TRIPOS>MOLECULE
NONAME
40 41 1 0 0 
SMALL
USER_CHARGES


@<TRIPOS>ATOM
  1 S       -0.5760     1.5590     2.1920 S.3   1 <1>  -0.0800 
  2 C       -0.7760     1.7100     0.4550 C.2   1 <1>   0.1980 
  3 C        1.0610     2.1200     2.0280 C.2   1 <1>  -0.1100 
  4 N        0.2640     2.1250    -0.1530 N.2   1 <1>  -0.5650 
  5 C       -2.1250     1.3470    -0.1580 C.3   1 <1>   0.1000 
  6 C        1.3100     2.3630     0.7320 C.2   1 <1>   0.0460 
  7 C       -3.2410     2.2640     0.3600 C.3   1 <1>  -0.2400 
  8 C       -2.4790    -0.1260     0.0860 C.3   1 <1>  -0.2400 
  9 C        2.6290     2.8700     0.1610 C.3   1 <1>   0.2910 
 10 N        2.8150     4.3260     0.3560 N.3   1 <1>  -0.8100 
 11 C        4.1420     4.7460    -0.1510 C.3   1 <1>   0.2900 
 12 C        1.7320     5.0920    -0.2910 C.3   1 <1>   0.0300 
 13 C        4.4780     6.2020     0.1590 C.2   1 <1>   0.2980 
 14 O        4.6070     6.5670     1.4070 O.3   1 <1>  -0.0190 
 15 N        4.6550     7.1210    -0.6980 N.2   1 <1>  -0.5650 
 16 N        4.8870     7.8290     1.3440 N.2   1 <1>  -0.4100 
 17 C        4.9130     8.1740     0.0980 C.2   1 <1>   0.4300 
 18 C        5.1840     9.5340    -0.3820 C.2   1 <1>   0.7160 
 19 O        5.2090     9.8170    -1.5690 O.2   1 <1>  -0.5700 
 20 N        5.4220    10.5460     0.5210 N.am  1 <1>  -0.7300 
 21 C        5.7080    11.9680     0.2020 C.3   1 <1>   0.0600 
 22 H        1.6590     2.2130     2.9150 H     1 <1>   0.1500 
 23 H       -2.0390     1.4970    -1.2200 H     1 <1>   0.0800 
 24 H       -3.3900     2.1250     1.4160 H     1 <1>   0.0800 
 25 H       -4.1630     2.0540    -0.1500 H     1 <1>   0.0800 
 26 H       -2.9780     3.2930     0.1830 H     1 <1>   0.0800 
 27 H       -2.6120    -0.3190     1.1350 H     1 <1>   0.0800 
 28 H       -1.6880    -0.7560    -0.2820 H     1 <1>   0.0800 
 29 H       -3.3870    -0.3810    -0.4300 H     1 <1>   0.0800 
 30 H        2.6740     2.6260    -0.8860 H     1 <1>   0.0800 
 31 H        3.4270     2.3490     0.6610 H     1 <1>   0.0800 
 32 H        4.1830     4.6030    -1.2170 H     1 <1>   0.0800 
 33 H        4.9030     4.1330     0.2980 H     1 <1>   0.0800 
 34 H        0.7810     4.8330     0.1420 H     1 <1>   0.0800 
 35 H        1.6990     4.8850    -1.3480 H     1 <1>   0.0800 
 36 H        1.8770     6.1490    -0.1450 H     1 <1>   0.0800 
 37 H        5.3970    10.2930     1.5130 H     1 <1>   0.3700 
 38 H        5.7100    12.1240    -0.8640 H     1 <1>   0.0800 
 39 H        6.6720    12.2420     0.5940 H     1 <1>   0.0800 
 40 H        4.9540    12.5970     0.6420 H     1 <1>   0.0800 
@<TRIPOS>BOND
  1   1   2  1   
  2   1   3  1   
  3   2   4  2   
  4   2   5  1   
  5   3   6  2   
  6   3  22  1   
  7   4   6  1   
  8   5   7  1   
  9   5   8  1   
 10   5  23  1   
 11   6   9  1   
 12   7  24  1   
 13   7  25  1   
 14   7  26  1   
 15   8  27  1   
 16   8  28  1   
 17   8  29  1   
 18   9  10  1   
 19   9  30  1   
 20   9  31  1   
 21  10  11  1   
 22  10  12  1   
 23  11  13  1   
 24  11  32  1   
 25  11  33  1   
 26  12  34  1   
 27  12  35  1   
 28  12  36  1   
 29  13  14  1   
 30  13  15  2   
 31  14  16  1   
 32  15  17  1   
 33  16  17  2   
 34  17  18  1   
 35  18  19  2   
 36  18  20  am  
 37  20  21  1   
 38  20  37  1   
 39  21  38  1   
 40  21  39  1   
 41  21  40  1   
@<TRIPOS>SUBSTRUCTURE
  1 ****  12 GROUP 4 **** **** 0

# MOE 2024.06 (io_trps.svl 2023.06)
