@<TRIPOS>MOLECULE
NONAME
46 48 1 0 0 
SMALL
USER_CHARGES


@<TRIPOS>ATOM
  1 S        0.1720    -0.1060     2.7420 S.3   1 <1>  -0.0800 
  2 C        0.9840     0.0730     1.2100 C.2   1 <1>   0.1980 
  3 C       -0.0610    -1.7890     2.3880 C.2   1 <1>  -0.1100 
  4 N        1.0480    -0.9970     0.5250 N.2   1 <1>  -0.5650 
  5 C        1.5450     1.4420     0.8470 C.3   1 <1>   0.5230 
  6 C        0.4580    -2.0960     1.1770 C.2   1 <1>   0.1410 
  7 N        2.1680     1.3820    -0.5190 N.4   1 <1>  -0.9590 
  8 C        0.4600    -3.4160     0.5480 C.2   1 <1>   0.7160 
  9 C        3.2440     2.3970    -0.7160 C.3   1 <1>   0.2630 
 10 C        1.1350     1.4340    -1.5990 C.3   1 <1>   0.2630 
 11 O        1.4320    -3.7870    -0.0840 O.2   1 <1>  -0.5700 
 12 N       -0.6190    -4.2690     0.6460 N.am  1 <1>  -0.6600 
 13 C       -2.0090    -3.8560     0.9650 C.3   1 <1>   0.1400 
 14 C       -0.6140    -5.6150     0.0140 C.3   1 <1>   0.1400 
 15 C       -2.8950    -4.9320     0.3390 C.3   1 <1>   0.2000 
 16 C       -2.0190    -6.1770     0.2450 C.3   1 <1>  -0.0800 
 17 O       -4.0110    -5.1890     1.1180 O.3   1 <1>  -0.6800 
 18 C       -2.4940    -7.1570    -0.8420 C.3   1 <1>  -0.0170 
 19 C       -1.6440    -8.4170    -0.8770 C.ar  1 <1>   0.1670 
 20 N       -0.4910    -8.3330    -1.5220 N.ar  1 <1>  -0.6200 
 21 C       -2.0900    -9.5780    -0.2480 C.ar  1 <1>   0.1600 
 22 C        0.1800    -9.4720    -1.4940 C.ar  1 <1>   0.1600 
 23 N       -1.4190   -10.7180    -0.2160 N.ar  1 <1>  -0.6200 
 24 C       -0.2690   -10.6260    -0.8620 C.ar  1 <1>   0.1600 
 25 H       -0.5550    -2.3940     3.1260 H     1 <1>   0.1500 
 26 H        2.2900     1.7050     1.5790 H     1 <1>   0.0800 
 27 H        0.7620     2.1810     0.8720 H     1 <1>   0.0800 
 28 H        2.5740     0.4260    -0.5590 H     1 <1>   0.4500 
 29 H        2.8370     3.3930    -0.6620 H     1 <1>   0.0800 
 30 H        3.7050     2.2660    -1.6830 H     1 <1>   0.0800 
 31 H        4.0050     2.2900     0.0400 H     1 <1>   0.0800 
 32 H        0.6200     2.3800    -1.5870 H     1 <1>   0.0800 
 33 H        0.4140     0.6430    -1.4610 H     1 <1>   0.0800 
 34 H        1.5980     1.3040    -2.5640 H     1 <1>   0.0800 
 35 H       -2.1370    -3.8370     2.0330 H     1 <1>   0.0800 
 36 H       -2.2290    -2.8900     0.5430 H     1 <1>   0.0800 
 37 H       -0.4100    -5.5110    -1.0390 H     1 <1>   0.0800 
 38 H        0.1420    -6.2440     0.4550 H     1 <1>   0.0800 
 39 H       -3.2260    -4.6100    -0.6350 H     1 <1>   0.0800 
 40 H       -2.0060    -6.6790     1.1970 H     1 <1>   0.0800 
 41 H       -3.7510    -5.5410     1.9920 H     1 <1>   0.4000 
 42 H       -2.4570    -6.6830    -1.8070 H     1 <1>   0.0800 
 43 H       -3.5200    -7.4220    -0.6530 H     1 <1>   0.0800 
 44 H       -3.0410    -9.5650     0.2530 H     1 <1>   0.1500 
 45 H        1.1310    -9.4940    -1.9950 H     1 <1>   0.1500 
 46 H        0.3490   -11.5050    -0.8930 H     1 <1>   0.1500 
@<TRIPOS>BOND
  1   1   2  1   
  2   1   3  1   
  3   2   4  2   
  4   2   5  1   
  5   3   6  2   
  6   3  25  1   
  7   4   6  1   
  8   5   7  1   
  9   5  26  1   
 10   5  27  1   
 11   6   8  1   
 12   7   9  1   
 13   7  10  1   
 14   7  28  1   
 15   8  11  2   
 16   8  12  am  
 17   9  29  1   
 18   9  30  1   
 19   9  31  1   
 20  10  32  1   
 21  10  33  1   
 22  10  34  1   
 23  12  13  1   
 24  12  14  1   
 25  13  15  1   
 26  13  35  1   
 27  13  36  1   
 28  14  16  1   
 29  14  37  1   
 30  14  38  1   
 31  15  16  1   
 32  15  17  1   
 33  15  39  1   
 34  16  18  1   
 35  16  40  1   
 36  17  41  1   
 37  18  19  1   
 38  18  42  1   
 39  18  43  1   
 40  19  20  ar  
 41  19  21  ar  
 42  20  22  ar  
 43  21  23  ar  
 44  21  44  1   
 45  22  24  ar  
 46  22  45  1   
 47  23  24  ar  
 48  24  46  1   
@<TRIPOS>SUBSTRUCTURE
  1 ****  12 GROUP 4 **** **** 0

# MOE 2024.06 (io_trps.svl 2023.06)
