@<TRIPOS>MOLECULE
NONAME
57 59 1 0 0 
SMALL
USER_CHARGES


@<TRIPOS>ATOM
  1 O       -4.6960     3.0600    -0.4550 O.2   1 <1>  -0.5700 
  2 C       -3.7970     2.3490    -0.0490 C.2   1 <1>   0.5440 
  3 N       -3.7540     1.0310    -0.4520 N.am  1 <1>  -0.6600 
  4 C       -2.8030     2.9080     0.8440 C.ar  1 <1>   0.0860 
  5 C       -2.6500     0.1030    -0.0080 C.3   1 <1>   0.3640 
  6 C       -4.9070     0.4660    -1.2150 C.3   1 <1>   0.1400 
  7 C       -1.7150     3.6120     0.3390 C.ar  1 <1>  -0.1500 
  8 C       -2.8850     2.7310     2.2230 C.ar  1 <1>  -0.1500 
  9 C       -1.3170     0.5910    -0.5870 C.ar  1 <1>  -0.1430 
 10 C       -2.8310    -1.4060    -0.3680 C.3   1 <1>   0.2000 
 11 C       -4.6210    -0.9200    -1.7950 C.3   1 <1>   0.1200 
 12 C       -0.7050     4.0890     1.1610 C.ar  1 <1>   0.1170 
 13 C       -1.8980     3.2160     3.0620 C.ar  1 <1>  -0.1500 
 14 C       -1.1820     0.8780    -1.9400 C.ar  1 <1>  -0.1500 
 15 C       -0.2210     0.7640     0.2470 C.ar  1 <1>  -0.1500 
 16 O       -4.1260    -1.7410    -0.7890 O.3   1 <1>  -0.5600 
 17 C       -2.5080    -2.3320     0.8150 C.3   1 <1>   0.1200 
 18 N        0.3840     4.7480     0.5790 N.am  1 <1>  -0.5470 
 19 C       -0.8120     3.8870     2.5320 C.ar  1 <1>  -0.1500 
 20 C        0.0260     1.3260    -2.4470 C.ar  1 <1>  -0.1500 
 21 C        0.9840     1.2190    -0.2560 C.ar  1 <1>  -0.1500 
 22 O       -1.2380    -2.0800     1.3260 O.3   1 <1>  -0.6800 
 23 C        1.6990     4.7490     0.9490 C.2   1 <1>   0.5690 
 24 C        1.1100     1.4980    -1.6050 C.ar  1 <1>  -0.1500 
 25 O        2.1250     4.1570     1.9090 O.2   1 <1>  -0.5700 
 26 C        2.6710     5.5230     0.0800 C.3   1 <1>  -0.0990 
 27 C        2.5130     7.0440     0.2420 C.3   1 <1>  -0.1600 
 28 C        3.5120     7.8050    -0.6380 C.3   1 <1>  -0.1600 
 29 C        3.3490     9.3180    -0.4710 C.3   1 <1>  -0.2400 
 30 H       -2.5910     0.1720     1.0640 H     1 <1>   0.0800 
 31 H       -5.7560     0.4000    -0.5580 H     1 <1>   0.0800 
 32 H       -5.1670     1.1360    -2.0170 H     1 <1>   0.0800 
 33 H       -1.6500     3.7560    -0.7230 H     1 <1>   0.1500 
 34 H       -3.7300     2.2060     2.6340 H     1 <1>   0.1500 
 35 H       -2.1720    -1.6580    -1.1790 H     1 <1>   0.0800 
 36 H       -3.9090    -0.8690    -2.6000 H     1 <1>   0.0800 
 37 H       -5.5310    -1.3600    -2.1630 H     1 <1>   0.0800 
 38 H       -1.9710     3.0700     4.1260 H     1 <1>   0.1500 
 39 H       -2.0210     0.7600    -2.6020 H     1 <1>   0.1500 
 40 H       -0.3010     0.5560     1.3020 H     1 <1>   0.1500 
 41 H       -2.5470    -3.3620     0.5060 H     1 <1>   0.0800 
 42 H       -3.2150    -2.1720     1.6110 H     1 <1>   0.0800 
 43 H        0.1830     5.2060    -0.3070 H     1 <1>   0.3700 
 44 H       -0.0410     4.2540     3.1850 H     1 <1>   0.1500 
 45 H        0.1200     1.5440    -3.4960 H     1 <1>   0.1500 
 46 H        1.8200     1.3620     0.4080 H     1 <1>   0.1500 
 47 H       -0.5450    -2.2740     0.6630 H     1 <1>   0.4000 
 48 H        2.0490     1.8480    -1.9950 H     1 <1>   0.1500 
 49 H        3.6710     5.2370     0.3540 H     1 <1>   0.0800 
 50 H        2.5190     5.2420    -0.9460 H     1 <1>   0.0800 
 51 H        1.5110     7.3360    -0.0190 H     1 <1>   0.0800 
 52 H        2.6750     7.3040     1.2750 H     1 <1>   0.0800 
 53 H        4.5170     7.5270    -0.3690 H     1 <1>   0.0800 
 54 H        3.3590     7.5460    -1.6720 H     1 <1>   0.0800 
 55 H        3.5210     9.6040     0.5530 H     1 <1>   0.0800 
 56 H        2.3580     9.6260    -0.7550 H     1 <1>   0.0800 
 57 H        4.0590     9.8360    -1.0920 H     1 <1>   0.0800 
@<TRIPOS>BOND
  1   1   2  2   
  2   2   3  am  
  3   2   4  1   
  4   3   5  1   
  5   3   6  1   
  6   4   7  ar  
  7   4   8  ar  
  8   5   9  1   
  9   5  10  1   
 10   5  30  1   
 11   6  11  1   
 12   6  31  1   
 13   6  32  1   
 14   7  12  ar  
 15   7  33  1   
 16   8  13  ar  
 17   8  34  1   
 18   9  14  ar  
 19   9  15  ar  
 20  10  16  1   
 21  10  17  1   
 22  10  35  1   
 23  11  16  1   
 24  11  36  1   
 25  11  37  1   
 26  12  18  1   
 27  12  19  ar  
 28  13  19  ar  
 29  13  38  1   
 30  14  20  ar  
 31  14  39  1   
 32  15  21  ar  
 33  15  40  1   
 34  17  22  1   
 35  17  41  1   
 36  17  42  1   
 37  18  23  am  
 38  18  43  1   
 39  19  44  1   
 40  20  24  ar  
 41  20  45  1   
 42  21  24  ar  
 43  21  46  1   
 44  22  47  1   
 45  23  25  2   
 46  23  26  1   
 47  24  48  1   
 48  26  27  1   
 49  26  49  1   
 50  26  50  1   
 51  27  28  1   
 52  27  51  1   
 53  27  52  1   
 54  28  29  1   
 55  28  53  1   
 56  28  54  1   
 57  29  55  1   
 58  29  56  1   
 59  29  57  1   
@<TRIPOS>SUBSTRUCTURE
  1 ****   7 GROUP 4 **** **** 0

# MOE 2024.06 (io_trps.svl 2023.06)
