@<TRIPOS>MOLECULE
NONAME
49 51 1 0 0 
SMALL
USER_CHARGES


@<TRIPOS>ATOM
  1 O        1.0020     0.0920     1.7120 O.3   1 <1>  -0.6800 
  2 C        1.4090    -0.2060     0.4170 C.3   1 <1>   0.2000 
  3 C        2.2580    -1.4800     0.4690 C.3   1 <1>  -0.0800 
  4 C        2.4070     0.8690    -0.0120 C.3   1 <1>   0.3430 
  5 C        3.6940    -0.9790     0.7180 C.3   1 <1>   0.3430 
  6 C        2.1460    -2.2880    -0.8410 C.3   1 <1>  -0.0170 
  7 N        3.6400     0.5110     0.7370 N.4   1 <1>  -0.9590 
  8 C        2.9530    -3.5780    -0.7960 C.ar  1 <1>   0.1670 
  9 C        4.8940     1.1530     0.2660 C.3   1 <1>   0.3430 
 10 N        4.2680    -3.4500    -0.8770 N.ar  1 <1>  -0.6200 
 11 C        2.3050    -4.8080    -0.6790 C.ar  1 <1>   0.1600 
 12 C        4.8500     2.6590     0.5330 C.3   1 <1>  -0.1600 
 13 C        4.8850    -4.6220    -0.8460 C.ar  1 <1>   0.1600 
 14 N        2.9220    -5.9760    -0.6350 N.ar  1 <1>  -0.6200 
 15 C        6.1790     3.3160     0.1340 C.3   1 <1>  -0.1600 
 16 C        4.2330    -5.8440    -0.7270 C.ar  1 <1>   0.1600 
 17 C        6.1710     4.8260     0.3990 C.3   1 <1>  -0.0170 
 18 C        7.5030     5.4320    -0.0070 C.ar  1 <1>  -0.1440 
 19 C        8.5450     5.5070     0.9050 C.ar  1 <1>  -0.1500 
 20 C        7.6930     5.9100    -1.2950 C.ar  1 <1>  -0.1500 
 21 C        9.7610     6.0540     0.5350 C.ar  1 <1>  -0.1500 
 22 C        8.9090     6.4560    -1.6660 C.ar  1 <1>  -0.1500 
 23 C        9.9440     6.5290    -0.7510 C.ar  1 <1>  -0.1500 
 24 H        0.2520    -0.4750     1.9940 H     1 <1>   0.4000 
 25 H        0.5430    -0.2610    -0.2220 H     1 <1>   0.0800 
 26 H        1.9470    -2.1150     1.2810 H     1 <1>   0.0800 
 27 H        2.0500     1.8550     0.2380 H     1 <1>   0.0800 
 28 H        2.5850     0.8020    -1.0720 H     1 <1>   0.0800 
 29 H        4.3430    -1.3050    -0.0780 H     1 <1>   0.0800 
 30 H        4.0760    -1.3590     1.6520 H     1 <1>   0.0800 
 31 H        2.4890    -1.7020    -1.6760 H     1 <1>   0.0800 
 32 H        1.1130    -2.5290    -1.0230 H     1 <1>   0.0800 
 33 H        3.4490     0.7830     1.7140 H     1 <1>   0.4500 
 34 H        5.7340     0.7300     0.7930 H     1 <1>   0.0800 
 35 H        5.0320     0.9700    -0.7880 H     1 <1>   0.0800 
 36 H        1.2320    -4.8340    -0.6190 H     1 <1>   0.1500 
 37 H        4.0570     3.1130    -0.0340 H     1 <1>   0.0800 
 38 H        4.6750     2.8340     1.5810 H     1 <1>   0.0800 
 39 H        5.9590    -4.6210    -0.9170 H     1 <1>   0.1500 
 40 H        6.9880     2.8730     0.6910 H     1 <1>   0.0800 
 41 H        6.3710     3.1500    -0.9130 H     1 <1>   0.0800 
 42 H        4.8200    -6.7460    -0.7080 H     1 <1>   0.1500 
 43 H        5.9950     5.0190     1.4430 H     1 <1>   0.0800 
 44 H        5.3800     5.2970    -0.1590 H     1 <1>   0.0800 
 45 H        8.4150     5.1420     1.9090 H     1 <1>   0.1500 
 46 H        6.8960     5.8610    -2.0150 H     1 <1>   0.1500 
 47 H       10.5650     6.1100     1.2480 H     1 <1>   0.1500 
 48 H        9.0490     6.8260    -2.6670 H     1 <1>   0.1500 
 49 H       10.8900     6.9540    -1.0400 H     1 <1>   0.1500 
@<TRIPOS>BOND
  1   1   2  1   
  2   1  24  1   
  3   2   3  1   
  4   2   4  1   
  5   2  25  1   
  6   3   5  1   
  7   3   6  1   
  8   3  26  1   
  9   4   7  1   
 10   4  27  1   
 11   4  28  1   
 12   5   7  1   
 13   5  29  1   
 14   5  30  1   
 15   6   8  1   
 16   6  31  1   
 17   6  32  1   
 18   7   9  1   
 19   7  33  1   
 20   8  10  ar  
 21   8  11  ar  
 22   9  12  1   
 23   9  34  1   
 24   9  35  1   
 25  10  13  ar  
 26  11  14  ar  
 27  11  36  1   
 28  12  15  1   
 29  12  37  1   
 30  12  38  1   
 31  13  16  ar  
 32  13  39  1   
 33  14  16  ar  
 34  15  17  1   
 35  15  40  1   
 36  15  41  1   
 37  16  42  1   
 38  17  18  1   
 39  17  43  1   
 40  17  44  1   
 41  18  19  ar  
 42  18  20  ar  
 43  19  21  ar  
 44  19  45  1   
 45  20  22  ar  
 46  20  46  1   
 47  21  23  ar  
 48  21  47  1   
 49  22  23  ar  
 50  22  48  1   
 51  23  49  1   
@<TRIPOS>SUBSTRUCTURE
  1 ****   9 GROUP 4 **** **** 0

# MOE 2024.06 (io_trps.svl 2023.06)
