@<TRIPOS>MOLECULE
NONAME
48 50 1 0 0 
SMALL
USER_CHARGES


@<TRIPOS>ATOM
  1 O       -3.3420    -0.3740    -1.4320 O.3   1 <1>  -0.5600 
  2 C       -4.4440    -0.5360    -0.5910 C.3   1 <1>   0.1200 
  3 C       -3.2120     0.9140    -1.9570 C.3   1 <1>   0.1200 
  4 C       -4.3690     0.4580     0.5840 C.3   1 <1>   0.1100 
  5 C       -3.1010     1.9460    -0.8200 C.3   1 <1>   0.1100 
  6 N       -4.2570     1.8580     0.1040 N.3   1 <1>  -0.8100 
  7 C       -4.0990     2.8130     1.2320 C.3   1 <1>   0.1100 
  8 C       -5.4630     3.1300     1.8740 C.3   1 <1>   0.3430 
  9 N       -6.4700     3.1930     0.7820 N.4   1 <1>  -0.9590 
 10 C       -7.7810     2.5770     1.1370 C.3   1 <1>   0.3430 
 11 C       -6.6070     4.5440     0.1780 C.3   1 <1>   0.3430 
 12 C       -8.6740     2.4140    -0.1100 C.3   1 <1>   0.0000 
 13 C       -7.4700     4.4500    -1.0810 C.3   1 <1>  -0.1600 
 14 C      -10.0060     1.7870     0.3460 C.3   1 <1>   0.2000 
 15 C       -8.8310     3.7890    -0.8030 C.3   1 <1>  -0.1600 
 16 C       -8.0950     1.3380    -1.0530 C.3   1 <1>  -0.1600 
 17 O      -10.9690     1.9460    -0.6310 O.3   1 <1>  -0.6800 
 18 C       -9.7210     0.2910     0.4700 C.3   1 <1>  -0.1600 
 19 C       -8.5680    -0.0130    -0.4990 C.3   1 <1>  -0.1600 
 20 H       -5.3400    -0.3870    -1.1680 H     1 <1>   0.0800 
 21 H       -4.4300    -1.5480    -0.2270 H     1 <1>   0.0800 
 22 H       -2.3240     0.9300    -2.5650 H     1 <1>   0.0800 
 23 H       -4.0640     1.1210    -2.5810 H     1 <1>   0.0800 
 24 H       -3.5120     0.2030     1.1860 H     1 <1>   0.0800 
 25 H       -5.2490     0.3440     1.1900 H     1 <1>   0.0800 
 26 H       -3.0520     2.9310    -1.2500 H     1 <1>   0.0800 
 27 H       -2.1820     1.7680    -0.2840 H     1 <1>   0.0800 
 28 H       -3.4150     2.4260     1.9700 H     1 <1>   0.0800 
 29 H       -3.6870     3.7360     0.8620 H     1 <1>   0.0800 
 30 H       -5.4260     4.0520     2.4300 H     1 <1>   0.0800 
 31 H       -5.7120     2.3320     2.5540 H     1 <1>   0.0800 
 32 H       -6.0220     2.5890     0.0600 H     1 <1>   0.4500 
 33 H       -7.6180     1.6100     1.5820 H     1 <1>   0.0800 
 34 H       -8.2880     3.2000     1.8560 H     1 <1>   0.0800 
 35 H       -7.0700     5.2140     0.8840 H     1 <1>   0.0800 
 36 H       -5.6360     4.9340    -0.0810 H     1 <1>   0.0800 
 37 H       -7.6310     5.4410    -1.4690 H     1 <1>   0.0800 
 38 H       -6.9380     3.8960    -1.8350 H     1 <1>   0.0800 
 39 H      -10.3910     2.2180     1.2560 H     1 <1>   0.0800 
 40 H       -9.3690     3.6860    -1.7300 H     1 <1>   0.0800 
 41 H       -9.4150     4.4370    -0.1700 H     1 <1>   0.0800 
 42 H       -8.5140     1.4650    -2.0370 H     1 <1>   0.0800 
 43 H       -7.0250     1.3770    -1.1460 H     1 <1>   0.0800 
 44 H      -10.7370     1.4150    -1.4170 H     1 <1>   0.4000 
 45 H       -9.4030     0.0740     1.4750 H     1 <1>   0.0800 
 46 H      -10.5960    -0.3040     0.2650 H     1 <1>   0.0800 
 47 H       -7.7700    -0.5120     0.0240 H     1 <1>   0.0800 
 48 H       -8.9000    -0.6510    -1.3010 H     1 <1>   0.0800 
@<TRIPOS>BOND
  1   1   2  1   
  2   1   3  1   
  3   2   4  1   
  4   2  20  1   
  5   2  21  1   
  6   3   5  1   
  7   3  22  1   
  8   3  23  1   
  9   4   6  1   
 10   4  24  1   
 11   4  25  1   
 12   5   6  1   
 13   5  26  1   
 14   5  27  1   
 15   6   7  1   
 16   7   8  1   
 17   7  28  1   
 18   7  29  1   
 19   8   9  1   
 20   8  30  1   
 21   8  31  1   
 22   9  10  1   
 23   9  11  1   
 24   9  32  1   
 25  10  12  1   
 26  10  33  1   
 27  10  34  1   
 28  11  13  1   
 29  11  35  1   
 30  11  36  1   
 31  12  14  1   
 32  12  15  1   
 33  12  16  1   
 34  13  15  1   
 35  13  37  1   
 36  13  38  1   
 37  14  17  1   
 38  14  18  1   
 39  14  39  1   
 40  15  40  1   
 41  15  41  1   
 42  16  19  1   
 43  16  42  1   
 44  16  43  1   
 45  17  44  1   
 46  18  19  1   
 47  18  45  1   
 48  18  46  1   
 49  19  47  1   
 50  19  48  1   
@<TRIPOS>SUBSTRUCTURE
  1 ****   9 GROUP 4 **** **** 0

# MOE 2024.06 (io_trps.svl 2023.06)
