@<TRIPOS>MOLECULE
NONAME
51 53 1 0 0 
SMALL
USER_CHARGES


@<TRIPOS>ATOM
  1 CL      -2.2940     3.2070     1.5570 Cl    1 <1>  -0.1770 
  2 C       -0.8980     2.9890     0.5260 C.ar  1 <1>   0.1770 
  3 C       -1.0150     2.3050    -0.6770 C.ar  1 <1>  -0.1440 
  4 C        0.3090     3.5240     0.9490 C.ar  1 <1>  -0.1500 
  5 C        0.1390     2.1870    -1.4390 C.ar  1 <1>   0.1900 
  6 C       -2.3510     1.7060    -1.1200 C.3   1 <1>   0.0440 
  7 C        1.4420     3.3850     0.1640 C.ar  1 <1>  -0.1500 
  8 F        0.0950     1.5640    -2.5870 F     1 <1>  -0.1900 
  9 C        1.3580     2.7100    -1.0430 C.ar  1 <1>  -0.1500 
 10 C       -2.7170     0.4500    -0.3310 C.2   1 <1>   0.5690 
 11 O       -1.8180    -0.3150    -0.0650 O.2   1 <1>  -0.5700 
 12 N       -4.0130     0.1840     0.0610 N.am  1 <1>  -0.6600 
 13 C       -5.2020     0.9310    -0.4490 C.3   1 <1>   0.2200 
 14 C       -4.2500    -0.9170     1.0480 C.3   1 <1>   0.0600 
 15 C       -5.7130     1.9540     0.5620 C.3   1 <1>  -0.1600 
 16 C       -6.4250     0.0670    -0.7710 C.3   1 <1>  -0.1600 
 17 C       -7.1590     2.2350     0.1320 C.3   1 <1>  -0.0800 
 18 C       -7.6030     1.0520    -0.7360 C.3   1 <1>  -0.0800 
 19 C       -8.1800     2.3190     1.2750 C.3   1 <1>  -0.1600 
 20 C       -8.8910     0.5150    -0.0910 C.3   1 <1>  -0.1600 
 21 C       -9.4610     1.6810     0.7260 C.3   1 <1>   0.4230 
 22 N      -10.2010     2.6390    -0.1590 N.4   1 <1>  -0.9590 
 23 C      -10.6480     3.8720     0.5670 C.3   1 <1>   0.2630 
 24 C      -11.4000     2.0150    -0.8090 C.3   1 <1>   0.2630 
 25 H        0.3560     4.0440     1.8890 H     1 <1>   0.1500 
 26 H       -2.3260     1.4450    -2.1610 H     1 <1>   0.0800 
 27 H       -3.0980     2.4640    -0.9960 H     1 <1>   0.0800 
 28 H        2.3820     3.7970     0.4900 H     1 <1>   0.1500 
 29 H        2.2220     2.5870    -1.6700 H     1 <1>   0.1500 
 30 H       -4.9470     1.4470    -1.3580 H     1 <1>   0.0800 
 31 H       -5.0250    -0.6450     1.7410 H     1 <1>   0.0800 
 32 H       -3.3550    -1.1160     1.6140 H     1 <1>   0.0800 
 33 H       -4.5290    -1.8160     0.5280 H     1 <1>   0.0800 
 34 H       -5.6820     1.5320     1.5510 H     1 <1>   0.0800 
 35 H       -5.1180     2.8490     0.5470 H     1 <1>   0.0800 
 36 H       -6.3260    -0.3980    -1.7350 H     1 <1>   0.0800 
 37 H       -6.5660    -0.6930    -0.0270 H     1 <1>   0.0800 
 38 H       -7.1890     3.1340    -0.4620 H     1 <1>   0.0800 
 39 H       -7.8030     1.4070    -1.7350 H     1 <1>   0.0800 
 40 H       -8.2940     3.3180     1.6510 H     1 <1>   0.0800 
 41 H       -7.8490     1.7070     2.0960 H     1 <1>   0.0800 
 42 H       -8.6450    -0.2660     0.6070 H     1 <1>   0.0800 
 43 H       -9.5640     0.0940    -0.8130 H     1 <1>   0.0800 
 44 H      -10.1000     1.3320     1.5210 H     1 <1>   0.0800 
 45 H       -9.5380     2.9170    -0.8960 H     1 <1>   0.4500 
 46 H      -11.2700     3.6080     1.4070 H     1 <1>   0.0800 
 47 H      -11.2140     4.5090    -0.0940 H     1 <1>   0.0800 
 48 H       -9.8020     4.4330     0.9260 H     1 <1>   0.0800 
 49 H      -12.0750     1.6320    -0.0610 H     1 <1>   0.0800 
 50 H      -11.1080     1.2070    -1.4580 H     1 <1>   0.0800 
 51 H      -11.9250     2.7470    -1.4020 H     1 <1>   0.0800 
@<TRIPOS>BOND
  1   1   2  1   
  2   2   3  ar  
  3   2   4  ar  
  4   3   5  ar  
  5   3   6  1   
  6   4   7  ar  
  7   4  25  1   
  8   5   8  1   
  9   5   9  ar  
 10   6  10  1   
 11   6  26  1   
 12   6  27  1   
 13   7   9  ar  
 14   7  28  1   
 15   9  29  1   
 16  10  11  2   
 17  10  12  am  
 18  12  13  1   
 19  12  14  1   
 20  13  15  1   
 21  13  16  1   
 22  13  30  1   
 23  14  31  1   
 24  14  32  1   
 25  14  33  1   
 26  15  17  1   
 27  15  34  1   
 28  15  35  1   
 29  16  18  1   
 30  16  36  1   
 31  16  37  1   
 32  17  18  1   
 33  17  19  1   
 34  17  38  1   
 35  18  20  1   
 36  18  39  1   
 37  19  21  1   
 38  19  40  1   
 39  19  41  1   
 40  20  21  1   
 41  20  42  1   
 42  20  43  1   
 43  21  22  1   
 44  21  44  1   
 45  22  23  1   
 46  22  24  1   
 47  22  45  1   
 48  23  46  1   
 49  23  47  1   
 50  23  48  1   
 51  24  49  1   
 52  24  50  1   
 53  24  51  1   
@<TRIPOS>SUBSTRUCTURE
  1 ****  13 GROUP 4 **** **** 0

# MOE 2024.06 (io_trps.svl 2023.06)
