@<TRIPOS>MOLECULE
NONAME
42 44 1 0 0 
SMALL
USER_CHARGES


@<TRIPOS>ATOM
  1 O        1.1440     0.3580    -1.0660 O.3   1 <1>  -0.6800 
  2 C        1.6350     0.3890     0.2260 C.3   1 <1>   0.2800 
  3 C        3.1900     0.3650     0.1990 C.3   1 <1>  -0.0800 
  4 C        1.1090    -0.8830     0.9170 C.3   1 <1>  -0.1600 
  5 C        1.0640     1.6870     0.8390 C.3   1 <1>  -0.1600 
  6 C        3.8300    -1.0330     0.2070 C.3   1 <1>  -0.0800 
  7 C        3.8470     1.0870    -0.9760 C.3   1 <1>   0.2090 
  8 C        1.5580    -2.1900     0.2240 C.3   1 <1>  -0.1600 
  9 C        1.2820     1.8770     2.3520 C.3   1 <1>  -0.2400 
 10 C        2.9290    -2.0770    -0.4730 C.3   1 <1>  -0.1600 
 11 C        5.1840    -0.8610    -0.4900 C.3   1 <1>   0.2090 
 12 N        5.2020     0.4980    -1.0920 N.pl3 1 <1>  -0.8380 
 13 C        6.2600     1.3330    -0.7630 C.ar  1 <1>   0.4100 
 14 N        6.4020     1.6050     0.5300 N.ar  1 <1>  -0.6200 
 15 C        7.1170     1.8670    -1.7530 C.ar  1 <1>   0.1670 
 16 C        7.4160     2.4170     0.7660 C.ar  1 <1>   0.1600 
 17 N        8.1270     2.6800    -1.5040 N.ar  1 <1>  -0.6200 
 18 C        6.8940     1.5160    -3.2140 C.3   1 <1>  -0.0970 
 19 C        8.2500     2.9370    -0.2120 C.ar  1 <1>   0.1600 
 20 H        0.1880     0.1760    -1.0410 H     1 <1>   0.4000 
 21 H        3.5540     0.8510     1.0840 H     1 <1>   0.0800 
 22 H        1.4950    -0.8990     1.9210 H     1 <1>   0.0800 
 23 H        0.0360    -0.8560     0.9960 H     1 <1>   0.0800 
 24 H        1.5030     2.5260     0.3280 H     1 <1>   0.0800 
 25 H        0.0030     1.7190     0.6610 H     1 <1>   0.0800 
 26 H        4.0020    -1.3470     1.2220 H     1 <1>   0.0800 
 27 H        3.8920     2.1490    -0.8020 H     1 <1>   0.0800 
 28 H        3.3260     0.9030    -1.8990 H     1 <1>   0.0800 
 29 H        1.5940    -2.9740     0.9600 H     1 <1>   0.0800 
 30 H        0.8270    -2.4740    -0.5130 H     1 <1>   0.0800 
 31 H        2.3270     1.8870     2.6020 H     1 <1>   0.0800 
 32 H        0.7970     1.0990     2.9140 H     1 <1>   0.0800 
 33 H        0.8610     2.8180     2.6590 H     1 <1>   0.0800 
 34 H        2.7770    -1.7800    -1.4980 H     1 <1>   0.0800 
 35 H        3.4100    -3.0390    -0.4820 H     1 <1>   0.0800 
 36 H        5.3190    -1.5970    -1.2640 H     1 <1>   0.0800 
 37 H        5.9840    -0.9620     0.2240 H     1 <1>   0.0800 
 38 H        7.5970     2.6850     1.7910 H     1 <1>   0.1500 
 39 H        6.7530     0.4560    -3.3200 H     1 <1>   0.0800 
 40 H        7.7390     1.8120    -3.8080 H     1 <1>   0.0800 
 41 H        6.0180     2.0220    -3.5730 H     1 <1>   0.0800 
 42 H        9.0500     3.5920     0.0820 H     1 <1>   0.1500 
@<TRIPOS>BOND
  1   1   2  1   
  2   1  20  1   
  3   2   3  1   
  4   2   4  1   
  5   2   5  1   
  6   3   6  1   
  7   3   7  1   
  8   3  21  1   
  9   4   8  1   
 10   4  22  1   
 11   4  23  1   
 12   5   9  1   
 13   5  24  1   
 14   5  25  1   
 15   6  10  1   
 16   6  11  1   
 17   6  26  1   
 18   7  12  1   
 19   7  27  1   
 20   7  28  1   
 21   8  10  1   
 22   8  29  1   
 23   8  30  1   
 24   9  31  1   
 25   9  32  1   
 26   9  33  1   
 27  10  34  1   
 28  10  35  1   
 29  11  12  1   
 30  11  36  1   
 31  11  37  1   
 32  12  13  1   
 33  13  14  ar  
 34  13  15  ar  
 35  14  16  ar  
 36  15  17  ar  
 37  15  18  1   
 38  16  19  ar  
 39  16  38  1   
 40  17  19  ar  
 41  18  39  1   
 42  18  40  1   
 43  18  41  1   
 44  19  42  1   
@<TRIPOS>SUBSTRUCTURE
  1 ****   7 GROUP 4 **** **** 0

# MOE 2024.06 (io_trps.svl 2023.06)
