@<TRIPOS>MOLECULE
NONAME
45 47 1 0 0 
SMALL
USER_CHARGES


@<TRIPOS>ATOM
  1 S       -0.8710     0.3800     0.6980 S.o2  1 <1>   1.0900 
  2 O       -1.4180     1.5560     1.3310 O.2   1 <1>  -0.6500 
  3 O        0.5030    -0.0220     0.8890 O.2   1 <1>  -0.6500 
  4 C       -1.8880    -1.0330     1.0140 C.3   1 <1>  -0.0550 
  5 C       -1.1970     0.4000    -1.0590 C.3   1 <1>  -0.0550 
  6 C       -1.7320    -1.8920    -0.2380 C.3   1 <1>   0.1760 
  7 C       -1.8300    -0.9460    -1.4540 C.3   1 <1>  -0.1600 
  8 N       -2.7550    -2.9670    -0.2870 N.pl3 1 <1>   0.3140 
  9 N       -4.0630    -2.6810    -0.1610 N.2   1 <1>  -0.7070 
 10 C       -2.5510    -4.3010    -0.4430 C.2   1 <1>  -0.3320 
 11 C       -4.6670    -3.8260    -0.2260 C.2   1 <1>   0.1080 
 12 C       -3.7700    -4.8840    -0.4040 C.2   1 <1>   0.0630 
 13 C       -1.1830    -4.9490    -0.6110 C.3   1 <1>  -0.0600 
 14 C       -6.1730    -3.9300    -0.1270 C.3   1 <1>  -0.0590 
 15 N       -4.0330    -6.2700    -0.5460 N.am  1 <1>  -0.4930 
 16 C       -4.8770    -7.0710     0.1800 C.2   1 <1>   0.6160 
 17 O       -5.4550    -6.6140     1.1490 O.2   1 <1>  -0.5700 
 18 C       -5.0550    -8.4570    -0.1850 C.2   1 <1>   0.0140 
 19 C       -5.4480    -9.3970     0.7370 C.2   1 <1>  -0.0410 
 20 C       -4.8380    -8.9130    -1.5240 C.2   1 <1>  -0.1500 
 21 N       -5.6100   -10.7270     0.4290 N.am  1 <1>  -0.4690 
 22 C       -4.9950   -10.2260    -1.8370 C.2   1 <1>  -0.1360 
 23 C       -5.3820   -11.1830    -0.8610 C.2   1 <1>   0.6160 
 24 C       -6.0360   -11.6940     1.4730 C.3   1 <1>   0.0600 
 25 O       -5.5120   -12.3660    -1.1410 O.2   1 <1>  -0.5700 
 26 H       -2.9110    -0.7250     1.1220 H     1 <1>   0.0800 
 27 H       -1.5720    -1.5580     1.8950 H     1 <1>   0.0800 
 28 H       -0.2810     0.5590    -1.5970 H     1 <1>   0.0800 
 29 H       -1.8740     1.1990    -1.3000 H     1 <1>   0.0800 
 30 H       -0.7540    -2.3380    -0.2220 H     1 <1>   0.0800 
 31 H       -1.3350    -1.3710    -2.3100 H     1 <1>   0.0800 
 32 H       -2.8660    -0.7780    -1.6990 H     1 <1>   0.0800 
 33 H       -0.6990    -4.5750    -1.4960 H     1 <1>   0.0800 
 34 H       -1.2750    -6.0160    -0.6980 H     1 <1>   0.0800 
 35 H       -0.5650    -4.7370     0.2440 H     1 <1>   0.0800 
 36 H       -6.6260    -3.0170    -0.4650 H     1 <1>   0.0800 
 37 H       -6.4520    -4.1000     0.8970 H     1 <1>   0.0800 
 38 H       -6.5320    -4.7430    -0.7290 H     1 <1>   0.0800 
 39 H       -3.3960    -6.7520    -1.1730 H     1 <1>   0.3700 
 40 H       -5.6420    -9.0970     1.7550 H     1 <1>   0.1500 
 41 H       -4.5620    -8.2010    -2.2830 H     1 <1>   0.1500 
 42 H       -4.8420   -10.6050    -2.8290 H     1 <1>   0.1500 
 43 H       -6.1850   -11.1960     2.4150 H     1 <1>   0.0800 
 44 H       -5.2810   -12.4520     1.5900 H     1 <1>   0.0800 
 45 H       -6.9570   -12.1640     1.1730 H     1 <1>   0.0800 
@<TRIPOS>BOND
  1   1   2  2   
  2   1   3  2   
  3   1   4  1   
  4   1   5  1   
  5   4   6  1   
  6   4  26  1   
  7   4  27  1   
  8   5   7  1   
  9   5  28  1   
 10   5  29  1   
 11   6   7  1   
 12   6   8  1   
 13   6  30  1   
 14   7  31  1   
 15   7  32  1   
 16   8   9  1   
 17   8  10  1   
 18   9  11  2   
 19  10  12  2   
 20  10  13  1   
 21  11  12  1   
 22  11  14  1   
 23  12  15  1   
 24  13  33  1   
 25  13  34  1   
 26  13  35  1   
 27  14  36  1   
 28  14  37  1   
 29  14  38  1   
 30  15  16  am  
 31  15  39  1   
 32  16  17  2   
 33  16  18  1   
 34  18  19  2   
 35  18  20  1   
 36  19  21  1   
 37  19  40  1   
 38  20  22  2   
 39  20  41  1   
 40  21  23  am  
 41  21  24  1   
 42  22  23  1   
 43  22  42  1   
 44  23  25  2   
 45  24  43  1   
 46  24  44  1   
 47  24  45  1   
@<TRIPOS>SUBSTRUCTURE
  1 ****  12 GROUP 4 **** **** 0

# MOE 2024.06 (io_trps.svl 2023.06)
