@<TRIPOS>MOLECULE
NONAME
40 41 1 0 0 
SMALL
USER_CHARGES


@<TRIPOS>ATOM
  1 O       -0.3190     3.7720     1.9470 O.3   1 <1>  -0.8290 
  2 C       -1.3910     3.9230     1.3100 C.ar  1 <1>   0.1390 
  3 N       -2.4430     4.4780     1.9570 N.ar  1 <1>  -0.3100 
  4 C       -1.4540     3.5520    -0.0380 C.ar  1 <1>  -0.1440 
  5 N       -3.5770     4.6790     1.3240 N.ar  1 <1>  -0.3100 
  6 C       -2.6410     3.7600    -0.6830 C.ar  1 <1>  -0.1500 
  7 C       -0.2300     3.0140    -0.7690 C.3   1 <1>   0.0450 
  8 C       -3.6660     4.3270     0.0510 C.ar  1 <1>   0.3920 
  9 C        0.4730     4.1760    -1.4610 C.2   1 <1>   0.5690 
 10 O       -4.8410     4.5620    -0.5680 O.3   1 <1>  -0.5320 
 11 O        0.1260     4.4320    -2.5940 O.2   1 <1>  -0.5700 
 12 N        1.3770     4.9670    -0.8040 N.am  1 <1>  -0.6600 
 13 C        1.0990     6.4460    -0.8110 C.3   1 <1>   0.3640 
 14 C        2.2110     4.4740     0.3340 C.3   1 <1>   0.0600 
 15 C        2.3300     7.2850    -0.4020 C.ar  1 <1>   0.1670 
 16 C       -0.1620     6.6920     0.0480 C.3   1 <1>   0.1200 
 17 N        3.1820     7.6080    -1.3740 N.ar  1 <1>  -0.6200 
 18 C        2.5260     7.6620     0.9240 C.ar  1 <1>  -0.1500 
 19 O       -0.4690     8.0520     0.1840 O.3   1 <1>  -0.5600 
 20 C        4.2370     8.3190    -1.0180 C.ar  1 <1>   0.1600 
 21 C        3.6320     8.4030     1.2810 C.ar  1 <1>  -0.1500 
 22 C       -1.5860     8.2480     0.9930 C.3   1 <1>   0.0400 
 23 C        4.5080     8.7370     0.2730 C.ar  1 <1>  -0.1500 
 24 H       -2.7600     3.5110    -1.7180 H     1 <1>   0.1500 
 25 H       -0.5390     2.3050    -1.5120 H     1 <1>   0.0800 
 26 H        0.4140     2.5020    -0.0840 H     1 <1>   0.0800 
 27 H       -4.7680     4.3440    -1.5080 H     1 <1>   0.4500 
 28 H        0.8480     6.7290    -1.8180 H     1 <1>   0.0800 
 29 H        2.2890     3.4040     0.3210 H     1 <1>   0.0800 
 30 H        1.7770     4.7760     1.2710 H     1 <1>   0.0800 
 31 H        3.2040     4.8800     0.2590 H     1 <1>   0.0800 
 32 H       -0.0240     6.2730     1.0310 H     1 <1>   0.0800 
 33 H       -1.0050     6.2130    -0.4150 H     1 <1>   0.0800 
 34 H        1.8170     7.3790     1.6810 H     1 <1>   0.1500 
 35 H        4.9260     8.5840    -1.8010 H     1 <1>   0.1500 
 36 H        3.7970     8.7040     2.3000 H     1 <1>   0.1500 
 37 H       -1.7720     9.3040     1.0620 H     1 <1>   0.0800 
 38 H       -1.3910     7.8430     1.9720 H     1 <1>   0.0800 
 39 H       -2.4350     7.7520     0.5540 H     1 <1>   0.0800 
 40 H        5.3890     9.3140     0.4810 H     1 <1>   0.1500 
@<TRIPOS>BOND
  1   1   2  1   
  2   2   3  ar  
  3   2   4  ar  
  4   3   5  ar  
  5   4   6  ar  
  6   4   7  1   
  7   5   8  ar  
  8   6   8  ar  
  9   6  24  1   
 10   7   9  1   
 11   7  25  1   
 12   7  26  1   
 13   8  10  1   
 14   9  11  2   
 15   9  12  am  
 16  10  27  1   
 17  12  13  1   
 18  12  14  1   
 19  13  15  1   
 20  13  16  1   
 21  13  28  1   
 22  14  29  1   
 23  14  30  1   
 24  14  31  1   
 25  15  17  ar  
 26  15  18  ar  
 27  16  19  1   
 28  16  32  1   
 29  16  33  1   
 30  17  20  ar  
 31  18  21  ar  
 32  18  34  1   
 33  19  22  1   
 34  20  23  ar  
 35  20  35  1   
 36  21  23  ar  
 37  21  36  1   
 38  22  37  1   
 39  22  38  1   
 40  22  39  1   
 41  23  40  1   
@<TRIPOS>SUBSTRUCTURE
  1 ****  16 GROUP 4 **** **** 0

# MOE 2024.06 (io_trps.svl 2023.06)
