@<TRIPOS>MOLECULE
NONAME
53 54 1 0 0 
SMALL
USER_CHARGES


@<TRIPOS>ATOM
  1 S        0.8210     2.0460    -0.9340 S.o2  1 <1>   1.3330 
  2 O       -0.0950     2.8090    -1.7530 O.2   1 <1>  -0.6500 
  3 O        2.0330     2.6650    -0.4510 O.2   1 <1>  -0.6500 
  4 N        1.2740     0.6660    -1.8130 N.am  1 <1>  -0.8490 
  5 C       -0.1150     1.3380     0.4280 C.3   1 <1>  -0.0550 
  6 C        1.4250     0.9420    -3.2460 C.3   1 <1>   0.1160 
  7 C        2.4890     0.0210    -1.3020 C.3   1 <1>   0.1160 
  8 C       -0.6900     2.3050     1.4900 C.3   1 <1>  -0.0800 
  9 C       -1.5760     3.4170     0.9100 C.3   1 <1>   0.2000 
 10 C        0.3940     3.0430     2.2850 C.3   1 <1>   0.1400 
 11 O       -2.5470     3.7060     1.8550 O.3   1 <1>  -0.6800 
 12 C       -0.6680     4.6440     0.7720 C.3   1 <1>   0.1400 
 13 N        0.4230     4.4230     1.7530 N.am  1 <1>  -0.6600 
 14 C        1.4670     5.2690     2.0000 C.2   1 <1>   0.5690 
 15 O        2.3050     5.0030     2.8300 O.2   1 <1>  -0.5700 
 16 C        1.5760     6.5700     1.2200 C.3   1 <1>  -0.0990 
 17 C        2.7590     7.4600     1.6530 C.3   1 <1>  -0.0990 
 18 C        2.8540     8.7450     0.8510 C.2   1 <1>   0.5690 
 19 O        1.8370     9.3120     0.5360 O.2   1 <1>  -0.5700 
 20 N        4.1000     9.2030     0.5440 N.am  1 <1>  -0.5470 
 21 C        4.5530    10.3180    -0.1290 C.ar  1 <1>   0.4270 
 22 N        5.8670    10.4650    -0.0380 N.ar  1 <1>  -0.6200 
 23 C        3.7330    11.1950    -0.8390 C.ar  1 <1>  -0.1500 
 24 C        6.3760    11.5150    -0.6620 C.ar  1 <1>   0.1600 
 25 C        4.2740    12.2850    -1.4840 C.ar  1 <1>  -0.1440 
 26 C        5.6410    12.4380    -1.3830 C.ar  1 <1>  -0.1500 
 27 C        3.4230    13.2690    -2.2660 C.3   1 <1>  -0.0970 
 28 H       -0.9360     0.7880     0.0090 H     1 <1>   0.0800 
 29 H        0.5060     0.6260     0.9340 H     1 <1>   0.0800 
 30 H        1.7030     0.0450    -3.7720 H     1 <1>   0.0800 
 31 H        2.1800     1.6950    -3.4040 H     1 <1>   0.0800 
 32 H        0.4930     1.2950    -3.6550 H     1 <1>   0.0800 
 33 H        2.6740    -0.8950    -1.8370 H     1 <1>   0.0800 
 34 H        2.3770    -0.2130    -0.2580 H     1 <1>   0.0800 
 35 H        3.3400     0.6730    -1.4200 H     1 <1>   0.0800 
 36 H       -1.2650     1.6980     2.1680 H     1 <1>   0.0800 
 37 H       -2.0710     3.1520    -0.0100 H     1 <1>   0.0800 
 38 H        1.3630     2.5820     2.1840 H     1 <1>   0.0800 
 39 H        0.1350     3.0820     3.3290 H     1 <1>   0.0800 
 40 H       -2.1210     4.1040     2.6400 H     1 <1>   0.4000 
 41 H       -1.2050     5.5540     0.9760 H     1 <1>   0.0800 
 42 H       -0.2490     4.7000    -0.2160 H     1 <1>   0.0800 
 43 H        1.6810     6.3300     0.1770 H     1 <1>   0.0800 
 44 H        0.6600     7.1180     1.3490 H     1 <1>   0.0800 
 45 H        3.6710     6.9020     1.5460 H     1 <1>   0.0800 
 46 H        2.6470     7.7180     2.6900 H     1 <1>   0.0800 
 47 H        4.8840     8.6720     0.9130 H     1 <1>   0.3700 
 48 H        2.6760    11.0210    -0.8860 H     1 <1>   0.1500 
 49 H        7.4420    11.6490    -0.5940 H     1 <1>   0.1500 
 50 H        6.1360    13.2640    -1.8600 H     1 <1>   0.1500 
 51 H        3.6030    14.2700    -1.9160 H     1 <1>   0.0800 
 52 H        2.3770    13.0490    -2.1460 H     1 <1>   0.0800 
 53 H        3.6680    13.2150    -3.3110 H     1 <1>   0.0800 
@<TRIPOS>BOND
  1   1   2  2   
  2   1   3  2   
  3   1   4  am  
  4   1   5  1   
  5   4   6  1   
  6   4   7  1   
  7   5   8  1   
  8   5  28  1   
  9   5  29  1   
 10   6  30  1   
 11   6  31  1   
 12   6  32  1   
 13   7  33  1   
 14   7  34  1   
 15   7  35  1   
 16   8   9  1   
 17   8  10  1   
 18   8  36  1   
 19   9  11  1   
 20   9  12  1   
 21   9  37  1   
 22  10  13  1   
 23  10  38  1   
 24  10  39  1   
 25  11  40  1   
 26  12  13  1   
 27  12  41  1   
 28  12  42  1   
 29  13  14  am  
 30  14  15  2   
 31  14  16  1   
 32  16  17  1   
 33  16  43  1   
 34  16  44  1   
 35  17  18  1   
 36  17  45  1   
 37  17  46  1   
 38  18  19  2   
 39  18  20  am  
 40  20  21  1   
 41  20  47  1   
 42  21  22  ar  
 43  21  23  ar  
 44  22  24  ar  
 45  23  25  ar  
 46  23  48  1   
 47  24  26  ar  
 48  24  49  1   
 49  25  26  ar  
 50  25  27  1   
 51  26  50  1   
 52  27  51  1   
 53  27  52  1   
 54  27  53  1   
@<TRIPOS>SUBSTRUCTURE
  1 ****  16 GROUP 4 **** **** 0

# MOE 2024.06 (io_trps.svl 2023.06)
