@<TRIPOS>MOLECULE
NONAME
28 29 1 0 0 
SMALL
USER_CHARGES


@<TRIPOS>ATOM
  1 O       -0.4860     0.2850    -0.1750 O.2   1 <1>  -0.5700 
  2 C       -1.4570    -0.4680    -0.1680 C.2   1 <1>   0.6160 
  3 N       -1.3430    -1.8710    -0.1600 N.am  1 <1>  -0.1070 
  4 C       -2.7570     0.0880    -0.1600 C.2   1 <1>  -0.1360 
  5 N       -2.4660    -2.6750    -0.1840 N.2   1 <1>  -0.5120 
  6 C       -0.1210    -2.6170    -0.1380 C.2   1 <1>  -0.0410 
  7 C       -3.8430    -0.7270    -0.1640 C.2   1 <1>  -0.1240 
  8 C       -3.6390    -2.1290    -0.1920 C.2   1 <1>   0.3750 
  9 C        1.1830    -2.2860    -0.0200 C.2   1 <1>   0.1530 
 10 C       -5.2600    -0.1740    -0.1250 C.3   1 <1>   0.2580 
 11 C       -4.8390    -3.0530    -0.2540 C.3   1 <1>  -0.0990 
 12 O        1.6660    -1.0350     0.1020 O.3   1 <1>  -0.5270 
 13 O        2.1400    -3.2530    -0.0170 O.3   1 <1>  -0.3570 
 14 O       -6.1700    -1.1210    -0.5880 O.3   1 <1>  -0.5600 
 15 C       -6.1370    -2.3300     0.1000 C.3   1 <1>   0.1200 
 16 C        3.5100    -2.9260     0.1140 C.3   1 <1>   0.0400 
 17 H       -2.8250     1.1590    -0.1460 H     1 <1>   0.1500 
 18 H       -0.3170    -3.6700    -0.2290 H     1 <1>   0.1500 
 19 H       -5.3460     0.6940    -0.7550 H     1 <1>   0.0800 
 20 H       -5.5360     0.0960     0.8810 H     1 <1>   0.0800 
 21 H       -4.6950    -3.8820     0.4150 H     1 <1>   0.0800 
 22 H       -4.9180    -3.4450    -1.2520 H     1 <1>   0.0800 
 23 H        0.9290    -0.3700     0.0170 H     1 <1>   0.4500 
 24 H       -6.2050    -2.1340     1.1570 H     1 <1>   0.0800 
 25 H       -6.9900    -2.9110    -0.2050 H     1 <1>   0.0800 
 26 H        4.0770    -3.8380     0.0930 H     1 <1>   0.0800 
 27 H        3.6580    -2.4190     1.0510 H     1 <1>   0.0800 
 28 H        3.7960    -2.2930    -0.7080 H     1 <1>   0.0800 
@<TRIPOS>BOND
  1   1   2  2   
  2   2   3  am  
  3   2   4  1   
  4   3   5  1   
  5   3   6  1   
  6   4   7  2   
  7   4  17  1   
  8   5   8  2   
  9   6   9  2   
 10   6  18  1   
 11   7   8  1   
 12   7  10  1   
 13   8  11  1   
 14   9  12  1   
 15   9  13  1   
 16  10  14  1   
 17  10  19  1   
 18  10  20  1   
 19  11  15  1   
 20  11  21  1   
 21  11  22  1   
 22  12  23  1   
 23  13  16  1   
 24  14  15  1   
 25  15  24  1   
 26  15  25  1   
 27  16  26  1   
 28  16  27  1   
 29  16  28  1   
@<TRIPOS>SUBSTRUCTURE
  1 ****   3 GROUP 4 **** **** 0

# MOE 2024.06 (io_trps.svl 2023.06)
