@<TRIPOS>MOLECULE
NONAME
49 51 1 0 0 
SMALL
USER_CHARGES


@<TRIPOS>ATOM
  1 CL      -0.9070    -0.7210    -1.0240 Cl    1 <1>  -0.1770 
  2 C       -1.8370     0.6000    -0.3370 C.ar  1 <1>   0.1770 
  3 C       -1.7290     1.8710    -0.8870 C.ar  1 <1>   0.0830 
  4 C       -2.6650     0.3310     0.7420 C.ar  1 <1>  -0.1440 
  5 O       -0.8910     2.0040    -1.9560 O.3   1 <1>  -0.3630 
  6 C       -2.4880     2.9130    -0.3320 C.ar  1 <1>   0.0830 
  7 C       -3.3970     1.3690     1.2950 C.ar  1 <1>  -0.1500 
  8 C       -2.7730    -1.0720     1.3050 C.3   1 <1>   0.4860 
  9 C       -0.0830     3.1530    -2.1040 C.3   1 <1>   0.0400 
 10 O       -2.4270     4.1580    -0.8850 O.3   1 <1>  -0.3630 
 11 C       -3.3080     2.6450     0.7640 C.ar  1 <1>  -0.1500 
 12 N       -3.4260    -1.9620     0.3050 N.4   1 <1>  -0.9590 
 13 C       -3.2090     5.2370    -0.4190 C.3   1 <1>   0.0400 
 14 C       -4.8220    -1.5120    -0.0040 C.3   1 <1>   0.3430 
 15 C       -3.5190    -3.3590     0.8300 C.3   1 <1>   0.3430 
 16 C       -5.7410    -2.4700     0.7580 C.3   1 <1>   0.2000 
 17 C       -4.9860    -3.7940     0.6950 C.3   1 <1>  -0.0800 
 18 O       -5.7890    -2.0610     2.0880 O.3   1 <1>  -0.6800 
 19 C       -5.2740    -4.5460    -0.6220 C.3   1 <1>   0.0200 
 20 C       -4.4610    -5.8210    -0.7240 C.2   1 <1>  -0.0400 
 21 O       -3.1890    -5.7590    -1.0080 O.3   1 <1>  -0.0190 
 22 C       -4.7870    -7.1140    -0.5790 C.2   1 <1>  -0.1500 
 23 N       -2.6400    -6.9350    -1.0420 N.2   1 <1>  -0.4100 
 24 C       -3.5800    -7.7750    -0.7940 C.2   1 <1>   0.1080 
 25 C       -3.3900    -9.2750    -0.7440 C.3   1 <1>  -0.0590 
 26 H       -4.0430     1.1990     2.1420 H     1 <1>   0.1500 
 27 H       -3.3530    -1.0570     2.2140 H     1 <1>   0.0800 
 28 H       -1.7850    -1.4400     1.5350 H     1 <1>   0.0800 
 29 H        0.7580     2.8930    -2.7220 H     1 <1>   0.0800 
 30 H        0.2580     3.4750    -1.1350 H     1 <1>   0.0800 
 31 H       -0.6580     3.9240    -2.5820 H     1 <1>   0.0800 
 32 H       -3.8930     3.4210     1.2220 H     1 <1>   0.1500 
 33 H       -2.8460    -1.9340    -0.5480 H     1 <1>   0.4500 
 34 H       -2.9940     6.0930    -1.0330 H     1 <1>   0.0800 
 35 H       -2.9460     5.4470     0.6020 H     1 <1>   0.0800 
 36 H       -4.2500     4.9810    -0.5080 H     1 <1>   0.0800 
 37 H       -5.0020    -0.4900     0.2850 H     1 <1>   0.0800 
 38 H       -5.0030    -1.6130    -1.0610 H     1 <1>   0.0800 
 39 H       -2.8450    -4.0170     0.3090 H     1 <1>   0.0800 
 40 H       -3.2580    -3.3690     1.8760 H     1 <1>   0.0800 
 41 H       -6.7430    -2.4990     0.3620 H     1 <1>   0.0800 
 42 H       -5.2580    -4.4390     1.5130 H     1 <1>   0.0800 
 43 H       -6.5010    -2.5270     2.5780 H     1 <1>   0.4000 
 44 H       -5.0570    -3.9350    -1.4810 H     1 <1>   0.0800 
 45 H       -6.3180    -4.8070    -0.6600 H     1 <1>   0.0800 
 46 H       -5.7310    -7.5750    -0.3530 H     1 <1>   0.1500 
 47 H       -3.9980    -9.7450    -1.4950 H     1 <1>   0.0800 
 48 H       -3.6680    -9.6490     0.2240 H     1 <1>   0.0800 
 49 H       -2.3590    -9.5210    -0.9290 H     1 <1>   0.0800 
@<TRIPOS>BOND
  1   1   2  1   
  2   2   3  ar  
  3   2   4  ar  
  4   3   5  1   
  5   3   6  ar  
  6   4   7  ar  
  7   4   8  1   
  8   5   9  1   
  9   6  10  1   
 10   6  11  ar  
 11   7  11  ar  
 12   7  26  1   
 13   8  12  1   
 14   8  27  1   
 15   8  28  1   
 16   9  29  1   
 17   9  30  1   
 18   9  31  1   
 19  10  13  1   
 20  11  32  1   
 21  12  14  1   
 22  12  15  1   
 23  12  33  1   
 24  13  34  1   
 25  13  35  1   
 26  13  36  1   
 27  14  16  1   
 28  14  37  1   
 29  14  38  1   
 30  15  17  1   
 31  15  39  1   
 32  15  40  1   
 33  16  17  1   
 34  16  18  1   
 35  16  41  1   
 36  17  19  1   
 37  17  42  1   
 38  18  43  1   
 39  19  20  1   
 40  19  44  1   
 41  19  45  1   
 42  20  21  1   
 43  20  22  2   
 44  21  23  1   
 45  22  24  1   
 46  22  46  1   
 47  23  24  2   
 48  24  25  1   
 49  25  47  1   
 50  25  48  1   
 51  25  49  1   
@<TRIPOS>SUBSTRUCTURE
  1 ****  12 GROUP 4 **** **** 0

# MOE 2024.06 (io_trps.svl 2023.06)
