@<TRIPOS>MOLECULE
NONAME
44 45 1 0 0 
SMALL
USER_CHARGES


@<TRIPOS>ATOM
  1 F       -2.1910    -1.6830    -3.2390 F     1 <1>  -0.1900 
  2 C       -2.4220    -1.7880    -1.9560 C.ar  1 <1>   0.1900 
  3 C       -2.4440    -0.6580    -1.1550 C.ar  1 <1>   0.1900 
  4 C       -2.6520    -3.0400    -1.4240 C.ar  1 <1>  -0.1500 
  5 F       -2.2360     0.5240    -1.6670 F     1 <1>  -0.1900 
  6 C       -2.6920    -0.7670     0.2010 C.ar  1 <1>  -0.1500 
  7 C       -2.9270    -3.1770    -0.0620 C.ar  1 <1>   0.0860 
  8 C       -2.9290    -2.0250     0.7350 C.ar  1 <1>  -0.1500 
  9 C       -3.2010    -4.4830     0.5010 C.2   1 <1>   0.5440 
 10 O       -2.3510    -5.3460     0.4280 O.2   1 <1>  -0.5700 
 11 N       -4.4150    -4.7830     1.0780 N.am  1 <1>  -0.6600 
 12 C       -4.6160    -6.0870     1.7950 C.3   1 <1>   0.3210 
 13 C       -5.6500    -3.9720     0.8900 C.3   1 <1>   0.1400 
 14 C       -5.4840    -7.0520     0.9860 C.2   1 <1>   0.0460 
 15 C       -6.2410    -4.2220    -0.5110 C.3   1 <1>   0.3430 
 16 N       -6.8340    -6.9420     0.9490 N.2   1 <1>  -0.5650 
 17 C       -5.0710    -8.1130     0.2530 C.2   1 <1>  -0.3320 
 18 N       -7.6330    -3.6770    -0.6660 N.4   1 <1>  -0.9590 
 19 C       -7.2040    -7.9530     0.2290 C.2   1 <1>   0.0360 
 20 N       -6.1790    -8.7000    -0.2290 N.pl3 1 <1>   0.0330 
 21 C       -3.6740    -8.6450    -0.0300 C.3   1 <1>  -0.0600 
 22 C       -8.6090    -4.5030     0.1180 C.3   1 <1>   0.2630 
 23 C       -8.0210    -3.6680    -2.1090 C.3   1 <1>   0.2630 
 24 H       -2.6120    -3.9100    -2.0570 H     1 <1>   0.1500 
 25 H       -2.6940     0.1150     0.8180 H     1 <1>   0.1500 
 26 H       -3.1100    -2.1240     1.7930 H     1 <1>   0.1500 
 27 H       -5.0880    -5.9050     2.7440 H     1 <1>   0.0800 
 28 H       -3.6680    -6.5500     2.0020 H     1 <1>   0.0800 
 29 H       -5.4270    -2.9280     1.0120 H     1 <1>   0.0800 
 30 H       -6.3610    -4.2530     1.6470 H     1 <1>   0.0800 
 31 H       -6.2540    -5.2820    -0.7000 H     1 <1>   0.0800 
 32 H       -5.5910    -3.7640    -1.2370 H     1 <1>   0.0800 
 33 H       -7.6570    -2.7080    -0.3140 H     1 <1>   0.4500 
 34 H       -8.2270    -8.2030     0.0050 H     1 <1>   0.1500 
 35 H       -6.2340    -9.5480    -0.8030 H     1 <1>   0.2700 
 36 H       -2.9240    -8.0120     0.4110 H     1 <1>   0.0800 
 37 H       -3.4970    -8.6810    -1.0900 H     1 <1>   0.0800 
 38 H       -3.5630    -9.6350     0.3760 H     1 <1>   0.0800 
 39 H       -8.5970    -5.5240    -0.2310 H     1 <1>   0.0800 
 40 H       -9.6080    -4.1130     0.0090 H     1 <1>   0.0800 
 41 H       -8.3530    -4.5060     1.1640 H     1 <1>   0.0800 
 42 H       -8.0030    -4.6700    -2.5070 H     1 <1>   0.0800 
 43 H       -7.3370    -3.0590    -2.6780 H     1 <1>   0.0800 
 44 H       -9.0150    -3.2680    -2.2270 H     1 <1>   0.0800 
@<TRIPOS>BOND
  1   1   2  1   
  2   2   3  ar  
  3   2   4  ar  
  4   3   5  1   
  5   3   6  ar  
  6   4   7  ar  
  7   4  24  1   
  8   6   8  ar  
  9   6  25  1   
 10   7   8  ar  
 11   7   9  1   
 12   8  26  1   
 13   9  10  2   
 14   9  11  am  
 15  11  12  1   
 16  11  13  1   
 17  12  14  1   
 18  12  27  1   
 19  12  28  1   
 20  13  15  1   
 21  13  29  1   
 22  13  30  1   
 23  14  16  1   
 24  14  17  2   
 25  15  18  1   
 26  15  31  1   
 27  15  32  1   
 28  16  19  2   
 29  17  20  1   
 30  17  21  1   
 31  18  22  1   
 32  18  23  1   
 33  18  33  1   
 34  19  20  1   
 35  19  34  1   
 36  20  35  1   
 37  21  36  1   
 38  21  37  1   
 39  21  38  1   
 40  22  39  1   
 41  22  40  1   
 42  22  41  1   
 43  23  42  1   
 44  23  43  1   
 45  23  44  1   
@<TRIPOS>SUBSTRUCTURE
  1 ****  11 GROUP 4 **** **** 0

# MOE 2024.06 (io_trps.svl 2023.06)
