@<TRIPOS>MOLECULE
NONAME
53 57 1 0 0 
SMALL
USER_CHARGES


@<TRIPOS>ATOM
  1 O       -3.6230     1.9690     1.0760 O.2   1 <1>  -0.5700 
  2 C       -3.0450     1.9320     0.0150 C.2   1 <1>   0.5690 
  3 N       -3.2320     0.8930    -0.8580 N.am  1 <1>  -0.6600 
  4 C       -2.0830     3.0670    -0.2880 C.3   1 <1>   0.1570 
  5 C       -2.6970     0.7590    -2.2450 C.3   1 <1>   0.1400 
  6 C       -3.7430    -0.4210    -0.3900 C.3   1 <1>   0.1400 
  7 N       -0.7120     2.5600    -0.5280 N.pl3 1 <1>   0.0480 
  8 C       -3.1200    -0.6400    -2.6980 C.3   1 <1>   0.2000 
  9 C       -3.1990    -1.4400    -1.3980 C.3   1 <1>  -0.0800 
 10 C        0.0210     2.7740    -1.6560 C.ar  1 <1>  -0.1520 
 11 C       -0.0040     1.6430     0.1950 C.2   1 <1>   0.1010 
 12 O       -4.3910    -0.5600    -3.2460 O.3   1 <1>  -0.6800 
 13 C       -1.8000    -1.9610    -0.9990 C.3   1 <1>   0.0210 
 14 C        1.1250     1.9500    -1.5410 C.ar  1 <1>   0.2270 
 15 C       -0.1540     3.5870    -2.7810 C.ar  1 <1>  -0.1500 
 16 N        1.0810     1.2510    -0.3770 N.2   1 <1>  -0.5650 
 17 C       -0.4620     1.1260     1.5510 C.3   1 <1>  -0.0150 
 18 C       -1.7690    -2.5980     0.3780 C.2   1 <1>   0.1080 
 19 C        2.0840     1.9190    -2.5510 C.ar  1 <1>  -0.1500 
 20 C        0.7980     3.5490    -3.7760 C.ar  1 <1>  -0.1500 
 21 C       -0.4710     2.0430     2.7350 C.3   1 <1>  -0.2000 
 22 C        0.5190     0.9210     2.6630 C.3   1 <1>  -0.2000 
 23 N       -2.7090    -3.3640     0.8400 N.2   1 <1>  -0.7070 
 24 C       -0.7360    -2.4230     1.2920 C.2   1 <1>  -0.1500 
 25 C        1.9180     2.7160    -3.6620 C.ar  1 <1>  -0.1500 
 26 N       -2.2960    -3.6970     2.0780 N.pl3 1 <1>   0.3000 
 27 C       -1.1050    -3.1370     2.3750 C.2   1 <1>  -0.3320 
 28 C       -0.3770    -3.3200     3.6940 C.3   1 <1>  -0.0600 
 29 H       -2.0560     3.7410     0.5470 H     1 <1>   0.0800 
 30 H       -2.4310     3.5980    -1.1500 H     1 <1>   0.0800 
 31 H       -3.0790     1.5230    -2.8990 H     1 <1>   0.0800 
 32 H       -1.6230     0.8000    -2.2280 H     1 <1>   0.0800 
 33 H       -3.4280    -0.6260     0.6200 H     1 <1>   0.0800 
 34 H       -4.8190    -0.4090    -0.4150 H     1 <1>   0.0800 
 35 H       -2.4600    -1.0650    -3.4350 H     1 <1>   0.0800 
 36 H       -3.8630    -2.2830    -1.4890 H     1 <1>   0.0800 
 37 H       -4.9920    -0.1390    -2.6000 H     1 <1>   0.4000 
 38 H       -1.0830    -1.1590    -1.0110 H     1 <1>   0.0800 
 39 H       -1.4800    -2.6980    -1.7130 H     1 <1>   0.0800 
 40 H       -1.0100     4.2310    -2.8680 H     1 <1>   0.1500 
 41 H       -1.2500     0.3990     1.4730 H     1 <1>   0.1000 
 42 H        2.9330     1.2720    -2.4340 H     1 <1>   0.1500 
 43 H        0.6930     4.1650    -4.6530 H     1 <1>   0.1500 
 44 H       -0.1080     3.0490     2.6210 H     1 <1>   0.1000 
 45 H       -1.3000     1.9740     3.4180 H     1 <1>   0.1000 
 46 H        0.3910     0.0660     3.3020 H     1 <1>   0.1000 
 47 H        1.5540     1.1430     2.4680 H     1 <1>   0.1000 
 48 H        0.1520    -1.8350     1.1370 H     1 <1>   0.1500 
 49 H        2.6500     2.7060    -4.4520 H     1 <1>   0.1500 
 50 H       -2.8490    -4.3070     2.6920 H     1 <1>   0.2700 
 51 H        0.5520    -2.7790     3.6800 H     1 <1>   0.0800 
 52 H       -0.1650    -4.3610     3.8620 H     1 <1>   0.0800 
 53 H       -0.9780    -2.9470     4.5050 H     1 <1>   0.0800 
@<TRIPOS>BOND
  1   1   2  2   
  2   2   3  am  
  3   2   4  1   
  4   3   5  1   
  5   3   6  1   
  6   4   7  1   
  7   4  29  1   
  8   4  30  1   
  9   5   8  1   
 10   5  31  1   
 11   5  32  1   
 12   6   9  1   
 13   6  33  1   
 14   6  34  1   
 15   7  10  1   
 16   7  11  1   
 17   8   9  1   
 18   8  12  1   
 19   8  35  1   
 20   9  13  1   
 21   9  36  1   
 22  10  14  ar  
 23  10  15  ar  
 24  11  16  2   
 25  11  17  1   
 26  12  37  1   
 27  13  18  1   
 28  13  38  1   
 29  13  39  1   
 30  14  16  1   
 31  14  19  ar  
 32  15  20  ar  
 33  15  40  1   
 34  17  21  1   
 35  17  22  1   
 36  17  41  1   
 37  18  23  2   
 38  18  24  1   
 39  19  25  ar  
 40  19  42  1   
 41  20  25  ar  
 42  20  43  1   
 43  21  22  1   
 44  21  44  1   
 45  21  45  1   
 46  22  46  1   
 47  22  47  1   
 48  23  26  1   
 49  24  27  2   
 50  24  48  1   
 51  25  49  1   
 52  26  27  1   
 53  26  50  1   
 54  27  28  1   
 55  28  51  1   
 56  28  52  1   
 57  28  53  1   
@<TRIPOS>SUBSTRUCTURE
  1 ****  11 GROUP 4 **** **** 0

# MOE 2024.06 (io_trps.svl 2023.06)
