@<TRIPOS>MOLECULE
NONAME
47 49 1 0 0 
SMALL
USER_CHARGES


@<TRIPOS>ATOM
  1 O        1.9830    -1.8850     2.2700 O.2   1 <1>  -0.5700 
  2 C        2.1360    -2.1310     1.0790 C.2   1 <1>   0.6160 
  3 N        3.2730    -1.7110     0.4070 N.am  1 <1>  -0.4690 
  4 C        1.1610    -2.8650     0.3620 C.2   1 <1>  -0.1360 
  5 C        3.4270    -2.0030    -0.9340 C.2   1 <1>  -0.0410 
  6 C        4.3430    -0.9740     1.1230 C.3   1 <1>   0.1400 
  7 C        1.3130    -3.1880    -0.9580 C.2   1 <1>   0.0140 
  8 C        2.4870    -2.7120    -1.6080 C.2   1 <1>  -0.1500 
  9 C        5.3900    -1.9640     1.6330 C.3   1 <1>  -0.2400 
 10 C        0.3590    -3.9880    -1.6990 C.2   1 <1>   0.6160 
 11 O       -0.1350    -3.5190    -2.7070 O.2   1 <1>  -0.5700 
 12 N       -0.0160    -5.2560    -1.3020 N.am  1 <1>  -0.6600 
 13 C        0.7480    -6.0490    -0.2650 C.3   1 <1>   0.3640 
 14 C       -1.2770    -5.8490    -1.8450 C.3   1 <1>   0.1400 
 15 C        2.2450    -6.0040    -0.5950 C.ar  1 <1>  -0.1430 
 16 C        0.3220    -7.5440    -0.1070 C.3   1 <1>   0.2000 
 17 C       -1.2550    -7.3750    -1.8300 C.3   1 <1>   0.1200 
 18 C        2.7040    -6.3420    -1.8620 C.ar  1 <1>  -0.1500 
 19 C        3.1650    -5.6140     0.3690 C.ar  1 <1>  -0.1500 
 20 O       -0.9850    -7.8070    -0.5380 O.3   1 <1>  -0.5600 
 21 C        0.3900    -8.0360     1.3490 C.3   1 <1>   0.1200 
 22 C        4.0550    -6.2910    -2.1580 C.ar  1 <1>  -0.1500 
 23 C        4.5150    -5.5610     0.0740 C.ar  1 <1>  -0.1500 
 24 O        1.6300    -7.7850     1.9260 O.3   1 <1>  -0.6800 
 25 C        4.9620    -5.9010    -1.1900 C.ar  1 <1>  -0.1500 
 26 H        0.2930    -3.1620     0.9160 H     1 <1>   0.1500 
 27 H        4.3210    -1.6510    -1.4210 H     1 <1>   0.1500 
 28 H        4.8000    -0.2670     0.4520 H     1 <1>   0.0800 
 29 H        3.9220    -0.4240     1.9480 H     1 <1>   0.0800 
 30 H        2.6040    -2.9440    -2.6530 H     1 <1>   0.1500 
 31 H        5.8240    -2.5070     0.8130 H     1 <1>   0.0800 
 32 H        4.9360    -2.6550     2.3210 H     1 <1>   0.0800 
 33 H        6.1700    -1.4330     2.1480 H     1 <1>   0.0800 
 34 H        0.5900    -5.5700     0.6860 H     1 <1>   0.0800 
 35 H       -2.1080    -5.5040    -1.2550 H     1 <1>   0.0800 
 36 H       -1.4360    -5.5210    -2.8580 H     1 <1>   0.0800 
 37 H        0.9700    -8.1630    -0.7030 H     1 <1>   0.0800 
 38 H       -0.5100    -7.7630    -2.5030 H     1 <1>   0.0800 
 39 H       -2.2180    -7.7610    -2.1130 H     1 <1>   0.0800 
 40 H        2.0080    -6.6370    -2.6280 H     1 <1>   0.1500 
 41 H        2.8350    -5.3460     1.3590 H     1 <1>   0.1500 
 42 H        0.2100    -9.0960     1.3920 H     1 <1>   0.0800 
 43 H       -0.3500    -7.5270     1.9420 H     1 <1>   0.0800 
 44 H        4.4000    -6.5530    -3.1440 H     1 <1>   0.1500 
 45 H        5.2160    -5.2540     0.8310 H     1 <1>   0.1500 
 46 H        2.3480    -8.2340     1.4360 H     1 <1>   0.4000 
 47 H        6.0130    -5.8600    -1.4190 H     1 <1>   0.1500 
@<TRIPOS>BOND
  1   1   2  2   
  2   2   3  am  
  3   2   4  1   
  4   3   5  1   
  5   3   6  1   
  6   4   7  2   
  7   4  26  1   
  8   5   8  2   
  9   5  27  1   
 10   6   9  1   
 11   6  28  1   
 12   6  29  1   
 13   7   8  1   
 14   7  10  1   
 15   8  30  1   
 16   9  31  1   
 17   9  32  1   
 18   9  33  1   
 19  10  11  2   
 20  10  12  am  
 21  12  13  1   
 22  12  14  1   
 23  13  15  1   
 24  13  16  1   
 25  13  34  1   
 26  14  17  1   
 27  14  35  1   
 28  14  36  1   
 29  15  18  ar  
 30  15  19  ar  
 31  16  20  1   
 32  16  21  1   
 33  16  37  1   
 34  17  20  1   
 35  17  38  1   
 36  17  39  1   
 37  18  22  ar  
 38  18  40  1   
 39  19  23  ar  
 40  19  41  1   
 41  21  24  1   
 42  21  42  1   
 43  21  43  1   
 44  22  25  ar  
 45  22  44  1   
 46  23  25  ar  
 47  23  45  1   
 48  24  46  1   
 49  25  47  1   
@<TRIPOS>SUBSTRUCTURE
  1 ****  15 GROUP 4 **** **** 0

# MOE 2024.06 (io_trps.svl 2023.06)
