@<TRIPOS>MOLECULE
NONAME
45 47 1 0 0 
SMALL
USER_CHARGES


@<TRIPOS>ATOM
  1 O       -1.9080     0.3430    -2.2110 O.2   1 <1>  -0.5700 
  2 C       -2.0220     0.8030    -1.1020 C.2   1 <1>   0.5690 
  3 N       -2.3600     0.0360    -0.0380 N.am  1 <1>  -0.7300 
  4 C       -1.7810     2.2790    -0.8800 C.3   1 <1>  -0.0990 
  5 C       -2.5950    -1.4230    -0.0890 C.3   1 <1>   0.2200 
  6 C       -0.3590     2.5400    -0.3620 C.3   1 <1>  -0.0650 
  7 C       -4.0780    -1.6970     0.0900 C.3   1 <1>  -0.0800 
  8 C       -2.0060    -2.0770     1.1550 C.3   1 <1>   0.1200 
  9 C       -0.1290     4.0150     0.0050 C.3   1 <1>  -0.1900 
 10 C       -4.2300    -1.6830     1.6160 C.3   1 <1>   0.1200 
 11 C       -4.4790    -3.0510    -0.5260 C.3   1 <1>  -0.0160 
 12 O       -2.9640    -1.9250     2.1600 O.3   1 <1>  -0.5600 
 13 C        0.8570     4.3170     1.0850 C.3   1 <1>  -0.2000 
 14 C       -0.6180     4.5140     1.3250 C.3   1 <1>  -0.2000 
 15 C       -0.1710     4.9640    -1.1990 C.3   1 <1>  -0.1450 
 16 C       -5.9690    -3.3150    -0.3700 C.ar  1 <1>  -0.1440 
 17 C       -6.4630    -4.2170     0.5500 C.ar  1 <1>  -0.1500 
 18 C       -6.9050    -2.6620    -1.1460 C.ar  1 <1>  -0.1500 
 19 C       -7.8310    -4.4130     0.6510 C.ar  1 <1>   0.1600 
 20 C       -8.2520    -2.9310    -0.9660 C.ar  1 <1>   0.1600 
 21 N       -8.7380    -3.7900    -0.0840 N.ar  1 <1>  -0.6200 
 22 H       -2.4500     0.4470     0.8930 H     1 <1>   0.3700 
 23 H       -1.9310     2.7890    -1.8140 H     1 <1>   0.0800 
 24 H       -2.5010     2.6520    -0.1770 H     1 <1>   0.0800 
 25 H       -2.1900    -1.8370    -0.9980 H     1 <1>   0.0800 
 26 H        0.3550     2.2400    -1.1110 H     1 <1>   0.0800 
 27 H       -0.1880     1.9270     0.5060 H     1 <1>   0.0800 
 28 H       -4.6720    -0.9240    -0.3640 H     1 <1>   0.0800 
 29 H       -1.0800    -1.6250     1.4640 H     1 <1>   0.0800 
 30 H       -1.8610    -3.1320     0.9990 H     1 <1>   0.0800 
 31 H       -4.9140    -2.4280     1.9800 H     1 <1>   0.0800 
 32 H       -4.5470    -0.7130     1.9560 H     1 <1>   0.0800 
 33 H       -3.9220    -3.8500    -0.0680 H     1 <1>   0.0800 
 34 H       -4.2400    -3.0490    -1.5760 H     1 <1>   0.0800 
 35 H        1.3550     3.5080     1.5900 H     1 <1>   0.1000 
 36 H        1.4820     5.1890     1.0010 H     1 <1>   0.1000 
 37 H       -0.9970     5.5180     1.3980 H     1 <1>   0.1000 
 38 H       -1.1210     3.8370     1.9940 H     1 <1>   0.1000 
 39 H        0.0870     5.9660    -0.9020 H     1 <1>   0.0800 
 40 H       -1.1550     4.9900    -1.6300 H     1 <1>   0.0800 
 41 H        0.5300     4.6430    -1.9490 H     1 <1>   0.0800 
 42 H       -5.8010    -4.7700     1.1910 H     1 <1>   0.1500 
 43 H       -6.6010    -1.9470    -1.8890 H     1 <1>   0.1500 
 44 H       -8.1980    -5.1200     1.3750 H     1 <1>   0.1500 
 45 H       -8.9680    -2.4120    -1.5800 H     1 <1>   0.1500 
@<TRIPOS>BOND
  1   1   2  2   
  2   2   3  am  
  3   2   4  1   
  4   3   5  1   
  5   3  22  1   
  6   4   6  1   
  7   4  23  1   
  8   4  24  1   
  9   5   7  1   
 10   5   8  1   
 11   5  25  1   
 12   6   9  1   
 13   6  26  1   
 14   6  27  1   
 15   7  10  1   
 16   7  11  1   
 17   7  28  1   
 18   8  12  1   
 19   8  29  1   
 20   8  30  1   
 21   9  13  1   
 22   9  14  1   
 23   9  15  1   
 24  10  12  1   
 25  10  31  1   
 26  10  32  1   
 27  11  16  1   
 28  11  33  1   
 29  11  34  1   
 30  13  14  1   
 31  13  35  1   
 32  13  36  1   
 33  14  37  1   
 34  14  38  1   
 35  15  39  1   
 36  15  40  1   
 37  15  41  1   
 38  16  17  ar  
 39  16  18  ar  
 40  17  19  ar  
 41  17  42  1   
 42  18  20  ar  
 43  18  43  1   
 44  19  21  ar  
 45  19  44  1   
 46  20  21  ar  
 47  20  45  1   
@<TRIPOS>SUBSTRUCTURE
  1 ****   3 GROUP 4 **** **** 0

# MOE 2024.06 (io_trps.svl 2023.06)
