@<TRIPOS>MOLECULE
NONAME
55 58 1 0 0 
SMALL
USER_CHARGES


@<TRIPOS>ATOM
  1 O       -2.4790     0.5240    -1.9850 O.2   1 <1>  -0.5700 
  2 C       -2.1860     0.9940    -0.9110 C.2   1 <1>   0.6300 
  3 N       -1.2000     1.9420    -0.7780 N.am  1 <1>  -0.6600 
  4 C       -2.9500     0.4950     0.3130 C.3   1 <1>  -0.1000 
  5 C       -0.4930     2.4860    -1.9710 C.3   1 <1>   0.1400 
  6 C       -0.7440     2.5130     0.5190 C.3   1 <1>   0.1400 
  7 C       -4.4230     0.2060     0.2450 C.3   1 <1>  -0.2000 
  8 C       -3.9320     1.3790     1.0310 C.3   1 <1>  -0.2000 
  9 C       -0.6720     4.0050    -2.0150 C.3   1 <1>  -0.1600 
 10 C       -0.9290     4.0310     0.4950 C.3   1 <1>  -0.1600 
 11 C       -0.2060     4.6400    -0.7060 C.3   1 <1>   0.2890 
 12 N       -0.4950     6.0870    -0.7490 N.pl3 1 <1>  -0.8690 
 13 C        0.3510     7.1040    -0.4740 C.ar  1 <1>   0.4100 
 14 N        1.5750     6.7850    -0.1120 N.ar  1 <1>  -0.6200 
 15 C       -0.0850     8.4500    -0.5810 C.ar  1 <1>  -0.1430 
 16 C        2.4240     7.7630     0.1440 C.ar  1 <1>   0.7710 
 17 C        0.8240     9.4350    -0.3270 C.ar  1 <1>   0.2180 
 18 C       -1.5460     8.7200    -0.9650 C.3   1 <1>  -0.0970 
 19 N        2.0690     9.0520     0.0410 N.ar  1 <1>  -0.1790 
 20 N        3.6900     7.4600     0.5210 N.pl3 1 <1>  -0.8380 
 21 C        0.5750    10.9370    -0.4140 C.3   1 <1>  -0.0970 
 22 C        4.8230     8.3830     0.8040 C.3   1 <1>   0.2090 
 23 C        4.1360     6.0460     0.6800 C.3   1 <1>   0.2090 
 24 C        6.0540     7.4900     0.8690 C.3   1 <1>  -0.1600 
 25 C        5.5200     6.1320     1.3060 C.3   1 <1>  -0.1600 
 26 H       -2.3570    -0.1870     0.8930 H     1 <1>   0.1000 
 27 H       -0.8810     2.0540    -2.8780 H     1 <1>   0.0800 
 28 H        0.5520     2.2360    -1.9060 H     1 <1>   0.0800 
 29 H        0.2970     2.2740     0.6580 H     1 <1>   0.0800 
 30 H       -1.2890     2.0970     1.3470 H     1 <1>   0.0800 
 31 H       -4.8010    -0.6560     0.7670 H     1 <1>   0.1000 
 32 H       -4.9310     0.3750    -0.6900 H     1 <1>   0.1000 
 33 H       -4.1240     2.3650     0.6440 H     1 <1>   0.1000 
 34 H       -3.9790     1.3390     2.1050 H     1 <1>   0.1000 
 35 H       -1.7100     4.2220    -2.1870 H     1 <1>   0.0800 
 36 H       -0.0970     4.4030    -2.8310 H     1 <1>   0.0800 
 37 H       -0.5300     4.4500     1.4000 H     1 <1>   0.0800 
 38 H       -1.9800     4.2520     0.4470 H     1 <1>   0.0800 
 39 H        0.8530     4.4710    -0.5990 H     1 <1>   0.0800 
 40 H       -1.4560     6.2890    -1.0270 H     1 <1>   0.4000 
 41 H       -2.2040     8.1370    -0.3440 H     1 <1>   0.0800 
 42 H       -1.7110     8.4450    -1.9920 H     1 <1>   0.0800 
 43 H       -1.8300     9.7470    -0.8390 H     1 <1>   0.0800 
 44 H        2.7960     9.7150     0.2650 H     1 <1>   0.4570 
 45 H       -0.2080    11.1670    -1.1140 H     1 <1>   0.0800 
 46 H        1.4570    11.4520    -0.7520 H     1 <1>   0.0800 
 47 H        0.2970    11.3220     0.5510 H     1 <1>   0.0800 
 48 H        4.6710     8.8560     1.7610 H     1 <1>   0.0800 
 49 H        4.9380     9.1260     0.0330 H     1 <1>   0.0800 
 50 H        4.1920     5.5800    -0.2900 H     1 <1>   0.0800 
 51 H        3.4580     5.4890     1.3060 H     1 <1>   0.0800 
 52 H        6.7960     7.8740     1.5480 H     1 <1>   0.0800 
 53 H        6.4870     7.4120    -0.1130 H     1 <1>   0.0800 
 54 H        6.1510     5.3200     0.9890 H     1 <1>   0.0800 
 55 H        5.4230     6.1000     2.3780 H     1 <1>   0.0800 
@<TRIPOS>BOND
  1   1   2  2   
  2   2   3  am  
  3   2   4  1   
  4   3   5  1   
  5   3   6  1   
  6   4   7  1   
  7   4   8  1   
  8   4  26  1   
  9   5   9  1   
 10   5  27  1   
 11   5  28  1   
 12   6  10  1   
 13   6  29  1   
 14   6  30  1   
 15   7   8  1   
 16   7  31  1   
 17   7  32  1   
 18   8  33  1   
 19   8  34  1   
 20   9  11  1   
 21   9  35  1   
 22   9  36  1   
 23  10  11  1   
 24  10  37  1   
 25  10  38  1   
 26  11  12  1   
 27  11  39  1   
 28  12  13  1   
 29  12  40  1   
 30  13  14  ar  
 31  13  15  ar  
 32  14  16  ar  
 33  15  17  ar  
 34  15  18  1   
 35  16  19  ar  
 36  16  20  1   
 37  17  19  ar  
 38  17  21  1   
 39  18  41  1   
 40  18  42  1   
 41  18  43  1   
 42  19  44  1   
 43  20  22  1   
 44  20  23  1   
 45  21  45  1   
 46  21  46  1   
 47  21  47  1   
 48  22  24  1   
 49  22  48  1   
 50  22  49  1   
 51  23  25  1   
 52  23  50  1   
 53  23  51  1   
 54  24  25  1   
 55  24  52  1   
 56  24  53  1   
 57  25  54  1   
 58  25  55  1   
@<TRIPOS>SUBSTRUCTURE
  1 ****  11 GROUP 4 **** **** 0

# MOE 2024.06 (io_trps.svl 2023.06)
