@<TRIPOS>MOLECULE
NONAME
49 52 1 0 0 
SMALL
USER_CHARGES


@<TRIPOS>ATOM
  1 CL      -4.2380    -0.4370     3.5710 Cl    1 <1>  -0.1770 
  2 C       -4.1850    -1.5250     2.2050 C.ar  1 <1>   0.1770 
  3 C       -4.1960    -2.8920     2.4290 C.ar  1 <1>  -0.1500 
  4 C       -4.1330    -0.9980     0.9220 C.ar  1 <1>  -0.1500 
  5 C       -4.1540    -3.7310     1.3310 C.ar  1 <1>  -0.1440 
  6 C       -4.0910    -1.8540    -0.1670 C.ar  1 <1>  -0.1500 
  7 C       -4.1040    -3.2240     0.0510 C.ar  1 <1>   0.1000 
  8 C       -4.1500    -5.2380     1.2880 C.3   1 <1>  -0.0160 
  9 N       -4.0670    -4.2100    -0.9110 N.pl3 1 <1>  -0.8690 
 10 C       -3.9860    -5.5460    -0.2130 C.3   1 <1>   0.3500 
 11 C       -4.9360    -6.6810    -0.6760 C.2   1 <1>   0.5690 
 12 O       -4.4440    -7.7890    -0.6880 O.2   1 <1>  -0.5700 
 13 N       -6.2660    -6.5150    -1.0150 N.am  1 <1>  -0.6600 
 14 C       -7.1010    -7.6920    -1.4210 C.3   1 <1>   0.1400 
 15 C       -7.0260    -5.2290    -1.0340 C.3   1 <1>   0.1400 
 16 C       -8.0300    -8.1670    -0.2920 C.3   1 <1>   0.1400 
 17 C       -7.6590    -4.9010     0.3240 C.3   1 <1>  -0.1600 
 18 N       -8.8990    -7.0650     0.2380 N.am  1 <1>  -0.6600 
 19 C       -8.1750    -6.1080     1.1180 C.3   1 <1>   0.1400 
 20 C      -10.2470    -6.9070     0.0060 C.2   1 <1>   0.5690 
 21 O      -10.8470    -5.9550     0.4500 O.2   1 <1>  -0.5700 
 22 C      -11.0510    -7.8780    -0.8520 C.3   1 <1>   0.0810 
 23 C      -11.7200    -8.9770    -0.0380 C.2   1 <1>  -0.1400 
 24 S      -10.7130   -10.2390     0.6560 S.3   1 <1>  -0.0800 
 25 C      -13.0130    -9.1890     0.2720 C.2   1 <1>  -0.1500 
 26 C      -12.1090   -11.0320     1.3620 C.2   1 <1>  -0.1100 
 27 C      -13.2350   -10.3580     1.0690 C.2   1 <1>  -0.1500 
 28 H       -4.2360    -3.2760     3.4320 H     1 <1>   0.1500 
 29 H       -4.1270     0.0680     0.7850 H     1 <1>   0.1500 
 30 H       -4.0550    -1.4740    -1.1720 H     1 <1>   0.1500 
 31 H       -5.0720    -5.6340     1.6700 H     1 <1>   0.0800 
 32 H       -3.3290    -5.6480     1.8480 H     1 <1>   0.0800 
 33 H       -3.3490    -4.0880    -1.6330 H     1 <1>   0.4000 
 34 H       -2.9840    -5.9100    -0.3580 H     1 <1>   0.0800 
 35 H       -6.4680    -8.5120    -1.7130 H     1 <1>   0.0800 
 36 H       -7.6900    -7.4330    -2.2830 H     1 <1>   0.0800 
 37 H       -7.8170    -5.3090    -1.7590 H     1 <1>   0.0800 
 38 H       -6.4100    -4.4130    -1.3590 H     1 <1>   0.0800 
 39 H       -7.4290    -8.5610     0.5080 H     1 <1>   0.0800 
 40 H       -8.6250    -8.9800    -0.6600 H     1 <1>   0.0800 
 41 H       -8.4810    -4.2290     0.1570 H     1 <1>   0.0800 
 42 H       -6.9510    -4.3650     0.9250 H     1 <1>   0.0800 
 43 H       -8.8300    -5.7670     1.9030 H     1 <1>   0.0800 
 44 H       -7.3470    -6.6110     1.5870 H     1 <1>   0.0800 
 45 H      -10.4410    -8.3060    -1.6220 H     1 <1>   0.0800 
 46 H      -11.8190    -7.3110    -1.3440 H     1 <1>   0.0800 
 47 H      -13.8380    -8.5640    -0.0250 H     1 <1>   0.1500 
 48 H      -11.9350   -11.9280     1.9300 H     1 <1>   0.1500 
 49 H      -14.2280   -10.6310     1.3820 H     1 <1>   0.1500 
@<TRIPOS>BOND
  1   1   2  1   
  2   2   3  ar  
  3   2   4  ar  
  4   3   5  ar  
  5   3  28  1   
  6   4   6  ar  
  7   4  29  1   
  8   5   7  ar  
  9   5   8  1   
 10   6   7  ar  
 11   6  30  1   
 12   7   9  1   
 13   8  10  1   
 14   8  31  1   
 15   8  32  1   
 16   9  10  1   
 17   9  33  1   
 18  10  11  1   
 19  10  34  1   
 20  11  12  2   
 21  11  13  am  
 22  13  14  1   
 23  13  15  1   
 24  14  16  1   
 25  14  35  1   
 26  14  36  1   
 27  15  17  1   
 28  15  37  1   
 29  15  38  1   
 30  16  18  1   
 31  16  39  1   
 32  16  40  1   
 33  17  19  1   
 34  17  41  1   
 35  17  42  1   
 36  18  19  1   
 37  18  20  am  
 38  19  43  1   
 39  19  44  1   
 40  20  21  2   
 41  20  22  1   
 42  22  23  1   
 43  22  45  1   
 44  22  46  1   
 45  23  24  1   
 46  23  25  2   
 47  24  26  1   
 48  25  27  1   
 49  25  47  1   
 50  26  27  2   
 51  26  48  1   
 52  27  49  1   
@<TRIPOS>SUBSTRUCTURE
  1 ****  17 GROUP 4 **** **** 0

# MOE 2024.06 (io_trps.svl 2023.06)
