@<TRIPOS>MOLECULE
NONAME
53 56 1 0 0 
SMALL
USER_CHARGES


@<TRIPOS>ATOM
  1 O        1.3830     0.8730     0.4120 O.3   1 <1>  -0.5320 
  2 C        2.2760    -0.0070    -0.0900 C.ar  1 <1>   0.0830 
  3 C        1.9990    -1.3610    -0.0120 C.ar  1 <1>  -0.1430 
  4 C        3.4620     0.4290    -0.6810 C.ar  1 <1>   0.1670 
  5 C        2.9430    -2.2240    -0.5580 C.ar  1 <1>  -0.1440 
  6 C        0.7160    -1.8210     0.6550 C.3   1 <1>   0.4870 
  7 N        4.3620    -0.3880    -1.1940 N.ar  1 <1>  -0.6200 
  8 C        3.7980     1.9070    -0.7740 C.3   1 <1>  -0.0960 
  9 C        4.0880    -1.6780    -1.1230 C.ar  1 <1>   0.1600 
 10 C        2.8010    -3.7430    -0.5990 C.3   1 <1>   0.2640 
 11 N       -0.2520    -2.1620    -0.4160 N.4   1 <1>  -0.9590 
 12 O        2.3810    -4.2110     0.6330 O.3   1 <1>  -0.6800 
 13 C       -1.3090    -1.1040    -0.5820 C.3   1 <1>   0.3430 
 14 C       -0.7980    -3.5460    -0.2320 C.3   1 <1>   0.3430 
 15 C       -2.3280    -1.0280     0.5810 C.3   1 <1>   0.1430 
 16 C       -2.1530    -3.5750     0.4900 C.3   1 <1>  -0.1600 
 17 C       -3.6510    -0.6710    -0.0660 C.ar  1 <1>   0.1670 
 18 C       -2.4120    -2.3510     1.3820 C.3   1 <1>  -0.1600 
 19 C       -2.0830     0.1800     1.5310 C.3   1 <1>  -0.1600 
 20 N       -4.3290    -1.4620    -0.8670 N.ar  1 <1>  -0.6200 
 21 C       -4.0560     0.5910     0.2470 C.ar  1 <1>  -0.1430 
 22 C       -3.0740     1.2940     1.1450 C.3   1 <1>  -0.0170 
 23 C       -5.4610    -0.9400    -1.3230 C.ar  1 <1>   0.4770 
 24 C       -5.2410     1.0340    -0.2860 C.ar  1 <1>   0.1600 
 25 N       -5.9560     0.2650    -1.0800 N.ar  1 <1>  -0.6200 
 26 C       -6.2860    -1.8160    -2.2340 C.3   1 <1>  -0.0970 
 27 H        1.7100     1.7960     0.3810 H     1 <1>   0.4500 
 28 H        0.3260    -1.0400     1.2840 H     1 <1>   0.0800 
 29 H        0.9080    -2.6750     1.2800 H     1 <1>   0.0800 
 30 H        3.0190     2.4370    -1.2890 H     1 <1>   0.0800 
 31 H        4.7150     2.0470    -1.3210 H     1 <1>   0.0800 
 32 H        3.9310     2.3180     0.2100 H     1 <1>   0.0800 
 33 H        4.8300    -2.3350    -1.5480 H     1 <1>   0.1500 
 34 H        3.7350    -4.2240    -0.8370 H     1 <1>   0.0800 
 35 H        2.0700    -4.0320    -1.3340 H     1 <1>   0.0800 
 36 H        0.3180    -2.1590    -1.2710 H     1 <1>   0.4500 
 37 H        3.1310    -4.1870     1.2650 H     1 <1>   0.4000 
 38 H       -1.8610    -1.3240    -1.4820 H     1 <1>   0.0800 
 39 H       -0.8490    -0.1390    -0.7180 H     1 <1>   0.0800 
 40 H       -0.0870    -4.1370     0.3250 H     1 <1>   0.0800 
 41 H       -0.9200    -4.0160    -1.1940 H     1 <1>   0.0800 
 42 H       -2.2130    -4.4730     1.0800 H     1 <1>   0.0800 
 43 H       -2.9310    -3.6460    -0.2510 H     1 <1>   0.0800 
 44 H       -3.3840    -2.4340     1.8400 H     1 <1>   0.0800 
 45 H       -1.6840    -2.3490     2.1750 H     1 <1>   0.0800 
 46 H       -1.0720     0.5390     1.4930 H     1 <1>   0.0800 
 47 H       -2.2970    -0.1060     2.5470 H     1 <1>   0.0800 
 48 H       -2.5800     2.0810     0.6010 H     1 <1>   0.0800 
 49 H       -3.5630     1.7060     2.0120 H     1 <1>   0.0800 
 50 H       -5.6080     2.0220    -0.0670 H     1 <1>   0.1500 
 51 H       -5.9430    -2.8330    -2.1950 H     1 <1>   0.0800 
 52 H       -6.2070    -1.4540    -3.2420 H     1 <1>   0.0800 
 53 H       -7.3150    -1.7840    -1.9300 H     1 <1>   0.0800 
@<TRIPOS>BOND
  1   1   2  1   
  2   1  27  1   
  3   2   3  ar  
  4   2   4  ar  
  5   3   5  ar  
  6   3   6  1   
  7   4   7  ar  
  8   4   8  1   
  9   5   9  ar  
 10   5  10  1   
 11   6  11  1   
 12   6  28  1   
 13   6  29  1   
 14   7   9  ar  
 15   8  30  1   
 16   8  31  1   
 17   8  32  1   
 18   9  33  1   
 19  10  12  1   
 20  10  34  1   
 21  10  35  1   
 22  11  13  1   
 23  11  14  1   
 24  11  36  1   
 25  12  37  1   
 26  13  15  1   
 27  13  38  1   
 28  13  39  1   
 29  14  16  1   
 30  14  40  1   
 31  14  41  1   
 32  15  17  1   
 33  15  18  1   
 34  15  19  1   
 35  16  18  1   
 36  16  42  1   
 37  16  43  1   
 38  17  20  ar  
 39  17  21  ar  
 40  18  44  1   
 41  18  45  1   
 42  19  22  1   
 43  19  46  1   
 44  19  47  1   
 45  20  23  ar  
 46  21  22  1   
 47  21  24  ar  
 48  22  48  1   
 49  22  49  1   
 50  23  25  ar  
 51  23  26  1   
 52  24  25  ar  
 53  24  50  1   
 54  26  51  1   
 55  26  52  1   
 56  26  53  1   
@<TRIPOS>SUBSTRUCTURE
  1 ****  13 GROUP 4 **** **** 0

# MOE 2024.06 (io_trps.svl 2023.06)
