@<TRIPOS>MOLECULE
NONAME
49 52 1 0 0 
SMALL
USER_CHARGES


@<TRIPOS>ATOM
  1 F        0.7850     1.0290     1.1640 F     1 <1>  -0.1900 
  2 C        1.9410     1.5670     0.8710 C.ar  1 <1>   0.1900 
  3 C        2.4430     1.4130    -0.4070 C.ar  1 <1>  -0.1500 
  4 C        2.6170     2.2690     1.8510 C.ar  1 <1>  -0.1500 
  5 C        3.6670     1.9840    -0.7100 C.ar  1 <1>  -0.1500 
  6 C        3.8390     2.8350     1.5330 C.ar  1 <1>  -0.1500 
  7 C        4.3740     2.7000     0.2550 C.ar  1 <1>   0.1000 
  8 N        5.6050     3.2770    -0.0330 N.pl3 1 <1>  -0.8380 
  9 C        5.6230     4.3110    -1.0900 C.3   1 <1>   0.2090 
 10 C        6.7630     2.3590    -0.0280 C.3   1 <1>   0.2090 
 11 C        6.8490     5.1880    -0.8560 C.3   1 <1>  -0.1600 
 12 C        8.0150     3.1930     0.2250 C.3   1 <1>  -0.1600 
 13 C        8.1130     4.3210    -0.8140 C.3   1 <1>   0.4230 
 14 N        9.3130     5.1830    -0.5980 N.4   1 <1>  -0.9590 
 15 C        9.3950     5.7900     0.7910 C.3   1 <1>   0.3430 
 16 C       10.5730     4.4670    -1.0190 C.3   1 <1>   0.3430 
 17 C       10.4220     6.9480     0.9260 C.3   1 <1>   0.2200 
 18 C       11.8170     5.3610    -1.1550 C.3   1 <1>  -0.0190 
 19 N       10.8100     7.5010    -0.4060 N.am  1 <1>  -0.7300 
 20 C       11.6600     6.4630     1.7010 C.3   1 <1>   0.1200 
 21 C       11.4390     6.8070    -1.3800 C.2   1 <1>   0.5690 
 22 C       12.7780     5.2080     0.0320 C.3   1 <1>   0.1200 
 23 O       12.0770     5.2110     1.2370 O.3   1 <1>  -0.5600 
 24 O       11.6420     7.3120    -2.4480 O.2   1 <1>  -0.5700 
 25 H        1.8870     0.8590    -1.1410 H     1 <1>   0.1500 
 26 H        2.1950     2.3670     2.8340 H     1 <1>   0.1500 
 27 H        4.0780     1.8740    -1.6960 H     1 <1>   0.1500 
 28 H        4.3900     3.3870     2.2710 H     1 <1>   0.1500 
 29 H        5.6620     3.8430    -2.0590 H     1 <1>   0.0800 
 30 H        4.7240     4.9040    -1.0310 H     1 <1>   0.0800 
 31 H        6.6400     1.6250     0.7520 H     1 <1>   0.0800 
 32 H        6.8240     1.8450    -0.9730 H     1 <1>   0.0800 
 33 H        6.7000     5.7100     0.0710 H     1 <1>   0.0800 
 34 H        6.9150     5.9050    -1.6540 H     1 <1>   0.0800 
 35 H        8.8710     2.5470     0.1690 H     1 <1>   0.0800 
 36 H        7.9400     3.5860     1.2220 H     1 <1>   0.0800 
 37 H        8.2010     3.8560    -1.7830 H     1 <1>   0.0800 
 38 H        9.2200     5.9890    -1.2350 H     1 <1>   0.4500 
 39 H        8.4300     6.1800     1.0640 H     1 <1>   0.0800 
 40 H        9.6380     5.0240     1.5090 H     1 <1>   0.0800 
 41 H       10.7900     3.6740    -0.3220 H     1 <1>   0.0800 
 42 H       10.3980     4.0120    -1.9810 H     1 <1>   0.0800 
 43 H        9.9740     7.7400     1.5020 H     1 <1>   0.0800 
 44 H       12.3600     5.0360    -2.0240 H     1 <1>   0.0800 
 45 H       10.6710     8.5040    -0.5750 H     1 <1>   0.3700 
 46 H       11.4060     6.3370     2.7390 H     1 <1>   0.0800 
 47 H       12.4730     7.1680     1.6380 H     1 <1>   0.0800 
 48 H       13.5260     5.9850     0.0440 H     1 <1>   0.0800 
 49 H       13.2830     4.2590    -0.0310 H     1 <1>   0.0800 
@<TRIPOS>BOND
  1   1   2  1   
  2   2   3  ar  
  3   2   4  ar  
  4   3   5  ar  
  5   3  25  1   
  6   4   6  ar  
  7   4  26  1   
  8   5   7  ar  
  9   5  27  1   
 10   6   7  ar  
 11   6  28  1   
 12   7   8  1   
 13   8   9  1   
 14   8  10  1   
 15   9  11  1   
 16   9  29  1   
 17   9  30  1   
 18  10  12  1   
 19  10  31  1   
 20  10  32  1   
 21  11  13  1   
 22  11  33  1   
 23  11  34  1   
 24  12  13  1   
 25  12  35  1   
 26  12  36  1   
 27  13  14  1   
 28  13  37  1   
 29  14  15  1   
 30  14  16  1   
 31  14  38  1   
 32  15  17  1   
 33  15  39  1   
 34  15  40  1   
 35  16  18  1   
 36  16  41  1   
 37  16  42  1   
 38  17  19  1   
 39  17  20  1   
 40  17  43  1   
 41  18  21  1   
 42  18  22  1   
 43  18  44  1   
 44  19  21  am  
 45  19  45  1   
 46  20  23  1   
 47  20  46  1   
 48  20  47  1   
 49  21  24  2   
 50  22  23  1   
 51  22  48  1   
 52  22  49  1   
@<TRIPOS>SUBSTRUCTURE
  1 ****  13 GROUP 4 **** **** 0

# MOE 2024.06 (io_trps.svl 2023.06)
