@<TRIPOS>MOLECULE
NONAME
41 43 1 0 0 
SMALL
USER_CHARGES


@<TRIPOS>ATOM
  1 S       -0.6520    -0.5800     0.2140 S.3   1 <1>  -0.0800 
  2 C       -1.6280    -1.2550    -1.0490 C.2   1 <1>   0.4420 
  3 C       -0.7900     0.9440    -0.5950 C.2   1 <1>   0.1980 
  4 N       -1.9690    -0.3770    -1.9210 N.2   1 <1>  -0.3380 
  5 N       -1.9000    -2.6020    -0.9590 N.am  1 <1>  -0.4940 
  6 N       -1.4870     0.8760    -1.6540 N.2   1 <1>  -0.3380 
  7 C       -0.1040     2.1510     0.0150 C.3   1 <1>   0.0200 
  8 C       -2.6840    -3.4020    -1.7380 C.2   1 <1>   0.5690 
  9 C        1.4220     2.0780    -0.1470 C.3   1 <1>  -0.1600 
 10 O       -3.3390    -2.9960    -2.6630 O.2   1 <1>  -0.5700 
 11 C       -2.7280    -4.8940    -1.4220 C.3   1 <1>  -0.0190 
 12 C        2.1100     3.3170     0.4400 C.3   1 <1>  -0.1600 
 13 C       -3.4000    -5.2530    -0.0760 C.3   1 <1>   0.0580 
 14 C       -1.3330    -5.5840    -1.3100 C.3   1 <1>  -0.1600 
 15 C        3.6310     3.2340     0.2710 C.3   1 <1>  -0.1600 
 16 C       -2.6120    -4.5910     1.0420 C.2   1 <1>  -0.2880 
 17 C       -2.8730    -6.6750     0.1050 C.3   1 <1>  -0.1600 
 18 C       -1.3980    -6.2840     0.0590 C.3   1 <1>   0.0580 
 19 C        4.3180     4.4710     0.8560 C.3   1 <1>  -0.2400 
 20 C       -1.4250    -5.1860     1.1060 C.2   1 <1>  -0.2880 
 21 H       -1.4970    -3.0840    -0.1560 H     1 <1>   0.3700 
 22 H       -0.4740     3.0350    -0.4750 H     1 <1>   0.0800 
 23 H       -0.3630     2.2140     1.0560 H     1 <1>   0.0800 
 24 H        1.7930     1.1960     0.3450 H     1 <1>   0.0800 
 25 H        1.6580     1.9980    -1.1950 H     1 <1>   0.0800 
 26 H       -3.2810    -5.3750    -2.2110 H     1 <1>   0.0800 
 27 H        1.7460     4.2000    -0.0570 H     1 <1>   0.0800 
 28 H        1.8730     3.4000     1.4870 H     1 <1>   0.0800 
 29 H       -4.4710    -5.1520    -0.0250 H     1 <1>   0.0800 
 30 H       -1.2150    -6.3090    -2.0960 H     1 <1>   0.0800 
 31 H       -0.5120    -4.8900    -1.3520 H     1 <1>   0.0800 
 32 H        4.0050     2.3550     0.7680 H     1 <1>   0.0800 
 33 H        3.8770     3.1550    -0.7750 H     1 <1>   0.0800 
 34 H       -3.0380    -3.7780     1.6080 H     1 <1>   0.1500 
 35 H       -3.1520    -7.0940     1.0580 H     1 <1>   0.0800 
 36 H       -3.1600    -7.3420    -0.6900 H     1 <1>   0.0800 
 37 H       -0.7010    -7.0860     0.2360 H     1 <1>   0.0800 
 38 H        4.1060     4.5590     1.9070 H     1 <1>   0.0800 
 39 H        3.9780     5.3620     0.3580 H     1 <1>   0.0800 
 40 H        5.3840     4.3950     0.7280 H     1 <1>   0.0800 
 41 H       -0.5700    -5.0100     1.7390 H     1 <1>   0.1500 
@<TRIPOS>BOND
  1   1   2  1   
  2   1   3  1   
  3   2   4  2   
  4   2   5  1   
  5   3   6  2   
  6   3   7  1   
  7   4   6  1   
  8   5   8  am  
  9   5  21  1   
 10   7   9  1   
 11   7  22  1   
 12   7  23  1   
 13   8  10  2   
 14   8  11  1   
 15   9  12  1   
 16   9  24  1   
 17   9  25  1   
 18  11  13  1   
 19  11  14  1   
 20  11  26  1   
 21  12  15  1   
 22  12  27  1   
 23  12  28  1   
 24  13  16  1   
 25  13  17  1   
 26  13  29  1   
 27  14  18  1   
 28  14  30  1   
 29  14  31  1   
 30  15  19  1   
 31  15  32  1   
 32  15  33  1   
 33  16  20  2   
 34  16  34  1   
 35  17  18  1   
 36  17  35  1   
 37  17  36  1   
 38  18  20  1   
 39  18  37  1   
 40  19  38  1   
 41  19  39  1   
 42  19  40  1   
 43  20  41  1   
@<TRIPOS>SUBSTRUCTURE
  1 ****   2 GROUP 4 **** **** 0

# MOE 2024.06 (io_trps.svl 2023.06)
