@<TRIPOS>MOLECULE
NONAME
49 51 1 0 0 
SMALL
USER_CHARGES


@<TRIPOS>ATOM
  1 O       -0.3620     0.9240    -0.4320 O.2   1 <1>  -0.5700 
  2 C       -0.4550     2.1260    -0.5050 C.2   1 <1>   0.5690 
  3 N       -1.2770     2.8800     0.2940 N.am  1 <1>  -0.6600 
  4 C        0.3930     2.8320    -1.5600 C.3   1 <1>   0.1810 
  5 C       -1.3490     4.3720     0.1280 C.3   1 <1>   0.3640 
  6 C       -2.0860     2.3400     1.4230 C.3   1 <1>   0.2200 
  7 O        0.7720     4.1200    -1.1470 O.3   1 <1>  -0.5600 
  8 C       -2.7670     4.7610    -0.2980 C.ar  1 <1>  -0.1440 
  9 C       -0.3240     4.9800    -0.8720 C.3   1 <1>   0.2610 
 10 C       -1.1690     1.7700     2.5040 C.3   1 <1>  -0.2400 
 11 C       -3.1060     1.3100     0.9370 C.3   1 <1>  -0.2400 
 12 C       -3.4070     4.1090    -1.3440 C.ar  1 <1>  -0.1500 
 13 C       -3.4310     5.7880     0.3580 C.ar  1 <1>  -0.1500 
 14 C        0.1890     6.3260    -0.3410 C.2   1 <1>   0.5690 
 15 C       -4.6860     4.4740    -1.7250 C.ar  1 <1>  -0.1500 
 16 C       -4.7110     6.1540    -0.0210 C.ar  1 <1>  -0.1500 
 17 O       -0.5910     7.1640     0.0470 O.2   1 <1>  -0.5700 
 18 N        1.5290     6.5630    -0.3140 N.am  1 <1>  -0.7300 
 19 C       -5.3390     5.4980    -1.0630 C.ar  1 <1>  -0.1500 
 20 C        2.1790     7.7720     0.2480 C.3   1 <1>   0.1400 
 21 C        1.9210     8.9810    -0.6520 C.3   1 <1>   0.0960 
 22 N        2.4950    10.1850    -0.0350 N.pl3 1 <1>   0.3140 
 23 N        3.8000    10.3880     0.0700 N.2   1 <1>  -0.7070 
 24 C        1.8550    11.2220     0.5140 C.2   1 <1>   0.0360 
 25 C        3.8550    11.5320     0.6700 C.2   1 <1>   0.3660 
 26 N        2.6780    12.0950     0.9710 N.2   1 <1>  -0.5650 
 27 H       -0.1540     2.9060    -2.4810 H     1 <1>   0.0800 
 28 H        1.2910     2.2660    -1.7300 H     1 <1>   0.0800 
 29 H       -1.1550     4.8050     1.0950 H     1 <1>   0.0800 
 30 H       -2.6430     3.1500     1.8670 H     1 <1>   0.0800 
 31 H       -0.8160     5.1720    -1.8080 H     1 <1>   0.0800 
 32 H       -0.6390     0.9070     2.1410 H     1 <1>   0.0800 
 33 H       -1.7520     1.4710     3.3550 H     1 <1>   0.0800 
 34 H       -0.4610     2.5130     2.8210 H     1 <1>   0.0800 
 35 H       -2.6220     0.4290     0.5580 H     1 <1>   0.0800 
 36 H       -3.7260     1.7340     0.1690 H     1 <1>   0.0800 
 37 H       -3.7390     1.0150     1.7540 H     1 <1>   0.0800 
 38 H       -2.9180     3.3040    -1.8650 H     1 <1>   0.1500 
 39 H       -2.9540     6.3180     1.1660 H     1 <1>   0.1500 
 40 H       -5.1750     3.9600    -2.5340 H     1 <1>   0.1500 
 41 H       -5.2160     6.9520     0.4940 H     1 <1>   0.1500 
 42 H        2.1400     5.7960    -0.6200 H     1 <1>   0.3700 
 43 H       -6.3340     5.7830    -1.3570 H     1 <1>   0.1500 
 44 H        1.7740     7.9600     1.2290 H     1 <1>   0.0800 
 45 H        3.2390     7.6000     0.3360 H     1 <1>   0.0800 
 46 H        0.8660     9.1320    -0.7840 H     1 <1>   0.0800 
 47 H        2.3870     8.8360    -1.6090 H     1 <1>   0.0800 
 48 H        0.7830    11.2940     0.5580 H     1 <1>   0.1500 
 49 H        4.7810    12.0230     0.9250 H     1 <1>   0.1500 
@<TRIPOS>BOND
  1   1   2  2   
  2   2   3  am  
  3   2   4  1   
  4   3   5  1   
  5   3   6  1   
  6   4   7  1   
  7   4  27  1   
  8   4  28  1   
  9   5   8  1   
 10   5   9  1   
 11   5  29  1   
 12   6  10  1   
 13   6  11  1   
 14   6  30  1   
 15   7   9  1   
 16   8  12  ar  
 17   8  13  ar  
 18   9  14  1   
 19   9  31  1   
 20  10  32  1   
 21  10  33  1   
 22  10  34  1   
 23  11  35  1   
 24  11  36  1   
 25  11  37  1   
 26  12  15  ar  
 27  12  38  1   
 28  13  16  ar  
 29  13  39  1   
 30  14  17  2   
 31  14  18  am  
 32  15  19  ar  
 33  15  40  1   
 34  16  19  ar  
 35  16  41  1   
 36  18  20  1   
 37  18  42  1   
 38  19  43  1   
 39  20  21  1   
 40  20  44  1   
 41  20  45  1   
 42  21  22  1   
 43  21  46  1   
 44  21  47  1   
 45  22  23  1   
 46  22  24  1   
 47  23  25  2   
 48  24  26  2   
 49  24  48  1   
 50  25  26  1   
 51  25  49  1   
@<TRIPOS>SUBSTRUCTURE
  1 ****  14 GROUP 4 **** **** 0

# MOE 2024.06 (io_trps.svl 2023.06)
