@<TRIPOS>MOLECULE
NONAME
28 29 1 0 0 
SMALL
USER_CHARGES


@<TRIPOS>ATOM
  1 O       -4.2610    -7.8090    -0.1850 O.2   1 <1>  -0.5700 
  2 C       -5.0860    -6.9220    -0.0380 C.2   1 <1>   0.8060 
  3 O       -6.3810    -7.2470     0.0200 O.3   1 <1>  -0.4300 
  4 C       -4.6900    -5.5250     0.0760 C.2   1 <1>   0.2030 
  5 C       -6.8250    -8.5800    -0.0840 C.3   1 <1>   0.1200 
  6 N       -5.4800    -4.4780     0.2530 N.2   1 <1>  -0.7070 
  7 C       -3.3580    -5.0860     0.0110 C.2   1 <1>  -0.1810 
  8 C       -8.3460    -8.5780     0.0230 C.3   1 <1>  -0.2400 
  9 N       -4.6840    -3.4020     0.2970 N.pl3 1 <1>   0.3000 
 10 C       -3.3900    -3.7510     0.1490 C.2   1 <1>  -0.3320 
 11 C       -2.0970    -5.9060    -0.1790 C.3   1 <1>   0.5240 
 12 C       -2.1590    -2.8640     0.1330 C.3   1 <1>   0.0200 
 13 N       -0.9390    -5.0710     0.2680 N.4   1 <1>  -0.9060 
 14 C       -0.9380    -3.6890    -0.3290 C.3   1 <1>   0.3430 
 15 H       -6.3840    -9.1530     0.7150 H     1 <1>   0.0800 
 16 H       -6.5070    -8.9750    -1.0350 H     1 <1>   0.0800 
 17 H       -8.6500    -8.1700     0.9710 H     1 <1>   0.0800 
 18 H       -8.7170    -9.5840    -0.0520 H     1 <1>   0.0800 
 19 H       -8.7730    -7.9940    -0.7720 H     1 <1>   0.0800 
 20 H       -5.0600    -2.4520     0.4270 H     1 <1>   0.2700 
 21 H       -1.9950    -6.1720    -1.2190 H     1 <1>   0.0800 
 22 H       -2.1530    -6.8120     0.4040 H     1 <1>   0.0800 
 23 H       -1.9810    -2.4680     1.1180 H     1 <1>   0.0800 
 24 H       -2.3010    -2.0350    -0.5390 H     1 <1>   0.0800 
 25 H       -0.0640    -5.5650     0.0640 H     1 <1>   0.4500 
 26 H       -1.0220    -4.9820     1.2870 H     1 <1>   0.4500 
 27 H       -0.0330    -3.1670    -0.0600 H     1 <1>   0.0800 
 28 H       -0.9660    -3.7720    -1.4040 H     1 <1>   0.0800 
@<TRIPOS>BOND
  1   1   2  2   
  2   2   3  1   
  3   2   4  1   
  4   3   5  1   
  5   4   6  2   
  6   4   7  1   
  7   5   8  1   
  8   5  15  1   
  9   5  16  1   
 10   6   9  1   
 11   7  10  2   
 12   7  11  1   
 13   8  17  1   
 14   8  18  1   
 15   8  19  1   
 16   9  10  1   
 17   9  20  1   
 18  10  12  1   
 19  11  13  1   
 20  11  21  1   
 21  11  22  1   
 22  12  14  1   
 23  12  23  1   
 24  12  24  1   
 25  13  14  1   
 26  13  25  1   
 27  13  26  1   
 28  14  27  1   
 29  14  28  1   
@<TRIPOS>SUBSTRUCTURE
  1 ****   4 GROUP 4 **** **** 0

# MOE 2024.06 (io_trps.svl 2023.06)
