@<TRIPOS>MOLECULE
NONAME
41 42 1 0 0 
SMALL
USER_CHARGES


@<TRIPOS>ATOM
  1 F       -0.7930    -0.7600     1.9940 F     1 <1>  -0.1900 
  2 C       -1.7400    -1.1700     1.1920 C.ar  1 <1>   0.1900 
  3 C       -1.8790    -2.5250     0.9620 C.ar  1 <1>  -0.1500 
  4 C       -2.5680    -0.2310     0.6100 C.ar  1 <1>  -0.1500 
  5 C       -2.8920    -2.9630     0.1170 C.ar  1 <1>  -0.1440 
  6 C       -3.5760    -0.6670    -0.2320 C.ar  1 <1>  -0.1500 
  7 C       -3.7410    -2.0300    -0.4780 C.ar  1 <1>   0.0830 
  8 C       -3.0970    -4.4500    -0.1770 C.3   1 <1>   0.4600 
  9 O       -4.7290    -2.5070    -1.2780 O.3   1 <1>  -0.3630 
 10 N       -3.8860    -5.0770     0.9710 N.4   1 <1>  -0.9590 
 11 C       -1.7660    -5.1970    -0.4360 C.2   1 <1>   0.9060 
 12 C       -5.2820    -1.6960    -2.2940 C.3   1 <1>   0.0400 
 13 C       -4.0840    -6.5530     0.7470 C.3   1 <1>   0.3430 
 14 C       -5.1030    -4.3060     1.3580 C.3   1 <1>   0.2630 
 15 O       -1.1790    -5.6490     0.5610 O.co2 1 <1>  -0.9000 
 16 O       -1.4230    -5.4630    -1.5900 O.co2 1 <1>  -0.9000 
 17 C       -5.2420    -6.9490    -0.1870 C.3   1 <1>   0.0000 
 18 C       -6.6040    -7.0170     0.5230 C.3   1 <1>   0.2580 
 19 C       -5.3970    -8.4790    -0.2110 C.3   1 <1>   0.2580 
 20 C       -5.2800    -6.3260    -1.6010 C.3   1 <1>  -0.2400 
 21 O       -6.7980    -8.2890    -0.0710 O.3   1 <1>  -0.5160 
 22 H       -1.1950    -3.2110     1.4340 H     1 <1>   0.1500 
 23 H       -2.4220     0.8150     0.8150 H     1 <1>   0.1500 
 24 H       -4.2240     0.0640    -0.6800 H     1 <1>   0.1500 
 25 H       -3.6560    -4.5320    -1.0880 H     1 <1>   0.0800 
 26 H       -3.1730    -5.0250     1.7190 H     1 <1>   0.4500 
 27 H       -5.8890    -2.3180    -2.9270 H     1 <1>   0.0800 
 28 H       -4.4830    -1.2620    -2.8700 H     1 <1>   0.0800 
 29 H       -5.8910    -0.9320    -1.8440 H     1 <1>   0.0800 
 30 H       -4.2500    -7.0230     1.7020 H     1 <1>   0.0800 
 31 H       -3.1710    -6.9770     0.3550 H     1 <1>   0.0800 
 32 H       -5.7840    -4.2470     0.5250 H     1 <1>   0.0800 
 33 H       -4.8320    -3.3040     1.6470 H     1 <1>   0.0800 
 34 H       -5.5990    -4.7810     2.1880 H     1 <1>   0.0800 
 35 H       -7.3430    -6.3200     0.1680 H     1 <1>   0.0000 
 36 H       -6.5560    -7.1180     1.5940 H     1 <1>   0.0000 
 37 H       -5.0130    -8.9930     0.6540 H     1 <1>   0.0000 
 38 H       -5.1740    -8.9520    -1.1500 H     1 <1>   0.0000 
 39 H       -5.5110    -5.2780    -1.5540 H     1 <1>   0.0800 
 40 H       -6.0360    -6.8010    -2.2030 H     1 <1>   0.0800 
 41 H       -4.3310    -6.4570    -2.0940 H     1 <1>   0.0800 
@<TRIPOS>BOND
  1   1   2  1   
  2   2   3  ar  
  3   2   4  ar  
  4   3   5  ar  
  5   3  22  1   
  6   4   6  ar  
  7   4  23  1   
  8   5   7  ar  
  9   5   8  1   
 10   6   7  ar  
 11   6  24  1   
 12   7   9  1   
 13   8  10  1   
 14   8  11  1   
 15   8  25  1   
 16   9  12  1   
 17  10  13  1   
 18  10  14  1   
 19  10  26  1   
 20  11  15  ar  
 21  11  16  ar  
 22  12  27  1   
 23  12  28  1   
 24  12  29  1   
 25  13  17  1   
 26  13  30  1   
 27  13  31  1   
 28  14  32  1   
 29  14  33  1   
 30  14  34  1   
 31  17  18  1   
 32  17  19  1   
 33  17  20  1   
 34  18  21  1   
 35  18  35  1   
 36  18  36  1   
 37  19  21  1   
 38  19  37  1   
 39  19  38  1   
 40  20  39  1   
 41  20  40  1   
 42  20  41  1   
@<TRIPOS>SUBSTRUCTURE
  1 ****   8 GROUP 4 **** **** 0

# MOE 2024.06 (io_trps.svl 2023.06)
