@<TRIPOS>MOLECULE
NONAME
44 47 1 0 0 
SMALL
USER_CHARGES


@<TRIPOS>ATOM
  1 S        0.0540    -0.6590     0.9040 S.o2  1 <1>   1.5000 
  2 O        0.4830    -1.9300     1.4430 O.2   1 <1>  -0.6500 
  3 O       -1.1470    -0.0450     1.4190 O.2   1 <1>  -0.6500 
  4 N       -0.2690    -0.8550    -0.7360 N.am  1 <1>  -0.9140 
  5 C        1.4420     0.5210     0.9330 C.2   1 <1>   0.0780 
  6 C       -0.8990    -2.0900    -1.2150 C.3   1 <1>   0.2760 
  7 O        1.3920     1.6350     0.2140 O.3   1 <1>  -0.2800 
  8 C        2.6150     0.4890     1.6070 C.2   1 <1>  -0.1500 
  9 C       -2.1100    -2.5950    -0.4160 C.3   1 <1>  -0.0800 
 10 C        0.0430    -3.2970    -1.2780 C.3   1 <1>   0.1200 
 11 C        2.5050     2.3340     0.3950 C.2   1 <1>   0.1410 
 12 C        3.3010     1.6550     1.2620 C.2   1 <1>  -0.1500 
 13 C       -1.6840    -4.0110    -0.0190 C.3   1 <1>   0.1200 
 14 C       -3.3860    -2.5950    -1.2760 C.3   1 <1>  -0.0160 
 15 O       -0.7560    -4.3960    -0.9780 O.3   1 <1>  -0.5600 
 16 C        2.7040     3.5960    -0.2860 C.2   1 <1>   0.2880 
 17 C       -4.5950    -3.0660    -0.4820 C.ar  1 <1>  -0.1440 
 18 N        1.8610     4.1360    -1.1350 N.2   1 <1>  -0.7070 
 19 C        3.8290     4.4140    -0.1300 C.2   1 <1>  -0.1500 
 20 C       -5.1540    -2.2940     0.5160 C.ar  1 <1>  -0.1500 
 21 C       -5.1950    -4.2870    -0.7160 C.ar  1 <1>  -0.1500 
 22 N        2.4310     5.2880    -1.5220 N.pl3 1 <1>   0.3000 
 23 C        3.6230     5.4800    -0.9280 C.2   1 <1>  -0.3020 
 24 C       -6.2530    -2.7670     1.2130 C.ar  1 <1>   0.1600 
 25 C       -6.2930    -4.6660     0.0390 C.ar  1 <1>   0.1600 
 26 N       -6.8360    -3.9350     0.9980 N.ar  1 <1>  -0.6200 
 27 H       -0.8980    -0.0780    -0.9330 H     1 <1>   0.4200 
 28 H       -1.2060    -1.9070    -2.2310 H     1 <1>   0.0800 
 29 H        2.9680    -0.2740     2.2790 H     1 <1>   0.1500 
 30 H       -2.3030    -2.0330     0.4750 H     1 <1>   0.0800 
 31 H        0.8300    -3.2500    -0.5480 H     1 <1>   0.0800 
 32 H        0.4590    -3.4320    -2.2600 H     1 <1>   0.0800 
 33 H        4.2730     1.9360     1.6260 H     1 <1>   0.1500 
 34 H       -2.4940    -4.7190    -0.0040 H     1 <1>   0.0800 
 35 H       -1.1880    -4.0090     0.9370 H     1 <1>   0.0800 
 36 H       -3.2460    -3.2260    -2.1370 H     1 <1>   0.0800 
 37 H       -3.5800    -1.5970    -1.6300 H     1 <1>   0.0800 
 38 H        4.6700     4.2080     0.5060 H     1 <1>   0.1500 
 39 H       -4.7450    -1.3300     0.7610 H     1 <1>   0.1500 
 40 H       -4.8200    -4.9490    -1.4760 H     1 <1>   0.1500 
 41 H        1.9800     5.9230    -2.1940 H     1 <1>   0.2700 
 42 H        4.2390     6.3430    -1.1060 H     1 <1>   0.1500 
 43 H       -6.6740    -2.1510     1.9900 H     1 <1>   0.1500 
 44 H       -6.7470    -5.6220    -0.1570 H     1 <1>   0.1500 
@<TRIPOS>BOND
  1   1   2  2   
  2   1   3  2   
  3   1   4  am  
  4   1   5  1   
  5   4   6  1   
  6   4  27  1   
  7   5   7  1   
  8   5   8  2   
  9   6   9  1   
 10   6  10  1   
 11   6  28  1   
 12   7  11  1   
 13   8  12  1   
 14   8  29  1   
 15   9  13  1   
 16   9  14  1   
 17   9  30  1   
 18  10  15  1   
 19  10  31  1   
 20  10  32  1   
 21  11  12  2   
 22  11  16  1   
 23  12  33  1   
 24  13  15  1   
 25  13  34  1   
 26  13  35  1   
 27  14  17  1   
 28  14  36  1   
 29  14  37  1   
 30  16  18  2   
 31  16  19  1   
 32  17  20  ar  
 33  17  21  ar  
 34  18  22  1   
 35  19  23  2   
 36  19  38  1   
 37  20  24  ar  
 38  20  39  1   
 39  21  25  ar  
 40  21  40  1   
 41  22  23  1   
 42  22  41  1   
 43  23  42  1   
 44  24  26  ar  
 45  24  43  1   
 46  25  26  ar  
 47  25  44  1   
@<TRIPOS>SUBSTRUCTURE
  1 ****   4 GROUP 4 **** **** 0

# MOE 2024.06 (io_trps.svl 2023.06)
