@<TRIPOS>MOLECULE
NONAME
53 56 1 0 0 
SMALL
USER_CHARGES


@<TRIPOS>ATOM
  1 F        0.3040     0.6730     0.5960 F     1 <1>  -0.1900 
  2 C        0.3260     1.9780     0.6050 C.ar  1 <1>   0.1900 
  3 C       -0.2200     2.6620    -0.4640 C.ar  1 <1>  -0.1500 
  4 C        0.8960     2.6280     1.6830 C.ar  1 <1>  -0.1500 
  5 C       -0.1930     4.0460    -0.4490 C.ar  1 <1>  -0.1500 
  6 C        0.9170     4.0130     1.6850 C.ar  1 <1>  -0.1500 
  7 C        0.3750     4.7260     0.6230 C.ar  1 <1>  -0.1430 
  8 C        0.3970     6.2490     0.6290 C.3   1 <1>  -0.0160 
  9 C        1.4810     6.8230    -0.3020 C.3   1 <1>  -0.0800 
 10 C        2.8970     6.3920     0.1270 C.3   1 <1>  -0.1600 
 11 C        1.3950     8.3600    -0.3410 C.3   1 <1>  -0.1600 
 12 C        3.9790     7.0350    -0.7440 C.3   1 <1>   0.2090 
 13 C        2.4950     8.9680    -1.2160 C.3   1 <1>   0.2090 
 14 N        3.8170     8.5130    -0.7250 N.pl3 1 <1>  -0.8380 
 15 C        4.9060     9.3040    -1.0310 C.ar  1 <1>   0.4100 
 16 N        5.7970     8.8180    -1.8870 N.ar  1 <1>  -0.6200 
 17 C        5.0190    10.5590    -0.4500 C.ar  1 <1>  -0.1500 
 18 C        6.8120     9.6110    -2.1760 C.ar  1 <1>   0.1600 
 19 C        6.0860    11.3870    -0.7380 C.ar  1 <1>   0.0860 
 20 C        7.0000    10.8720    -1.6470 C.ar  1 <1>  -0.1500 
 21 C        6.2280    12.6970    -0.1360 C.2   1 <1>   0.5440 
 22 O        5.2940    13.4770    -0.1650 O.2   1 <1>  -0.5700 
 23 N        7.3970    13.0830     0.4790 N.am  1 <1>  -0.6600 
 24 C        8.4510    12.1540     0.9450 C.3   1 <1>   0.1400 
 25 C        7.5540    14.4160     1.1010 C.3   1 <1>   0.1400 
 26 C        9.1040    12.8710     2.1210 C.3   1 <1>  -0.1600 
 27 C        8.8910    14.3540     1.8320 C.3   1 <1>  -0.1600 
 28 H       -0.6550     2.1200    -1.2840 H     1 <1>   0.1500 
 29 H        1.3110     2.0620     2.4960 H     1 <1>   0.1500 
 30 H       -0.6150     4.5940    -1.2730 H     1 <1>   0.1500 
 31 H        1.3580     4.5340     2.5180 H     1 <1>   0.1500 
 32 H        0.5580     6.6060     1.6310 H     1 <1>   0.0800 
 33 H       -0.5680     6.6060     0.3150 H     1 <1>   0.0800 
 34 H        1.3050     6.4520    -1.2980 H     1 <1>   0.0800 
 35 H        2.9940     5.3230     0.0560 H     1 <1>   0.0800 
 36 H        3.0740     6.6730     1.1500 H     1 <1>   0.0800 
 37 H        1.4940     8.7610     0.6520 H     1 <1>   0.0800 
 38 H        0.4380     8.6640    -0.7270 H     1 <1>   0.0800 
 39 H        3.9020     6.6820    -1.7580 H     1 <1>   0.0800 
 40 H        4.9540     6.7740    -0.3670 H     1 <1>   0.0800 
 41 H        2.4360    10.0420    -1.1840 H     1 <1>   0.0800 
 42 H        2.3710     8.6530    -2.2390 H     1 <1>   0.0800 
 43 H        4.2630    10.8840     0.2380 H     1 <1>   0.1500 
 44 H        7.5350     9.2320    -2.8790 H     1 <1>   0.1500 
 45 H        7.8490    11.4610    -1.9390 H     1 <1>   0.1500 
 46 H        9.1670    12.0080     0.1550 H     1 <1>   0.0800 
 47 H        8.0360    11.2060     1.2450 H     1 <1>   0.0800 
 48 H        6.7470    14.5760     1.7970 H     1 <1>   0.0800 
 49 H        7.5400    15.1890     0.3520 H     1 <1>   0.0800 
 50 H       10.1450    12.6160     2.2190 H     1 <1>   0.0800 
 51 H        8.5890    12.5980     3.0260 H     1 <1>   0.0800 
 52 H        8.8830    14.9510     2.7260 H     1 <1>   0.0800 
 53 H        9.6630    14.7160     1.1750 H     1 <1>   0.0800 
@<TRIPOS>BOND
  1   1   2  1   
  2   2   3  ar  
  3   2   4  ar  
  4   3   5  ar  
  5   3  28  1   
  6   4   6  ar  
  7   4  29  1   
  8   5   7  ar  
  9   5  30  1   
 10   6   7  ar  
 11   6  31  1   
 12   7   8  1   
 13   8   9  1   
 14   8  32  1   
 15   8  33  1   
 16   9  10  1   
 17   9  11  1   
 18   9  34  1   
 19  10  12  1   
 20  10  35  1   
 21  10  36  1   
 22  11  13  1   
 23  11  37  1   
 24  11  38  1   
 25  12  14  1   
 26  12  39  1   
 27  12  40  1   
 28  13  14  1   
 29  13  41  1   
 30  13  42  1   
 31  14  15  1   
 32  15  16  ar  
 33  15  17  ar  
 34  16  18  ar  
 35  17  19  ar  
 36  17  43  1   
 37  18  20  ar  
 38  18  44  1   
 39  19  20  ar  
 40  19  21  1   
 41  20  45  1   
 42  21  22  2   
 43  21  23  am  
 44  23  24  1   
 45  23  25  1   
 46  24  26  1   
 47  24  46  1   
 48  24  47  1   
 49  25  27  1   
 50  25  48  1   
 51  25  49  1   
 52  26  27  1   
 53  26  50  1   
 54  26  51  1   
 55  27  52  1   
 56  27  53  1   
@<TRIPOS>SUBSTRUCTURE
  1 ****  14 GROUP 4 **** **** 0

# MOE 2024.06 (io_trps.svl 2023.06)
