@<TRIPOS>MOLECULE
NONAME
51 54 1 0 0 
SMALL
USER_CHARGES


@<TRIPOS>ATOM
  1 F       -0.1970     1.6770    -0.0110 F     1 <1>  -0.1900 
  2 C       -1.4960     1.5810     0.1170 C.ar  1 <1>   0.1900 
  3 C       -2.3680     2.5290    -0.4310 C.ar  1 <1>   0.0830 
  4 C       -1.9640     0.4920     0.8260 C.ar  1 <1>  -0.1500 
  5 O       -2.0290     3.6400    -1.1460 O.3   1 <1>  -0.3630 
  6 C       -3.7260     2.3390    -0.2380 C.ar  1 <1>  -0.1500 
  7 C       -3.3270     0.3330     1.0000 C.ar  1 <1>  -0.1500 
  8 C       -0.6970     3.9670    -1.4760 C.3   1 <1>   0.0400 
  9 C       -4.2370     1.2490     0.4700 C.ar  1 <1>   0.0530 
 10 C       -5.6590     1.1010     0.6530 C.2   1 <1>   0.0870 
 11 O       -6.3690     2.1530     0.9720 O.3   1 <1>  -0.0190 
 12 C       -6.5200     0.0480     0.5720 C.2   1 <1>  -0.0860 
 13 N       -7.6370     1.8880     1.1260 N.2   1 <1>  -0.4100 
 14 C       -7.7570     0.6290     0.8930 C.2   1 <1>   0.3720 
 15 C       -6.2950    -1.3240     0.2230 C.2   1 <1>   0.7160 
 16 N       -8.9910    -0.0370     0.9740 N.pl3 1 <1>  -0.8210 
 17 O       -5.1990    -1.7280    -0.1140 O.2   1 <1>  -0.5700 
 18 N       -7.3230    -2.2090     0.2620 N.am  1 <1>  -0.7300 
 19 C       -9.4390    -0.2420     2.3780 C.3   1 <1>   0.1290 
 20 C      -10.0590     0.6000     0.1530 C.3   1 <1>   0.1290 
 21 C       -7.3180    -3.6200    -0.1560 C.3   1 <1>   0.2200 
 22 C       -8.1940    -3.8710    -1.4010 C.3   1 <1>  -0.0800 
 23 C       -7.9780    -4.5040     0.9130 C.3   1 <1>  -0.1600 
 24 C       -8.5190    -5.3470    -1.2300 C.3   1 <1>  -0.1600 
 25 C       -9.5990    -3.2580    -1.2300 C.3   1 <1>  -0.1600 
 26 C       -9.1320    -5.1780     0.1510 C.3   1 <1>  -0.0800 
 27 C      -10.2200    -4.1250    -0.1200 C.3   1 <1>  -0.1600 
 28 H       -1.2710    -0.2220     1.2340 H     1 <1>   0.1500 
 29 H       -4.4080     3.0600    -0.6520 H     1 <1>   0.1500 
 30 H       -3.6920    -0.5140     1.5540 H     1 <1>   0.1500 
 31 H       -0.7090     4.8690    -2.0590 H     1 <1>   0.0800 
 32 H       -0.2730     3.1650    -2.0540 H     1 <1>   0.0800 
 33 H       -0.1410     4.1260    -0.5690 H     1 <1>   0.0800 
 34 H       -8.2440    -1.8000     0.4680 H     1 <1>   0.3700 
 35 H      -10.3020    -0.8850     2.4000 H     1 <1>   0.0800 
 36 H       -9.6890     0.7040     2.8290 H     1 <1>   0.0800 
 37 H       -8.6510    -0.7010     2.9500 H     1 <1>   0.0800 
 38 H      -10.9100    -0.0540     0.0840 H     1 <1>   0.0800 
 39 H       -9.6890     0.7930    -0.8400 H     1 <1>   0.0800 
 40 H      -10.3620     1.5350     0.5950 H     1 <1>   0.0800 
 41 H       -6.3090    -3.9530    -0.3390 H     1 <1>   0.0800 
 42 H       -7.7070    -3.6230    -2.3280 H     1 <1>   0.0800 
 43 H       -7.2760    -5.2490     1.2440 H     1 <1>   0.0800 
 44 H       -8.3270    -3.9450     1.7630 H     1 <1>   0.0800 
 45 H       -9.2250    -5.7100    -1.9590 H     1 <1>   0.0800 
 46 H       -7.6410    -5.9720    -1.2240 H     1 <1>   0.0800 
 47 H       -9.5790    -2.2140    -0.9750 H     1 <1>   0.0800 
 48 H      -10.1600    -3.3730    -2.1410 H     1 <1>   0.0800 
 49 H       -9.4970    -6.0820     0.6100 H     1 <1>   0.0800 
 50 H      -11.1190    -4.5960    -0.4770 H     1 <1>   0.0800 
 51 H      -10.4470    -3.5490     0.7600 H     1 <1>   0.0800 
@<TRIPOS>BOND
  1   1   2  1   
  2   2   3  ar  
  3   2   4  ar  
  4   3   5  1   
  5   3   6  ar  
  6   4   7  ar  
  7   4  28  1   
  8   5   8  1   
  9   6   9  ar  
 10   6  29  1   
 11   7   9  ar  
 12   7  30  1   
 13   8  31  1   
 14   8  32  1   
 15   8  33  1   
 16   9  10  1   
 17  10  11  1   
 18  10  12  2   
 19  11  13  1   
 20  12  14  1   
 21  12  15  1   
 22  13  14  2   
 23  14  16  1   
 24  15  17  2   
 25  15  18  am  
 26  16  19  1   
 27  16  20  1   
 28  18  21  1   
 29  18  34  1   
 30  19  35  1   
 31  19  36  1   
 32  19  37  1   
 33  20  38  1   
 34  20  39  1   
 35  20  40  1   
 36  21  22  1   
 37  21  23  1   
 38  21  41  1   
 39  22  24  1   
 40  22  25  1   
 41  22  42  1   
 42  23  26  1   
 43  23  43  1   
 44  23  44  1   
 45  24  26  1   
 46  24  45  1   
 47  24  46  1   
 48  25  27  1   
 49  25  47  1   
 50  25  48  1   
 51  26  27  1   
 52  26  49  1   
 53  27  50  1   
 54  27  51  1   
@<TRIPOS>SUBSTRUCTURE
  1 ****  12 GROUP 4 **** **** 0

# MOE 2024.06 (io_trps.svl 2023.06)
