@<TRIPOS>MOLECULE
NONAME
40 43 1 0 0 
SMALL
USER_CHARGES


@<TRIPOS>ATOM
  1 S        0.6260     0.7780    -2.0640 S.3   1 <1>  -0.0800 
  2 C        0.9630     1.8440    -0.7360 C.2   1 <1>  -0.1400 
  3 C        0.3650    -0.5100    -0.9030 C.2   1 <1>   0.1980 
  4 C        0.8650     1.1650     0.4110 C.2   1 <1>   0.0460 
  5 C        1.3100     3.3030    -0.9320 C.3   1 <1>   0.0200 
  6 N        0.5180    -0.1730     0.3190 N.2   1 <1>  -0.5650 
  7 C       -0.0120    -1.8740    -1.4610 C.3   1 <1>   0.5230 
  8 C        1.1150     1.8170     1.7580 C.3   1 <1>   0.0210 
  9 C        1.2180     4.0190     0.4300 C.3   1 <1>  -0.1600 
 10 N       -0.3680    -2.8030    -0.3490 N.4   1 <1>  -0.8970 
 11 C        1.8200     3.1800     1.5800 C.3   1 <1>  -0.1600 
 12 C       -0.8170    -4.1870    -0.7140 C.3   1 <1>   0.4720 
 13 C       -1.7140    -2.5380     0.2660 C.3   1 <1>   0.4720 
 14 C       -2.2780    -3.7120    -0.5610 C.3   1 <1>   0.1080 
 15 C       -3.1240    -4.6600     0.2630 C.ar  1 <1>   0.2020 
 16 N       -2.5840    -5.0950     1.3910 N.ar  1 <1>  -0.6200 
 17 C       -4.3870    -5.0220    -0.1830 C.ar  1 <1>  -0.1500 
 18 C       -3.3320    -5.9240     2.1060 C.ar  1 <1>   0.1600 
 19 C       -5.1540    -5.8850     0.5700 C.ar  1 <1>  -0.1500 
 20 C       -4.6010    -6.3430     1.7450 C.ar  1 <1>  -0.1500 
 21 H        0.6330     3.7580    -1.6330 H     1 <1>   0.0800 
 22 H        2.3100     3.3750    -1.3230 H     1 <1>   0.0800 
 23 H        0.8290    -2.2650    -2.0090 H     1 <1>   0.0800 
 24 H       -0.8420    -1.7640    -2.1380 H     1 <1>   0.0800 
 25 H        1.7250     1.1720     2.3650 H     1 <1>   0.0800 
 26 H        0.1700     1.9530     2.2530 H     1 <1>   0.0800 
 27 H        0.1820     4.2110     0.6510 H     1 <1>   0.0800 
 28 H        1.7200     4.9690     0.3680 H     1 <1>   0.0800 
 29 H        0.3420    -2.7670     0.3960 H     1 <1>   0.4500 
 30 H        2.8610     3.0050     1.3690 H     1 <1>   0.0800 
 31 H        1.7630     3.7320     2.5020 H     1 <1>   0.0800 
 32 H       -0.5100    -4.8980     0.0320 H     1 <1>   0.0000 
 33 H       -0.5430    -4.4500    -1.7190 H     1 <1>   0.0000 
 34 H       -2.1070    -1.5760    -0.0100 H     1 <1>   0.0000 
 35 H       -1.6960    -2.7250     1.3240 H     1 <1>   0.0000 
 36 H       -2.7200    -3.3990    -1.4910 H     1 <1>   0.0000 
 37 H       -4.7790    -4.6380    -1.1090 H     1 <1>   0.1500 
 38 H       -2.9140    -6.2920     3.0290 H     1 <1>   0.1500 
 39 H       -6.1390    -6.1890     0.2560 H     1 <1>   0.1500 
 40 H       -5.1470    -7.0190     2.3790 H     1 <1>   0.1500 
@<TRIPOS>BOND
  1   1   2  1   
  2   1   3  1   
  3   2   4  2   
  4   2   5  1   
  5   3   6  2   
  6   3   7  1   
  7   4   6  1   
  8   4   8  1   
  9   5   9  1   
 10   5  21  1   
 11   5  22  1   
 12   7  10  1   
 13   7  23  1   
 14   7  24  1   
 15   8  11  1   
 16   8  25  1   
 17   8  26  1   
 18   9  11  1   
 19   9  27  1   
 20   9  28  1   
 21  10  12  1   
 22  10  13  1   
 23  10  29  1   
 24  11  30  1   
 25  11  31  1   
 26  12  14  1   
 27  12  32  1   
 28  12  33  1   
 29  13  14  1   
 30  13  34  1   
 31  13  35  1   
 32  14  15  1   
 33  14  36  1   
 34  15  16  ar  
 35  15  17  ar  
 36  16  18  ar  
 37  17  19  ar  
 38  17  37  1   
 39  18  20  ar  
 40  18  38  1   
 41  19  20  ar  
 42  19  39  1   
 43  20  40  1   
@<TRIPOS>SUBSTRUCTURE
  1 ****  13 GROUP 4 **** **** 0

# MOE 2024.06 (io_trps.svl 2023.06)
