@<TRIPOS>MOLECULE
NONAME
56 58 1 0 0 
SMALL
USER_CHARGES


@<TRIPOS>ATOM
  1 O        4.2670     1.4440    -2.8430 O.2   1 <1>  -0.5700 
  2 C        3.5870     2.2080    -2.2090 C.2   1 <1>   0.5690 
  3 N        4.0420     3.0160    -1.2470 N.am  1 <1>  -0.7300 
  4 C        2.0960     2.3380    -2.3380 C.3   1 <1>  -0.0990 
  5 C        3.0030     3.7030    -0.4840 C.3   1 <1>   0.2200 
  6 C        1.7430     3.4580    -1.3360 C.3   1 <1>  -0.1600 
  7 C        2.8880     3.1030     0.9350 C.3   1 <1>   0.1100 
  8 N        4.1450     3.1360     1.7160 N.3   1 <1>  -0.8100 
  9 C        5.0820     1.9880     1.7210 C.3   1 <1>   0.2530 
 10 C        4.5040     4.3770     2.4540 C.3   1 <1>   0.1710 
 11 C        6.3300     2.1900     0.8530 C.ar  1 <1>   0.1670 
 12 C        4.7100     5.6090     1.5710 C.2   1 <1>   0.5690 
 13 N        7.2150     3.1030     1.2420 N.ar  1 <1>  -0.6200 
 14 C        6.4910     1.4090    -0.2830 C.ar  1 <1>  -0.1500 
 15 O        3.9020     6.5090     1.6330 O.2   1 <1>  -0.5700 
 16 N        5.7850     5.6150     0.7380 N.am  1 <1>  -0.4930 
 17 C        8.2920     3.2330     0.4800 C.ar  1 <1>   0.1600 
 18 C        7.6090     1.5640    -1.0740 C.ar  1 <1>  -0.1500 
 19 C        6.2070     6.6140    -0.1750 C.2   1 <1>   0.0630 
 20 C        8.5310     2.5030    -0.6700 C.ar  1 <1>  -0.1500 
 21 C        6.5160     6.4380    -1.5260 C.2   1 <1>   0.1080 
 22 C        6.4130     7.9300     0.0550 C.2   1 <1>  -0.3320 
 23 N        6.8850     7.5410    -2.0960 N.2   1 <1>  -0.7070 
 24 C        6.4340     5.1390    -2.2960 C.3   1 <1>  -0.0590 
 25 N        6.8160     8.4690    -1.1230 N.pl3 1 <1>   0.3140 
 26 C        6.2460     8.7170     1.3470 C.3   1 <1>  -0.0600 
 27 C        7.1390     9.8840    -1.4020 C.3   1 <1>   0.0960 
 28 C        8.6240    10.1750    -1.1520 C.3   1 <1>  -0.2400 
 29 H        5.0000     2.9830    -0.8930 H     1 <1>   0.3700 
 30 H        1.8290     2.6010    -3.3450 H     1 <1>   0.0800 
 31 H        1.6380     1.4070    -2.0630 H     1 <1>   0.0800 
 32 H        3.2130     4.7580    -0.4330 H     1 <1>   0.0800 
 33 H        0.8870     3.2050    -0.7350 H     1 <1>   0.0800 
 34 H        1.5180     4.3610    -1.8750 H     1 <1>   0.0800 
 35 H        2.5480     2.0850     0.8580 H     1 <1>   0.0800 
 36 H        2.1340     3.6500     1.4750 H     1 <1>   0.0800 
 37 H        5.4010     1.8070     2.7320 H     1 <1>   0.0800 
 38 H        4.5580     1.1080     1.3910 H     1 <1>   0.0800 
 39 H        3.7210     4.5980     3.1570 H     1 <1>   0.0800 
 40 H        5.4050     4.2130     3.0170 H     1 <1>   0.0800 
 41 H        5.7460     0.6840    -0.5620 H     1 <1>   0.1500 
 42 H        6.3340     4.7460     0.7400 H     1 <1>   0.3700 
 43 H        9.0220     3.9640     0.7860 H     1 <1>   0.1500 
 44 H        7.7480     0.9770    -1.9670 H     1 <1>   0.1500 
 45 H        9.4270     2.6710    -1.2410 H     1 <1>   0.1500 
 46 H        6.5340     4.3020    -1.6360 H     1 <1>   0.0800 
 47 H        7.2190     5.1020    -3.0280 H     1 <1>   0.0800 
 48 H        5.4870     5.0810    -2.7980 H     1 <1>   0.0800 
 49 H        6.0550     8.0540     2.1700 H     1 <1>   0.0800 
 50 H        5.4140     9.3930     1.2590 H     1 <1>   0.0800 
 51 H        7.1370     9.2760     1.5660 H     1 <1>   0.0800 
 52 H        6.8960    10.0830    -2.4300 H     1 <1>   0.0800 
 53 H        6.5230    10.5080    -0.7810 H     1 <1>   0.0800 
 54 H        9.2290     9.5560    -1.7910 H     1 <1>   0.0800 
 55 H        8.8780     9.9790    -0.1250 H     1 <1>   0.0800 
 56 H        8.8380    11.2050    -1.3700 H     1 <1>   0.0800 
@<TRIPOS>BOND
  1   1   2  2   
  2   2   3  am  
  3   2   4  1   
  4   3   5  1   
  5   3  29  1   
  6   4   6  1   
  7   4  30  1   
  8   4  31  1   
  9   5   6  1   
 10   5   7  1   
 11   5  32  1   
 12   6  33  1   
 13   6  34  1   
 14   7   8  1   
 15   7  35  1   
 16   7  36  1   
 17   8   9  1   
 18   8  10  1   
 19   9  11  1   
 20   9  37  1   
 21   9  38  1   
 22  10  12  1   
 23  10  39  1   
 24  10  40  1   
 25  11  13  ar  
 26  11  14  ar  
 27  12  15  2   
 28  12  16  am  
 29  13  17  ar  
 30  14  18  ar  
 31  14  41  1   
 32  16  19  1   
 33  16  42  1   
 34  17  20  ar  
 35  17  43  1   
 36  18  20  ar  
 37  18  44  1   
 38  19  21  1   
 39  19  22  2   
 40  20  45  1   
 41  21  23  2   
 42  21  24  1   
 43  22  25  1   
 44  22  26  1   
 45  23  25  1   
 46  24  46  1   
 47  24  47  1   
 48  24  48  1   
 49  25  27  1   
 50  26  49  1   
 51  26  50  1   
 52  26  51  1   
 53  27  28  1   
 54  27  52  1   
 55  27  53  1   
 56  28  54  1   
 57  28  55  1   
 58  28  56  1   
@<TRIPOS>SUBSTRUCTURE
  1 ****  16 GROUP 4 **** **** 0

# MOE 2024.06 (io_trps.svl 2023.06)
