@<TRIPOS>MOLECULE
NONAME
45 47 1 0 0 
SMALL
USER_CHARGES


@<TRIPOS>ATOM
  1 CL       0.0040    -0.1170     0.2400 Cl    1 <1>  -0.1770 
  2 C        1.4950     0.7850     0.1700 C.ar  1 <1>   0.1770 
  3 C        2.4200     0.4950    -0.8130 C.ar  1 <1>  -0.1500 
  4 C        1.7340     1.7780     1.0980 C.ar  1 <1>  -0.1500 
  5 C        3.6040     1.2100    -0.8680 C.ar  1 <1>  -0.1500 
  6 C        2.9190     2.4900     1.0380 C.ar  1 <1>  -0.1500 
  7 C        3.8740     2.2180     0.0580 C.ar  1 <1>  -0.1430 
  8 C        5.1710     3.0380     0.0340 C.3   1 <1>   0.4240 
  9 O        5.6970     2.9730     1.3100 O.3   1 <1>  -0.6800 
 10 C        6.2680     2.5250    -0.9120 C.3   1 <1>  -0.1600 
 11 C        4.8850     4.5170    -0.2720 C.3   1 <1>  -0.1600 
 12 C        7.5690     3.3380    -0.8280 C.3   1 <1>   0.3430 
 13 C        6.1240     5.3260    -0.6760 C.3   1 <1>   0.3430 
 14 N        7.3500     4.6570    -0.1590 N.4   1 <1>  -0.9590 
 15 C        8.5890     5.4990    -0.1840 C.3   1 <1>   0.3430 
 16 C        8.5210     6.6820     0.7850 C.3   1 <1>   0.0960 
 17 N        9.8170     7.3700     0.7410 N.pl3 1 <1>   0.0480 
 18 C       10.2090     8.4090    -0.0390 C.2   1 <1>   0.0060 
 19 C       10.9210     7.0150     1.4230 C.2   1 <1>  -0.3020 
 20 N       11.4540     8.7140     0.1020 N.2   1 <1>  -0.5650 
 21 C        9.2980     9.1580    -0.9920 C.3   1 <1>  -0.0600 
 22 C       11.9060     7.8460     1.0230 C.2   1 <1>   0.0770 
 23 H        2.2080    -0.2840    -1.5240 H     1 <1>   0.1500 
 24 H        0.9980     1.9870     1.8540 H     1 <1>   0.1500 
 25 H        4.2970     0.9540    -1.6490 H     1 <1>   0.1500 
 26 H        3.0870     3.2630     1.7690 H     1 <1>   0.1500 
 27 H        5.2970     2.1930     1.7520 H     1 <1>   0.4000 
 28 H        5.9090     2.5800    -1.9240 H     1 <1>   0.0800 
 29 H        6.4810     1.4910    -0.7090 H     1 <1>   0.0800 
 30 H        4.4120     4.9790     0.5770 H     1 <1>   0.0800 
 31 H        4.1810     4.5750    -1.0830 H     1 <1>   0.0800 
 32 H        7.9640     3.4830    -1.8210 H     1 <1>   0.0800 
 33 H        8.2930     2.7750    -0.2610 H     1 <1>   0.0800 
 34 H        6.0370     6.3250    -0.2820 H     1 <1>   0.0800 
 35 H        6.1780     5.3900    -1.7520 H     1 <1>   0.0800 
 36 H        7.1190     4.3930     0.8210 H     1 <1>   0.4500 
 37 H        8.7570     5.8680    -1.1840 H     1 <1>   0.0800 
 38 H        9.4340     4.8890     0.0930 H     1 <1>   0.0800 
 39 H        8.3520     6.3400     1.7900 H     1 <1>   0.0800 
 40 H        7.7500     7.3740     0.5050 H     1 <1>   0.0800 
 41 H       10.9610     6.2180     2.1430 H     1 <1>   0.1500 
 42 H        8.9130     8.4960    -1.7450 H     1 <1>   0.0800 
 43 H        9.8550     9.9390    -1.4810 H     1 <1>   0.0800 
 44 H        8.4870     9.6110    -0.4530 H     1 <1>   0.0800 
 45 H       12.9320     7.8680     1.3530 H     1 <1>   0.1500 
@<TRIPOS>BOND
  1   1   2  1   
  2   2   3  ar  
  3   2   4  ar  
  4   3   5  ar  
  5   3  23  1   
  6   4   6  ar  
  7   4  24  1   
  8   5   7  ar  
  9   5  25  1   
 10   6   7  ar  
 11   6  26  1   
 12   7   8  1   
 13   8   9  1   
 14   8  10  1   
 15   8  11  1   
 16   9  27  1   
 17  10  12  1   
 18  10  28  1   
 19  10  29  1   
 20  11  13  1   
 21  11  30  1   
 22  11  31  1   
 23  12  14  1   
 24  12  32  1   
 25  12  33  1   
 26  13  14  1   
 27  13  34  1   
 28  13  35  1   
 29  14  15  1   
 30  14  36  1   
 31  15  16  1   
 32  15  37  1   
 33  15  38  1   
 34  16  17  1   
 35  16  39  1   
 36  16  40  1   
 37  17  18  1   
 38  17  19  1   
 39  18  20  2   
 40  18  21  1   
 41  19  22  2   
 42  19  41  1   
 43  20  22  1   
 44  21  42  1   
 45  21  43  1   
 46  21  44  1   
 47  22  45  1   
@<TRIPOS>SUBSTRUCTURE
  1 ****  14 GROUP 4 **** **** 0

# MOE 2024.06 (io_trps.svl 2023.06)
