@<TRIPOS>MOLECULE
NONAME
44 46 1 0 0 
SMALL
USER_CHARGES


@<TRIPOS>ATOM
  1 CL      -1.5680    -0.6240    -2.3700 Cl    1 <1>  -0.1770 
  2 C       -2.2430     0.5930    -1.3130 C.ar  1 <1>   0.1770 
  3 C       -3.0690     0.2150    -0.2720 C.ar  1 <1>  -0.1440 
  4 C       -1.9460     1.9300    -1.5360 C.ar  1 <1>   0.1600 
  5 C       -3.5450     1.2590     0.4990 C.ar  1 <1>   0.1770 
  6 C       -3.4140    -1.2310     0.0230 C.3   1 <1>   0.4860 
  7 N       -2.4140     2.9280    -0.7980 N.ar  1 <1>  -0.6200 
  8 CL      -4.6070     0.9320     1.8460 Cl    1 <1>  -0.1770 
  9 C       -3.2020     2.5720     0.2090 C.ar  1 <1>   0.1600 
 10 N       -4.1330    -1.8870    -1.1210 N.4   1 <1>  -0.9590 
 11 C       -5.5990    -1.6250    -1.2900 C.3   1 <1>   0.4230 
 12 C       -3.8970    -3.3630    -1.0690 C.3   1 <1>   0.2630 
 13 C       -6.4380    -1.7650    -0.0210 C.3   1 <1>  -0.1600 
 14 C       -5.9340    -0.2390    -1.8270 C.3   1 <1>  -0.1600 
 15 C       -7.7510    -1.0400    -0.3510 C.3   1 <1>  -0.0800 
 16 C       -7.4170    -0.0440    -1.4870 C.3   1 <1>  -0.0800 
 17 C       -8.4240    -0.4150     0.8890 C.3   1 <1>   0.1400 
 18 C       -7.7740     1.4170    -1.1530 C.3   1 <1>  -0.0990 
 19 N       -9.4340     0.5840     0.4660 N.am  1 <1>  -0.6600 
 20 C       -9.1460     1.4930    -0.5150 C.2   1 <1>   0.5690 
 21 C      -10.7280     0.5860     1.2000 C.3   1 <1>   0.0600 
 22 O       -9.9190     2.3390    -0.8900 O.2   1 <1>  -0.5700 
 23 H       -1.2980     2.1870    -2.3580 H     1 <1>   0.1500 
 24 H       -3.9940    -1.3070     0.9270 H     1 <1>   0.0800 
 25 H       -2.4870    -1.7530     0.1990 H     1 <1>   0.0800 
 26 H       -3.5940     3.3590     0.8310 H     1 <1>   0.1500 
 27 H       -3.6730    -1.5420    -1.9770 H     1 <1>   0.4500 
 28 H       -5.9910    -2.3290    -2.0080 H     1 <1>   0.0800 
 29 H       -4.3440    -3.7860    -0.1840 H     1 <1>   0.0800 
 30 H       -2.8390    -3.5750    -1.0580 H     1 <1>   0.0800 
 31 H       -4.3280    -3.8420    -1.9340 H     1 <1>   0.0800 
 32 H       -6.6210    -2.7960     0.2260 H     1 <1>   0.0800 
 33 H       -5.9750    -1.2720     0.8100 H     1 <1>   0.0800 
 34 H       -5.3670     0.5230    -1.3370 H     1 <1>   0.0800 
 35 H       -5.7730    -0.1760    -2.8890 H     1 <1>   0.0800 
 36 H       -8.4410    -1.7650    -0.7520 H     1 <1>   0.0800 
 37 H       -8.0080    -0.3290    -2.3440 H     1 <1>   0.0800 
 38 H       -7.6960     0.0860     1.5040 H     1 <1>   0.0800 
 39 H       -8.8920    -1.1860     1.4780 H     1 <1>   0.0800 
 40 H       -7.7630     2.0170    -2.0460 H     1 <1>   0.0800 
 41 H       -7.0720     1.8370    -0.4570 H     1 <1>   0.0800 
 42 H      -11.2250    -0.3580     1.0660 H     1 <1>   0.0800 
 43 H      -11.3710     1.3670     0.8320 H     1 <1>   0.0800 
 44 H      -10.5530     0.7520     2.2490 H     1 <1>   0.0800 
@<TRIPOS>BOND
  1   1   2  1   
  2   2   3  ar  
  3   2   4  ar  
  4   3   5  ar  
  5   3   6  1   
  6   4   7  ar  
  7   4  23  1   
  8   5   8  1   
  9   5   9  ar  
 10   6  10  1   
 11   6  24  1   
 12   6  25  1   
 13   7   9  ar  
 14   9  26  1   
 15  10  11  1   
 16  10  12  1   
 17  10  27  1   
 18  11  13  1   
 19  11  14  1   
 20  11  28  1   
 21  12  29  1   
 22  12  30  1   
 23  12  31  1   
 24  13  15  1   
 25  13  32  1   
 26  13  33  1   
 27  14  16  1   
 28  14  34  1   
 29  14  35  1   
 30  15  16  1   
 31  15  17  1   
 32  15  36  1   
 33  16  18  1   
 34  16  37  1   
 35  17  19  1   
 36  17  38  1   
 37  17  39  1   
 38  18  20  1   
 39  18  40  1   
 40  18  41  1   
 41  19  20  am  
 42  19  21  1   
 43  20  22  2   
 44  21  42  1   
 45  21  43  1   
 46  21  44  1   
@<TRIPOS>SUBSTRUCTURE
  1 ****  14 GROUP 4 **** **** 0

# MOE 2024.06 (io_trps.svl 2023.06)
