@<TRIPOS>MOLECULE
NONAME
65 68 1 0 0 
SMALL
USER_CHARGES


@<TRIPOS>ATOM
  1 O        0.4520    -2.6170    -2.8950 O.2   1 <1>  -0.5700 
  2 C        1.1020    -2.9190    -1.9190 C.2   1 <1>   0.5690 
  3 N        1.8840    -1.9970    -1.2590 N.am  1 <1>  -0.6600 
  4 C        1.0410    -4.3800    -1.4820 C.3   1 <1>   0.1810 
  5 C        2.6940    -2.2810    -0.0410 C.3   1 <1>   0.1400 
  6 C        1.9420    -0.5760    -1.7020 C.3   1 <1>   0.1400 
  7 O        0.4840    -4.5100    -0.1810 O.3   1 <1>  -0.3620 
  8 C        4.1560    -1.8960    -0.2910 C.3   1 <1>  -0.1600 
  9 C        3.3970    -0.1750    -1.9650 C.3   1 <1>  -0.1600 
 10 C        0.2840    -5.7250     0.3800 C.ar  1 <1>   0.0820 
 11 C        4.2860    -0.4310    -0.7380 C.3   1 <1>  -0.0800 
 12 C        0.6640    -6.9260    -0.2100 C.ar  1 <1>  -0.1500 
 13 C       -0.3430    -5.7420     1.6140 C.ar  1 <1>  -0.1500 
 14 C        5.7480    -0.0880    -1.0480 C.3   1 <1>  -0.2400 
 15 C        0.4080    -8.1240     0.4320 C.ar  1 <1>  -0.1500 
 16 C       -0.6020    -6.9390     2.2550 C.ar  1 <1>  -0.1500 
 17 C       -0.2340    -8.1390     1.6640 C.ar  1 <1>  -0.1440 
 18 C       -0.5560    -9.4510     2.3520 C.3   1 <1>   0.4860 
 19 N       -1.5560   -10.1810     1.5300 N.4   1 <1>  -0.9590 
 20 C       -2.7800    -9.3880     1.1930 C.3   1 <1>   0.3430 
 21 C       -2.0150   -11.4860     2.0710 C.3   1 <1>   0.3430 
 22 C       -3.9350   -10.3970     1.0990 C.3   1 <1>   0.2000 
 23 C       -3.3290   -11.7870     1.3430 C.3   1 <1>  -0.0800 
 24 O       -4.8620   -10.1330     2.0990 O.3   1 <1>  -0.6800 
 25 C       -3.1240   -12.5950     0.0370 C.3   1 <1>   0.0200 
 26 C       -1.9120   -12.1520    -0.7630 C.2   1 <1>  -0.0400 
 27 O       -1.8430   -10.9350    -1.2280 O.3   1 <1>  -0.0190 
 28 C       -0.7780   -12.7850    -1.1000 C.2   1 <1>  -0.1500 
 29 N       -0.7020   -10.6990    -1.7990 N.2   1 <1>  -0.4100 
 30 C       -0.0480   -11.8050    -1.7660 C.2   1 <1>   0.1080 
 31 C        1.3270   -12.0030    -2.3670 C.3   1 <1>  -0.0590 
 32 H        2.0310    -4.7940    -1.4770 H     1 <1>   0.0800 
 33 H        0.4190    -4.9260    -2.1680 H     1 <1>   0.0800 
 34 H        2.3010    -1.7040     0.7790 H     1 <1>   0.0800 
 35 H        2.6450    -3.3190     0.2330 H     1 <1>   0.0800 
 36 H        1.3630    -0.4300    -2.5990 H     1 <1>   0.0800 
 37 H        1.5230     0.0470    -0.9320 H     1 <1>   0.0800 
 38 H        4.7170    -2.0490     0.6130 H     1 <1>   0.0800 
 39 H        4.5610    -2.5480    -1.0450 H     1 <1>   0.0800 
 40 H        3.7600    -0.7370    -2.8090 H     1 <1>   0.0800 
 41 H        3.4300     0.8670    -2.2270 H     1 <1>   0.0800 
 42 H        3.9510     0.2040     0.0660 H     1 <1>   0.0800 
 43 H        1.1560    -6.9500    -1.1650 H     1 <1>   0.1500 
 44 H       -0.6280    -4.8060     2.0640 H     1 <1>   0.1500 
 45 H        6.1200    -0.7030    -1.8490 H     1 <1>   0.0800 
 46 H        6.3610    -0.2480    -0.1790 H     1 <1>   0.0800 
 47 H        5.8350     0.9440    -1.3380 H     1 <1>   0.0800 
 48 H        0.7120    -9.0390    -0.0470 H     1 <1>   0.1500 
 49 H       -1.0930    -6.9160     3.2140 H     1 <1>   0.1500 
 50 H       -0.9530    -9.2580     3.3350 H     1 <1>   0.0800 
 51 H        0.3440   -10.0360     2.4520 H     1 <1>   0.0800 
 52 H       -1.1080   -10.3640     0.6120 H     1 <1>   0.4500 
 53 H       -2.9930    -8.6570     1.9560 H     1 <1>   0.0800 
 54 H       -2.6410    -8.8840     0.2500 H     1 <1>   0.0800 
 55 H       -1.2830   -12.2620     1.9100 H     1 <1>   0.0800 
 56 H       -2.2070   -11.3930     3.1280 H     1 <1>   0.0800 
 57 H       -4.4480   -10.3190     0.1540 H     1 <1>   0.0800 
 58 H       -3.9770   -12.3710     1.9750 H     1 <1>   0.0800 
 59 H       -4.5130   -10.2680     3.0010 H     1 <1>   0.4000 
 60 H       -4.0040   -12.5330    -0.5810 H     1 <1>   0.0800 
 61 H       -2.9920   -13.6330     0.2900 H     1 <1>   0.0800 
 62 H       -0.4620   -13.7970    -0.9140 H     1 <1>   0.1500 
 63 H        2.0270   -12.2900    -1.6050 H     1 <1>   0.0800 
 64 H        1.6650   -11.0910    -2.8270 H     1 <1>   0.0800 
 65 H        1.2880   -12.7710    -3.1170 H     1 <1>   0.0800 
@<TRIPOS>BOND
  1   1   2  2   
  2   2   3  am  
  3   2   4  1   
  4   3   5  1   
  5   3   6  1   
  6   4   7  1   
  7   4  32  1   
  8   4  33  1   
  9   5   8  1   
 10   5  34  1   
 11   5  35  1   
 12   6   9  1   
 13   6  36  1   
 14   6  37  1   
 15   7  10  1   
 16   8  11  1   
 17   8  38  1   
 18   8  39  1   
 19   9  11  1   
 20   9  40  1   
 21   9  41  1   
 22  10  12  ar  
 23  10  13  ar  
 24  11  14  1   
 25  11  42  1   
 26  12  15  ar  
 27  12  43  1   
 28  13  16  ar  
 29  13  44  1   
 30  14  45  1   
 31  14  46  1   
 32  14  47  1   
 33  15  17  ar  
 34  15  48  1   
 35  16  17  ar  
 36  16  49  1   
 37  17  18  1   
 38  18  19  1   
 39  18  50  1   
 40  18  51  1   
 41  19  20  1   
 42  19  21  1   
 43  19  52  1   
 44  20  22  1   
 45  20  53  1   
 46  20  54  1   
 47  21  23  1   
 48  21  55  1   
 49  21  56  1   
 50  22  23  1   
 51  22  24  1   
 52  22  57  1   
 53  23  25  1   
 54  23  58  1   
 55  24  59  1   
 56  25  26  1   
 57  25  60  1   
 58  25  61  1   
 59  26  27  1   
 60  26  28  2   
 61  27  29  1   
 62  28  30  1   
 63  28  62  1   
 64  29  30  2   
 65  30  31  1   
 66  31  63  1   
 67  31  64  1   
 68  31  65  1   
@<TRIPOS>SUBSTRUCTURE
  1 ****  12 GROUP 4 **** **** 0

# MOE 2024.06 (io_trps.svl 2023.06)
