@<TRIPOS>MOLECULE
NONAME
53 57 1 0 0 
SMALL
USER_CHARGES


@<TRIPOS>ATOM
  1 O       -3.0490     0.7040     1.2990 O.2   1 <1>  -0.5700 
  2 C       -2.7830     1.3300     0.2990 C.2   1 <1>   0.5690 
  3 N       -3.0350     0.7840    -0.9250 N.am  1 <1>  -0.6600 
  4 C       -2.2500     2.7420     0.4040 C.3   1 <1>  -0.0990 
  5 C       -4.3370     1.1420    -1.5650 C.3   1 <1>   0.1400 
  6 C       -2.6950    -0.6640    -1.1270 C.3   1 <1>   0.1400 
  7 C       -0.7930     2.7530     0.8780 C.3   1 <1>  -0.0160 
  8 C       -5.5030     0.3140    -0.9510 C.3   1 <1>   0.4230 
  9 C       -3.8970    -1.5940    -0.8280 C.3   1 <1>   0.3430 
 10 C       -0.2720     4.1790     0.9350 C.ar  1 <1>  -0.1440 
 11 N       -4.9970    -0.8490    -0.1220 N.4   1 <1>  -0.9590 
 12 C       -6.4850    -0.1690    -2.0430 C.3   1 <1>   0.1200 
 13 C        0.3410     4.7390    -0.1820 C.ar  1 <1>  -0.1500 
 14 C       -0.4100     4.9280     2.1040 C.ar  1 <1>  -0.1500 
 15 C       -6.1300    -1.6850     0.3840 C.3   1 <1>   0.5180 
 16 O       -7.5060    -0.9410    -1.4790 O.3   1 <1>  -0.5600 
 17 C        0.7960     6.0390    -0.0930 C.ar  1 <1>   0.0830 
 18 C        0.0560     6.2360     2.1740 C.ar  1 <1>  -0.1500 
 19 C       -5.5730    -2.8750     1.1890 C.3   1 <1>  -0.1950 
 20 C       -7.0790    -2.0780    -0.7750 C.3   1 <1>   0.1200 
 21 O        1.4060     6.7690    -1.0330 O.3   1 <1>  -0.3620 
 22 C        0.6580     6.7680     1.0520 C.ar  1 <1>   0.0830 
 23 C       -5.1890    -4.2050     0.6050 C.3   1 <1>  -0.2000 
 24 C       -6.3850    -4.0950     1.5080 C.3   1 <1>  -0.2000 
 25 C        1.6760     8.0420    -0.4490 C.3   1 <1>   0.4000 
 26 O        1.1760     7.9900     0.8860 O.3   1 <1>  -0.3620 
 27 H       -2.3150     3.2260    -0.5520 H     1 <1>   0.0800 
 28 H       -2.8560     3.2910     1.1010 H     1 <1>   0.0800 
 29 H       -4.5380     2.1920    -1.4340 H     1 <1>   0.0800 
 30 H       -4.2640     0.9620    -2.6250 H     1 <1>   0.0800 
 31 H       -2.3550    -0.8200    -2.1360 H     1 <1>   0.0800 
 32 H       -1.8810    -0.9310    -0.4730 H     1 <1>   0.0800 
 33 H       -0.1850     2.1740     0.2050 H     1 <1>   0.0800 
 34 H       -0.7230     2.3000     1.8530 H     1 <1>   0.0800 
 35 H       -6.0560     0.9740    -0.3040 H     1 <1>   0.0800 
 36 H       -3.5500    -2.4130    -0.2210 H     1 <1>   0.0800 
 37 H       -4.2690    -2.0060    -1.7510 H     1 <1>   0.0800 
 38 H       -4.5190    -0.4170     0.6950 H     1 <1>   0.4500 
 39 H       -5.9840    -0.7570    -2.7910 H     1 <1>   0.0800 
 40 H       -6.9480     0.6750    -2.5250 H     1 <1>   0.0800 
 41 H        0.4670     4.1930    -1.0980 H     1 <1>   0.1500 
 42 H       -0.8810     4.4950     2.9690 H     1 <1>   0.1500 
 43 H       -6.7120    -1.0870     1.0670 H     1 <1>   0.0800 
 44 H       -0.0430     6.8250     3.0670 H     1 <1>   0.1500 
 45 H       -4.9780    -2.5170     2.0140 H     1 <1>   0.1000 
 46 H       -7.9580    -2.5590    -0.3840 H     1 <1>   0.0800 
 47 H       -6.6010    -2.7500    -1.4650 H     1 <1>   0.0800 
 48 H       -5.3770    -4.4490    -0.4260 H     1 <1>   0.1000 
 49 H       -4.3210    -4.7170     0.9880 H     1 <1>   0.1000 
 50 H       -6.3170    -4.5190     2.4970 H     1 <1>   0.1000 
 51 H       -7.3570    -4.2530     1.0740 H     1 <1>   0.1000 
 52 H        2.7380     8.2120    -0.4290 H     1 <1>   0.0800 
 53 H        1.1590     8.8090    -0.9980 H     1 <1>   0.0800 
@<TRIPOS>BOND
  1   1   2  2   
  2   2   3  am  
  3   2   4  1   
  4   3   5  1   
  5   3   6  1   
  6   4   7  1   
  7   4  27  1   
  8   4  28  1   
  9   5   8  1   
 10   5  29  1   
 11   5  30  1   
 12   6   9  1   
 13   6  31  1   
 14   6  32  1   
 15   7  10  1   
 16   7  33  1   
 17   7  34  1   
 18   8  11  1   
 19   8  12  1   
 20   8  35  1   
 21   9  11  1   
 22   9  36  1   
 23   9  37  1   
 24  10  13  ar  
 25  10  14  ar  
 26  11  15  1   
 27  11  38  1   
 28  12  16  1   
 29  12  39  1   
 30  12  40  1   
 31  13  17  ar  
 32  13  41  1   
 33  14  18  ar  
 34  14  42  1   
 35  15  19  1   
 36  15  20  1   
 37  15  43  1   
 38  16  20  1   
 39  17  21  1   
 40  17  22  ar  
 41  18  22  ar  
 42  18  44  1   
 43  19  23  1   
 44  19  24  1   
 45  19  45  1   
 46  20  46  1   
 47  20  47  1   
 48  21  25  1   
 49  22  26  1   
 50  23  24  1   
 51  23  48  1   
 52  23  49  1   
 53  24  50  1   
 54  24  51  1   
 55  25  26  1   
 56  25  52  1   
 57  25  53  1   
@<TRIPOS>SUBSTRUCTURE
  1 ****   2 GROUP 4 **** **** 0

# MOE 2024.06 (io_trps.svl 2023.06)
