@<TRIPOS>MOLECULE
NONAME
54 56 1 0 0 
SMALL
USER_CHARGES


@<TRIPOS>ATOM
  1 O        1.9530     0.7860     2.1920 O.co2 1 <1>  -0.9000 
  2 C        1.8290     0.3120     1.0570 C.2   1 <1>   0.9060 
  3 O        1.3200    -0.8040     0.8710 O.co2 1 <1>  -0.9000 
  4 C        2.4160     1.0380    -0.1560 C.3   1 <1>  -0.1060 
  5 C        3.6310     0.1520    -0.5260 C.3   1 <1>   0.2000 
  6 C        2.9040     2.4850     0.1680 C.3   1 <1>  -0.1600 
  7 C        1.3630     1.1180    -1.3020 C.3   1 <1>  -0.0160 
  8 O        3.2170    -0.9500    -1.2570 O.3   1 <1>  -0.6800 
  9 C        4.7350     0.9200    -1.2630 C.3   1 <1>   0.1400 
 10 C        4.3470     2.5220     0.6710 C.3   1 <1>   0.1400 
 11 C        0.2650     2.1590    -1.0850 C.ar  1 <1>  -0.1440 
 12 N        5.2730     2.0420    -0.4110 N.am  1 <1>  -0.6600 
 13 C        0.2260     3.3130    -1.8530 C.ar  1 <1>  -0.1500 
 14 C       -0.7090     1.9570    -0.1200 C.ar  1 <1>  -0.1500 
 15 C        6.5220     2.5590    -0.6920 C.2   1 <1>   0.5690 
 16 C       -0.7700     4.2550    -1.6560 C.ar  1 <1>  -0.1500 
 17 C       -1.7050     2.8970     0.0800 C.ar  1 <1>  -0.1500 
 18 O        7.1140     2.1710    -1.6790 O.2   1 <1>  -0.5700 
 19 C        7.2360     3.6210     0.2090 C.3   1 <1>   0.2040 
 20 C       -1.7370     4.0470    -0.6880 C.ar  1 <1>  -0.1500 
 21 C        6.4620     4.9580     0.2360 C.ar  1 <1>  -0.1430 
 22 C        8.6410     3.9700    -0.3360 C.3   1 <1>  -0.2400 
 23 C        7.4630     3.0190     1.6160 C.3   1 <1>  -0.2400 
 24 C        5.8510     5.4130    -0.9290 C.ar  1 <1>  -0.1500 
 25 C        6.3560     5.7460     1.3790 C.ar  1 <1>  -0.1500 
 26 C        5.1490     6.6060    -0.9500 C.ar  1 <1>  -0.1500 
 27 C        5.6560     6.9400     1.3600 C.ar  1 <1>  -0.1500 
 28 C        5.0500     7.3710     0.1960 C.ar  1 <1>  -0.1500 
 29 H        4.0730    -0.2400     0.3760 H     1 <1>   0.0800 
 30 H        2.2550     2.9300     0.9030 H     1 <1>   0.0800 
 31 H        2.8580     3.1080    -0.7070 H     1 <1>   0.0800 
 32 H        1.8710     1.3380    -2.2230 H     1 <1>   0.0800 
 33 H        0.8880     0.1620    -1.4360 H     1 <1>   0.0800 
 34 H        2.4760    -1.3500    -0.7310 H     1 <1>   0.4000 
 35 H        4.3430     1.3310    -2.1750 H     1 <1>   0.0800 
 36 H        5.5320     0.2380    -1.5020 H     1 <1>   0.0800 
 37 H        4.4380     1.8880     1.5380 H     1 <1>   0.0800 
 38 H        4.5770     3.5280     0.9640 H     1 <1>   0.0800 
 39 H        0.9750     3.4830    -2.6050 H     1 <1>   0.1500 
 40 H       -0.6900     1.0640     0.4850 H     1 <1>   0.1500 
 41 H       -0.7910     5.1470    -2.2550 H     1 <1>   0.1500 
 42 H       -2.4490     2.7270     0.8380 H     1 <1>   0.1500 
 43 H       -2.5100     4.7770    -0.5310 H     1 <1>   0.1500 
 44 H        9.1170     4.7070     0.2840 H     1 <1>   0.0800 
 45 H        8.5640     4.3670    -1.3320 H     1 <1>   0.0800 
 46 H        9.2610     3.0910    -0.3720 H     1 <1>   0.0800 
 47 H        8.1320     3.6270     2.1970 H     1 <1>   0.0800 
 48 H        7.8990     2.0400     1.5260 H     1 <1>   0.0800 
 49 H        6.5390     2.9250     2.1540 H     1 <1>   0.0800 
 50 H        5.9170     4.8390    -1.8380 H     1 <1>   0.1500 
 51 H        6.8150     5.4500     2.3040 H     1 <1>   0.1500 
 52 H        4.6820     6.9350    -1.8610 H     1 <1>   0.1500 
 53 H        5.5830     7.5340     2.2540 H     1 <1>   0.1500 
 54 H        4.5050     8.2990     0.1810 H     1 <1>   0.1500 
@<TRIPOS>BOND
  1   1   2  ar  
  2   2   3  ar  
  3   2   4  1   
  4   4   5  1   
  5   4   6  1   
  6   4   7  1   
  7   5   8  1   
  8   5   9  1   
  9   5  29  1   
 10   6  10  1   
 11   6  30  1   
 12   6  31  1   
 13   7  11  1   
 14   7  32  1   
 15   7  33  1   
 16   8  34  1   
 17   9  12  1   
 18   9  35  1   
 19   9  36  1   
 20  10  12  1   
 21  10  37  1   
 22  10  38  1   
 23  11  13  ar  
 24  11  14  ar  
 25  12  15  am  
 26  13  16  ar  
 27  13  39  1   
 28  14  17  ar  
 29  14  40  1   
 30  15  18  2   
 31  15  19  1   
 32  16  20  ar  
 33  16  41  1   
 34  17  20  ar  
 35  17  42  1   
 36  19  21  1   
 37  19  22  1   
 38  19  23  1   
 39  20  43  1   
 40  21  24  ar  
 41  21  25  ar  
 42  22  44  1   
 43  22  45  1   
 44  22  46  1   
 45  23  47  1   
 46  23  48  1   
 47  23  49  1   
 48  24  26  ar  
 49  24  50  1   
 50  25  27  ar  
 51  25  51  1   
 52  26  28  ar  
 53  26  52  1   
 54  27  28  ar  
 55  27  53  1   
 56  28  54  1   
@<TRIPOS>SUBSTRUCTURE
  1 ****   6 GROUP 4 **** **** 0

# MOE 2024.06 (io_trps.svl 2023.06)
