@<TRIPOS>MOLECULE
NONAME
50 51 1 0 0 
SMALL
USER_CHARGES


@<TRIPOS>ATOM
  1 O        1.7210    -0.3860     2.4330 O.2   1 <1>  -0.5700 
  2 C        1.5770    -0.8160     1.3010 C.2   1 <1>   0.5440 
  3 N        1.5830     0.0740     0.2370 N.am  1 <1>  -0.6600 
  4 C        1.4610    -2.2480     1.1250 C.ar  1 <1>   0.0860 
  5 C        1.6200     1.5460     0.5280 C.3   1 <1>   0.2200 
  6 C        1.5180    -0.4050    -1.1800 C.3   1 <1>   0.1400 
  7 C        0.2530    -2.8580     0.7640 C.ar  1 <1>   0.0830 
  8 C        2.5760    -3.0620     1.3230 C.ar  1 <1>  -0.1500 
  9 C        0.9300     2.4240    -0.5220 C.3   1 <1>  -0.1600 
 10 C        3.0570     2.0260     0.7490 C.3   1 <1>  -0.1600 
 11 C        2.8960    -0.3440    -1.8350 C.3   1 <1>  -0.2400 
 12 O       -0.8240    -2.0560     0.5820 O.3   1 <1>  -0.3630 
 13 C        0.1870    -4.2410     0.6000 C.ar  1 <1>  -0.1500 
 14 C        2.5070    -4.4320     1.1590 C.ar  1 <1>  -0.1500 
 15 C        1.0560     3.8960    -0.1200 C.3   1 <1>   0.1200 
 16 C        3.0640     3.5270     1.0520 C.3   1 <1>   0.1200 
 17 C       -2.1120    -2.5580     0.2980 C.3   1 <1>   0.1200 
 18 C        1.3100    -5.0220     0.7960 C.ar  1 <1>  -0.1500 
 19 O        2.4060     4.2140     0.0300 O.3   1 <1>  -0.5600 
 20 C       -3.0790    -1.3820     0.2410 C.3   1 <1>   0.1200 
 21 O       -4.3380    -1.8690    -0.0990 O.3   1 <1>  -0.5600 
 22 C       -5.3220    -0.8930    -0.1550 C.3   1 <1>   0.1200 
 23 C       -6.6260    -1.5770    -0.5460 C.3   1 <1>  -0.2400 
 24 H        1.0880     1.7080     1.4510 H     1 <1>   0.0800 
 25 H        0.8070     0.1710    -1.7440 H     1 <1>   0.0800 
 26 H        1.1750    -1.4220    -1.2170 H     1 <1>   0.0800 
 27 H        3.5040    -2.6010     1.6130 H     1 <1>   0.1500 
 28 H       -0.1090     2.1600    -0.5910 H     1 <1>   0.0800 
 29 H        1.3910     2.3100    -1.4850 H     1 <1>   0.0800 
 30 H        3.6590     1.8500    -0.1210 H     1 <1>   0.0800 
 31 H        3.4910     1.4980     1.5780 H     1 <1>   0.0800 
 32 H        3.2000     0.6740    -1.9870 H     1 <1>   0.0800 
 33 H        2.8590    -0.8270    -2.7940 H     1 <1>   0.0800 
 34 H        3.6210    -0.8520    -1.2240 H     1 <1>   0.0800 
 35 H       -0.7290    -4.7270     0.3210 H     1 <1>   0.1500 
 36 H        3.3810    -5.0400     1.3170 H     1 <1>   0.1500 
 37 H        0.5480     4.0970     0.8080 H     1 <1>   0.0800 
 38 H        0.6530     4.5340    -0.8880 H     1 <1>   0.0800 
 39 H        4.0740     3.8970     1.1010 H     1 <1>   0.0800 
 40 H        2.5690     3.7380     1.9850 H     1 <1>   0.0800 
 41 H       -2.3960    -3.2350     1.0830 H     1 <1>   0.0800 
 42 H       -2.0790    -3.0600    -0.6520 H     1 <1>   0.0800 
 43 H        1.2550    -6.0900     0.6680 H     1 <1>   0.1500 
 44 H       -2.7670    -0.6790    -0.5120 H     1 <1>   0.0800 
 45 H       -3.1390    -0.9050     1.2040 H     1 <1>   0.0800 
 46 H       -5.0430    -0.1570    -0.8920 H     1 <1>   0.0800 
 47 H       -5.4110    -0.4310     0.8140 H     1 <1>   0.0800 
 48 H       -6.5220    -2.0460    -1.5070 H     1 <1>   0.0800 
 49 H       -7.4170    -0.8520    -0.6000 H     1 <1>   0.0800 
 50 H       -6.8870    -2.3180     0.1880 H     1 <1>   0.0800 
@<TRIPOS>BOND
  1   1   2  2   
  2   2   3  am  
  3   2   4  1   
  4   3   5  1   
  5   3   6  1   
  6   4   7  ar  
  7   4   8  ar  
  8   5   9  1   
  9   5  10  1   
 10   5  24  1   
 11   6  11  1   
 12   6  25  1   
 13   6  26  1   
 14   7  12  1   
 15   7  13  ar  
 16   8  14  ar  
 17   8  27  1   
 18   9  15  1   
 19   9  28  1   
 20   9  29  1   
 21  10  16  1   
 22  10  30  1   
 23  10  31  1   
 24  11  32  1   
 25  11  33  1   
 26  11  34  1   
 27  12  17  1   
 28  13  18  ar  
 29  13  35  1   
 30  14  18  ar  
 31  14  36  1   
 32  15  19  1   
 33  15  37  1   
 34  15  38  1   
 35  16  19  1   
 36  16  39  1   
 37  16  40  1   
 38  17  20  1   
 39  17  41  1   
 40  17  42  1   
 41  18  43  1   
 42  20  21  1   
 43  20  44  1   
 44  20  45  1   
 45  21  22  1   
 46  22  23  1   
 47  22  46  1   
 48  22  47  1   
 49  23  48  1   
 50  23  49  1   
 51  23  50  1   
@<TRIPOS>SUBSTRUCTURE
  1 ****   3 GROUP 4 **** **** 0

# MOE 2024.06 (io_trps.svl 2023.06)
