@<TRIPOS>MOLECULE
NONAME
53 54 1 0 0 
SMALL
USER_CHARGES


@<TRIPOS>ATOM
  1 S        0.2100     0.3140    -0.4560 S.o2  1 <1>   1.3330 
  2 O        0.0430     0.7900    -1.8110 O.2   1 <1>  -0.6500 
  3 O        0.1260    -1.1030    -0.1830 O.2   1 <1>  -0.6500 
  4 N       -0.9350     1.0980     0.5210 N.am  1 <1>  -0.8490 
  5 C        1.7640     0.9790     0.1380 C.3   1 <1>  -0.0550 
  6 C       -1.0840     0.4800     1.8440 C.3   1 <1>   0.1160 
  7 C       -2.2450     1.1860    -0.1320 C.3   1 <1>   0.1160 
  8 C        3.0000     0.4160    -0.6050 C.3   1 <1>  -0.0800 
  9 C        4.3000     1.1620    -0.3150 C.3   1 <1>   0.2200 
 10 C        3.3590    -0.9590    -0.0460 C.3   1 <1>   0.1200 
 11 N        4.1240     2.6340    -0.2090 N.am  1 <1>  -0.7300 
 12 C        4.7940     0.4990     0.9770 C.3   1 <1>   0.1200 
 13 O        4.0680    -0.6900     1.1190 O.3   1 <1>  -0.5600 
 14 C        5.1130     3.5120     0.1410 C.2   1 <1>   0.5440 
 15 O        6.2040     3.0660     0.4340 O.2   1 <1>  -0.5700 
 16 C        4.8650     4.9440     0.1320 C.ar  1 <1>   0.0860 
 17 C        5.9010     5.8520    -0.0680 C.ar  1 <1>  -0.1500 
 18 C        3.5900     5.4770     0.3180 C.ar  1 <1>  -0.1500 
 19 C        5.6740     7.2160    -0.0970 C.ar  1 <1>  -0.1500 
 20 C        3.3610     6.8400     0.2890 C.ar  1 <1>  -0.1500 
 21 C        4.3990     7.7420     0.0770 C.ar  1 <1>  -0.1440 
 22 C        4.1950     9.2730     0.0340 C.3   1 <1>   0.1430 
 23 C        5.0250     9.9340     1.1440 C.3   1 <1>  -0.2400 
 24 C        4.6460     9.8130    -1.3320 C.3   1 <1>  -0.2400 
 25 C        2.7290     9.6930     0.2370 C.3   1 <1>  -0.2400 
 26 H        1.7150     2.0410     0.0100 H     1 <1>   0.0800 
 27 H        1.8640     0.7890     1.1890 H     1 <1>   0.0800 
 28 H       -1.7580     1.0610     2.4500 H     1 <1>   0.0800 
 29 H       -0.1320     0.4350     2.3450 H     1 <1>   0.0800 
 30 H       -1.4710    -0.5220     1.7510 H     1 <1>   0.0800 
 31 H       -2.9460     1.6990     0.5040 H     1 <1>   0.0800 
 32 H       -2.6210     0.2000    -0.3520 H     1 <1>   0.0800 
 33 H       -2.1610     1.7370    -1.0540 H     1 <1>   0.0800 
 34 H        2.8160     0.3640    -1.6640 H     1 <1>   0.0800 
 35 H        5.0180     0.9570    -1.0920 H     1 <1>   0.0800 
 36 H        4.0130    -1.4920    -0.7160 H     1 <1>   0.0800 
 37 H        2.5110    -1.5760     0.1930 H     1 <1>   0.0800 
 38 H        3.3220     3.0110    -0.7130 H     1 <1>   0.3700 
 39 H        4.6000     1.1130     1.8380 H     1 <1>   0.0800 
 40 H        5.8420     0.2630     0.9180 H     1 <1>   0.0800 
 41 H        6.9020     5.4780    -0.2040 H     1 <1>   0.1500 
 42 H        2.7600     4.8190     0.4980 H     1 <1>   0.1500 
 43 H        6.5130     7.8680    -0.2580 H     1 <1>   0.1500 
 44 H        2.3520     7.1770     0.4380 H     1 <1>   0.1500 
 45 H        4.8690    10.9970     1.1530 H     1 <1>   0.0800 
 46 H        6.0750     9.7520     1.0040 H     1 <1>   0.0800 
 47 H        4.7400     9.5370     2.1020 H     1 <1>   0.0800 
 48 H        4.4770    10.8730    -1.3960 H     1 <1>   0.0800 
 49 H        4.0940     9.3300    -2.1180 H     1 <1>   0.0800 
 50 H        5.6920     9.6320    -1.4940 H     1 <1>   0.0800 
 51 H        2.6340    10.7640     0.1960 H     1 <1>   0.0800 
 52 H        2.3710     9.3650     1.1970 H     1 <1>   0.0800 
 53 H        2.1050     9.2750    -0.5330 H     1 <1>   0.0800 
@<TRIPOS>BOND
  1   1   2  2   
  2   1   3  2   
  3   1   4  am  
  4   1   5  1   
  5   4   6  1   
  6   4   7  1   
  7   5   8  1   
  8   5  26  1   
  9   5  27  1   
 10   6  28  1   
 11   6  29  1   
 12   6  30  1   
 13   7  31  1   
 14   7  32  1   
 15   7  33  1   
 16   8   9  1   
 17   8  10  1   
 18   8  34  1   
 19   9  11  1   
 20   9  12  1   
 21   9  35  1   
 22  10  13  1   
 23  10  36  1   
 24  10  37  1   
 25  11  14  am  
 26  11  38  1   
 27  12  13  1   
 28  12  39  1   
 29  12  40  1   
 30  14  15  2   
 31  14  16  1   
 32  16  17  ar  
 33  16  18  ar  
 34  17  19  ar  
 35  17  41  1   
 36  18  20  ar  
 37  18  42  1   
 38  19  21  ar  
 39  19  43  1   
 40  20  21  ar  
 41  20  44  1   
 42  21  22  1   
 43  22  23  1   
 44  22  24  1   
 45  22  25  1   
 46  23  45  1   
 47  23  46  1   
 48  23  47  1   
 49  24  48  1   
 50  24  49  1   
 51  24  50  1   
 52  25  51  1   
 53  25  52  1   
 54  25  53  1   
@<TRIPOS>SUBSTRUCTURE
  1 ****  11 GROUP 4 **** **** 0

# MOE 2024.06 (io_trps.svl 2023.06)
