@<TRIPOS>MOLECULE
NONAME
45 47 1 0 0 
SMALL
USER_CHARGES


@<TRIPOS>ATOM
  1 S        0.6970    -0.1710    -1.2530 S.o2  1 <1>   1.3330 
  2 O        2.0480    -0.6810    -1.3180 O.2   1 <1>  -0.6500 
  3 O       -0.0910    -0.0890    -2.4610 O.2   1 <1>  -0.6500 
  4 N       -0.1770    -1.1440    -0.1660 N.am  1 <1>  -0.8490 
  5 C        0.7110     1.4430    -0.4550 C.3   1 <1>  -0.0550 
  6 C        0.2190    -2.5540    -0.2420 C.3   1 <1>   0.1160 
  7 C       -1.6320    -1.0300    -0.3190 C.3   1 <1>   0.1160 
  8 C        1.7310     1.6780     0.6830 C.3   1 <1>  -0.0800 
  9 C        3.1870     1.6750     0.2070 C.3   1 <1>   0.2200 
 10 C        1.7230     0.6780     1.8470 C.3   1 <1>   0.1200 
 11 N        3.7960     2.9940     0.4950 N.am  1 <1>  -0.7300 
 12 C        3.8310     0.5940     1.0710 C.3   1 <1>   0.1200 
 13 O        3.0550     0.5520     2.2240 O.3   1 <1>  -0.5600 
 14 C        3.7310     4.0750    -0.3350 C.2   1 <1>   0.5440 
 15 O        3.1000     3.9650    -1.3670 O.2   1 <1>  -0.5700 
 16 C        4.3940     5.3230     0.0020 C.ar  1 <1>   0.0860 
 17 C        4.8110     6.2020    -0.9790 C.ar  1 <1>  -0.1500 
 18 C        4.6380     5.6900     1.3420 C.ar  1 <1>  -0.1500 
 19 C        5.4650     7.4060    -0.6930 C.ar  1 <1>   0.3100 
 20 C        5.2740     6.8620     1.6570 C.ar  1 <1>  -0.1500 
 21 N        5.8520     8.2120    -1.7180 N.ar  1 <1>  -0.6200 
 22 C        5.7070     7.7490     0.6610 C.ar  1 <1>   0.3100 
 23 C        6.4490     9.2980    -1.3370 C.ar  1 <1>   0.1600 
 24 N        6.3380     8.8970     1.0180 N.ar  1 <1>  -0.6200 
 25 C        6.6880     9.6350     0.0110 C.ar  1 <1>   0.1600 
 26 H        0.9110     2.1810    -1.2090 H     1 <1>   0.0800 
 27 H       -0.2710     1.6480    -0.0790 H     1 <1>   0.0800 
 28 H       -0.3460    -3.1400     0.4630 H     1 <1>   0.0800 
 29 H        1.2640    -2.6580    -0.0020 H     1 <1>   0.0800 
 30 H        0.0530    -2.9360    -1.2360 H     1 <1>   0.0800 
 31 H       -2.1300    -1.5890     0.4550 H     1 <1>   0.0800 
 32 H       -1.9410    -1.4100    -1.2790 H     1 <1>   0.0800 
 33 H       -1.9360     0.0000    -0.2430 H     1 <1>   0.0800 
 34 H        1.5030     2.6430     1.1020 H     1 <1>   0.0800 
 35 H        3.2970     1.4470    -0.8410 H     1 <1>   0.0800 
 36 H        1.3830    -0.2990     1.5610 H     1 <1>   0.0800 
 37 H        1.1510     1.0290     2.6890 H     1 <1>   0.0800 
 38 H        4.2620     3.0520     1.4010 H     1 <1>   0.3700 
 39 H        4.8530     0.8090     1.3240 H     1 <1>   0.0800 
 40 H        3.7650    -0.3680     0.5920 H     1 <1>   0.0800 
 41 H        4.6360     5.9680    -2.0140 H     1 <1>   0.1500 
 42 H        4.3100     5.0380     2.1320 H     1 <1>   0.1500 
 43 H        5.4580     7.1390     2.6790 H     1 <1>   0.1500 
 44 H        6.7850     9.9880    -2.0900 H     1 <1>   0.1500 
 45 H        7.1940    10.5640     0.2090 H     1 <1>   0.1500 
@<TRIPOS>BOND
  1   1   2  2   
  2   1   3  2   
  3   1   4  am  
  4   1   5  1   
  5   4   6  1   
  6   4   7  1   
  7   5   8  1   
  8   5  26  1   
  9   5  27  1   
 10   6  28  1   
 11   6  29  1   
 12   6  30  1   
 13   7  31  1   
 14   7  32  1   
 15   7  33  1   
 16   8   9  1   
 17   8  10  1   
 18   8  34  1   
 19   9  11  1   
 20   9  12  1   
 21   9  35  1   
 22  10  13  1   
 23  10  36  1   
 24  10  37  1   
 25  11  14  am  
 26  11  38  1   
 27  12  13  1   
 28  12  39  1   
 29  12  40  1   
 30  14  15  2   
 31  14  16  1   
 32  16  17  ar  
 33  16  18  ar  
 34  17  19  ar  
 35  17  41  1   
 36  18  20  ar  
 37  18  42  1   
 38  19  21  ar  
 39  19  22  ar  
 40  20  22  ar  
 41  20  43  1   
 42  21  23  ar  
 43  22  24  ar  
 44  23  25  ar  
 45  23  44  1   
 46  24  25  ar  
 47  25  45  1   
@<TRIPOS>SUBSTRUCTURE
  1 ****  14 GROUP 4 **** **** 0

# MOE 2024.06 (io_trps.svl 2023.06)
