@<TRIPOS>MOLECULE
NONAME
47 50 1 0 0 
SMALL
USER_CHARGES


@<TRIPOS>ATOM
  1 CL       0.2470    -2.4400    -2.3150 Cl    1 <1>  -0.1770 
  2 C        0.4760    -3.6330    -1.0600 C.ar  1 <1>   0.1770 
  3 C        0.0910    -3.3810     0.2530 C.ar  1 <1>  -0.1440 
  4 C        1.0450    -4.8390    -1.4280 C.ar  1 <1>  -0.1500 
  5 C        0.3020    -4.3770     1.1980 C.ar  1 <1>  -0.1500 
  6 C       -0.5420    -2.0630     0.7100 C.3   1 <1>   0.0450 
  7 C        1.2440    -5.8210    -0.4740 C.ar  1 <1>  -0.1500 
  8 C        0.8710    -5.5870     0.8380 C.ar  1 <1>  -0.1500 
  9 C       -1.8970    -2.3190     1.3550 C.2   1 <1>   0.5690 
 10 O       -1.9470    -2.3290     2.5600 O.2   1 <1>  -0.5700 
 11 N       -3.0070    -2.6370     0.6080 N.am  1 <1>  -0.6600 
 12 C       -4.2030    -3.2540     1.2640 C.3   1 <1>   0.1400 
 13 C       -3.0230    -2.8520    -0.8690 C.3   1 <1>   0.1400 
 14 C       -4.2650    -4.7780     0.9750 C.3   1 <1>   0.4230 
 15 C       -3.0630    -4.3620    -1.2050 C.3   1 <1>   0.3430 
 16 N       -3.1700    -5.2370     0.0240 N.4   1 <1>  -0.9590 
 17 C       -5.6590    -5.1870     0.4480 C.3   1 <1>   0.1200 
 18 C       -3.3170    -6.6990    -0.2700 C.3   1 <1>   0.5180 
 19 O       -5.7020    -6.5600     0.1790 O.3   1 <1>  -0.5600 
 20 C       -2.2050    -7.1410    -1.2420 C.3   1 <1>  -0.1950 
 21 C       -4.7550    -7.0210    -0.7480 C.3   1 <1>   0.1200 
 22 C       -2.2810    -7.0500    -2.7390 C.3   1 <1>  -0.2000 
 23 C       -2.2840    -8.3920    -2.0630 C.3   1 <1>  -0.2000 
 24 H        1.3390    -5.0020    -2.4500 H     1 <1>   0.1500 
 25 H        0.0380    -4.2090     2.2310 H     1 <1>   0.1500 
 26 H       -0.6520    -1.3530    -0.0870 H     1 <1>   0.0800 
 27 H        0.1020    -1.6090     1.4420 H     1 <1>   0.0800 
 28 H        1.6980    -6.7590    -0.7490 H     1 <1>   0.1500 
 29 H        1.0390    -6.3450     1.5860 H     1 <1>   0.1500 
 30 H       -4.1830    -3.0990     2.3290 H     1 <1>   0.0800 
 31 H       -5.0900    -2.7640     0.9000 H     1 <1>   0.0800 
 32 H       -3.8980    -2.3780    -1.2810 H     1 <1>   0.0800 
 33 H       -2.1790    -2.3910    -1.3430 H     1 <1>   0.0800 
 34 H       -4.1320    -5.2820     1.9190 H     1 <1>   0.0800 
 35 H       -2.1640    -4.6120    -1.7460 H     1 <1>   0.0800 
 36 H       -3.8940    -4.5500    -1.8640 H     1 <1>   0.0800 
 37 H       -2.2840    -5.1060     0.5310 H     1 <1>   0.4500 
 38 H       -5.9130    -4.6520    -0.4500 H     1 <1>   0.0800 
 39 H       -6.4110    -4.9820     1.1910 H     1 <1>   0.0800 
 40 H       -3.1710    -7.2470     0.6470 H     1 <1>   0.0800 
 41 H       -1.2420    -6.9780    -0.7920 H     1 <1>   0.1000 
 42 H       -4.8850    -8.0860    -0.8300 H     1 <1>   0.0800 
 43 H       -4.9630    -6.5770    -1.7040 H     1 <1>   0.0800 
 44 H       -3.1840    -6.7600    -3.2470 H     1 <1>   0.1000 
 45 H       -1.3990    -6.7710    -3.2920 H     1 <1>   0.1000 
 46 H       -1.4050    -9.0090    -2.1550 H     1 <1>   0.1000 
 47 H       -3.1860    -8.9770    -2.1170 H     1 <1>   0.1000 
@<TRIPOS>BOND
  1   1   2  1   
  2   2   3  ar  
  3   2   4  ar  
  4   3   5  ar  
  5   3   6  1   
  6   4   7  ar  
  7   4  24  1   
  8   5   8  ar  
  9   5  25  1   
 10   6   9  1   
 11   6  26  1   
 12   6  27  1   
 13   7   8  ar  
 14   7  28  1   
 15   8  29  1   
 16   9  10  2   
 17   9  11  am  
 18  11  12  1   
 19  11  13  1   
 20  12  14  1   
 21  12  30  1   
 22  12  31  1   
 23  13  15  1   
 24  13  32  1   
 25  13  33  1   
 26  14  16  1   
 27  14  17  1   
 28  14  34  1   
 29  15  16  1   
 30  15  35  1   
 31  15  36  1   
 32  16  18  1   
 33  16  37  1   
 34  17  19  1   
 35  17  38  1   
 36  17  39  1   
 37  18  20  1   
 38  18  21  1   
 39  18  40  1   
 40  19  21  1   
 41  20  22  1   
 42  20  23  1   
 43  20  41  1   
 44  21  42  1   
 45  21  43  1   
 46  22  23  1   
 47  22  44  1   
 48  22  45  1   
 49  23  46  1   
 50  23  47  1   
@<TRIPOS>SUBSTRUCTURE
  1 ****  16 GROUP 4 **** **** 0

# MOE 2024.06 (io_trps.svl 2023.06)
