@<TRIPOS>MOLECULE
NONAME
47 48 1 0 0 
SMALL
USER_CHARGES


@<TRIPOS>ATOM
  1 O        0.0540    -0.6260     0.5410 O.2   1 <1>  -0.5700 
  2 C        1.1830    -0.9650     0.8230 C.2   1 <1>   0.5690 
  3 N        2.2850    -0.2230     0.4870 N.am  1 <1>  -0.4930 
  4 C        1.3840    -2.3150     1.5720 C.3   1 <1>   0.4840 
  5 C        2.3390     0.9930    -0.2430 C.2   1 <1>   0.0630 
  6 N        0.2340    -3.3130     1.4890 N.4   1 <1>  -0.9590 
  7 C        1.7670    -2.0950     3.0410 C.3   1 <1>  -0.2400 
  8 C        3.4850     1.7290    -0.5560 C.2   1 <1>   0.1080 
  9 C        1.3310     1.7000    -0.7930 C.2   1 <1>  -0.3020 
 10 C       -0.1210    -3.6540     0.0660 C.3   1 <1>   0.4230 
 11 C       -0.9770    -2.8070     2.2310 C.3   1 <1>   0.2630 
 12 N        3.2130     2.7950    -1.2400 N.2   1 <1>  -0.7070 
 13 C        4.9050     1.3750    -0.1720 C.3   1 <1>  -0.0590 
 14 N        1.8780     2.7800    -1.3860 N.pl3 1 <1>   0.3140 
 15 C       -1.2160    -4.7390     0.0360 C.3   1 <1>  -0.1600 
 16 C        1.1240    -4.1420    -0.7050 C.3   1 <1>  -0.1600 
 17 C        1.1640     3.8360    -2.1120 C.3   1 <1>   0.0160 
 18 C       -1.5490    -5.1900    -1.3930 C.3   1 <1>  -0.1600 
 19 C        0.7830    -4.5950    -2.1320 C.3   1 <1>  -0.1600 
 20 C       -0.2990    -5.6760    -2.1290 C.3   1 <1>  -0.1600 
 21 H        3.2040    -0.5410     0.7910 H     1 <1>   0.3700 
 22 H        2.2380    -2.7780     1.1110 H     1 <1>   0.0800 
 23 H        0.5410    -4.1850     1.9340 H     1 <1>   0.4500 
 24 H        1.0420    -1.4800     3.5450 H     1 <1>   0.0800 
 25 H        2.7100    -1.5820     3.0940 H     1 <1>   0.0800 
 26 H        1.8720    -3.0320     3.5560 H     1 <1>   0.0800 
 27 H        0.2750     1.5030    -0.7960 H     1 <1>   0.1500 
 28 H       -0.5030    -2.7730    -0.4280 H     1 <1>   0.0800 
 29 H       -1.3870    -1.9400     1.7380 H     1 <1>   0.0800 
 30 H       -0.7230    -2.5370     3.2420 H     1 <1>   0.0800 
 31 H       -1.7400    -3.5650     2.2770 H     1 <1>   0.0800 
 32 H        5.1840     0.4380    -0.6150 H     1 <1>   0.0800 
 33 H        4.9930     1.3170     0.8970 H     1 <1>   0.0800 
 34 H        5.5760     2.1360    -0.5290 H     1 <1>   0.0800 
 35 H       -2.1300    -4.3710     0.4640 H     1 <1>   0.0800 
 36 H       -0.8930    -5.5980     0.5980 H     1 <1>   0.0800 
 37 H        1.5730    -4.9700    -0.1840 H     1 <1>   0.0800 
 38 H        1.8490    -3.3560    -0.8020 H     1 <1>   0.0800 
 39 H        0.3220     4.1600    -1.5300 H     1 <1>   0.0800 
 40 H        0.8330     3.4490    -3.0570 H     1 <1>   0.0800 
 41 H        1.8310     4.6620    -2.2750 H     1 <1>   0.0800 
 42 H       -1.9860    -4.3700    -1.9390 H     1 <1>   0.0800 
 43 H       -2.2770    -5.9840    -1.3630 H     1 <1>   0.0800 
 44 H        1.6680    -4.9780    -2.6130 H     1 <1>   0.0800 
 45 H        0.4400    -3.7510    -2.7070 H     1 <1>   0.0800 
 46 H       -0.5550    -5.9320    -3.1440 H     1 <1>   0.0800 
 47 H        0.0780    -6.5680    -1.6550 H     1 <1>   0.0800 
@<TRIPOS>BOND
  1   1   2  2   
  2   2   3  am  
  3   2   4  1   
  4   3   5  1   
  5   3  21  1   
  6   4   6  1   
  7   4   7  1   
  8   4  22  1   
  9   5   8  1   
 10   5   9  2   
 11   6  10  1   
 12   6  11  1   
 13   6  23  1   
 14   7  24  1   
 15   7  25  1   
 16   7  26  1   
 17   8  12  2   
 18   8  13  1   
 19   9  14  1   
 20   9  27  1   
 21  10  15  1   
 22  10  16  1   
 23  10  28  1   
 24  11  29  1   
 25  11  30  1   
 26  11  31  1   
 27  12  14  1   
 28  13  32  1   
 29  13  33  1   
 30  13  34  1   
 31  14  17  1   
 32  15  18  1   
 33  15  35  1   
 34  15  36  1   
 35  16  19  1   
 36  16  37  1   
 37  16  38  1   
 38  17  39  1   
 39  17  40  1   
 40  17  41  1   
 41  18  20  1   
 42  18  42  1   
 43  18  43  1   
 44  19  20  1   
 45  19  44  1   
 46  19  45  1   
 47  20  46  1   
 48  20  47  1   
@<TRIPOS>SUBSTRUCTURE
  1 ****   2 GROUP 4 **** **** 0

# MOE 2024.06 (io_trps.svl 2023.06)
