@<TRIPOS>MOLECULE
NONAME
51 53 1 0 0 
SMALL
USER_CHARGES


@<TRIPOS>ATOM
  1 O       -0.2810    -0.0660     0.4470 O.2   1 <1>  -0.5700 
  2 C       -0.2770     1.1340     0.2420 C.2   1 <1>   0.6900 
  3 N       -1.4450     1.8520     0.2930 N.am  1 <1>  -0.6600 
  4 N        0.8860     1.8040    -0.0140 N.am  1 <1>  -0.5470 
  5 C       -2.6800     1.2330     0.8570 C.3   1 <1>   0.1400 
  6 C       -1.5880     3.2210    -0.2860 C.3   1 <1>   0.1400 
  7 C        2.1990     1.3590    -0.2240 C.ar  1 <1>   0.1170 
  8 C       -3.5370     2.3040     1.5390 C.3   1 <1>  -0.1600 
  9 C       -3.0440     3.5000    -0.6610 C.3   1 <1>  -0.1600 
 10 C        3.2450     2.2480    -0.0130 C.ar  1 <1>  -0.1500 
 11 C        2.5040     0.0720    -0.6550 C.ar  1 <1>  -0.1500 
 12 C       -3.9710     3.4350     0.5730 C.3   1 <1>   0.2800 
 13 C        4.5610     1.8730    -0.2170 C.ar  1 <1>   0.0830 
 14 C        3.8150    -0.3160    -0.8620 C.ar  1 <1>  -0.1500 
 15 O       -3.7310     4.6420     1.2680 O.3   1 <1>  -0.5600 
 16 C       -5.4780     3.2830     0.1890 C.3   1 <1>   0.2000 
 17 O        5.5080     2.8170     0.0190 O.3   1 <1>  -0.3630 
 18 C        4.8480     0.5790    -0.6450 C.ar  1 <1>  -0.1500 
 19 C       -4.7880     5.5290     1.5010 C.3   1 <1>   0.1200 
 20 O       -5.7150     2.1510    -0.6000 O.3   1 <1>  -0.6800 
 21 C       -6.1030     4.5650    -0.4370 C.3   1 <1>   0.2800 
 22 C        6.8800     2.5280    -0.1300 C.3   1 <1>   0.0400 
 23 C       -5.4850     5.8360     0.1740 C.3   1 <1>  -0.1600 
 24 O       -7.4450     4.5560    -0.1010 O.3   1 <1>  -0.6800 
 25 C       -6.0780     4.6350    -1.9710 C.3   1 <1>  -0.2400 
 26 H        0.7770     2.8060     0.0840 H     1 <1>   0.3700 
 27 H       -3.2360     0.7630     0.0640 H     1 <1>   0.0800 
 28 H       -2.4140     0.4760     1.5750 H     1 <1>   0.0800 
 29 H       -1.2620     3.9460     0.4410 H     1 <1>   0.0800 
 30 H       -0.9740     3.3090    -1.1660 H     1 <1>   0.0800 
 31 H       -2.9630     2.7110     2.3520 H     1 <1>   0.0800 
 32 H       -4.3970     1.8220     1.9650 H     1 <1>   0.0800 
 33 H       -3.3430     2.7740    -1.3970 H     1 <1>   0.0800 
 34 H       -3.1100     4.4690    -1.1170 H     1 <1>   0.0800 
 35 H        3.0430     3.2470     0.3200 H     1 <1>   0.1500 
 36 H        1.7130    -0.6340    -0.8330 H     1 <1>   0.1500 
 37 H        4.0290    -1.3180    -1.1920 H     1 <1>   0.1500 
 38 H       -6.0030     3.1020     1.1110 H     1 <1>   0.0800 
 39 H        5.8570     0.2540    -0.8120 H     1 <1>   0.1500 
 40 H       -5.4640     5.0880     2.2150 H     1 <1>   0.0800 
 41 H       -4.3710     6.4260     1.9260 H     1 <1>   0.0800 
 42 H       -6.6760     2.1030    -0.7810 H     1 <1>   0.4000 
 43 H        7.4360     3.4130     0.1200 H     1 <1>   0.0800 
 44 H        7.0700     2.2530    -1.1520 H     1 <1>   0.0800 
 45 H        7.1430     1.7290     0.5410 H     1 <1>   0.0800 
 46 H       -4.7420     6.2420    -0.4880 H     1 <1>   0.0800 
 47 H       -6.2320     6.5950     0.3200 H     1 <1>   0.0800 
 48 H       -7.8980     5.3000    -0.5400 H     1 <1>   0.4000 
 49 H       -5.0690     4.5800    -2.3340 H     1 <1>   0.0800 
 50 H       -6.5030     5.5600    -2.3170 H     1 <1>   0.0800 
 51 H       -6.6260     3.8170    -2.4020 H     1 <1>   0.0800 
@<TRIPOS>BOND
  1   1   2  2   
  2   2   3  am  
  3   2   4  am  
  4   3   5  1   
  5   3   6  1   
  6   4   7  1   
  7   4  26  1   
  8   5   8  1   
  9   5  27  1   
 10   5  28  1   
 11   6   9  1   
 12   6  29  1   
 13   6  30  1   
 14   7  10  ar  
 15   7  11  ar  
 16   8  12  1   
 17   8  31  1   
 18   8  32  1   
 19   9  12  1   
 20   9  33  1   
 21   9  34  1   
 22  10  13  ar  
 23  10  35  1   
 24  11  14  ar  
 25  11  36  1   
 26  12  15  1   
 27  12  16  1   
 28  13  17  1   
 29  13  18  ar  
 30  14  18  ar  
 31  14  37  1   
 32  15  19  1   
 33  16  20  1   
 34  16  21  1   
 35  16  38  1   
 36  17  22  1   
 37  18  39  1   
 38  19  23  1   
 39  19  40  1   
 40  19  41  1   
 41  20  42  1   
 42  21  23  1   
 43  21  24  1   
 44  21  25  1   
 45  22  43  1   
 46  22  44  1   
 47  22  45  1   
 48  23  46  1   
 49  23  47  1   
 50  24  48  1   
 51  25  49  1   
 52  25  50  1   
 53  25  51  1   
@<TRIPOS>SUBSTRUCTURE
  1 ****   6 GROUP 4 **** **** 0

# MOE 2024.06 (io_trps.svl 2023.06)
