@<TRIPOS>MOLECULE
NONAME
51 53 1 0 0 
SMALL
USER_CHARGES


@<TRIPOS>ATOM
  1 F       -0.4770     0.6630     0.3400 F     1 <1>  -0.1900 
  2 C       -1.7670     0.8860     0.3220 C.ar  1 <1>   0.1900 
  3 C       -2.3520     1.7810    -0.5810 C.ar  1 <1>   0.0830 
  4 C       -2.5240     0.1920     1.2460 C.ar  1 <1>  -0.1500 
  5 O       -1.7160     2.5200    -1.5350 O.3   1 <1>  -0.3630 
  6 C       -3.7260     1.9500    -0.5180 C.ar  1 <1>  -0.1500 
  7 C       -3.8920     0.3850     1.2810 C.ar  1 <1>  -0.1500 
  8 C       -0.3280     2.4390    -1.7720 C.3   1 <1>   0.0400 
  9 C       -4.5240     1.2630     0.3990 C.ar  1 <1>   0.0530 
 10 C       -5.9490     1.4780     0.4310 C.2   1 <1>   0.0870 
 11 O       -6.4180     2.6890     0.2630 O.3   1 <1>  -0.0190 
 12 C       -7.0210     0.6600     0.6200 C.2   1 <1>  -0.0860 
 13 N       -7.7210     2.7480     0.3320 N.2   1 <1>  -0.4100 
 14 C       -8.1100     1.5410     0.5440 C.2   1 <1>   0.3720 
 15 C       -7.0990    -0.7550     0.8270 C.2   1 <1>   0.7160 
 16 N       -9.4630     1.1800     0.6590 N.pl3 1 <1>  -0.8210 
 17 O       -6.1660    -1.4940     0.5720 O.2   1 <1>  -0.5700 
 18 N       -8.2450    -1.3170     1.2950 N.am  1 <1>  -0.7300 
 19 C      -10.0710     0.7460    -0.6310 C.3   1 <1>   0.1290 
 20 C      -10.3190     2.1790     1.3590 C.3   1 <1>   0.1290 
 21 C       -8.5690    -2.7630     1.2580 C.3   1 <1>   0.1400 
 22 C       -8.9740    -3.2040    -0.1570 C.3   1 <1>   0.2000 
 23 O      -10.0590    -2.4110    -0.6080 O.3   1 <1>  -0.2170 
 24 C       -9.5080    -4.6340    -0.2380 C.3   1 <1>  -0.0990 
 25 N      -11.1010    -3.1380    -0.9570 N.2   1 <1>  -0.5130 
 26 C      -10.8750    -4.3600    -0.7860 C.2   1 <1>   0.3280 
 27 C      -11.8060    -5.5330    -1.0640 C.3   1 <1>  -0.0990 
 28 C      -13.1770    -5.1110    -1.6140 C.3   1 <1>  -0.2400 
 29 H       -2.0470    -0.4890     1.9270 H     1 <1>   0.1500 
 30 H       -4.1880     2.6350    -1.2060 H     1 <1>   0.1500 
 31 H       -4.4800    -0.1530     2.0030 H     1 <1>   0.1500 
 32 H       -0.0890     3.0990    -2.5860 H     1 <1>   0.0800 
 33 H       -0.0760     1.4280    -2.0370 H     1 <1>   0.0800 
 34 H        0.1980     2.7500    -0.8860 H     1 <1>   0.0800 
 35 H       -9.0540    -0.6750     1.2830 H     1 <1>   0.3700 
 36 H       -9.3840     0.1220    -1.1770 H     1 <1>   0.0800 
 37 H      -10.3110     1.6040    -1.2370 H     1 <1>   0.0800 
 38 H      -10.9690     0.1810    -0.4440 H     1 <1>   0.0800 
 39 H       -9.8390     2.4980     2.2680 H     1 <1>   0.0800 
 40 H      -11.2700     1.7390     1.6050 H     1 <1>   0.0800 
 41 H      -10.4770     3.0390     0.7300 H     1 <1>   0.0800 
 42 H       -9.3720    -2.9630     1.9460 H     1 <1>   0.0800 
 43 H       -7.7070    -3.3270     1.5740 H     1 <1>   0.0800 
 44 H       -8.1580    -3.0620    -0.8440 H     1 <1>   0.0800 
 45 H       -9.5610    -5.1070     0.7250 H     1 <1>   0.0800 
 46 H       -8.9230    -5.2260    -0.9170 H     1 <1>   0.0800 
 47 H      -11.9500    -6.0810    -0.1500 H     1 <1>   0.0800 
 48 H      -11.3320    -6.1860    -1.7740 H     1 <1>   0.0800 
 49 H      -13.6790    -4.4690    -0.9110 H     1 <1>   0.0800 
 50 H      -13.7920    -5.9760    -1.7900 H     1 <1>   0.0800 
 51 H      -13.0590    -4.5770    -2.5400 H     1 <1>   0.0800 
@<TRIPOS>BOND
  1   1   2  1   
  2   2   3  ar  
  3   2   4  ar  
  4   3   5  1   
  5   3   6  ar  
  6   4   7  ar  
  7   4  29  1   
  8   5   8  1   
  9   6   9  ar  
 10   6  30  1   
 11   7   9  ar  
 12   7  31  1   
 13   8  32  1   
 14   8  33  1   
 15   8  34  1   
 16   9  10  1   
 17  10  11  1   
 18  10  12  2   
 19  11  13  1   
 20  12  14  1   
 21  12  15  1   
 22  13  14  2   
 23  14  16  1   
 24  15  17  2   
 25  15  18  am  
 26  16  19  1   
 27  16  20  1   
 28  18  21  1   
 29  18  35  1   
 30  19  36  1   
 31  19  37  1   
 32  19  38  1   
 33  20  39  1   
 34  20  40  1   
 35  20  41  1   
 36  21  22  1   
 37  21  42  1   
 38  21  43  1   
 39  22  23  1   
 40  22  24  1   
 41  22  44  1   
 42  23  25  1   
 43  24  26  1   
 44  24  45  1   
 45  24  46  1   
 46  25  26  2   
 47  26  27  1   
 48  27  28  1   
 49  27  47  1   
 50  27  48  1   
 51  28  49  1   
 52  28  50  1   
 53  28  51  1   
@<TRIPOS>SUBSTRUCTURE
  1 ****  15 GROUP 4 **** **** 0

# MOE 2024.06 (io_trps.svl 2023.06)
