@<TRIPOS>MOLECULE
NONAME
23 23 1 0 0 
SMALL
USER_CHARGES


@<TRIPOS>ATOM
  1 O       -1.3550     0.1620    -0.1620 O.co2 1 <1>  -0.9000 
  2 C       -1.3150    -0.8390     0.5530 C.2   1 <1>   0.9060 
  3 O       -1.3120    -0.8030     1.7870 O.co2 1 <1>  -0.9000 
  4 C       -1.3140    -2.2070    -0.1170 C.3   1 <1>  -0.1860 
  5 C       -2.5840    -2.9680     0.3170 C.3   1 <1>  -0.1600 
  6 C        0.0230    -2.9260     0.1630 C.3   1 <1>  -0.1600 
  7 C       -2.8120    -4.2260    -0.5080 C.3   1 <1>   0.3430 
  8 C        0.0930    -4.4000    -0.2570 C.3   1 <1>  -0.1600 
  9 N       -2.1760    -5.4260     0.1070 N.4   1 <1>  -0.9060 
 10 C       -0.7930    -5.2590     0.6420 C.3   1 <1>   0.3430 
 11 H       -1.3770    -2.0200    -1.1740 H     1 <1>   0.0800 
 12 H       -3.4170    -2.3090     0.1370 H     1 <1>   0.0800 
 13 H       -2.5740    -3.1690     1.3740 H     1 <1>   0.0800 
 14 H        0.8000    -2.3780    -0.3450 H     1 <1>   0.0800 
 15 H        0.2410    -2.8500     1.2170 H     1 <1>   0.0800 
 16 H       -2.4180    -4.0630    -1.4980 H     1 <1>   0.0800 
 17 H       -3.8730    -4.3950    -0.6000 H     1 <1>   0.0800 
 18 H        1.1100    -4.7200    -0.1120 H     1 <1>   0.0800 
 19 H       -0.1360    -4.5270    -1.3000 H     1 <1>   0.0800 
 20 H       -2.7730    -5.7280     0.8860 H     1 <1>   0.4500 
 21 H       -2.1750    -6.1810    -0.5860 H     1 <1>   0.4500 
 22 H       -0.8350    -4.7970     1.6170 H     1 <1>   0.0800 
 23 H       -0.3410    -6.2310     0.7600 H     1 <1>   0.0800 
@<TRIPOS>BOND
  1   1   2  ar  
  2   2   3  ar  
  3   2   4  1   
  4   4   5  1   
  5   4   6  1   
  6   4  11  1   
  7   5   7  1   
  8   5  12  1   
  9   5  13  1   
 10   6   8  1   
 11   6  14  1   
 12   6  15  1   
 13   7   9  1   
 14   7  16  1   
 15   7  17  1   
 16   8  10  1   
 17   8  18  1   
 18   8  19  1   
 19   9  10  1   
 20   9  20  1   
 21   9  21  1   
 22  10  22  1   
 23  10  23  1   
@<TRIPOS>SUBSTRUCTURE
  1 ****   4 GROUP 4 **** **** 0

# MOE 2024.06 (io_trps.svl 2023.06)
