@<TRIPOS>MOLECULE
NONAME
44 47 1 0 0 
SMALL
USER_CHARGES


@<TRIPOS>ATOM
  1 CL      -1.0880     1.7790     2.5610 Cl    1 <1>  -0.1770 
  2 C       -0.0690     2.6140     1.4130 C.ar  1 <1>   0.1770 
  3 C        0.1800     3.9550     1.5750 C.ar  1 <1>  -0.1500 
  4 C        0.4710     1.8820     0.3500 C.ar  1 <1>  -0.1500 
  5 C        1.0000     4.6000     0.6420 C.ar  1 <1>   0.0000 
  6 C        1.2780     2.5090    -0.5710 C.ar  1 <1>  -0.1500 
  7 C        1.5400     3.8750    -0.4170 C.ar  1 <1>  -0.1520 
  8 C        1.4570     5.9200     0.4920 C.2   1 <1>  -0.1500 
  9 N        2.2930     4.7300    -1.1750 N.pl3 1 <1>   0.0330 
 10 C        2.2530     5.9850    -0.6170 C.2   1 <1>  -0.2370 
 11 C        2.9610     7.0890    -1.1990 C.2   1 <1>   0.7150 
 12 O        3.6370     6.9520    -2.2020 O.2   1 <1>  -0.5700 
 13 N        2.9870     8.3140    -0.5940 N.am  1 <1>  -0.6600 
 14 C        3.8790     8.4520     0.6080 C.3   1 <1>   0.2200 
 15 C        2.6770     9.5220    -1.4190 C.3   1 <1>   0.1400 
 16 C        3.5000     9.6420     1.5040 C.3   1 <1>   0.1200 
 17 C        5.3700     8.5310     0.1850 C.3   1 <1>   0.3430 
 18 C        3.6970    10.6720    -1.3030 C.3   1 <1>  -0.0800 
 19 O        4.1360    10.8060     1.0690 O.3   1 <1>  -0.5600 
 20 N        5.5570     8.8960    -1.2650 N.4   1 <1>  -0.9590 
 21 C        3.5330    11.4620     0.0050 C.3   1 <1>   0.1200 
 22 C        5.1700    10.3070    -1.5880 C.3   1 <1>   0.3430 
 23 C        6.9380     8.5890    -1.7330 C.3   1 <1>   0.2630 
 24 H       -0.2430     4.5030     2.3950 H     1 <1>   0.1500 
 25 H        0.2430     0.8350     0.2720 H     1 <1>   0.1500 
 26 H        1.7030     1.9660    -1.3980 H     1 <1>   0.1500 
 27 H        1.1920     6.7200     1.1610 H     1 <1>   0.1500 
 28 H        2.7890     4.4860    -2.0400 H     1 <1>   0.2700 
 29 H        3.7560     7.5700     1.2120 H     1 <1>   0.0800 
 30 H        2.6030     9.2320    -2.4550 H     1 <1>   0.0800 
 31 H        1.7030     9.8830    -1.1320 H     1 <1>   0.0800 
 32 H        3.8560     9.4580     2.5030 H     1 <1>   0.0800 
 33 H        2.4350     9.7910     1.5490 H     1 <1>   0.0800 
 34 H        5.8100     7.5640     0.3600 H     1 <1>   0.0800 
 35 H        5.8870     9.2370     0.8150 H     1 <1>   0.0800 
 36 H        3.4200    11.3740    -2.0680 H     1 <1>   0.0800 
 37 H        4.8920     8.2800    -1.7820 H     1 <1>   0.4500 
 38 H        2.4960    11.6390     0.2410 H     1 <1>   0.0800 
 39 H        4.0200    12.4190    -0.0840 H     1 <1>   0.0800 
 40 H        5.8060    10.9870    -1.0450 H     1 <1>   0.0800 
 41 H        5.3490    10.4690    -2.6390 H     1 <1>   0.0800 
 42 H        7.6560     9.1960    -1.2060 H     1 <1>   0.0800 
 43 H        7.0260     8.7840    -2.7890 H     1 <1>   0.0800 
 44 H        7.1670     7.5500    -1.5590 H     1 <1>   0.0800 
@<TRIPOS>BOND
  1   1   2  1   
  2   2   3  ar  
  3   2   4  ar  
  4   3   5  ar  
  5   3  24  1   
  6   4   6  ar  
  7   4  25  1   
  8   5   7  ar  
  9   5   8  1   
 10   6   7  ar  
 11   6  26  1   
 12   7   9  1   
 13   8  10  2   
 14   8  27  1   
 15   9  10  1   
 16   9  28  1   
 17  10  11  1   
 18  11  12  2   
 19  11  13  am  
 20  13  14  1   
 21  13  15  1   
 22  14  16  1   
 23  14  17  1   
 24  14  29  1   
 25  15  18  1   
 26  15  30  1   
 27  15  31  1   
 28  16  19  1   
 29  16  32  1   
 30  16  33  1   
 31  17  20  1   
 32  17  34  1   
 33  17  35  1   
 34  18  21  1   
 35  18  22  1   
 36  18  36  1   
 37  19  21  1   
 38  20  22  1   
 39  20  23  1   
 40  20  37  1   
 41  21  38  1   
 42  21  39  1   
 43  22  40  1   
 44  22  41  1   
 45  23  42  1   
 46  23  43  1   
 47  23  44  1   
@<TRIPOS>SUBSTRUCTURE
  1 ****  10 GROUP 4 **** **** 0

# MOE 2024.06 (io_trps.svl 2023.06)
