@<TRIPOS>MOLECULE
NONAME
49 53 1 0 0 
SMALL
USER_CHARGES


@<TRIPOS>ATOM
  1 O        0.6480     0.9660     0.3850 O.3   1 <1>  -0.3630 
  2 C        0.1930     2.2320     0.4870 C.ar  1 <1>   0.3920 
  3 C       -0.2000    -0.1470     0.2130 C.3   1 <1>   0.0400 
  4 N        1.1230     3.1350     0.6770 N.ar  1 <1>  -0.6200 
  5 C       -1.1420     2.5590     0.3980 C.ar  1 <1>  -0.1500 
  6 C        0.6920     4.3760     0.7790 C.ar  1 <1>   0.7200 
  7 C       -1.4620     3.8930     0.5200 C.ar  1 <1>   0.3920 
  8 N       -0.5520     4.8120     0.7130 N.ar  1 <1>  -0.6200 
  9 N        1.6890     5.2660     0.9850 N.pl3 1 <1>  -0.8690 
 10 O       -2.7250     4.3570     0.4480 O.3   1 <1>  -0.3630 
 11 C        1.7930     6.6210     0.4270 C.3   1 <1>   0.3690 
 12 C       -3.8460     3.5180     0.2810 C.3   1 <1>   0.0400 
 13 C        3.2640     7.0410     0.5640 C.3   1 <1>  -0.1600 
 14 C        1.4050     6.6590    -1.0640 C.3   1 <1>  -0.1600 
 15 C        0.9210     7.6070     1.2250 C.3   1 <1>  -0.1600 
 16 C        3.4820     8.4740     0.0170 C.3   1 <1>   0.2560 
 17 C        1.5860     8.0830    -1.6200 C.3   1 <1>  -0.0800 
 18 C        1.0980     9.0340     0.6750 C.3   1 <1>  -0.0800 
 19 N        4.9250     8.8970     0.1420 N.pl3 1 <1>   0.5800 
 20 C        3.0600     8.5000    -1.4720 C.3   1 <1>  -0.1600 
 21 C        2.5750     9.4460     0.8110 C.3   1 <1>  -0.1600 
 22 C        0.7020     9.0560    -0.8140 C.3   1 <1>  -0.1600 
 23 N        5.3550    10.1130    -0.1870 N.2   1 <1>  -0.4180 
 24 N        5.9050     8.1150     0.5730 N.2   1 <1>  -0.7070 
 25 N        6.6100    10.1220     0.0320 N.2   1 <1>  -0.2270 
 26 C        6.9020     8.9120     0.4860 C.2   1 <1>   0.3660 
 27 H        0.4140    -1.0290     0.1760 H     1 <1>   0.0800 
 28 H       -0.7380    -0.0390    -0.7130 H     1 <1>   0.0800 
 29 H       -0.8740    -0.2070     1.0490 H     1 <1>   0.0800 
 30 H       -1.8910     1.8160     0.2420 H     1 <1>   0.1500 
 31 H        2.5790     4.7740     1.0030 H     1 <1>   0.4000 
 32 H       -4.7250     4.1380     0.2710 H     1 <1>   0.0800 
 33 H       -3.8950     2.8310     1.1070 H     1 <1>   0.0800 
 34 H       -3.7590     2.9970    -0.6560 H     1 <1>   0.0800 
 35 H        3.8810     6.3510     0.0170 H     1 <1>   0.0800 
 36 H        3.5460     7.0070     1.6020 H     1 <1>   0.0800 
 37 H        0.3770     6.3730    -1.1870 H     1 <1>   0.0800 
 38 H        2.0130     5.9660    -1.6190 H     1 <1>   0.0800 
 39 H        1.1930     7.5740     2.2650 H     1 <1>   0.0800 
 40 H       -0.1140     7.3310     1.1460 H     1 <1>   0.0800 
 41 H        1.3000     8.1070    -2.6590 H     1 <1>   0.0800 
 42 H        0.4740     9.7160     1.2280 H     1 <1>   0.0800 
 43 H        3.6820     7.8280    -2.0390 H     1 <1>   0.0800 
 44 H        3.1890     9.4910    -1.8730 H     1 <1>   0.0800 
 45 H        2.6950    10.4500     0.4400 H     1 <1>   0.0800 
 46 H        2.8550     9.4400     1.8500 H     1 <1>   0.0800 
 47 H       -0.3330     8.7740    -0.9170 H     1 <1>   0.0800 
 48 H        0.8050    10.0540    -1.2060 H     1 <1>   0.0800 
 49 H        7.9110     8.6460     0.7530 H     1 <1>   0.1500 
@<TRIPOS>BOND
  1   1   2  1   
  2   1   3  1   
  3   2   4  ar  
  4   2   5  ar  
  5   3  27  1   
  6   3  28  1   
  7   3  29  1   
  8   4   6  ar  
  9   5   7  ar  
 10   5  30  1   
 11   6   8  ar  
 12   6   9  1   
 13   7   8  ar  
 14   7  10  1   
 15   9  11  1   
 16   9  31  1   
 17  10  12  1   
 18  11  13  1   
 19  11  14  1   
 20  11  15  1   
 21  12  32  1   
 22  12  33  1   
 23  12  34  1   
 24  13  16  1   
 25  13  35  1   
 26  13  36  1   
 27  14  17  1   
 28  14  37  1   
 29  14  38  1   
 30  15  18  1   
 31  15  39  1   
 32  15  40  1   
 33  16  19  1   
 34  16  20  1   
 35  16  21  1   
 36  17  20  1   
 37  17  22  1   
 38  17  41  1   
 39  18  21  1   
 40  18  22  1   
 41  18  42  1   
 42  19  23  1   
 43  19  24  1   
 44  20  43  1   
 45  20  44  1   
 46  21  45  1   
 47  21  46  1   
 48  22  47  1   
 49  22  48  1   
 50  23  25  2   
 51  24  26  2   
 52  25  26  1   
 53  26  49  1   
@<TRIPOS>SUBSTRUCTURE
  1 ****  11 GROUP 4 **** **** 0

# MOE 2024.06 (io_trps.svl 2023.06)
