@<TRIPOS>MOLECULE
NONAME
46 47 1 0 0 
SMALL
USER_CHARGES


@<TRIPOS>ATOM
  1 S       -1.4660    -0.4870    -0.8020 S.3   1 <1>  -0.4600 
  2 C       -2.8190    -1.6730    -1.1370 C.3   1 <1>   0.1310 
  3 C       -0.7700    -0.1740    -2.4450 C.3   1 <1>  -0.0100 
  4 C       -3.4330    -2.2230     0.1480 C.2   1 <1>   0.5690 
  5 O       -3.2140    -3.3850     0.4090 O.2   1 <1>  -0.5700 
  6 N       -4.2470    -1.4560     0.9450 N.am  1 <1>  -0.6600 
  7 C       -4.9550    -2.0690     2.1050 C.3   1 <1>   0.1400 
  8 C       -4.6450    -0.0530     0.6550 C.3   1 <1>   0.1400 
  9 C       -6.2160    -2.8370     1.6690 C.3   1 <1>   0.1400 
 10 C       -5.9810     0.0060    -0.0960 C.3   1 <1>  -0.1600 
 11 N       -6.9570    -2.1960     0.5300 N.am  1 <1>  -0.6600 
 12 C       -7.1430    -0.7200     0.5980 C.3   1 <1>   0.1400 
 13 C       -7.3530    -2.9030    -0.5890 C.2   1 <1>   0.5440 
 14 O       -7.8070    -2.2960    -1.5420 O.2   1 <1>  -0.5700 
 15 C       -7.2430    -4.3490    -0.6520 C.ar  1 <1>   0.0860 
 16 C       -8.3060    -5.2040    -0.3300 C.ar  1 <1>  -0.1440 
 17 C       -6.0320    -4.9260    -1.0350 C.ar  1 <1>  -0.1500 
 18 C       -8.1390    -6.5780    -0.3960 C.ar  1 <1>  -0.1500 
 19 C       -9.6650    -4.6550     0.0950 C.3   1 <1>  -0.0170 
 20 C       -5.8700    -6.2960    -1.0950 C.ar  1 <1>  -0.1500 
 21 C       -6.9270    -7.1260    -0.7750 C.ar  1 <1>  -0.1500 
 22 C      -10.5630    -4.4380    -1.1240 C.3   1 <1>  -0.2400 
 23 H       -2.3950    -2.4770    -1.7090 H     1 <1>   0.0800 
 24 H       -3.5610    -1.1650    -1.7240 H     1 <1>   0.0800 
 25 H        0.0370     0.5290    -2.3290 H     1 <1>   0.0800 
 26 H       -1.5470     0.2350    -3.0660 H     1 <1>   0.0800 
 27 H       -0.4080    -1.1070    -2.8370 H     1 <1>   0.0800 
 28 H       -5.2280    -1.3040     2.8100 H     1 <1>   0.0800 
 29 H       -4.2910    -2.7460     2.6140 H     1 <1>   0.0800 
 30 H       -3.8880     0.4390     0.0720 H     1 <1>   0.0800 
 31 H       -4.7260     0.4880     1.5820 H     1 <1>   0.0800 
 32 H       -6.8790    -2.9330     2.5100 H     1 <1>   0.0800 
 33 H       -5.9040    -3.8290     1.3980 H     1 <1>   0.0800 
 34 H       -5.8600    -0.3890    -1.0890 H     1 <1>   0.0800 
 35 H       -6.2520     1.0400    -0.2030 H     1 <1>   0.0800 
 36 H       -8.0630    -0.4630     0.1010 H     1 <1>   0.0800 
 37 H       -7.2290    -0.4050     1.6240 H     1 <1>   0.0800 
 38 H       -5.2060    -4.2820    -1.2810 H     1 <1>   0.1500 
 39 H       -8.9570    -7.2340    -0.1530 H     1 <1>   0.1500 
 40 H       -9.5490    -3.7270     0.6270 H     1 <1>   0.0800 
 41 H      -10.1400    -5.3480     0.7670 H     1 <1>   0.0800 
 42 H       -4.9220    -6.7140    -1.3880 H     1 <1>   0.1500 
 43 H       -6.8070    -8.1950    -0.8220 H     1 <1>   0.1500 
 44 H      -10.1130    -3.7270    -1.7950 H     1 <1>   0.0800 
 45 H      -11.5220    -4.0610    -0.8170 H     1 <1>   0.0800 
 46 H      -10.7060    -5.3640    -1.6520 H     1 <1>   0.0800 
@<TRIPOS>BOND
  1   1   2  1   
  2   1   3  1   
  3   2   4  1   
  4   2  23  1   
  5   2  24  1   
  6   3  25  1   
  7   3  26  1   
  8   3  27  1   
  9   4   5  2   
 10   4   6  am  
 11   6   7  1   
 12   6   8  1   
 13   7   9  1   
 14   7  28  1   
 15   7  29  1   
 16   8  10  1   
 17   8  30  1   
 18   8  31  1   
 19   9  11  1   
 20   9  32  1   
 21   9  33  1   
 22  10  12  1   
 23  10  34  1   
 24  10  35  1   
 25  11  12  1   
 26  11  13  am  
 27  12  36  1   
 28  12  37  1   
 29  13  14  2   
 30  13  15  1   
 31  15  16  ar  
 32  15  17  ar  
 33  16  18  ar  
 34  16  19  1   
 35  17  20  ar  
 36  17  38  1   
 37  18  21  ar  
 38  18  39  1   
 39  19  22  1   
 40  19  40  1   
 41  19  41  1   
 42  20  21  ar  
 43  20  42  1   
 44  21  43  1   
 45  22  44  1   
 46  22  45  1   
 47  22  46  1   
@<TRIPOS>SUBSTRUCTURE
  1 ****  13 GROUP 4 **** **** 0

# MOE 2024.06 (io_trps.svl 2023.06)
