@<TRIPOS>MOLECULE
NONAME
48 51 1 0 0 
SMALL
USER_CHARGES


@<TRIPOS>ATOM
  1 S        0.4140     0.3340    -3.0020 S.3   1 <1>  -0.0800 
  2 C        1.0100    -0.8140    -1.8120 C.2   1 <1>  -0.1400 
  3 C        0.9130     1.6870    -2.0050 C.2   1 <1>  -0.1100 
  4 C        1.5410    -0.1620    -0.7600 C.2   1 <1>  -0.1500 
  5 C        0.8660    -2.2910    -2.1250 C.3   1 <1>   0.2900 
  6 C        1.4890     1.2680    -0.8600 C.2   1 <1>   0.0190 
  7 N       -0.2940    -2.8770    -1.4190 N.3   1 <1>  -0.8100 
  8 C        2.0120     2.1080     0.1740 C.1   1 <1>  -0.0190 
  9 C       -1.5810    -2.2390    -1.7940 C.3   1 <1>   0.1100 
 10 C       -0.3580    -4.3420    -1.6280 C.3   1 <1>   0.1100 
 11 C        2.4570     2.8090     1.0280 C.1   1 <1>  -0.2000 
 12 C       -2.7760    -2.7890    -0.9720 C.3   1 <1>   0.4230 
 13 C       -1.6160    -4.9890    -0.9970 C.3   1 <1>   0.3430 
 14 C        3.0230     3.6840     2.0870 C.3   1 <1>   0.3200 
 15 N       -2.3870    -4.0050    -0.1650 N.4   1 <1>  -0.9590 
 16 C       -3.9980    -3.0850    -1.8720 C.3   1 <1>   0.1200 
 17 O        4.2580     4.1090     1.6490 O.3   1 <1>  -0.6800 
 18 C       -3.5740    -4.5540     0.5570 C.3   1 <1>   0.5180 
 19 O       -5.0560    -3.6090    -1.1180 O.3   1 <1>  -0.5600 
 20 C       -3.1850    -5.8320     1.3100 C.3   1 <1>  -0.1950 
 21 C       -4.7620    -4.7810    -0.4040 C.3   1 <1>   0.1200 
 22 C       -3.7500    -6.1030     2.6700 C.3   1 <1>  -0.2000 
 23 C       -2.2890    -5.7930     2.5120 C.3   1 <1>  -0.2000 
 24 H        0.7260     2.6770    -2.3800 H     1 <1>   0.1500 
 25 H        1.9790    -0.6280     0.1050 H     1 <1>   0.1500 
 26 H        1.7630    -2.7910    -1.7990 H     1 <1>   0.0800 
 27 H        0.7740    -2.4310    -3.1900 H     1 <1>   0.0800 
 28 H       -1.5320    -1.1790    -1.6160 H     1 <1>   0.0800 
 29 H       -1.7570    -2.3770    -2.8480 H     1 <1>   0.0800 
 30 H       -0.3460    -4.5660    -2.6820 H     1 <1>   0.0800 
 31 H        0.5170    -4.7960    -1.1930 H     1 <1>   0.0800 
 32 H       -3.0750    -2.0090    -0.2910 H     1 <1>   0.0800 
 33 H       -1.3040    -5.8230    -0.3900 H     1 <1>   0.0800 
 34 H       -2.2440    -5.3740    -1.7820 H     1 <1>   0.0800 
 35 H        3.1550     3.1390     3.0060 H     1 <1>   0.0800 
 36 H        2.4050     4.5490     2.2580 H     1 <1>   0.0800 
 37 H       -1.7060    -3.6570     0.5230 H     1 <1>   0.4500 
 38 H       -3.7510    -3.7850    -2.6510 H     1 <1>   0.0800 
 39 H       -4.3470    -2.1760    -2.3310 H     1 <1>   0.0800 
 40 H        4.6750     3.3830     1.1470 H     1 <1>   0.4000 
 41 H       -3.8900    -3.8280     1.2880 H     1 <1>   0.0800 
 42 H       -3.1230    -6.6920     0.6650 H     1 <1>   0.1000 
 43 H       -5.6400    -5.0480     0.1580 H     1 <1>   0.0800 
 44 H       -4.5540    -5.5700    -1.1040 H     1 <1>   0.0800 
 45 H       -4.3720    -5.3710     3.1590 H     1 <1>   0.1000 
 46 H       -4.0300    -7.1110     2.9330 H     1 <1>   0.1000 
 47 H       -1.5840    -6.5930     2.6720 H     1 <1>   0.1000 
 48 H       -1.9340    -4.8550     2.9040 H     1 <1>   0.1000 
@<TRIPOS>BOND
  1   1   2  1   
  2   1   3  1   
  3   2   4  2   
  4   2   5  1   
  5   3   6  2   
  6   3  24  1   
  7   4   6  1   
  8   4  25  1   
  9   5   7  1   
 10   5  26  1   
 11   5  27  1   
 12   6   8  1   
 13   7   9  1   
 14   7  10  1   
 15   8  11  3   
 16   9  12  1   
 17   9  28  1   
 18   9  29  1   
 19  10  13  1   
 20  10  30  1   
 21  10  31  1   
 22  11  14  1   
 23  12  15  1   
 24  12  16  1   
 25  12  32  1   
 26  13  15  1   
 27  13  33  1   
 28  13  34  1   
 29  14  17  1   
 30  14  35  1   
 31  14  36  1   
 32  15  18  1   
 33  15  37  1   
 34  16  19  1   
 35  16  38  1   
 36  16  39  1   
 37  17  40  1   
 38  18  20  1   
 39  18  21  1   
 40  18  41  1   
 41  19  21  1   
 42  20  22  1   
 43  20  23  1   
 44  20  42  1   
 45  21  43  1   
 46  21  44  1   
 47  22  23  1   
 48  22  45  1   
 49  22  46  1   
 50  23  47  1   
 51  23  48  1   
@<TRIPOS>SUBSTRUCTURE
  1 ****   7 GROUP 4 **** **** 0

# MOE 2024.06 (io_trps.svl 2023.06)
