@<TRIPOS>MOLECULE
NONAME
57 60 1 0 0 
SMALL
USER_CHARGES


@<TRIPOS>ATOM
  1 O        0.2840    -0.1600    -0.9200 O.3   1 <1>  -0.5600 
  2 C        1.5070    -0.8500    -1.0130 C.3   1 <1>   0.2000 
  3 C        0.3520     1.2150    -1.1500 C.3   1 <1>   0.1200 
  4 C        2.5720    -0.2410    -0.0580 C.3   1 <1>   0.5660 
  5 C        1.2620    -2.3280    -0.6670 C.3   1 <1>   0.1200 
  6 C        1.2680     1.8760    -0.1070 C.3   1 <1>   0.3430 
  7 N        2.6340     1.2560    -0.0950 N.4   1 <1>  -0.9590 
  8 C        3.9700    -0.7570    -0.3720 C.ar  1 <1>  -0.1440 
  9 O        1.0960    -2.4780     0.7080 O.3   1 <1>  -0.6800 
 10 C        3.4720     1.7800     1.0160 C.3   1 <1>   0.4870 
 11 C        4.6920    -1.3880     0.6310 C.ar  1 <1>  -0.1500 
 12 C        4.5490    -0.5990    -1.6270 C.ar  1 <1>  -0.1500 
 13 C        3.7780     3.2370     0.7310 C.ar  1 <1>  -0.1440 
 14 C        5.9800    -1.8390     0.4020 C.ar  1 <1>   0.0820 
 15 C        5.8400    -1.0420    -1.8610 C.ar  1 <1>  -0.1500 
 16 C        4.8150     3.6160    -0.1320 C.ar  1 <1>  -0.1440 
 17 C        2.9910     4.2060     1.3510 C.ar  1 <1>  -0.1500 
 18 O        6.6050    -2.4570     1.4310 O.3   1 <1>  -0.3620 
 19 C        6.5710    -1.6420    -0.8510 C.ar  1 <1>   0.0820 
 20 C        5.0430     4.9640    -0.3920 C.ar  1 <1>  -0.1500 
 21 C        5.7330     2.6040    -0.8100 C.3   1 <1>  -0.0970 
 22 C        3.2430     5.5320     1.0720 C.ar  1 <1>   0.0820 
 23 C        6.9210    -3.8220     1.2530 C.3   1 <1>   0.0400 
 24 O        7.8410    -2.0110    -1.1420 O.3   1 <1>  -0.3630 
 25 C        4.2400     5.9020     0.2220 C.ar  1 <1>   0.0820 
 26 O        2.6090     6.6100     1.5400 O.3   1 <1>  -0.3620 
 27 C        8.8770    -1.3760    -0.4220 C.3   1 <1>   0.0400 
 28 O        4.2820     7.2330     0.1150 O.3   1 <1>  -0.3620 
 29 C        3.2590     7.7450     0.9660 C.3   1 <1>   0.4000 
 30 H        1.8300    -0.7850    -2.0350 H     1 <1>   0.0800 
 31 H        0.7070     1.3870    -2.1520 H     1 <1>   0.0800 
 32 H       -0.6460     1.6090    -1.0670 H     1 <1>   0.0800 
 33 H        2.3110    -0.5480     0.9410 H     1 <1>   0.0800 
 34 H        2.1030    -2.9320    -0.9640 H     1 <1>   0.0800 
 35 H        0.3770    -2.6850    -1.1660 H     1 <1>   0.0800 
 36 H        0.8080     1.7670     0.8620 H     1 <1>   0.0800 
 37 H        1.3460     2.9300    -0.3190 H     1 <1>   0.0800 
 38 H        3.1210     1.5190    -0.9560 H     1 <1>   0.4500 
 39 H        0.7090    -3.3560     0.9160 H     1 <1>   0.4000 
 40 H        2.9530     1.6850     1.9560 H     1 <1>   0.0800 
 41 H        4.3970     1.2300     1.0860 H     1 <1>   0.0800 
 42 H        4.2680    -1.5480     1.6080 H     1 <1>   0.1500 
 43 H        4.0190    -0.1320    -2.4390 H     1 <1>   0.1500 
 44 H        6.2960    -0.9220    -2.8290 H     1 <1>   0.1500 
 45 H        2.1990     3.9630     2.0370 H     1 <1>   0.1500 
 46 H        5.8260     5.2970    -1.0510 H     1 <1>   0.1500 
 47 H        6.6490     3.0790    -1.1180 H     1 <1>   0.0800 
 48 H        5.2610     2.2000    -1.6860 H     1 <1>   0.0800 
 49 H        5.9990     1.8030    -0.1440 H     1 <1>   0.0800 
 50 H        7.3240    -4.1970     2.1760 H     1 <1>   0.0800 
 51 H        7.6490    -3.9240     0.4690 H     1 <1>   0.0800 
 52 H        6.0230    -4.3570     1.0000 H     1 <1>   0.0800 
 53 H        9.8160    -1.6860    -0.8450 H     1 <1>   0.0800 
 54 H        8.8300    -1.6690     0.6110 H     1 <1>   0.0800 
 55 H        8.7650    -0.3110    -0.5160 H     1 <1>   0.0800 
 56 H        2.5530     8.3120     0.3840 H     1 <1>   0.0800 
 57 H        3.7020     8.3410     1.7450 H     1 <1>   0.0800 
@<TRIPOS>BOND
  1   1   2  1   
  2   1   3  1   
  3   2   4  1   
  4   2   5  1   
  5   2  30  1   
  6   3   6  1   
  7   3  31  1   
  8   3  32  1   
  9   4   7  1   
 10   4   8  1   
 11   4  33  1   
 12   5   9  1   
 13   5  34  1   
 14   5  35  1   
 15   6   7  1   
 16   6  36  1   
 17   6  37  1   
 18   7  10  1   
 19   7  38  1   
 20   8  11  ar  
 21   8  12  ar  
 22   9  39  1   
 23  10  13  1   
 24  10  40  1   
 25  10  41  1   
 26  11  14  ar  
 27  11  42  1   
 28  12  15  ar  
 29  12  43  1   
 30  13  16  ar  
 31  13  17  ar  
 32  14  18  1   
 33  14  19  ar  
 34  15  19  ar  
 35  15  44  1   
 36  16  20  ar  
 37  16  21  1   
 38  17  22  ar  
 39  17  45  1   
 40  18  23  1   
 41  19  24  1   
 42  20  25  ar  
 43  20  46  1   
 44  21  47  1   
 45  21  48  1   
 46  21  49  1   
 47  22  25  ar  
 48  22  26  1   
 49  23  50  1   
 50  23  51  1   
 51  23  52  1   
 52  24  27  1   
 53  25  28  1   
 54  26  29  1   
 55  27  53  1   
 56  27  54  1   
 57  27  55  1   
 58  28  29  1   
 59  29  56  1   
 60  29  57  1   
@<TRIPOS>SUBSTRUCTURE
  1 ****  10 GROUP 4 **** **** 0

# MOE 2024.06 (io_trps.svl 2023.06)
