@<TRIPOS>MOLECULE
NONAME
44 45 1 0 0 
SMALL
USER_CHARGES


@<TRIPOS>ATOM
  1 O        1.6400     0.6690     0.2040 O.3   1 <1>  -0.2800 
  2 C        1.5010     0.9520    -1.0530 C.2   1 <1>   0.2980 
  3 C        1.3270    -0.5830     0.2680 C.2   1 <1>   0.2980 
  4 N        1.1150    -0.0570    -1.7380 N.2   1 <1>  -0.3380 
  5 C        1.7810     2.3610    -1.5660 C.3   1 <1>   0.2900 
  6 N        1.0030    -1.0640    -0.8710 N.2   1 <1>  -0.3380 
  7 C        1.3730    -1.3050     1.5930 C.3   1 <1>  -0.0600 
  8 N        3.2050     2.7760    -1.4130 N.3   1 <1>  -0.8100 
  9 C        3.4240     4.2010    -1.6820 C.3   1 <1>   0.1100 
 10 C        4.0750     1.9360    -2.2540 C.3   1 <1>   0.0300 
 11 C        2.9720     5.0580    -0.4860 C.3   1 <1>  -0.0800 
 12 C        3.4590     6.5040    -0.6080 C.3   1 <1>   0.3430 
 13 C        3.5230     4.5600     0.8600 C.3   1 <1>  -0.1600 
 14 N        4.4060     6.7160     0.5240 N.4   1 <1>  -0.9590 
 15 C        3.9530     5.8090     1.6040 C.3   1 <1>   0.3430 
 16 C        4.5030     8.1380     0.9890 C.3   1 <1>   0.3430 
 17 C        5.1310     9.0630    -0.0600 C.3   1 <1>   0.1200 
 18 O        5.1400    10.3420     0.4770 O.3   1 <1>  -0.5600 
 19 C        5.7060    11.3120    -0.3480 C.3   1 <1>   0.0400 
 20 H        1.1450     3.0300    -1.0160 H     1 <1>   0.0800 
 21 H        1.4980     2.4120    -2.6030 H     1 <1>   0.0800 
 22 H        0.6970    -0.8360     2.2840 H     1 <1>   0.0800 
 23 H        2.3700    -1.2680     1.9900 H     1 <1>   0.0800 
 24 H        1.0840    -2.3310     1.4590 H     1 <1>   0.0800 
 25 H        2.9090     4.4930    -2.5840 H     1 <1>   0.0800 
 26 H        4.4790     4.3630    -1.8360 H     1 <1>   0.0800 
 27 H        3.9640     0.8970    -1.9890 H     1 <1>   0.0800 
 28 H        5.1070     2.2030    -2.1040 H     1 <1>   0.0800 
 29 H        3.8290     2.0550    -3.2960 H     1 <1>   0.0800 
 30 H        1.8970     5.0810    -0.4560 H     1 <1>   0.0800 
 31 H        2.6170     7.1700    -0.5110 H     1 <1>   0.0800 
 32 H        3.9410     6.6800    -1.5570 H     1 <1>   0.0800 
 33 H        4.3840     3.9290     0.7150 H     1 <1>   0.0800 
 34 H        2.7880     4.0010     1.4130 H     1 <1>   0.0800 
 35 H        5.3370     6.3850     0.2330 H     1 <1>   0.4500 
 36 H        4.7380     5.6010     2.3150 H     1 <1>   0.0800 
 37 H        3.1050     6.2370     2.1150 H     1 <1>   0.0800 
 38 H        5.1080     8.1840     1.8790 H     1 <1>   0.0800 
 39 H        3.5200     8.5080     1.2300 H     1 <1>   0.0800 
 40 H        4.5480     9.0830    -0.9640 H     1 <1>   0.0800 
 41 H        6.1470     8.7740    -0.2670 H     1 <1>   0.0800 
 42 H        5.6570    12.2580     0.1650 H     1 <1>   0.0800 
 43 H        5.1480    11.3730    -1.2670 H     1 <1>   0.0800 
 44 H        6.7350    11.0630    -0.5430 H     1 <1>   0.0800 
@<TRIPOS>BOND
  1   1   2  1   
  2   1   3  1   
  3   2   4  2   
  4   2   5  1   
  5   3   6  2   
  6   3   7  1   
  7   4   6  1   
  8   5   8  1   
  9   5  20  1   
 10   5  21  1   
 11   7  22  1   
 12   7  23  1   
 13   7  24  1   
 14   8   9  1   
 15   8  10  1   
 16   9  11  1   
 17   9  25  1   
 18   9  26  1   
 19  10  27  1   
 20  10  28  1   
 21  10  29  1   
 22  11  12  1   
 23  11  13  1   
 24  11  30  1   
 25  12  14  1   
 26  12  31  1   
 27  12  32  1   
 28  13  15  1   
 29  13  33  1   
 30  13  34  1   
 31  14  15  1   
 32  14  16  1   
 33  14  35  1   
 34  15  36  1   
 35  15  37  1   
 36  16  17  1   
 37  16  38  1   
 38  16  39  1   
 39  17  18  1   
 40  17  40  1   
 41  17  41  1   
 42  18  19  1   
 43  19  42  1   
 44  19  43  1   
 45  19  44  1   
@<TRIPOS>SUBSTRUCTURE
  1 ****  11 GROUP 4 **** **** 0

# MOE 2024.06 (io_trps.svl 2023.06)
