@<TRIPOS>MOLECULE
NONAME
48 50 1 0 0 
SMALL
USER_CHARGES


@<TRIPOS>ATOM
  1 O        0.6320     0.1640    -1.0660 O.2   1 <1>  -0.5700 
  2 C        1.4740    -0.3390    -0.3460 C.2   1 <1>   0.7150 
  3 N        2.2360     0.5100     0.4500 N.am  1 <1>  -0.6600 
  4 C        1.6500    -1.7780    -0.3630 C.2   1 <1>   0.0550 
  5 C        3.0680     0.0190     1.5880 C.3   1 <1>   0.1400 
  6 C        2.0800     1.9910     0.3500 C.3   1 <1>   0.1400 
  7 O        2.8450    -2.3350    -0.1830 O.3   1 <1>  -0.2800 
  8 C        0.7470    -2.7610    -0.5680 C.2   1 <1>   0.0460 
  9 C        4.5340    -0.1780     1.1550 C.3   1 <1>   0.3430 
 10 C        3.4250     2.7210     0.4250 C.3   1 <1>  -0.1600 
 11 C        2.5680    -3.6190    -0.2980 C.2   1 <1>   0.2980 
 12 N        1.3520    -3.9400    -0.5170 N.2   1 <1>  -0.5650 
 13 C       -0.7460    -2.7020    -0.8280 C.3   1 <1>  -0.0590 
 14 N        5.2600     1.0860     0.7860 N.4   1 <1>  -0.9590 
 15 C        4.5730     1.9490    -0.2270 C.3   1 <1>   0.3430 
 16 C        3.6990    -4.6120    -0.1650 C.3   1 <1>  -0.0600 
 17 C        6.6620     0.7780     0.3300 C.3   1 <1>   0.5240 
 18 C        7.5670     2.0100     0.3980 C.2   1 <1>   0.3350 
 19 N        7.3470     3.0290     1.1310 N.2   1 <1>  -0.4100 
 20 N        8.6670     2.1040    -0.3280 N.2   1 <1>  -0.5650 
 21 O        8.3210     3.8640     0.9190 O.3   1 <1>  -0.0190 
 22 C        9.0770     3.2540     0.0380 C.2   1 <1>   0.2980 
 23 C       10.3350     3.9480    -0.4550 C.3   1 <1>   0.0200 
 24 C       10.0140     5.1940    -1.2900 C.3   1 <1>  -0.2400 
 25 H        2.6760    -0.9210     1.9380 H     1 <1>   0.0800 
 26 H        3.0120     0.7070     2.4130 H     1 <1>   0.0800 
 27 H        1.4250     2.3380     1.1320 H     1 <1>   0.0800 
 28 H        1.6150     2.2440    -0.5900 H     1 <1>   0.0800 
 29 H        4.5480    -0.8540     0.3170 H     1 <1>   0.0800 
 30 H        5.0590    -0.6600     1.9650 H     1 <1>   0.0800 
 31 H        3.6610     2.9740     1.4430 H     1 <1>   0.0800 
 32 H        3.3070     3.6530    -0.0990 H     1 <1>   0.0800 
 33 H       -1.1120    -1.6940    -0.7810 H     1 <1>   0.0800 
 34 H       -1.2640    -3.2920    -0.0940 H     1 <1>   0.0800 
 35 H       -0.9560    -3.1020    -1.8030 H     1 <1>   0.0800 
 36 H        5.3790     1.6740     1.6260 H     1 <1>   0.4500 
 37 H        5.2770     2.6680    -0.6170 H     1 <1>   0.0800 
 38 H        4.2060     1.3570    -1.0510 H     1 <1>   0.0800 
 39 H        4.1480    -4.5280     0.8060 H     1 <1>   0.0800 
 40 H        4.4380    -4.4250    -0.9220 H     1 <1>   0.0800 
 41 H        3.3200    -5.6110    -0.2890 H     1 <1>   0.0800 
 42 H        6.6490     0.4110    -0.6820 H     1 <1>   0.0800 
 43 H        7.0950     0.0180     0.9570 H     1 <1>   0.0800 
 44 H       10.9040     3.2570    -1.0530 H     1 <1>   0.0800 
 45 H       10.9360     4.2240     0.3930 H     1 <1>   0.0800 
 46 H        9.4180     4.9250    -2.1450 H     1 <1>   0.0800 
 47 H       10.9240     5.6510    -1.6360 H     1 <1>   0.0800 
 48 H        9.4710     5.9120    -0.7010 H     1 <1>   0.0800 
@<TRIPOS>BOND
  1   1   2  2   
  2   2   3  am  
  3   2   4  1   
  4   3   5  1   
  5   3   6  1   
  6   4   7  1   
  7   4   8  2   
  8   5   9  1   
  9   5  25  1   
 10   5  26  1   
 11   6  10  1   
 12   6  27  1   
 13   6  28  1   
 14   7  11  1   
 15   8  12  1   
 16   8  13  1   
 17   9  14  1   
 18   9  29  1   
 19   9  30  1   
 20  10  15  1   
 21  10  31  1   
 22  10  32  1   
 23  11  12  2   
 24  11  16  1   
 25  13  33  1   
 26  13  34  1   
 27  13  35  1   
 28  14  15  1   
 29  14  17  1   
 30  14  36  1   
 31  15  37  1   
 32  15  38  1   
 33  16  39  1   
 34  16  40  1   
 35  16  41  1   
 36  17  18  1   
 37  17  42  1   
 38  17  43  1   
 39  18  19  2   
 40  18  20  1   
 41  19  21  1   
 42  20  22  2   
 43  21  22  1   
 44  22  23  1   
 45  23  24  1   
 46  23  44  1   
 47  23  45  1   
 48  24  46  1   
 49  24  47  1   
 50  24  48  1   
@<TRIPOS>SUBSTRUCTURE
  1 ****  14 GROUP 4 **** **** 0

# MOE 2024.06 (io_trps.svl 2023.06)
