@<TRIPOS>MOLECULE
NONAME
53 56 1 0 0 
SMALL
USER_CHARGES


@<TRIPOS>ATOM
  1 S        0.1570    -0.7020     1.9280 S.o2  1 <1>   1.5000 
  2 O       -0.5570    -1.8140     2.5190 O.2   1 <1>  -0.6500 
  3 O        0.5210     0.4180     2.7710 O.2   1 <1>  -0.6500 
  4 N       -0.8280    -0.0850     0.6920 N.am  1 <1>  -0.8490 
  5 C        1.6150    -1.3550     1.0430 C.2   1 <1>   0.0780 
  6 C       -2.1950     0.1650     1.1780 C.3   1 <1>   0.1960 
  7 C       -0.2740     1.1410     0.1070 C.3   1 <1>   0.1960 
  8 O        2.6250    -0.5640     0.7010 O.3   1 <1>  -0.2800 
  9 C        1.8750    -2.6070     0.6000 C.2   1 <1>  -0.1500 
 10 C       -3.1470     0.5330     0.0230 C.3   1 <1>   0.0000 
 11 C       -1.1040     1.5770    -1.1040 C.3   1 <1>  -0.1600 
 12 C        3.5430    -1.2670     0.0530 C.2   1 <1>   0.1400 
 13 C        3.1160    -2.5530    -0.0360 C.2   1 <1>  -0.1500 
 14 C       -4.5730     0.7580     0.5590 C.3   1 <1>   0.2000 
 15 C       -2.5840     1.7660    -0.7330 C.3   1 <1>  -0.1600 
 16 C       -3.3750    -0.6430    -0.9440 C.3   1 <1>  -0.1600 
 17 C        4.7480    -0.6460    -0.4290 C.2   1 <1>   0.1400 
 18 O       -4.7240     2.0280     1.1170 O.3   1 <1>  -0.5600 
 19 C       -5.4970     0.5530    -0.6440 C.3   1 <1>  -0.1600 
 20 C       -4.7450    -0.3960    -1.5870 C.3   1 <1>  -0.1600 
 21 O        5.5800    -1.3400    -1.1750 O.3   1 <1>  -0.0190 
 22 C        5.2940     0.5880    -0.2990 C.2   1 <1>  -0.1810 
 23 C       -5.8770     2.2060     1.8760 C.3   1 <1>   0.0400 
 24 N        6.6210    -0.6550    -1.5450 N.2   1 <1>  -0.4100 
 25 C        6.4740     0.5120    -1.0310 C.2   1 <1>   0.1080 
 26 C        4.7950     1.8100     0.4560 C.3   1 <1>  -0.0590 
 27 C        7.4740     1.6330    -1.2160 C.3   1 <1>  -0.0590 
 28 H       -2.5740    -0.7170     1.6660 H     1 <1>   0.0800 
 29 H       -2.1840     0.9630     1.9030 H     1 <1>   0.0800 
 30 H       -0.2650     1.9290     0.8430 H     1 <1>   0.0800 
 31 H        0.7390     0.9700    -0.2150 H     1 <1>   0.0800 
 32 H        1.2580    -3.4830     0.7060 H     1 <1>   0.1500 
 33 H       -0.7130     2.5030    -1.4850 H     1 <1>   0.0800 
 34 H       -1.0010     0.8410    -1.8810 H     1 <1>   0.0800 
 35 H        3.6230    -3.3800    -0.5030 H     1 <1>   0.1500 
 36 H       -4.7890     0.0180     1.3120 H     1 <1>   0.0800 
 37 H       -3.1600     1.9710    -1.6180 H     1 <1>   0.0800 
 38 H       -2.6530     2.6330    -0.0990 H     1 <1>   0.0800 
 39 H       -2.5990    -0.7440    -1.6800 H     1 <1>   0.0800 
 40 H       -3.4180    -1.5620    -0.3840 H     1 <1>   0.0800 
 41 H       -6.4370     0.1300    -0.3380 H     1 <1>   0.0800 
 42 H       -5.6660     1.4930    -1.1400 H     1 <1>   0.0800 
 43 H       -5.2760    -1.3230    -1.7190 H     1 <1>   0.0800 
 44 H       -4.6220     0.0720    -2.5490 H     1 <1>   0.0800 
 45 H       -5.8660     3.2070     2.2700 H     1 <1>   0.0800 
 46 H       -5.8830     1.4990     2.6870 H     1 <1>   0.0800 
 47 H       -6.7430     2.0760     1.2510 H     1 <1>   0.0800 
 48 H        5.5570     2.1620     1.1270 H     1 <1>   0.0800 
 49 H        3.9190     1.5800     1.0340 H     1 <1>   0.0800 
 50 H        4.5520     2.5950    -0.2380 H     1 <1>   0.0800 
 51 H        6.9850     2.4990    -1.6220 H     1 <1>   0.0800 
 52 H        8.2500     1.3240    -1.8940 H     1 <1>   0.0800 
 53 H        7.9200     1.8840    -0.2710 H     1 <1>   0.0800 
@<TRIPOS>BOND
  1   1   2  2   
  2   1   3  2   
  3   1   4  am  
  4   1   5  1   
  5   4   6  1   
  6   4   7  1   
  7   5   8  1   
  8   5   9  2   
  9   6  10  1   
 10   6  28  1   
 11   6  29  1   
 12   7  11  1   
 13   7  30  1   
 14   7  31  1   
 15   8  12  1   
 16   9  13  1   
 17   9  32  1   
 18  10  14  1   
 19  10  15  1   
 20  10  16  1   
 21  11  15  1   
 22  11  33  1   
 23  11  34  1   
 24  12  13  2   
 25  12  17  1   
 26  13  35  1   
 27  14  18  1   
 28  14  19  1   
 29  14  36  1   
 30  15  37  1   
 31  15  38  1   
 32  16  20  1   
 33  16  39  1   
 34  16  40  1   
 35  17  21  1   
 36  17  22  2   
 37  18  23  1   
 38  19  20  1   
 39  19  41  1   
 40  19  42  1   
 41  20  43  1   
 42  20  44  1   
 43  21  24  1   
 44  22  25  1   
 45  22  26  1   
 46  23  45  1   
 47  23  46  1   
 48  23  47  1   
 49  24  25  2   
 50  25  27  1   
 51  26  48  1   
 52  26  49  1   
 53  26  50  1   
 54  27  51  1   
 55  27  52  1   
 56  27  53  1   
@<TRIPOS>SUBSTRUCTURE
  1 ****   7 GROUP 4 **** **** 0

# MOE 2024.06 (io_trps.svl 2023.06)
