@<TRIPOS>MOLECULE
NONAME
50 52 1 0 0 
SMALL
USER_CHARGES


@<TRIPOS>ATOM
  1 O        2.0580     1.8430     1.1840 O.3   1 <1>  -0.0190 
  2 N        2.7130     0.7300     1.0500 N.2   1 <1>  -0.4100 
  3 C        0.8770     1.7860     0.6300 C.2   1 <1>  -0.0400 
  4 C        1.9320    -0.0680     0.4140 C.2   1 <1>   0.1080 
  5 C        0.7260     0.5580     0.1120 C.2   1 <1>  -0.1500 
  6 C       -0.0320     3.0010     0.6560 C.3   1 <1>   0.0200 
  7 C        2.2850    -1.4930     0.0480 C.3   1 <1>  -0.0590 
  8 C        0.5860     4.1600    -0.1490 C.3   1 <1>  -0.0800 
  9 C       -0.2830     5.4140    -0.2560 C.3   1 <1>   0.2000 
 10 C        1.9170     4.6600     0.4310 C.3   1 <1>   0.3430 
 11 O       -0.8420     5.6660     1.0010 O.3   1 <1>  -0.5600 
 12 C        0.7550     6.4980    -0.5400 C.3   1 <1>   0.3430 
 13 N        1.8830     6.1520     0.3720 N.4   1 <1>  -0.9590 
 14 C       -2.0490     6.3670     0.9860 C.3   1 <1>   0.0400 
 15 C        3.1990     6.7650     0.0530 C.3   1 <1>   0.3430 
 16 C        3.1250     8.2820     0.2110 C.3   1 <1>  -0.1600 
 17 C        4.4980     8.9290    -0.0010 C.3   1 <1>  -0.0170 
 18 C        4.3770    10.4350     0.1320 C.ar  1 <1>  -0.1440 
 19 C        4.1490    11.2220    -0.9870 C.ar  1 <1>  -0.1500 
 20 C        4.4880    11.0390     1.3750 C.ar  1 <1>  -0.1500 
 21 C        4.0280    12.5950    -0.8640 C.ar  1 <1>  -0.1500 
 22 C        4.3670    12.4120     1.4990 C.ar  1 <1>  -0.1500 
 23 C        4.1370    13.1910     0.3800 C.ar  1 <1>  -0.1500 
 24 H       -0.1030     0.1240    -0.4160 H     1 <1>   0.1500 
 25 H       -0.9850     2.7350     0.2330 H     1 <1>   0.0800 
 26 H       -0.1950     3.2890     1.6810 H     1 <1>   0.0800 
 27 H        1.5800    -2.1700     0.4950 H     1 <1>   0.0800 
 28 H        3.2700    -1.7320     0.4070 H     1 <1>   0.0800 
 29 H        2.2650    -1.6130    -1.0190 H     1 <1>   0.0800 
 30 H        0.7840     3.8050    -1.1450 H     1 <1>   0.0800 
 31 H       -1.0530     5.3320    -1.0050 H     1 <1>   0.0800 
 32 H        2.7380     4.2630    -0.1450 H     1 <1>   0.0800 
 33 H        2.0240     4.3370     1.4540 H     1 <1>   0.0800 
 34 H        0.3610     7.4820    -0.3430 H     1 <1>   0.0800 
 35 H        1.0760     6.4330    -1.5670 H     1 <1>   0.0800 
 36 H        1.5750     6.4590     1.3080 H     1 <1>   0.4500 
 37 H       -2.3640     6.5150     2.0050 H     1 <1>   0.0800 
 38 H       -2.7920     5.7870     0.4650 H     1 <1>   0.0800 
 39 H       -1.9110     7.3220     0.5090 H     1 <1>   0.0800 
 40 H        3.9470     6.3780     0.7270 H     1 <1>   0.0800 
 41 H        3.4900     6.5140    -0.9540 H     1 <1>   0.0800 
 42 H        2.4410     8.6980    -0.5080 H     1 <1>   0.0800 
 43 H        2.7790     8.5300     1.1990 H     1 <1>   0.0800 
 44 H        4.8810     8.6870    -0.9790 H     1 <1>   0.0800 
 45 H        5.2020     8.5620     0.7270 H     1 <1>   0.0800 
 46 H        4.0640    10.7750    -1.9620 H     1 <1>   0.1500 
 47 H        4.6690    10.4480     2.2560 H     1 <1>   0.1500 
 48 H        3.8520    13.2020    -1.7360 H     1 <1>   0.1500 
 49 H        4.4540    12.8760     2.4670 H     1 <1>   0.1500 
 50 H        4.0440    14.2590     0.4760 H     1 <1>   0.1500 
@<TRIPOS>BOND
  1   1   2  1   
  2   1   3  1   
  3   2   4  2   
  4   3   5  2   
  5   3   6  1   
  6   4   5  1   
  7   4   7  1   
  8   5  24  1   
  9   6   8  1   
 10   6  25  1   
 11   6  26  1   
 12   7  27  1   
 13   7  28  1   
 14   7  29  1   
 15   8   9  1   
 16   8  10  1   
 17   8  30  1   
 18   9  11  1   
 19   9  12  1   
 20   9  31  1   
 21  10  13  1   
 22  10  32  1   
 23  10  33  1   
 24  11  14  1   
 25  12  13  1   
 26  12  34  1   
 27  12  35  1   
 28  13  15  1   
 29  13  36  1   
 30  14  37  1   
 31  14  38  1   
 32  14  39  1   
 33  15  16  1   
 34  15  40  1   
 35  15  41  1   
 36  16  17  1   
 37  16  42  1   
 38  16  43  1   
 39  17  18  1   
 40  17  44  1   
 41  17  45  1   
 42  18  19  ar  
 43  18  20  ar  
 44  19  21  ar  
 45  19  46  1   
 46  20  22  ar  
 47  20  47  1   
 48  21  23  ar  
 49  21  48  1   
 50  22  23  ar  
 51  22  49  1   
 52  23  50  1   
@<TRIPOS>SUBSTRUCTURE
  1 ****  13 GROUP 4 **** **** 0

# MOE 2024.06 (io_trps.svl 2023.06)
