@<TRIPOS>MOLECULE
NONAME
52 55 1 0 0 
SMALL
USER_CHARGES


@<TRIPOS>ATOM
  1 F        1.7590     0.3500    -2.5740 F     1 <1>  -0.1900 
  2 C        2.4430     1.0860    -1.7220 C.ar  1 <1>   0.1900 
  3 C        3.2060     0.5130    -0.7090 C.ar  1 <1>   0.4100 
  4 C        2.4110     2.4440    -1.8430 C.ar  1 <1>   0.1600 
  5 N        3.8900     1.2900     0.1070 N.ar  1 <1>  -0.6200 
  6 N        3.2990    -0.8580    -0.4970 N.pl3 1 <1>  -0.8380 
  7 N        3.0870     3.2240    -1.0240 N.ar  1 <1>  -0.6200 
  8 C        3.8020     2.6050    -0.0830 C.ar  1 <1>   0.7200 
  9 C        2.0610    -1.6360    -0.1940 C.3   1 <1>   0.2090 
 10 C        4.4950    -1.4220     0.1990 C.3   1 <1>   0.2090 
 11 N        4.5330     3.4090     0.7780 N.pl3 1 <1>  -0.8380 
 12 C        2.2960    -3.1410    -0.4170 C.3   1 <1>   0.1200 
 13 C        4.6010    -2.9400    -0.0370 C.3   1 <1>   0.1200 
 14 C        5.7280     2.9000     1.5040 C.3   1 <1>   0.2090 
 15 C        4.4300     4.8940     0.7620 C.3   1 <1>   0.2090 
 16 O        3.4080    -3.5910     0.3080 O.3   1 <1>  -0.5600 
 17 C        6.9830     3.4340     0.8110 C.3   1 <1>  -0.1600 
 18 C        5.6600     5.4610     0.0510 C.3   1 <1>  -0.1600 
 19 C        6.9590     4.9690     0.7120 C.3   1 <1>   0.1000 
 20 C        8.1840     5.4890    -0.0270 C.2   1 <1>   0.2980 
 21 O        8.3700     5.1470    -1.2780 O.3   1 <1>  -0.0190 
 22 N        9.0750     6.2500     0.4700 N.2   1 <1>  -0.5650 
 23 N        9.4750     5.7420    -1.6050 N.2   1 <1>  -0.4100 
 24 C        9.8780     6.3820    -0.5780 C.2   1 <1>   0.3350 
 25 C       11.1420     7.2410    -0.4910 C.3   1 <1>   0.1010 
 26 C       10.8110     8.7170    -0.7560 C.3   1 <1>  -0.2400 
 27 C       12.2430     6.7680    -1.4530 C.3   1 <1>  -0.2400 
 28 H        1.8260     2.9020    -2.6210 H     1 <1>   0.1500 
 29 H        1.2490    -1.3080    -0.8170 H     1 <1>   0.0800 
 30 H        1.7810    -1.4710     0.8320 H     1 <1>   0.0800 
 31 H        4.4200    -1.2280     1.2550 H     1 <1>   0.0800 
 32 H        5.3840    -0.9400    -0.1680 H     1 <1>   0.0800 
 33 H        2.4610    -3.3420    -1.4610 H     1 <1>   0.0800 
 34 H        1.4400    -3.7020    -0.0870 H     1 <1>   0.0800 
 35 H        5.3880    -3.3540     0.5680 H     1 <1>   0.0800 
 36 H        4.8150    -3.1420    -1.0710 H     1 <1>   0.0800 
 37 H        5.7580     1.8250     1.5250 H     1 <1>   0.0800 
 38 H        5.6910     3.2440     2.5230 H     1 <1>   0.0800 
 39 H        4.3920     5.2520     1.7760 H     1 <1>   0.0800 
 40 H        3.5320     5.2240     0.2690 H     1 <1>   0.0800 
 41 H        7.0380     3.0020    -0.1720 H     1 <1>   0.0800 
 42 H        7.8530     3.1210     1.3590 H     1 <1>   0.0800 
 43 H        5.6230     6.5350     0.0780 H     1 <1>   0.0800 
 44 H        5.6290     5.1550    -0.9800 H     1 <1>   0.0800 
 45 H        6.9940     5.3670     1.7120 H     1 <1>   0.0800 
 46 H       11.5200     7.1540     0.5130 H     1 <1>   0.0800 
 47 H       10.4180     8.8360    -1.7500 H     1 <1>   0.0800 
 48 H       11.6910     9.3250    -0.6520 H     1 <1>   0.0800 
 49 H       10.0720     9.0580    -0.0530 H     1 <1>   0.0800 
 50 H       11.9150     6.8590    -2.4740 H     1 <1>   0.0800 
 51 H       12.4770     5.7350    -1.2610 H     1 <1>   0.0800 
 52 H       13.1350     7.3520    -1.3210 H     1 <1>   0.0800 
@<TRIPOS>BOND
  1   1   2  1   
  2   2   3  ar  
  3   2   4  ar  
  4   3   5  ar  
  5   3   6  1   
  6   4   7  ar  
  7   4  28  1   
  8   5   8  ar  
  9   6   9  1   
 10   6  10  1   
 11   7   8  ar  
 12   8  11  1   
 13   9  12  1   
 14   9  29  1   
 15   9  30  1   
 16  10  13  1   
 17  10  31  1   
 18  10  32  1   
 19  11  14  1   
 20  11  15  1   
 21  12  16  1   
 22  12  33  1   
 23  12  34  1   
 24  13  16  1   
 25  13  35  1   
 26  13  36  1   
 27  14  17  1   
 28  14  37  1   
 29  14  38  1   
 30  15  18  1   
 31  15  39  1   
 32  15  40  1   
 33  17  19  1   
 34  17  41  1   
 35  17  42  1   
 36  18  19  1   
 37  18  43  1   
 38  18  44  1   
 39  19  20  1   
 40  19  45  1   
 41  20  21  1   
 42  20  22  2   
 43  21  23  1   
 44  22  24  1   
 45  23  24  2   
 46  24  25  1   
 47  25  26  1   
 48  25  27  1   
 49  25  46  1   
 50  26  47  1   
 51  26  48  1   
 52  26  49  1   
 53  27  50  1   
 54  27  51  1   
 55  27  52  1   
@<TRIPOS>SUBSTRUCTURE
  1 ****  11 GROUP 4 **** **** 0

# MOE 2024.06 (io_trps.svl 2023.06)
