@<TRIPOS>MOLECULE
NONAME
50 53 1 0 0 
SMALL
USER_CHARGES


@<TRIPOS>ATOM
  1 O       -0.5710     0.7670    -1.1870 O.2   1 <1>  -0.5700 
  2 C       -1.3680     1.4180    -0.5370 C.2   1 <1>   0.7150 
  3 N       -2.5540     0.8290    -0.1520 N.am  1 <1>  -0.6600 
  4 C       -1.0330     2.7630    -0.1720 C.2   1 <1>  -0.2370 
  5 C       -2.9000    -0.5730    -0.5580 C.3   1 <1>   0.1400 
  6 C       -3.4410     1.3870     0.9110 C.3   1 <1>   0.1400 
  7 N        0.1420     3.1050     0.4140 N.pl3 1 <1>   0.3140 
  8 C       -1.7160     3.9330    -0.3120 C.2   1 <1>  -0.1500 
  9 C       -4.1060    -0.6340    -1.5070 C.3   1 <1>   0.1400 
 10 C       -4.6870     2.0850     0.3470 C.3   1 <1>  -0.1600 
 11 N        0.2160     4.4190     0.6770 N.2   1 <1>  -0.7070 
 12 C        1.2590     2.2090     0.7540 C.3   1 <1>   0.0160 
 13 C       -0.9010     4.9080     0.2320 C.2   1 <1>   0.1390 
 14 N       -5.3130     0.0430    -0.9350 N.am  1 <1>  -0.6600 
 15 C       -5.2290     1.5280    -0.9740 C.3   1 <1>   0.1400 
 16 C       -6.4180    -0.5750    -0.3900 C.2   1 <1>   0.5690 
 17 O       -7.2940     0.0870     0.1200 O.2   1 <1>  -0.5700 
 18 C       -6.5510    -2.1080    -0.3940 C.3   1 <1>   0.1240 
 19 C       -7.9330    -2.6780    -0.1240 C.ar  1 <1>  -0.1430 
 20 C       -5.6910    -2.7840     0.6980 C.3   1 <1>  -0.1600 
 21 C       -7.8680    -3.7600     0.7200 C.ar  1 <1>  -0.1430 
 22 C       -9.1520    -2.2550    -0.6250 C.ar  1 <1>  -0.1500 
 23 C       -6.4510    -4.0430     1.1460 C.3   1 <1>  -0.0170 
 24 C       -9.0110    -4.4480     1.0850 C.ar  1 <1>  -0.1500 
 25 C      -10.3040    -2.9370    -0.2660 C.ar  1 <1>  -0.1500 
 26 C      -10.2340    -4.0300     0.5850 C.ar  1 <1>  -0.1500 
 27 H       -3.1090    -1.1550     0.3210 H     1 <1>   0.0800 
 28 H       -2.0630    -1.0390    -1.0480 H     1 <1>   0.0800 
 29 H       -2.8930     2.0730     1.5350 H     1 <1>   0.0800 
 30 H       -3.7640     0.5790     1.5460 H     1 <1>   0.0800 
 31 H       -2.6780     4.0950    -0.7580 H     1 <1>   0.1500 
 32 H       -4.3150    -1.6630    -1.7320 H     1 <1>   0.0800 
 33 H       -3.8400    -0.1610    -2.4370 H     1 <1>   0.0800 
 34 H       -4.4780     3.1290     0.2140 H     1 <1>   0.0800 
 35 H       -5.4670     2.0300     1.0850 H     1 <1>   0.0800 
 36 H        0.8930     1.3940     1.3490 H     1 <1>   0.0800 
 37 H        1.9990     2.7580     1.3050 H     1 <1>   0.0800 
 38 H        1.6930     1.8310    -0.1530 H     1 <1>   0.0800 
 39 H       -1.1450     5.9560     0.2850 H     1 <1>   0.1500 
 40 H       -4.5880     1.8340    -1.7830 H     1 <1>   0.0800 
 41 H       -6.2060     1.9410    -1.1620 H     1 <1>   0.0800 
 42 H       -6.2670    -2.4780    -1.3600 H     1 <1>   0.0800 
 43 H       -5.6150    -2.1160     1.5390 H     1 <1>   0.0800 
 44 H       -4.7040    -3.0220     0.3470 H     1 <1>   0.0800 
 45 H       -9.2060    -1.4020    -1.2790 H     1 <1>   0.1500 
 46 H       -6.3800    -4.1900     2.2100 H     1 <1>   0.0800 
 47 H       -6.0890    -4.9150     0.6290 H     1 <1>   0.0800 
 48 H       -8.9520    -5.2930     1.7470 H     1 <1>   0.1500 
 49 H      -11.2570    -2.6130    -0.6470 H     1 <1>   0.1500 
 50 H      -11.1320    -4.5540     0.8600 H     1 <1>   0.1500 
@<TRIPOS>BOND
  1   1   2  2   
  2   2   3  am  
  3   2   4  1   
  4   3   5  1   
  5   3   6  1   
  6   4   7  1   
  7   4   8  2   
  8   5   9  1   
  9   5  27  1   
 10   5  28  1   
 11   6  10  1   
 12   6  29  1   
 13   6  30  1   
 14   7  11  1   
 15   7  12  1   
 16   8  13  1   
 17   8  31  1   
 18   9  14  1   
 19   9  32  1   
 20   9  33  1   
 21  10  15  1   
 22  10  34  1   
 23  10  35  1   
 24  11  13  2   
 25  12  36  1   
 26  12  37  1   
 27  12  38  1   
 28  13  39  1   
 29  14  15  1   
 30  14  16  am  
 31  15  40  1   
 32  15  41  1   
 33  16  17  2   
 34  16  18  1   
 35  18  19  1   
 36  18  20  1   
 37  18  42  1   
 38  19  21  ar  
 39  19  22  ar  
 40  20  23  1   
 41  20  43  1   
 42  20  44  1   
 43  21  23  1   
 44  21  24  ar  
 45  22  25  ar  
 46  22  45  1   
 47  23  46  1   
 48  23  47  1   
 49  24  26  ar  
 50  24  48  1   
 51  25  26  ar  
 52  25  49  1   
 53  26  50  1   
@<TRIPOS>SUBSTRUCTURE
  1 ****  14 GROUP 4 **** **** 0

# MOE 2024.06 (io_trps.svl 2023.06)
