@<TRIPOS>MOLECULE
Untitled Document
43 44 1 0 0 
SMALL
USER_CHARGES


@<TRIPOS>ATOM
  1 O        0.8660     0.0380    -1.6910 O.2   1 <1>  -0.5700 
  2 C        1.6830    -0.6420    -1.0780 C.2   1 <1>   0.6300 
  3 N        2.8970    -0.0860    -0.7060 N.am  1 <1>  -0.4770 
  4 C        1.4250    -2.0250    -0.7260 C.2   1 <1>   0.3890 
  5 C        3.8020    -0.8880     0.0170 C.ar  1 <1>   0.1170 
  6 C        3.2090     1.3230    -1.0880 C.3   1 <1>   0.1400 
  7 N        2.2440    -2.7780    -0.0860 N.2   1 <1>  -0.6290 
  8 C        0.0910    -2.6410    -1.1400 C.3   1 <1>  -0.0990 
  9 C        3.4510    -2.2250     0.3030 C.ar  1 <1>   0.1790 
 10 C        5.0400    -0.4200     0.4730 C.ar  1 <1>  -0.1500 
 11 C        2.8430     2.2700     0.0610 C.3   1 <1>  -0.1600 
 12 C       -1.0430    -2.2490    -0.1790 C.3   1 <1>  -0.1600 
 13 C        4.3380    -3.0340     1.0050 C.ar  1 <1>  -0.1500 
 14 C        5.9040    -1.2380     1.1700 C.ar  1 <1>  -0.1500 
 15 C        3.1920     3.7220    -0.2820 C.3   1 <1>  -0.2400 
 16 C       -2.3650    -2.8960    -0.5920 C.3   1 <1>   0.1200 
 17 C        5.5540    -2.5520     1.4370 C.ar  1 <1>  -0.1500 
 18 O       -3.3600    -2.4930     0.3220 O.3   1 <1>  -0.4300 
 19 C       -4.6100    -2.9270     0.1920 C.2   1 <1>   0.7800 
 20 O       -4.9170    -3.6840    -0.7070 O.2   1 <1>  -0.5700 
 21 N       -5.4890    -2.4710     1.1130 N.am  1 <1>  -0.7300 
 22 C       -6.9330    -2.8010     1.1790 C.3   1 <1>   0.0600 
 23 H        2.6540     1.5980    -1.9680 H     1 <1>   0.0800 
 24 H        4.2500     1.4130    -1.3380 H     1 <1>   0.0800 
 25 H        0.1920    -3.7130    -1.1520 H     1 <1>   0.0800 
 26 H       -0.1500    -2.3270    -2.1400 H     1 <1>   0.0800 
 27 H        5.3440     0.5930     0.2920 H     1 <1>   0.1500 
 28 H        3.3700     1.9820     0.9540 H     1 <1>   0.0800 
 29 H        1.7860     2.1980     0.2510 H     1 <1>   0.0800 
 30 H       -1.1610    -1.1790    -0.1810 H     1 <1>   0.0800 
 31 H       -0.7890    -2.5690     0.8170 H     1 <1>   0.0800 
 32 H        4.0540    -4.0500     1.2090 H     1 <1>   0.1500 
 33 H        6.8530    -0.8610     1.5120 H     1 <1>   0.1500 
 34 H        4.2470     3.8270    -0.4620 H     1 <1>   0.0800 
 35 H        2.9190     4.3670     0.5350 H     1 <1>   0.0800 
 36 H        2.6550     4.0410    -1.1590 H     1 <1>   0.0800 
 37 H       -2.2960    -3.9710    -0.5650 H     1 <1>   0.0800 
 38 H       -2.6620    -2.5760    -1.5770 H     1 <1>   0.0800 
 39 H        6.2300    -3.1900     1.9800 H     1 <1>   0.1500 
 40 H       -5.1160    -1.8360     1.8180 H     1 <1>   0.3700 
 41 H       -7.1980    -3.4750     0.3820 H     1 <1>   0.0800 
 42 H       -7.5160    -1.9020     1.0830 H     1 <1>   0.0800 
 43 H       -7.1560    -3.2720     2.1210 H     1 <1>   0.0800 
@<TRIPOS>BOND
  1   1   2  2   
  2   2   3  am  
  3   2   4  1   
  4   3   5  1   
  5   3   6  1   
  6   4   7  2   
  7   4   8  1   
  8   5   9  ar  
  9   5  10  ar  
 10   6  11  1   
 11   6  23  1   
 12   6  24  1   
 13   7   9  1   
 14   8  12  1   
 15   8  25  1   
 16   8  26  1   
 17   9  13  ar  
 18  10  14  ar  
 19  10  27  1   
 20  11  15  1   
 21  11  28  1   
 22  11  29  1   
 23  12  16  1   
 24  12  30  1   
 25  12  31  1   
 26  13  17  ar  
 27  13  32  1   
 28  14  17  ar  
 29  14  33  1   
 30  15  34  1   
 31  15  35  1   
 32  15  36  1   
 33  16  18  1   
 34  16  37  1   
 35  16  38  1   
 36  17  39  1   
 37  18  19  1   
 38  19  20  2   
 39  19  21  am  
 40  21  22  1   
 41  21  40  1   
 42  22  41  1   
 43  22  42  1   
 44  22  43  1   
@<TRIPOS>SUBSTRUCTURE
  1 ****   4 GROUP 4 **** **** 0

# MOE 2024.06 (io_trps.svl 2023.06)
