@<TRIPOS>MOLECULE
NONAME
43 44 1 0 0 
SMALL
USER_CHARGES


@<TRIPOS>ATOM
  1 O        0.7830    -0.1170     1.8420 O.3   1 <1>  -0.6800 
  2 C        1.2670    -0.2550     0.5460 C.3   1 <1>   0.2000 
  3 C        2.1570    -1.5000     0.5040 C.3   1 <1>  -0.0800 
  4 C        2.2450     0.8920     0.2940 C.3   1 <1>   0.3430 
  5 C        3.5610    -0.9870     0.8820 C.3   1 <1>   0.3430 
  6 C        2.1400    -2.1610    -0.8910 C.3   1 <1>  -0.0170 
  7 N        3.4530     0.4900     1.0620 N.4   1 <1>  -0.9590 
  8 C        2.9840    -3.4270    -0.9420 C.ar  1 <1>   0.1670 
  9 C        4.7090     1.2160     0.7150 C.3   1 <1>   0.3430 
 10 N        4.2970    -3.2580    -0.9250 N.ar  1 <1>  -0.6200 
 11 C        2.3700    -4.6780    -1.0060 C.ar  1 <1>   0.1600 
 12 C        4.6320     2.6950     1.0950 C.3   1 <1>  -0.0220 
 13 C        4.9480    -4.4100    -0.9880 C.ar  1 <1>   0.1600 
 14 N        3.0200    -5.8270    -1.0550 N.ar  1 <1>  -0.6200 
 15 C        5.9540     3.3630     0.7570 C.2   1 <1>  -0.2880 
 16 C        4.3300    -5.6530    -1.0490 C.ar  1 <1>   0.1600 
 17 C        6.2320     4.1880    -0.2590 C.2   1 <1>  -0.2760 
 18 C        7.6220     4.7790    -0.4380 C.3   1 <1>  -0.1020 
 19 C        5.2750     4.6560    -1.3490 C.3   1 <1>  -0.1020 
 20 H        0.0410    -0.7360     2.0170 H     1 <1>   0.4000 
 21 H        0.4370    -0.2630    -0.1420 H     1 <1>   0.0800 
 22 H        1.8300    -2.2310     1.2240 H     1 <1>   0.0800 
 23 H        1.8400     1.8320     0.6330 H     1 <1>   0.0800 
 24 H        2.4770     0.9510    -0.7560 H     1 <1>   0.0800 
 25 H        4.2590    -1.2020     0.0900 H     1 <1>   0.0800 
 26 H        3.9090    -1.4570     1.7870 H     1 <1>   0.0800 
 27 H        2.5090    -1.4770    -1.6370 H     1 <1>   0.0800 
 28 H        1.1260    -2.4060    -1.1560 H     1 <1>   0.0800 
 29 H        3.2090     0.6460     2.0530 H     1 <1>   0.4500 
 30 H        5.5390     0.7700     1.2390 H     1 <1>   0.0800 
 31 H        4.9040     1.1320    -0.3420 H     1 <1>   0.0800 
 32 H        1.2960    -4.7380    -1.0170 H     1 <1>   0.1500 
 33 H        3.8280     3.1730     0.5710 H     1 <1>   0.0800 
 34 H        4.4550     2.8000     2.1500 H     1 <1>   0.0800 
 35 H        6.0230    -4.3740    -0.9920 H     1 <1>   0.1500 
 36 H        6.7190     3.0950     1.4690 H     1 <1>   0.1500 
 37 H        4.9430    -6.5360    -1.0960 H     1 <1>   0.1500 
 38 H        8.0360     4.4820    -1.3850 H     1 <1>   0.0800 
 39 H        8.2870     4.4470     0.3400 H     1 <1>   0.0800 
 40 H        7.5760     5.8540    -0.4030 H     1 <1>   0.0800 
 41 H        5.6720     4.4060    -2.3170 H     1 <1>   0.0800 
 42 H        5.1590     5.7250    -1.2970 H     1 <1>   0.0800 
 43 H        4.3040     4.2110    -1.2660 H     1 <1>   0.0800 
@<TRIPOS>BOND
  1   1   2  1   
  2   1  20  1   
  3   2   3  1   
  4   2   4  1   
  5   2  21  1   
  6   3   5  1   
  7   3   6  1   
  8   3  22  1   
  9   4   7  1   
 10   4  23  1   
 11   4  24  1   
 12   5   7  1   
 13   5  25  1   
 14   5  26  1   
 15   6   8  1   
 16   6  27  1   
 17   6  28  1   
 18   7   9  1   
 19   7  29  1   
 20   8  10  ar  
 21   8  11  ar  
 22   9  12  1   
 23   9  30  1   
 24   9  31  1   
 25  10  13  ar  
 26  11  14  ar  
 27  11  32  1   
 28  12  15  1   
 29  12  33  1   
 30  12  34  1   
 31  13  16  ar  
 32  13  35  1   
 33  14  16  ar  
 34  15  17  2   
 35  15  36  1   
 36  16  37  1   
 37  17  18  1   
 38  17  19  1   
 39  18  38  1   
 40  18  39  1   
 41  18  40  1   
 42  19  41  1   
 43  19  42  1   
 44  19  43  1   
@<TRIPOS>SUBSTRUCTURE
  1 ****   5 GROUP 4 **** **** 0

# MOE 2024.06 (io_trps.svl 2023.06)
