@<TRIPOS>MOLECULE
NONAME
53 55 1 0 0 
SMALL
USER_CHARGES


@<TRIPOS>ATOM
  1 O       -1.0440     0.8570    -0.6200 O.2   1 <1>  -0.5700 
  2 C       -0.7650     2.0150    -0.4440 C.2   1 <1>   0.5690 
  3 N       -1.5930     2.8290     0.2470 N.am  1 <1>  -0.7300 
  4 C        0.5270     2.5930    -1.0300 C.3   1 <1>   0.1810 
  5 C       -1.3260     4.2640     0.4900 C.3   1 <1>   0.3640 
  6 O        0.8990     3.8230    -0.4380 O.3   1 <1>  -0.5600 
  7 C       -2.6100     5.0430     0.2300 C.ar  1 <1>  -0.1440 
  8 C       -0.1480     4.7840    -0.3740 C.3   1 <1>   0.2610 
  9 C       -3.2990     4.9050    -0.9690 C.ar  1 <1>  -0.1500 
 10 C       -3.1080     5.9050     1.1970 C.ar  1 <1>  -0.1500 
 11 C        0.3900     6.1010     0.1960 C.2   1 <1>   0.5690 
 12 C       -4.4610     5.6210    -1.1980 C.ar  1 <1>  -0.1500 
 13 C       -4.2710     6.6200     0.9690 C.ar  1 <1>  -0.1500 
 14 O       -0.2290     7.1280     0.0490 O.2   1 <1>  -0.5700 
 15 N        1.5870     6.0970     0.8450 N.am  1 <1>  -0.7300 
 16 C       -4.9470     6.4800    -0.2290 C.ar  1 <1>  -0.1500 
 17 C        2.2980     7.2020     1.5740 C.3   1 <1>   0.1400 
 18 C        2.7020     8.4420     0.7100 C.3   1 <1>   0.5030 
 19 N        1.4880     9.2300     0.2840 N.4   1 <1>  -0.9590 
 20 C        3.6890     9.3570     1.4740 C.3   1 <1>  -0.1600 
 21 C        3.4980     7.9640    -0.5260 C.3   1 <1>  -0.1600 
 22 C        1.7120    10.2840    -0.7550 C.3   1 <1>   0.2630 
 23 C        0.6830     9.7940     1.4130 C.3   1 <1>   0.2630 
 24 C        5.0230     9.3360     0.7190 C.3   1 <1>  -0.1600 
 25 C        4.6730     8.9260    -0.7050 C.3   1 <1>  -0.1600 
 26 H       -2.4760     2.4510     0.5980 H     1 <1>   0.3700 
 27 H        0.4010     2.7470    -2.0870 H     1 <1>   0.0800 
 28 H        1.3300     1.8950    -0.8750 H     1 <1>   0.0800 
 29 H       -1.0570     4.3740     1.5270 H     1 <1>   0.0800 
 30 H       -0.4890     4.9660    -1.3770 H     1 <1>   0.0800 
 31 H       -2.9410     4.2360    -1.7320 H     1 <1>   0.1500 
 32 H       -2.5980     6.0290     2.1360 H     1 <1>   0.1500 
 33 H       -4.9900     5.5080    -2.1290 H     1 <1>   0.1500 
 34 H       -4.6530     7.2860     1.7240 H     1 <1>   0.1500 
 35 H        2.0660     5.1840     0.8500 H     1 <1>   0.3700 
 36 H       -5.8520     7.0350    -0.4060 H     1 <1>   0.1500 
 37 H        1.7020     7.5120     2.4120 H     1 <1>   0.0800 
 38 H        3.2010     6.7810     1.9820 H     1 <1>   0.0800 
 39 H        0.8640     8.5040    -0.1320 H     1 <1>   0.4500 
 40 H        3.3420    10.3730     1.5110 H     1 <1>   0.0800 
 41 H        3.8450     9.0250     2.4860 H     1 <1>   0.0800 
 42 H        3.9220     6.9950    -0.3240 H     1 <1>   0.0800 
 43 H        2.8960     7.8700    -1.4110 H     1 <1>   0.0800 
 44 H        2.3840    11.0400    -0.3830 H     1 <1>   0.0800 
 45 H        0.7770    10.7510    -1.0180 H     1 <1>   0.0800 
 46 H        2.1360     9.8540    -1.6460 H     1 <1>   0.0800 
 47 H        1.2590    10.5130     1.9710 H     1 <1>   0.0800 
 48 H        0.3650     9.0060     2.0760 H     1 <1>   0.0800 
 49 H       -0.1990    10.2800     1.0300 H     1 <1>   0.0800 
 50 H        5.5260    10.2880     0.7500 H     1 <1>   0.0800 
 51 H        5.6710     8.5910     1.1520 H     1 <1>   0.0800 
 52 H        5.5070     8.4560    -1.2010 H     1 <1>   0.0800 
 53 H        4.3790     9.7900    -1.2740 H     1 <1>   0.0800 
@<TRIPOS>BOND
  1   1   2  2   
  2   2   3  am  
  3   2   4  1   
  4   3   5  1   
  5   3  26  1   
  6   4   6  1   
  7   4  27  1   
  8   4  28  1   
  9   5   7  1   
 10   5   8  1   
 11   5  29  1   
 12   6   8  1   
 13   7   9  ar  
 14   7  10  ar  
 15   8  11  1   
 16   8  30  1   
 17   9  12  ar  
 18   9  31  1   
 19  10  13  ar  
 20  10  32  1   
 21  11  14  2   
 22  11  15  am  
 23  12  16  ar  
 24  12  33  1   
 25  13  16  ar  
 26  13  34  1   
 27  15  17  1   
 28  15  35  1   
 29  16  36  1   
 30  17  18  1   
 31  17  37  1   
 32  17  38  1   
 33  18  19  1   
 34  18  20  1   
 35  18  21  1   
 36  19  22  1   
 37  19  23  1   
 38  19  39  1   
 39  20  24  1   
 40  20  40  1   
 41  20  41  1   
 42  21  25  1   
 43  21  42  1   
 44  21  43  1   
 45  22  44  1   
 46  22  45  1   
 47  22  46  1   
 48  23  47  1   
 49  23  48  1   
 50  23  49  1   
 51  24  25  1   
 52  24  50  1   
 53  24  51  1   
 54  25  52  1   
 55  25  53  1   
@<TRIPOS>SUBSTRUCTURE
  1 ****  11 GROUP 4 **** **** 0

# MOE 2024.06 (io_trps.svl 2023.06)
