@<TRIPOS>MOLECULE
NONAME
46 48 1 0 0 
SMALL
USER_CHARGES


@<TRIPOS>ATOM
  1 O       -0.0020    -0.4470     0.7930 O.2   1 <1>  -0.5700 
  2 C        0.9520    -0.8780     0.1730 C.2   1 <1>   0.5440 
  3 N        1.8930    -0.0260    -0.3380 N.am  1 <1>  -0.4930 
  4 C        1.1010    -2.3080    -0.0240 C.ar  1 <1>   0.0860 
  5 C        2.1180     1.3550    -0.1200 C.2   1 <1>   0.0630 
  6 C        2.3240    -2.9310    -0.2390 C.ar  1 <1>  -0.1500 
  7 C        0.0110    -3.1660    -0.0060 C.ar  1 <1>  -0.1500 
  8 C        3.4060     1.8850     0.0170 C.2   1 <1>   0.3720 
  9 C        1.2910     2.4180    -0.0140 C.2   1 <1>  -0.3320 
 10 C        2.3930    -4.2980    -0.4310 C.ar  1 <1>   0.1660 
 11 C        0.1770    -4.5230    -0.2070 C.ar  1 <1>   0.1660 
 12 N        3.3990     3.1650     0.2180 N.2   1 <1>  -0.7070 
 13 N        4.5840     1.1120    -0.0480 N.pl3 1 <1>  -0.8210 
 14 N        2.0870     3.4940     0.2080 N.pl3 1 <1>   0.3140 
 15 C       -0.2250     2.4870    -0.1230 C.3   1 <1>  -0.0600 
 16 N        1.3450    -5.1000    -0.4220 N.ar  1 <1>  -0.6200 
 17 C        3.7280    -4.9710    -0.6680 C.3   1 <1>  -0.0970 
 18 C       -1.0210    -5.4490    -0.1870 C.3   1 <1>  -0.0970 
 19 C        5.2130     0.9890     1.2960 C.3   1 <1>   0.2090 
 20 C        5.5950     1.6940    -0.9760 C.3   1 <1>   0.2090 
 21 C        1.6610     4.8830     0.4180 C.3   1 <1>   0.0160 
 22 C        6.7080     1.1670     1.0800 C.3   1 <1>  -0.1600 
 23 C        6.7890     2.0940    -0.1200 C.3   1 <1>  -0.1600 
 24 H        2.7370    -0.4580    -0.7120 H     1 <1>   0.3700 
 25 H        3.2290    -2.3520    -0.2490 H     1 <1>   0.1500 
 26 H       -0.9690    -2.7590     0.1670 H     1 <1>   0.1500 
 27 H       -0.6070     1.5940    -0.5830 H     1 <1>   0.0800 
 28 H       -0.5260     3.3230    -0.7280 H     1 <1>   0.0800 
 29 H       -0.6610     2.5790     0.8560 H     1 <1>   0.0800 
 30 H        4.5330    -4.2590    -0.6610 H     1 <1>   0.0800 
 31 H        3.7130    -5.4700    -1.6200 H     1 <1>   0.0800 
 32 H        3.9020    -5.7010     0.1010 H     1 <1>   0.0800 
 33 H       -1.9290    -4.9070    -0.0030 H     1 <1>   0.0800 
 34 H       -0.8910    -6.1850     0.5850 H     1 <1>   0.0800 
 35 H       -1.1000    -5.9520    -1.1340 H     1 <1>   0.0800 
 36 H        4.9910     0.0290     1.7280 H     1 <1>   0.0800 
 37 H        4.8460     1.7630     1.9520 H     1 <1>   0.0800 
 38 H        5.2070     2.5400    -1.5190 H     1 <1>   0.0800 
 39 H        5.8860     0.9350    -1.6820 H     1 <1>   0.0800 
 40 H        0.9060     4.9090     1.1800 H     1 <1>   0.0800 
 41 H        1.2710     5.2730    -0.5030 H     1 <1>   0.0800 
 42 H        2.5070     5.4670     0.7280 H     1 <1>   0.0800 
 43 H        7.1460     0.2130     0.8440 H     1 <1>   0.0800 
 44 H        7.1900     1.5760     1.9500 H     1 <1>   0.0800 
 45 H        6.6570     3.1140     0.1950 H     1 <1>   0.0800 
 46 H        7.7170     2.0040    -0.6550 H     1 <1>   0.0800 
@<TRIPOS>BOND
  1   1   2  2   
  2   2   3  am  
  3   2   4  1   
  4   3   5  1   
  5   3  24  1   
  6   4   6  ar  
  7   4   7  ar  
  8   5   8  1   
  9   5   9  2   
 10   6  10  ar  
 11   6  25  1   
 12   7  11  ar  
 13   7  26  1   
 14   8  12  2   
 15   8  13  1   
 16   9  14  1   
 17   9  15  1   
 18  10  16  ar  
 19  10  17  1   
 20  11  16  ar  
 21  11  18  1   
 22  12  14  1   
 23  13  19  1   
 24  13  20  1   
 25  14  21  1   
 26  15  27  1   
 27  15  28  1   
 28  15  29  1   
 29  17  30  1   
 30  17  31  1   
 31  17  32  1   
 32  18  33  1   
 33  18  34  1   
 34  18  35  1   
 35  19  22  1   
 36  19  36  1   
 37  19  37  1   
 38  20  23  1   
 39  20  38  1   
 40  20  39  1   
 41  21  40  1   
 42  21  41  1   
 43  21  42  1   
 44  22  23  1   
 45  22  43  1   
 46  22  44  1   
 47  23  45  1   
 48  23  46  1   
@<TRIPOS>SUBSTRUCTURE
  1 ****   3 GROUP 4 **** **** 0

# MOE 2024.06 (io_trps.svl 2023.06)
