@<TRIPOS>MOLECULE
NONAME
55 57 1 0 0 
SMALL
USER_CHARGES


@<TRIPOS>ATOM
  1 O       -1.3480     0.1570    -1.4760 O.2   1 <1>  -0.5700 
  2 C       -1.7250     0.3560    -0.3490 C.2   1 <1>   0.5690 
  3 N       -2.0610    -0.6520     0.4860 N.am  1 <1>  -0.7300 
  4 C       -1.8280     1.7810     0.1430 C.3   1 <1>  -0.0990 
  5 C       -1.9340    -2.0980     0.1730 C.3   1 <1>   0.2200 
  6 C       -1.0420     2.6960    -0.7980 C.3   1 <1>   0.3430 
  7 C       -3.3000    -2.7530     0.0080 C.3   1 <1>  -0.0800 
  8 C       -1.4390    -2.8140     1.4210 C.3   1 <1>   0.1200 
  9 N       -1.1680     4.1370    -0.4200 N.4   1 <1>  -0.9590 
 10 C       -3.7050    -3.0860     1.4500 C.3   1 <1>   0.1200 
 11 C       -4.3490    -1.9430    -0.7760 C.3   1 <1>  -0.0170 
 12 O       -2.5650    -2.8980     2.2380 O.3   1 <1>  -0.5600 
 13 C       -0.6200     5.0040    -1.5250 C.3   1 <1>   0.3430 
 14 C       -0.4680     4.4660     0.8750 C.3   1 <1>   0.3430 
 15 C       -5.6250    -2.7490    -0.9650 C.ar  1 <1>  -0.1430 
 16 C       -0.5940     6.5020    -1.1360 C.3   1 <1>   0.2000 
 17 C       -0.4500     5.9860     1.1600 C.3   1 <1>   0.2000 
 18 C       -6.7280    -2.5840    -0.1520 C.ar  1 <1>  -0.1500 
 19 C       -5.7420    -3.6930    -1.9650 C.ar  1 <1>  -0.1500 
 20 O        0.0900     6.6650     0.0680 O.3   1 <1>  -0.5600 
 21 C        0.1360     7.3480    -2.1760 C.3   1 <1>  -0.2400 
 22 C        0.4190     6.3310     2.3670 C.3   1 <1>  -0.2400 
 23 C       -7.8590    -3.3530    -0.3680 C.ar  1 <1>   0.1600 
 24 C       -6.9200    -4.4100    -2.0970 C.ar  1 <1>   0.1600 
 25 N       -7.9810    -4.2640    -1.3200 N.ar  1 <1>  -0.6200 
 26 H       -2.4060    -0.4900     1.4370 H     1 <1>   0.3700 
 27 H       -2.8660     2.0570     0.1520 H     1 <1>   0.0800 
 28 H       -1.4290     1.8260     1.1390 H     1 <1>   0.0800 
 29 H       -1.2890    -2.2560    -0.6760 H     1 <1>   0.0800 
 30 H       -1.4180     2.5520    -1.7990 H     1 <1>   0.0800 
 31 H       -0.0040     2.4020    -0.7980 H     1 <1>   0.0800 
 32 H       -3.1530    -3.6880    -0.5050 H     1 <1>   0.0800 
 33 H       -0.6560    -2.2820     1.9310 H     1 <1>   0.0800 
 34 H       -1.1170    -3.8150     1.1920 H     1 <1>   0.0800 
 35 H       -2.1650     4.3690    -0.3170 H     1 <1>   0.4500 
 36 H       -4.0300    -4.1090     1.5440 H     1 <1>   0.0800 
 37 H       -4.4710    -2.4270     1.8190 H     1 <1>   0.0800 
 38 H       -3.9490    -1.6810    -1.7410 H     1 <1>   0.0800 
 39 H       -4.5810    -1.0280    -0.2610 H     1 <1>   0.0800 
 40 H        0.3890     4.7030    -1.7560 H     1 <1>   0.0800 
 41 H       -1.2110     4.8820    -2.4180 H     1 <1>   0.0800 
 42 H       -0.9500     3.9630     1.6960 H     1 <1>   0.0800 
 43 H        0.5530     4.1240     0.8330 H     1 <1>   0.0800 
 44 H       -1.5960     6.8770    -1.0130 H     1 <1>   0.0800 
 45 H       -1.4500     6.3510     1.3270 H     1 <1>   0.0800 
 46 H       -6.7220    -1.8670     0.6480 H     1 <1>   0.1500 
 47 H       -4.9300    -3.8790    -2.6450 H     1 <1>   0.1500 
 48 H        1.1540     7.0180    -2.2880 H     1 <1>   0.0800 
 49 H        0.1370     8.3800    -1.8690 H     1 <1>   0.0800 
 50 H       -0.3560     7.2820    -3.1290 H     1 <1>   0.0800 
 51 H        1.4350     6.0130     2.2070 H     1 <1>   0.0800 
 52 H        0.0420     5.8530     3.2530 H     1 <1>   0.0800 
 53 H        0.4090     7.3940     2.5300 H     1 <1>   0.0800 
 54 H       -8.7100    -3.2110     0.2770 H     1 <1>   0.1500 
 55 H       -6.9930    -5.1420    -2.8830 H     1 <1>   0.1500 
@<TRIPOS>BOND
  1   1   2  2   
  2   2   3  am  
  3   2   4  1   
  4   3   5  1   
  5   3  26  1   
  6   4   6  1   
  7   4  27  1   
  8   4  28  1   
  9   5   7  1   
 10   5   8  1   
 11   5  29  1   
 12   6   9  1   
 13   6  30  1   
 14   6  31  1   
 15   7  10  1   
 16   7  11  1   
 17   7  32  1   
 18   8  12  1   
 19   8  33  1   
 20   8  34  1   
 21   9  13  1   
 22   9  14  1   
 23   9  35  1   
 24  10  12  1   
 25  10  36  1   
 26  10  37  1   
 27  11  15  1   
 28  11  38  1   
 29  11  39  1   
 30  13  16  1   
 31  13  40  1   
 32  13  41  1   
 33  14  17  1   
 34  14  42  1   
 35  14  43  1   
 36  15  18  ar  
 37  15  19  ar  
 38  16  20  1   
 39  16  21  1   
 40  16  44  1   
 41  17  20  1   
 42  17  22  1   
 43  17  45  1   
 44  18  23  ar  
 45  18  46  1   
 46  19  24  ar  
 47  19  47  1   
 48  21  48  1   
 49  21  49  1   
 50  21  50  1   
 51  22  51  1   
 52  22  52  1   
 53  22  53  1   
 54  23  25  ar  
 55  23  54  1   
 56  24  25  ar  
 57  24  55  1   
@<TRIPOS>SUBSTRUCTURE
  1 ****   2 GROUP 4 **** **** 0

# MOE 2024.06 (io_trps.svl 2023.06)
