@<TRIPOS>MOLECULE
NONAME
43 45 1 0 0 
SMALL
USER_CHARGES


@<TRIPOS>ATOM
  1 O       -1.9000    -1.9950    -0.9150 O.co2 1 <1>  -0.9000 
  2 C       -2.8430    -1.3060    -1.3160 C.2   1 <1>   0.9790 
  3 O       -3.5590    -1.7750    -2.2180 O.co2 1 <1>  -0.9000 
  4 C       -3.3910    -0.2690    -0.4710 C.ar  1 <1>  -0.1790 
  5 C       -4.0900    -0.6490     0.6810 C.ar  1 <1>  -0.1440 
  6 C       -3.2810     1.0860    -0.7690 C.ar  1 <1>  -0.1500 
  7 C       -4.6560     0.3120     1.5040 C.ar  1 <1>  -0.1500 
  8 C       -4.2120    -2.1360     1.0090 C.3   1 <1>   0.4870 
  9 C       -3.8480     2.0400     0.0550 C.ar  1 <1>  -0.1500 
 10 C       -4.5360     1.6550     1.1920 C.ar  1 <1>  -0.1500 
 11 N       -4.9140    -2.8520    -0.0950 N.4   1 <1>  -0.9590 
 12 C       -6.1690    -2.2300    -0.6040 C.3   1 <1>   0.3430 
 13 C       -5.0950    -4.3120     0.0540 C.3   1 <1>   0.3430 
 14 C       -7.2030    -3.3580    -0.6330 C.3   1 <1>   0.2000 
 15 C       -6.3590    -4.6320    -0.7440 C.3   1 <1>  -0.0800 
 16 O       -7.9070    -3.3570     0.5690 O.3   1 <1>  -0.6800 
 17 C       -7.0580    -5.9380    -0.3170 C.3   1 <1>   0.0200 
 18 C       -6.0790    -7.0940    -0.2770 C.2   1 <1>  -0.0400 
 19 O       -5.3370    -7.3610    -1.3180 O.3   1 <1>  -0.0190 
 20 C       -5.7740    -7.9790     0.6850 C.2   1 <1>  -0.1500 
 21 N       -4.5470    -8.3700    -1.1020 N.2   1 <1>  -0.4100 
 22 C       -4.7900    -8.7680     0.0950 C.2   1 <1>   0.1080 
 23 C       -4.0960    -9.9360     0.7590 C.3   1 <1>  -0.0590 
 24 H       -2.7470     1.3850    -1.6560 H     1 <1>   0.1500 
 25 H       -5.1900     0.0300     2.3940 H     1 <1>   0.1500 
 26 H       -4.7480    -2.2610     1.9330 H     1 <1>   0.0800 
 27 H       -3.2190    -2.5450     1.1250 H     1 <1>   0.0800 
 28 H       -3.7520     3.0840    -0.1890 H     1 <1>   0.1500 
 29 H       -4.9730     2.4020     1.8310 H     1 <1>   0.1500 
 30 H       -4.2570    -2.7260    -0.9140 H     1 <1>   0.4500 
 31 H       -6.4980    -1.4090     0.0100 H     1 <1>   0.0800 
 32 H       -5.9900    -1.8690    -1.6060 H     1 <1>   0.0800 
 33 H       -4.2410    -4.8530    -0.3260 H     1 <1>   0.0800 
 34 H       -5.2450    -4.5620     1.0900 H     1 <1>   0.0800 
 35 H       -7.9090    -3.2480    -1.4390 H     1 <1>   0.0800 
 36 H       -6.0540    -4.7370    -1.7720 H     1 <1>   0.0800 
 37 H       -7.3060    -3.2950     1.3350 H     1 <1>   0.4000 
 38 H       -7.8430    -6.1670    -1.0170 H     1 <1>   0.0800 
 39 H       -7.5040    -5.8420     0.6560 H     1 <1>   0.0800 
 40 H       -6.1690    -8.0910     1.6780 H     1 <1>   0.1500 
 41 H       -3.6970    -9.6350     1.7100 H     1 <1>   0.0800 
 42 H       -3.2900   -10.2840     0.1380 H     1 <1>   0.0800 
 43 H       -4.7940   -10.7400     0.9040 H     1 <1>   0.0800 
@<TRIPOS>BOND
  1   1   2  ar  
  2   2   3  ar  
  3   2   4  1   
  4   4   5  ar  
  5   4   6  ar  
  6   5   7  ar  
  7   5   8  1   
  8   6   9  ar  
  9   6  24  1   
 10   7  10  ar  
 11   7  25  1   
 12   8  11  1   
 13   8  26  1   
 14   8  27  1   
 15   9  10  ar  
 16   9  28  1   
 17  10  29  1   
 18  11  12  1   
 19  11  13  1   
 20  11  30  1   
 21  12  14  1   
 22  12  31  1   
 23  12  32  1   
 24  13  15  1   
 25  13  33  1   
 26  13  34  1   
 27  14  15  1   
 28  14  16  1   
 29  14  35  1   
 30  15  17  1   
 31  15  36  1   
 32  16  37  1   
 33  17  18  1   
 34  17  38  1   
 35  17  39  1   
 36  18  19  1   
 37  18  20  2   
 38  19  21  1   
 39  20  22  1   
 40  20  40  1   
 41  21  22  2   
 42  22  23  1   
 43  23  41  1   
 44  23  42  1   
 45  23  43  1   
@<TRIPOS>SUBSTRUCTURE
  1 ****  11 GROUP 4 **** **** 0

# MOE 2024.06 (io_trps.svl 2023.06)
