@<TRIPOS>MOLECULE
NONAME
47 49 1 0 0 
SMALL
USER_CHARGES


@<TRIPOS>ATOM
  1 S       -2.7490    -1.9910     2.8580 S.3   1 <1>  -0.0800 
  2 C       -3.3710    -3.1560     1.7060 C.2   1 <1>  -0.1100 
  3 C       -1.9820    -1.0690     1.5790 C.2   1 <1>  -0.1100 
  4 C       -3.0090    -2.8280     0.4490 C.2   1 <1>  -0.1810 
  5 C       -2.2090    -1.6370     0.3810 C.2   1 <1>  -0.1500 
  6 C       -3.3860    -3.6000    -0.7960 C.3   1 <1>   0.5240 
  7 N       -4.8040    -3.2940    -1.1060 N.4   1 <1>  -0.9590 
  8 C       -5.4240    -4.2720    -2.0580 C.3   1 <1>   0.3430 
  9 C       -5.0460    -1.8690    -1.4680 C.3   1 <1>   0.3430 
 10 C       -6.9620    -4.1520    -2.0940 C.3   1 <1>   0.1400 
 11 C       -6.2310    -1.3350    -0.6580 C.3   1 <1>  -0.1600 
 12 N       -7.4920    -3.4710    -0.8690 N.am  1 <1>  -0.6600 
 13 C       -7.5830    -1.9850    -0.9820 C.3   1 <1>   0.1400 
 14 C       -7.9310    -4.1430     0.2630 C.2   1 <1>   0.7150 
 15 O       -8.4400    -3.4860     1.1500 O.2   1 <1>  -0.5700 
 16 C       -7.7540    -5.5680     0.4470 C.2   1 <1>   0.0550 
 17 O       -6.6620    -6.1930     0.0120 O.3   1 <1>  -0.2800 
 18 C       -8.5500    -6.4700     1.0580 C.2   1 <1>   0.0460 
 19 C       -6.8860    -7.4380     0.3930 C.2   1 <1>   0.2980 
 20 N       -7.9840    -7.6670     1.0100 N.2   1 <1>  -0.5650 
 21 C       -9.8950    -6.3020     1.7360 C.3   1 <1>  -0.0590 
 22 C       -5.8190    -8.4740     0.0640 C.3   1 <1>   0.0200 
 23 C       -6.1700    -9.8960     0.5270 C.3   1 <1>  -0.2400 
 24 H       -3.9510    -3.9670     2.1130 H     1 <1>   0.1500 
 25 H       -1.4320    -0.1910     1.8690 H     1 <1>   0.1500 
 26 H       -1.8300    -1.2540    -0.5510 H     1 <1>   0.1500 
 27 H       -3.2730    -4.6540    -0.6000 H     1 <1>   0.0800 
 28 H       -2.7450    -3.3290    -1.6190 H     1 <1>   0.0800 
 29 H       -5.3190    -3.4170    -0.2200 H     1 <1>   0.4500 
 30 H       -5.1810    -5.2740    -1.7400 H     1 <1>   0.0800 
 31 H       -5.0260    -4.1410    -3.0510 H     1 <1>   0.0800 
 32 H       -5.2390    -1.7740    -2.5240 H     1 <1>   0.0800 
 33 H       -4.1780    -1.2760    -1.2300 H     1 <1>   0.0800 
 34 H       -7.4000    -5.1300    -2.1990 H     1 <1>   0.0800 
 35 H       -7.2520    -3.5930    -2.9680 H     1 <1>   0.0800 
 36 H       -6.3200    -0.2810    -0.8510 H     1 <1>   0.0800 
 37 H       -6.0280    -1.4350     0.3950 H     1 <1>   0.0800 
 38 H       -7.8950    -1.7160    -1.9770 H     1 <1>   0.0800 
 39 H       -8.3320    -1.6020    -0.3070 H     1 <1>   0.0800 
 40 H      -10.2460    -5.2900     1.6610 H     1 <1>   0.0800 
 41 H       -9.8070    -6.5620     2.7760 H     1 <1>   0.0800 
 42 H      -10.6150    -6.9550     1.2780 H     1 <1>   0.0800 
 43 H       -4.8990    -8.1740     0.5310 H     1 <1>   0.0800 
 44 H       -5.6690    -8.4820    -1.0000 H     1 <1>   0.0800 
 45 H       -6.3070    -9.9160     1.5940 H     1 <1>   0.0800 
 46 H       -5.3820   -10.5800     0.2660 H     1 <1>   0.0800 
 47 H       -7.0820   -10.2250     0.0600 H     1 <1>   0.0800 
@<TRIPOS>BOND
  1   1   2  1   
  2   1   3  1   
  3   2   4  2   
  4   2  24  1   
  5   3   5  2   
  6   3  25  1   
  7   4   5  1   
  8   4   6  1   
  9   5  26  1   
 10   6   7  1   
 11   6  27  1   
 12   6  28  1   
 13   7   8  1   
 14   7   9  1   
 15   7  29  1   
 16   8  10  1   
 17   8  30  1   
 18   8  31  1   
 19   9  11  1   
 20   9  32  1   
 21   9  33  1   
 22  10  12  1   
 23  10  34  1   
 24  10  35  1   
 25  11  13  1   
 26  11  36  1   
 27  11  37  1   
 28  12  13  1   
 29  12  14  am  
 30  13  38  1   
 31  13  39  1   
 32  14  15  2   
 33  14  16  1   
 34  16  17  1   
 35  16  18  2   
 36  17  19  1   
 37  18  20  1   
 38  18  21  1   
 39  19  20  2   
 40  19  22  1   
 41  21  40  1   
 42  21  41  1   
 43  21  42  1   
 44  22  23  1   
 45  22  43  1   
 46  22  44  1   
 47  23  45  1   
 48  23  46  1   
 49  23  47  1   
@<TRIPOS>SUBSTRUCTURE
  1 ****  17 GROUP 4 **** **** 0

# MOE 2024.06 (io_trps.svl 2023.06)
