@<TRIPOS>MOLECULE
NONAME
21 22 1 0 0 
SMALL
USER_CHARGES


@<TRIPOS>ATOM
  1 O        8.5880     0.8870     0.0880 O.3   1 <1>  -0.2800 
  2 C        7.5540     0.0980     0.1740 C.2   1 <1>   0.0550 
  3 C        8.1420     2.0110    -0.4210 C.2   1 <1>   0.3280 
  4 C        6.4930     0.7780    -0.2880 C.2   1 <1>   0.0460 
  5 C        7.7420    -1.3000     0.7330 C.3   1 <1>  -0.0150 
  6 N        6.8780     2.0210    -0.6690 N.2   1 <1>  -0.5650 
  7 C        5.0410     0.3640    -0.4090 C.3   1 <1>   0.5240 
  8 C        8.3380    -2.3690    -0.1220 C.3   1 <1>  -0.2000 
  9 C        6.8980    -2.4580     0.2950 C.3   1 <1>  -0.2000 
 10 N        4.2340     1.5580    -0.0760 N.4   1 <1>  -0.8530 
 11 H        8.8420     2.8140    -0.5870 H     1 <1>   0.1500 
 12 H        8.0700    -1.2790     1.7590 H     1 <1>   0.1000 
 13 H        4.8190    -0.4580     0.2510 H     1 <1>   0.0800 
 14 H        4.8510     0.0650    -1.4270 H     1 <1>   0.0800 
 15 H        9.0540    -3.0420     0.3210 H     1 <1>   0.1000 
 16 H        8.5780    -2.1330    -1.1450 H     1 <1>   0.1000 
 17 H        6.1720    -2.3700    -0.4930 H     1 <1>   0.1000 
 18 H        6.6300    -3.2100     1.0180 H     1 <1>   0.1000 
 19 H        4.2330     1.7240     0.9340 H     1 <1>   0.4500 
 20 H        3.2800     1.5210    -0.4430 H     1 <1>   0.4500 
 21 H        4.7480     2.3480    -0.4990 H     1 <1>   0.4500 
@<TRIPOS>BOND
  1   1   2  1   
  2   1   3  1   
  3   2   4  2   
  4   2   5  1   
  5   3   6  2   
  6   3  11  1   
  7   4   6  1   
  8   4   7  1   
  9   5   8  1   
 10   5   9  1   
 11   5  12  1   
 12   7  10  1   
 13   7  13  1   
 14   7  14  1   
 15   8   9  1   
 16   8  15  1   
 17   8  16  1   
 18   9  17  1   
 19   9  18  1   
 20  10  19  1   
 21  10  20  1   
 22  10  21  1   
@<TRIPOS>SUBSTRUCTURE
  1 ****   2 GROUP 4 **** **** 0

# MOE 2024.06 (io_trps.svl 2023.06)
