@<TRIPOS>MOLECULE
NONAME
49 50 1 0 0 
SMALL
USER_CHARGES


@<TRIPOS>ATOM
  1 O       -0.8560    -0.1700     0.2860 O.2   1 <1>  -0.5700 
  2 C       -1.7220     0.6020    -0.0630 C.2   1 <1>   0.5690 
  3 N       -3.0550     0.2900     0.1170 N.am  1 <1>  -0.6600 
  4 C       -1.2270     1.9150    -0.6980 C.3   1 <1>   0.2610 
  5 C       -3.4340    -0.9860     0.8120 C.3   1 <1>   0.3210 
  6 C       -4.2230     1.0680    -0.4300 C.3   1 <1>   0.1400 
  7 O       -1.9550     3.0190    -0.1830 O.3   1 <1>  -0.3630 
  8 C       -1.3170     1.9100    -2.2340 C.3   1 <1>  -0.2400 
  9 C       -4.2070    -1.9250    -0.1110 C.2   1 <1>   0.0460 
 10 C       -5.1540     1.5860     0.6750 C.3   1 <1>   0.1200 
 11 C       -1.4740     4.2850    -0.1270 C.ar  1 <1>   0.0830 
 12 N       -5.5570    -1.9020    -0.1570 N.2   1 <1>  -0.5650 
 13 C       -3.7120    -2.8590    -0.9580 C.2   1 <1>  -0.3320 
 14 O       -4.4280     2.3330     1.5890 O.3   1 <1>  -0.6800 
 15 C       -2.3070     5.2300     0.4460 C.ar  1 <1>  -0.1500 
 16 C       -0.2250     4.6750    -0.5960 C.ar  1 <1>  -0.1500 
 17 C       -5.8520    -2.8170    -1.0220 C.2   1 <1>   0.0360 
 18 N       -4.7750    -3.4360    -1.5460 N.pl3 1 <1>   0.0330 
 19 C       -2.2770    -3.2510    -1.2650 C.3   1 <1>  -0.0600 
 20 C       -1.9200     6.5560     0.5560 C.ar  1 <1>  -0.1430 
 21 C        0.1670     5.9970    -0.4900 C.ar  1 <1>  -0.1500 
 22 C       -0.6700     6.9440     0.0820 C.ar  1 <1>  -0.1430 
 23 C       -2.8760     7.5520     1.1960 C.3   1 <1>  -0.0970 
 24 C       -0.1980     8.3870     0.1800 C.3   1 <1>  -0.0970 
 25 H       -0.2030     2.0340    -0.3950 H     1 <1>   0.0800 
 26 H       -4.0370    -0.7640     1.6730 H     1 <1>   0.0800 
 27 H       -2.5620    -1.5030     1.1680 H     1 <1>   0.0800 
 28 H       -4.7890     0.4390    -1.0940 H     1 <1>   0.0800 
 29 H       -3.8990     1.9060    -1.0150 H     1 <1>   0.0800 
 30 H       -2.3280     1.7590    -2.5600 H     1 <1>   0.0800 
 31 H       -0.7170     1.1060    -2.6210 H     1 <1>   0.0800 
 32 H       -0.9490     2.8330    -2.6410 H     1 <1>   0.0800 
 33 H       -5.6210     0.7670     1.1950 H     1 <1>   0.0800 
 34 H       -5.9230     2.2150     0.2630 H     1 <1>   0.0800 
 35 H       -3.4920     2.0400     1.5580 H     1 <1>   0.4000 
 36 H       -3.2680     4.9080     0.8080 H     1 <1>   0.1500 
 37 H        0.4520     3.9750    -1.0450 H     1 <1>   0.1500 
 38 H       -6.8560    -3.0760    -1.3090 H     1 <1>   0.1500 
 39 H       -4.7720    -4.1860    -2.2420 H     1 <1>   0.2700 
 40 H       -1.5890    -2.6440    -0.7030 H     1 <1>   0.0800 
 41 H       -2.0700    -3.1130    -2.3110 H     1 <1>   0.0800 
 42 H       -2.1090    -4.2820    -1.0070 H     1 <1>   0.0800 
 43 H        1.1350     6.2870    -0.8570 H     1 <1>   0.1500 
 44 H       -3.7850     7.0680     1.5040 H     1 <1>   0.0800 
 45 H       -3.1260     8.3260     0.4940 H     1 <1>   0.0800 
 46 H       -2.4200     7.9950     2.0630 H     1 <1>   0.0800 
 47 H       -0.8700     9.0320    -0.3580 H     1 <1>   0.0800 
 48 H        0.7850     8.5010    -0.2390 H     1 <1>   0.0800 
 49 H       -0.1650     8.6950     1.2090 H     1 <1>   0.0800 
@<TRIPOS>BOND
  1   1   2  2   
  2   2   3  am  
  3   2   4  1   
  4   3   5  1   
  5   3   6  1   
  6   4   7  1   
  7   4   8  1   
  8   4  25  1   
  9   5   9  1   
 10   5  26  1   
 11   5  27  1   
 12   6  10  1   
 13   6  28  1   
 14   6  29  1   
 15   7  11  1   
 16   8  30  1   
 17   8  31  1   
 18   8  32  1   
 19   9  12  1   
 20   9  13  2   
 21  10  14  1   
 22  10  33  1   
 23  10  34  1   
 24  11  15  ar  
 25  11  16  ar  
 26  12  17  2   
 27  13  18  1   
 28  13  19  1   
 29  14  35  1   
 30  15  20  ar  
 31  15  36  1   
 32  16  21  ar  
 33  16  37  1   
 34  17  18  1   
 35  17  38  1   
 36  18  39  1   
 37  19  40  1   
 38  19  41  1   
 39  19  42  1   
 40  20  22  ar  
 41  20  23  1   
 42  21  22  ar  
 43  21  43  1   
 44  22  24  1   
 45  23  44  1   
 46  23  45  1   
 47  23  46  1   
 48  24  47  1   
 49  24  48  1   
 50  24  49  1   
@<TRIPOS>SUBSTRUCTURE
  1 ****   7 GROUP 4 **** **** 0

# MOE 2024.06 (io_trps.svl 2023.06)
