@<TRIPOS>MOLECULE
NONAME
54 56 1 0 0 
SMALL
USER_CHARGES


@<TRIPOS>ATOM
  1 F        0.3810     0.6660     1.0910 F     1 <1>  -0.3400 
  2 C        0.4000    -0.1550     0.0470 C.3   1 <1>   1.1640 
  3 F        1.4450    -0.9550     0.2220 F     1 <1>  -0.3400 
  4 F        0.6750     0.5950    -1.0120 F     1 <1>  -0.3400 
  5 C       -0.9130    -0.9250    -0.1260 C.ar  1 <1>  -0.1440 
  6 C       -2.1290    -0.4090     0.2750 C.ar  1 <1>  -0.1500 
  7 C       -0.9580    -2.1850    -0.7040 C.ar  1 <1>  -0.1500 
  8 C       -3.3040    -1.1330     0.0960 C.ar  1 <1>   0.4100 
  9 C       -2.1700    -2.8390    -0.8380 C.ar  1 <1>   0.1660 
 10 N       -3.3270    -2.3420    -0.4500 N.ar  1 <1>  -0.6200 
 11 N       -4.5120    -0.5880     0.4960 N.pl3 1 <1>  -0.8380 
 12 C       -2.2280    -4.2160    -1.4640 C.3   1 <1>  -0.0970 
 13 C       -5.6200    -1.5250     0.8470 C.3   1 <1>   0.2090 
 14 C       -4.9030     0.7370    -0.0670 C.3   1 <1>   0.2090 
 15 C       -6.7270    -0.7350     1.5360 C.3   1 <1>  -0.1600 
 16 C       -6.3620     0.7290    -0.5250 C.3   1 <1>  -0.1600 
 17 C       -7.3380     0.3320     0.6020 C.3   1 <1>   0.2800 
 18 O       -8.4090    -0.2780    -0.0650 O.3   1 <1>  -0.5600 
 19 C       -7.7550     1.5730     1.4460 C.3   1 <1>   0.1400 
 20 C       -9.6770    -0.2180     0.4990 C.3   1 <1>   0.1200 
 21 N       -8.5840     2.6020     0.7420 N.am  1 <1>  -0.6600 
 22 C      -10.4090     0.9940    -0.0670 C.3   1 <1>  -0.0990 
 23 C       -9.7400     2.3540     0.0400 C.2   1 <1>   0.5690 
 24 C       -8.1570     4.0200     0.9720 C.3   1 <1>   0.1400 
 25 O      -10.3150     3.2520    -0.5270 O.2   1 <1>  -0.5700 
 26 C       -7.4460     4.5880    -0.2560 C.3   1 <1>   0.1200 
 27 O       -6.8730     5.8100     0.0920 O.3   1 <1>  -0.5600 
 28 C       -6.3230     6.4970    -0.9840 C.3   1 <1>   0.0400 
 29 H       -2.1960     0.5570     0.7380 H     1 <1>   0.1500 
 30 H       -0.0550    -2.6580    -1.0490 H     1 <1>   0.1500 
 31 H       -1.2520    -4.5530    -1.7600 H     1 <1>   0.0800 
 32 H       -2.8650    -4.1890    -2.3290 H     1 <1>   0.0800 
 33 H       -2.6380    -4.9140    -0.7560 H     1 <1>   0.0800 
 34 H       -5.2440    -2.2890     1.5060 H     1 <1>   0.0800 
 35 H       -5.9960    -2.0000    -0.0450 H     1 <1>   0.0800 
 36 H       -4.2710     0.9750    -0.9060 H     1 <1>   0.0800 
 37 H       -4.7600     1.4910     0.6870 H     1 <1>   0.0800 
 38 H       -6.2860    -0.2710     2.4000 H     1 <1>   0.0800 
 39 H       -7.4870    -1.4090     1.8850 H     1 <1>   0.0800 
 40 H       -6.4380     0.0260    -1.3360 H     1 <1>   0.0800 
 41 H       -6.6210     1.6920    -0.9210 H     1 <1>   0.0800 
 42 H       -6.8470     2.0350     1.7920 H     1 <1>   0.0800 
 43 H       -8.2790     1.2570     2.3290 H     1 <1>   0.0800 
 44 H       -9.6190    -0.2050     1.5730 H     1 <1>   0.0800 
 45 H      -10.1960    -1.1140     0.2060 H     1 <1>   0.0800 
 46 H      -11.3670     1.0670     0.4130 H     1 <1>   0.0800 
 47 H      -10.5960     0.8090    -1.1090 H     1 <1>   0.0800 
 48 H       -7.5030     4.0780     1.8230 H     1 <1>   0.0800 
 49 H       -9.0250     4.6230     1.1770 H     1 <1>   0.0800 
 50 H       -8.1560     4.7440    -1.0510 H     1 <1>   0.0800 
 51 H       -6.6600     3.9310    -0.5780 H     1 <1>   0.0800 
 52 H       -5.8940     7.4120    -0.6140 H     1 <1>   0.0800 
 53 H       -7.1000     6.7230    -1.6950 H     1 <1>   0.0800 
 54 H       -5.5560     5.8940    -1.4390 H     1 <1>   0.0800 
@<TRIPOS>BOND
  1   1   2  1   
  2   2   3  1   
  3   2   4  1   
  4   2   5  1   
  5   5   6  ar  
  6   5   7  ar  
  7   6   8  ar  
  8   6  29  1   
  9   7   9  ar  
 10   7  30  1   
 11   8  10  ar  
 12   8  11  1   
 13   9  10  ar  
 14   9  12  1   
 15  11  13  1   
 16  11  14  1   
 17  12  31  1   
 18  12  32  1   
 19  12  33  1   
 20  13  15  1   
 21  13  34  1   
 22  13  35  1   
 23  14  16  1   
 24  14  36  1   
 25  14  37  1   
 26  15  17  1   
 27  15  38  1   
 28  15  39  1   
 29  16  17  1   
 30  16  40  1   
 31  16  41  1   
 32  17  18  1   
 33  17  19  1   
 34  18  20  1   
 35  19  21  1   
 36  19  42  1   
 37  19  43  1   
 38  20  22  1   
 39  20  44  1   
 40  20  45  1   
 41  21  23  am  
 42  21  24  1   
 43  22  23  1   
 44  22  46  1   
 45  22  47  1   
 46  23  25  2   
 47  24  26  1   
 48  24  48  1   
 49  24  49  1   
 50  26  27  1   
 51  26  50  1   
 52  26  51  1   
 53  27  28  1   
 54  28  52  1   
 55  28  53  1   
 56  28  54  1   
@<TRIPOS>SUBSTRUCTURE
  1 ****  14 GROUP 4 **** **** 0

# MOE 2024.06 (io_trps.svl 2023.06)
