@<TRIPOS>MOLECULE
NONAME
41 43 1 0 0 
SMALL
USER_CHARGES


@<TRIPOS>ATOM
  1 O        1.8800    -0.1010     2.5110 O.3   1 <1>  -0.6800 
  2 C        1.4160    -0.3710     1.2260 C.3   1 <1>   0.2000 
  3 C        1.9820    -1.7030     0.7320 C.3   1 <1>  -0.0800 
  4 C        2.0570     0.6310     0.2630 C.3   1 <1>   0.3430 
  5 C        3.4040    -1.3630     0.2710 C.3   1 <1>   0.3430 
  6 C        1.9320    -2.8780     1.7300 C.3   1 <1>  -0.0170 
  7 N        3.4310     0.1060    -0.0020 N.4   1 <1>  -0.9590 
  8 C        2.6310    -4.1040     1.1500 C.ar  1 <1>  -0.1440 
  9 C        4.4560     0.8050     0.8280 C.3   1 <1>   0.3430 
 10 C        2.0520    -4.9020     0.1340 C.ar  1 <1>   0.0000 
 11 C        3.8690    -4.4590     1.6020 C.ar  1 <1>  -0.1500 
 12 C        4.7970     2.1740     0.2090 C.3   1 <1>   0.1200 
 13 C        2.8230    -5.9740    -0.3790 C.ar  1 <1>   0.3100 
 14 C        0.7560    -4.7070    -0.3990 C.ar  1 <1>  -0.1500 
 15 C        4.5370    -5.5540     1.0420 C.ar  1 <1>   0.1600 
 16 O        4.8020     2.0700    -1.1840 O.3   1 <1>  -0.6800 
 17 N        4.0600    -6.2810     0.0840 N.ar  1 <1>  -0.6200 
 18 C        2.2910    -6.7630    -1.4110 C.ar  1 <1>  -0.1500 
 19 C        0.2650    -5.4980    -1.4020 C.ar  1 <1>  -0.1500 
 20 C        1.0420    -6.5360    -1.9200 C.ar  1 <1>  -0.1500 
 21 H        1.3240    -0.5420     3.1890 H     1 <1>   0.4000 
 22 H        0.3400    -0.3200     1.2200 H     1 <1>   0.0800 
 23 H        1.4330    -1.9820    -0.1500 H     1 <1>   0.0800 
 24 H        2.0700     1.6240     0.6810 H     1 <1>   0.0800 
 25 H        1.4970     0.6420    -0.6580 H     1 <1>   0.0800 
 26 H        3.6640    -1.9310    -0.6090 H     1 <1>   0.0800 
 27 H        4.1010    -1.6020     1.0570 H     1 <1>   0.0800 
 28 H        0.9140    -3.1210     1.9790 H     1 <1>   0.0800 
 29 H        2.4230    -2.6050     2.6480 H     1 <1>   0.0800 
 30 H        3.7090     0.3260    -0.9780 H     1 <1>   0.4500 
 31 H        4.1100     0.9220     1.8430 H     1 <1>   0.0800 
 32 H        5.3580     0.2170     0.8510 H     1 <1>   0.0800 
 33 H        4.3670    -3.9220     2.3890 H     1 <1>   0.1500 
 34 H        5.7690     2.5010     0.5380 H     1 <1>   0.0800 
 35 H        4.0650     2.9110     0.4920 H     1 <1>   0.0800 
 36 H        0.1300    -3.9290    -0.0080 H     1 <1>   0.1500 
 37 H        5.5120    -5.8050     1.4270 H     1 <1>   0.1500 
 38 H        5.1220     2.9020    -1.5980 H     1 <1>   0.4000 
 39 H        2.9040    -7.5610    -1.7880 H     1 <1>   0.1500 
 40 H       -0.7230    -5.3400    -1.8020 H     1 <1>   0.1500 
 41 H        0.6470    -7.1510    -2.7110 H     1 <1>   0.1500 
@<TRIPOS>BOND
  1   1   2  1   
  2   1  21  1   
  3   2   3  1   
  4   2   4  1   
  5   2  22  1   
  6   3   5  1   
  7   3   6  1   
  8   3  23  1   
  9   4   7  1   
 10   4  24  1   
 11   4  25  1   
 12   5   7  1   
 13   5  26  1   
 14   5  27  1   
 15   6   8  1   
 16   6  28  1   
 17   6  29  1   
 18   7   9  1   
 19   7  30  1   
 20   8  10  ar  
 21   8  11  ar  
 22   9  12  1   
 23   9  31  1   
 24   9  32  1   
 25  10  13  ar  
 26  10  14  ar  
 27  11  15  ar  
 28  11  33  1   
 29  12  16  1   
 30  12  34  1   
 31  12  35  1   
 32  13  17  ar  
 33  13  18  ar  
 34  14  19  ar  
 35  14  36  1   
 36  15  17  ar  
 37  15  37  1   
 38  16  38  1   
 39  18  20  ar  
 40  18  39  1   
 41  19  20  ar  
 42  19  40  1   
 43  20  41  1   
@<TRIPOS>SUBSTRUCTURE
  1 ****   3 GROUP 4 **** **** 0

# MOE 2024.06 (io_trps.svl 2023.06)
