@<TRIPOS>MOLECULE
NONAME
36 37 1 0 0 
SMALL
USER_CHARGES


@<TRIPOS>ATOM
  1 CL       0.3860    -0.4180     1.9420 Cl    1 <1>  -0.1770 
  2 C        0.1980    -1.9490     1.1310 C.ar  1 <1>   0.1770 
  3 C        0.3850    -3.1180     1.8420 C.ar  1 <1>  -0.1500 
  4 C       -0.1380    -1.9690    -0.2130 C.ar  1 <1>  -0.1500 
  5 C        0.2240    -4.3100     1.1650 C.ar  1 <1>   0.1900 
  6 C       -0.2930    -3.1810    -0.8710 C.ar  1 <1>  -0.1500 
  7 F        0.3840    -5.4260     1.8270 F     1 <1>  -0.1900 
  8 C       -0.1140    -4.3740    -0.1800 C.ar  1 <1>  -0.1440 
  9 C       -0.2740    -5.7160    -0.8710 C.3   1 <1>   0.4870 
 10 N       -1.4140    -6.4530    -0.2610 N.4   1 <1>  -0.9590 
 11 C       -1.4580    -7.8730    -0.7460 C.3   1 <1>   0.3430 
 12 C       -2.7130    -5.7500    -0.4740 C.3   1 <1>   0.3430 
 13 C       -2.5970    -8.6780    -0.0940 C.3   1 <1>   0.2000 
 14 C       -3.8320    -6.5060     0.2410 C.3   1 <1>  -0.1600 
 15 O       -2.6430    -9.9060    -0.7270 O.3   1 <1>  -0.6800 
 16 C       -3.9550    -7.9680    -0.2460 C.3   1 <1>  -0.0800 
 17 C       -5.0750    -8.7230     0.4920 C.3   1 <1>   0.1200 
 18 O       -6.2590    -8.0250     0.3390 O.3   1 <1>  -0.6800 
 19 H        0.6470    -3.0940     2.8850 H     1 <1>   0.1500 
 20 H       -0.2720    -1.0360    -0.7340 H     1 <1>   0.1500 
 21 H       -0.5490    -3.1750    -1.9180 H     1 <1>   0.1500 
 22 H        0.6360    -6.2810    -0.7490 H     1 <1>   0.0800 
 23 H       -0.4450    -5.5710    -1.9250 H     1 <1>   0.0800 
 24 H       -1.2280    -6.4610     0.7530 H     1 <1>   0.4500 
 25 H       -1.6100    -7.8810    -1.8120 H     1 <1>   0.0800 
 26 H       -0.5230    -8.3640    -0.5310 H     1 <1>   0.0800 
 27 H       -2.6600    -4.7440    -0.0880 H     1 <1>   0.0800 
 28 H       -2.9350    -5.6980    -1.5280 H     1 <1>   0.0800 
 29 H       -2.3690    -8.8520     0.9440 H     1 <1>   0.0800 
 30 H       -3.6690    -6.4760     1.3040 H     1 <1>   0.0800 
 31 H       -4.7550    -5.9850     0.0480 H     1 <1>   0.0800 
 32 H       -3.2910   -10.5100    -0.3100 H     1 <1>   0.4000 
 33 H       -4.2050    -7.9510    -1.2940 H     1 <1>   0.0800 
 34 H       -4.8660    -8.8010     1.5460 H     1 <1>   0.0800 
 35 H       -5.2170    -9.7070     0.0770 H     1 <1>   0.0800 
 36 H       -7.0090    -8.5030     0.7490 H     1 <1>   0.4000 
@<TRIPOS>BOND
  1   1   2  1   
  2   2   3  ar  
  3   2   4  ar  
  4   3   5  ar  
  5   3  19  1   
  6   4   6  ar  
  7   4  20  1   
  8   5   7  1   
  9   5   8  ar  
 10   6   8  ar  
 11   6  21  1   
 12   8   9  1   
 13   9  10  1   
 14   9  22  1   
 15   9  23  1   
 16  10  11  1   
 17  10  12  1   
 18  10  24  1   
 19  11  13  1   
 20  11  25  1   
 21  11  26  1   
 22  12  14  1   
 23  12  27  1   
 24  12  28  1   
 25  13  15  1   
 26  13  16  1   
 27  13  29  1   
 28  14  16  1   
 29  14  30  1   
 30  14  31  1   
 31  15  32  1   
 32  16  17  1   
 33  16  33  1   
 34  17  18  1   
 35  17  34  1   
 36  17  35  1   
 37  18  36  1   
@<TRIPOS>SUBSTRUCTURE
  1 ****  10 GROUP 4 **** **** 0

# MOE 2024.06 (io_trps.svl 2023.06)
