@<TRIPOS>MOLECULE
NONAME
52 55 1 0 0 
SMALL
USER_CHARGES


@<TRIPOS>ATOM
  1 O        0.7140     0.0080    -1.0230 O.co2 1 <1>  -0.9020 
  2 C        1.2060    -0.9580    -0.4180 C.2   1 <1>   0.9770 
  3 O        0.4870    -1.9130    -0.0890 O.co2 1 <1>  -0.9020 
  4 C        2.6260    -0.9560    -0.1030 C.ar  1 <1>  -0.1860 
  5 C        3.4260     0.1210    -0.4700 C.ar  1 <1>  -0.1160 
  6 C        3.2330    -2.0310     0.5750 C.ar  1 <1>  -0.1570 
  7 C        4.7740     0.1090    -0.1610 C.ar  1 <1>   0.3030 
  8 C        4.5790    -2.0410     0.8810 C.ar  1 <1>  -0.1160 
  9 N        5.7770     1.0210    -0.4040 N.pl3 1 <1>  -0.7040 
 10 C        5.3540    -0.9490     0.5070 C.ar  1 <1>   0.3030 
 11 C        6.9240     0.5460     0.0740 C.cat 1 <1>   1.0690 
 12 N        6.7060    -0.6480     0.6650 N.pl3 1 <1>  -0.7670 
 13 N        8.1040     1.2090    -0.0530 N.pl3 1 <1>  -0.5960 
 14 C        7.5710    -1.4780     1.5450 C.3   1 <1>   0.2680 
 15 C        8.1140     2.6990    -0.2670 C.3   1 <1>   0.1610 
 16 C        9.4090     0.4800    -0.0810 C.3   1 <1>   0.1610 
 17 C        9.3470     3.4510     0.2790 C.3   1 <1>   0.3370 
 18 C       10.3680     0.9800    -1.1660 C.3   1 <1>  -0.1670 
 19 N       10.5310     3.4260    -0.6510 N.4   1 <1>  -0.9610 
 20 C       11.2580     2.1300    -0.7000 C.3   1 <1>   0.3370 
 21 C       11.5210     4.5170    -0.3710 C.3   1 <1>   0.4180 
 22 C       12.0690     4.4780     1.0650 C.3   1 <1>  -0.1670 
 23 C       10.8900     5.9000    -0.5510 C.3   1 <1>  -0.1670 
 24 C       11.8110     5.8580     1.6780 C.3   1 <1>  -0.1670 
 25 C       10.6920     6.4780     0.8500 C.3   1 <1>  -0.1670 
 26 H        2.9880     0.9560    -0.9910 H     1 <1>   0.1430 
 27 H        2.6060    -2.8650     0.8550 H     1 <1>   0.1430 
 28 H        5.0110    -2.8780     1.3960 H     1 <1>   0.1430 
 29 H        5.6260     1.8660    -0.9450 H     1 <1>   0.4450 
 30 H        6.9850    -1.9070     2.3400 H     1 <1>   0.0720 
 31 H        8.3450    -0.8820     1.9940 H     1 <1>   0.0720 
 32 H        8.0160    -2.2770     0.9760 H     1 <1>   0.0720 
 33 H        7.2560     3.1150     0.2340 H     1 <1>   0.0720 
 34 H        8.0050     2.9130    -1.3170 H     1 <1>   0.0720 
 35 H        9.2200    -0.5600    -0.2900 H     1 <1>   0.0720 
 36 H        9.8800     0.5390     0.8860 H     1 <1>   0.0720 
 37 H        9.6160     3.0650     1.2470 H     1 <1>   0.0720 
 38 H        9.0490     4.4760     0.4150 H     1 <1>   0.0720 
 39 H        9.8550     1.2150    -2.0820 H     1 <1>   0.0720 
 40 H       11.0330     0.1640    -1.3900 H     1 <1>   0.0720 
 41 H       10.1970     3.6230    -1.6030 H     1 <1>   0.4450 
 42 H       12.0840     2.2220    -1.3870 H     1 <1>   0.0720 
 43 H       11.6670     1.9020     0.2710 H     1 <1>   0.0720 
 44 H       12.3430     4.4310    -1.0640 H     1 <1>   0.0720 
 45 H       13.1280     4.2870     1.0510 H     1 <1>   0.0720 
 46 H       11.5990     3.7250     1.6700 H     1 <1>   0.0720 
 47 H        9.9810     5.8960    -1.1260 H     1 <1>   0.0720 
 48 H       11.6050     6.5220    -1.0640 H     1 <1>   0.0720 
 49 H       12.6970     6.4640     1.5790 H     1 <1>   0.0720 
 50 H       11.5530     5.7990     2.7220 H     1 <1>   0.0720 
 51 H        9.7380     6.1910     1.2540 H     1 <1>   0.0720 
 52 H       10.7510     7.5550     0.8500 H     1 <1>   0.0720 
@<TRIPOS>BOND
  1   1   2  ar  
  2   2   3  ar  
  3   2   4  1   
  4   4   5  ar  
  5   4   6  ar  
  6   5   7  ar  
  7   5  26  1   
  8   6   8  ar  
  9   6  27  1   
 10   7   9  1   
 11   7  10  ar  
 12   8  10  ar  
 13   8  28  1   
 14   9  11  ar  
 15   9  29  1   
 16  10  12  1   
 17  11  12  ar  
 18  11  13  ar  
 19  12  14  1   
 20  13  15  1   
 21  13  16  1   
 22  14  30  1   
 23  14  31  1   
 24  14  32  1   
 25  15  17  1   
 26  15  33  1   
 27  15  34  1   
 28  16  18  1   
 29  16  35  1   
 30  16  36  1   
 31  17  19  1   
 32  17  37  1   
 33  17  38  1   
 34  18  20  1   
 35  18  39  1   
 36  18  40  1   
 37  19  20  1   
 38  19  21  1   
 39  19  41  1   
 40  20  42  1   
 41  20  43  1   
 42  21  22  1   
 43  21  23  1   
 44  21  44  1   
 45  22  24  1   
 46  22  45  1   
 47  22  46  1   
 48  23  25  1   
 49  23  47  1   
 50  23  48  1   
 51  24  25  1   
 52  24  49  1   
 53  24  50  1   
 54  25  51  1   
 55  25  52  1   
@<TRIPOS>SUBSTRUCTURE
  1 ****  11 GROUP 4 **** **** 0

# MOE 2024.06 (io_trps.svl 2023.06)
