@<TRIPOS>MOLECULE
NONAME
33 33 1 0 0 
SMALL
USER_CHARGES


@<TRIPOS>ATOM
  1 S       -1.8340    -0.8870    -2.1580 S.3   1 <1>  -0.0800 
  2 C       -1.7800    -1.0170    -0.4190 C.2   1 <1>  -0.1400 
  3 C       -2.0290     0.8420    -1.9970 C.2   1 <1>   0.2280 
  4 C       -1.9070     0.2150     0.1050 C.2   1 <1>   0.0460 
  5 C       -1.6080    -2.4080     0.1570 C.3   1 <1>   0.0200 
  6 N       -2.0530     1.2540    -0.7940 N.2   1 <1>  -0.5650 
  7 C       -1.9090     0.6150     1.5660 C.3   1 <1>  -0.0590 
  8 C       -2.8400    -3.2530    -0.1880 C.3   1 <1>   0.3430 
  9 N       -2.6940    -4.6860     0.2320 N.4   1 <1>  -0.9590 
 10 C       -3.7650    -5.5070    -0.4110 C.3   1 <1>   0.3430 
 11 C       -2.7110    -4.8350     1.7260 C.3   1 <1>   0.2630 
 12 C       -3.4180    -6.9930    -0.3420 C.3   1 <1>  -0.1600 
 13 C       -4.5020    -7.8230    -1.0280 C.3   1 <1>   0.1200 
 14 O       -4.2240    -9.1510    -0.7930 O.3   1 <1>  -0.6800 
 15 H       -2.1140     1.4170    -2.9020 H     1 <1>   0.1500 
 16 H       -1.4870    -2.3370     1.2210 H     1 <1>   0.0800 
 17 H       -0.7230    -2.8470    -0.2680 H     1 <1>   0.0800 
 18 H       -1.7880    -0.2350     2.2090 H     1 <1>   0.0800 
 19 H       -2.8360     1.1050     1.8040 H     1 <1>   0.0800 
 20 H       -1.1040     1.3050     1.7480 H     1 <1>   0.0800 
 21 H       -2.9860    -3.2090    -1.2550 H     1 <1>   0.0800 
 22 H       -3.7100    -2.8180     0.2780 H     1 <1>   0.0800 
 23 H       -1.7900    -5.0310    -0.1250 H     1 <1>   0.4500 
 24 H       -3.8640    -5.2240    -1.4470 H     1 <1>   0.0800 
 25 H       -4.7100    -5.3280     0.0770 H     1 <1>   0.0800 
 26 H       -3.6500    -4.4920     2.1270 H     1 <1>   0.0800 
 27 H       -1.9150    -4.2620     2.1720 H     1 <1>   0.0800 
 28 H       -2.5760    -5.8680     2.0040 H     1 <1>   0.0800 
 29 H       -3.3590    -7.3100     0.6840 H     1 <1>   0.0800 
 30 H       -2.4780    -7.1730    -0.8320 H     1 <1>   0.0800 
 31 H       -4.5330    -7.6610    -2.0940 H     1 <1>   0.0800 
 32 H       -5.4720    -7.6200    -0.6060 H     1 <1>   0.0800 
 33 H       -3.5030    -9.4830    -1.3650 H     1 <1>   0.4000 
@<TRIPOS>BOND
  1   1   2  1   
  2   1   3  1   
  3   2   4  2   
  4   2   5  1   
  5   3   6  2   
  6   3  15  1   
  7   4   6  1   
  8   4   7  1   
  9   5   8  1   
 10   5  16  1   
 11   5  17  1   
 12   7  18  1   
 13   7  19  1   
 14   7  20  1   
 15   8   9  1   
 16   8  21  1   
 17   8  22  1   
 18   9  10  1   
 19   9  11  1   
 20   9  23  1   
 21  10  12  1   
 22  10  24  1   
 23  10  25  1   
 24  11  26  1   
 25  11  27  1   
 26  11  28  1   
 27  12  13  1   
 28  12  29  1   
 29  12  30  1   
 30  13  14  1   
 31  13  31  1   
 32  13  32  1   
 33  14  33  1   
@<TRIPOS>SUBSTRUCTURE
  1 ****   8 GROUP 4 **** **** 0

# MOE 2024.06 (io_trps.svl 2023.06)
