@<TRIPOS>MOLECULE
NONAME
60 63 1 0 0 
SMALL
USER_CHARGES


@<TRIPOS>ATOM
  1 O        0.2210     0.2060     1.3620 O.2   1 <1>  -0.5700 
  2 C       -0.8200     0.6870     0.9820 C.2   1 <1>   0.5690 
  3 N       -2.0370     0.1340     1.3030 N.am  1 <1>  -0.6600 
  4 C       -0.7220     1.9340     0.1270 C.3   1 <1>  -0.0990 
  5 C       -3.3720     0.6640     0.9150 C.3   1 <1>   0.1400 
  6 C       -2.1250    -1.1500     2.0520 C.3   1 <1>   0.1400 
  7 C       -0.8910     3.2000     0.9700 C.3   1 <1>   0.0210 
  8 C       -4.0520    -0.3460    -0.0090 C.3   1 <1>  -0.1600 
  9 C       -2.7960    -2.1980     1.1590 C.3   1 <1>  -0.1600 
 10 C       -0.8650     4.4240     0.0710 C.2   1 <1>  -0.1810 
 11 C       -4.1700    -1.7310     0.6530 C.3   1 <1>   0.4240 
 12 C       -1.9580     5.0450    -0.5280 C.2   1 <1>   0.1080 
 13 C        0.2030     5.1420    -0.3390 C.2   1 <1>  -0.3320 
 14 O       -4.9610    -1.5900     1.8100 O.3   1 <1>  -0.5600 
 15 C       -4.7610    -2.7680    -0.3280 C.ar  1 <1>  -0.1440 
 16 N       -1.6100     6.0610    -1.2490 N.2   1 <1>  -0.7070 
 17 C       -3.4050     4.6280    -0.3950 C.3   1 <1>  -0.0590 
 18 N       -0.2750     6.1270    -1.1320 N.pl3 1 <1>   0.3140 
 19 C        1.6790     4.9460    -0.0240 C.3   1 <1>  -0.0600 
 20 C       -6.3460    -1.6450     1.6590 C.3   1 <1>   0.1200 
 21 C       -5.9770    -3.3920    -0.0700 C.ar  1 <1>  -0.1440 
 22 C       -4.0840    -3.0940    -1.4990 C.ar  1 <1>  -0.1500 
 23 C        0.4940     7.1700    -1.8200 C.3   1 <1>   0.0160 
 24 C       -6.7370    -3.0440     1.1930 C.3   1 <1>  -0.0170 
 25 C       -6.4980    -4.3230    -0.9550 C.ar  1 <1>  -0.1500 
 26 C       -4.6030    -4.0210    -2.3840 C.ar  1 <1>  -0.1500 
 27 C       -5.8100    -4.6430    -2.1210 C.ar  1 <1>   0.0820 
 28 O       -6.2480    -5.5410    -3.0380 O.3   1 <1>  -0.3620 
 29 C       -7.4560    -6.2460    -2.8560 C.3   1 <1>   0.0400 
 30 H       -1.4450     1.9030    -0.6640 H     1 <1>   0.0800 
 31 H        0.2480     1.9550    -0.3360 H     1 <1>   0.0800 
 32 H       -3.2940     1.6140     0.4220 H     1 <1>   0.0800 
 33 H       -3.9650     0.8030     1.8040 H     1 <1>   0.0800 
 34 H       -2.7040    -1.0010     2.9470 H     1 <1>   0.0800 
 35 H       -1.1480    -1.4950     2.3420 H     1 <1>   0.0800 
 36 H       -0.0940     3.2600     1.6890 H     1 <1>   0.0800 
 37 H       -1.8150     3.1690     1.5170 H     1 <1>   0.0800 
 38 H       -3.4680    -0.4250    -0.9070 H     1 <1>   0.0800 
 39 H       -5.0230     0.0080    -0.2960 H     1 <1>   0.0800 
 40 H       -2.9150    -3.1180     1.7020 H     1 <1>   0.0800 
 41 H       -2.1410    -2.3950     0.3320 H     1 <1>   0.0800 
 42 H       -3.6610     4.5110     0.6410 H     1 <1>   0.0800 
 43 H       -3.5640     3.7040    -0.9170 H     1 <1>   0.0800 
 44 H       -4.0390     5.3830    -0.8240 H     1 <1>   0.0800 
 45 H        1.8260     4.0790     0.5940 H     1 <1>   0.0800 
 46 H        2.0630     5.8040     0.4970 H     1 <1>   0.0800 
 47 H        2.2360     4.8090    -0.9340 H     1 <1>   0.0800 
 48 H       -6.6560    -0.9000     0.9490 H     1 <1>   0.0800 
 49 H       -6.7910    -1.4290     2.6150 H     1 <1>   0.0800 
 50 H       -3.1430    -2.6300    -1.7350 H     1 <1>   0.1500 
 51 H        1.0380     7.7420    -1.0940 H     1 <1>   0.0800 
 52 H       -0.1830     7.8110    -2.3520 H     1 <1>   0.0800 
 53 H        1.1720     6.7070    -2.5120 H     1 <1>   0.0800 
 54 H       -7.7960    -3.0720     1.0120 H     1 <1>   0.0800 
 55 H       -6.5050    -3.7560     1.9650 H     1 <1>   0.0800 
 56 H       -7.4350    -4.7910    -0.7260 H     1 <1>   0.1500 
 57 H       -4.0740    -4.2690    -3.2860 H     1 <1>   0.1500 
 58 H       -7.5900    -6.9000    -3.6980 H     1 <1>   0.0800 
 59 H       -8.2670    -5.5410    -2.8070 H     1 <1>   0.0800 
 60 H       -7.3890    -6.8230    -1.9510 H     1 <1>   0.0800 
@<TRIPOS>BOND
  1   1   2  2   
  2   2   3  am  
  3   2   4  1   
  4   3   5  1   
  5   3   6  1   
  6   4   7  1   
  7   4  30  1   
  8   4  31  1   
  9   5   8  1   
 10   5  32  1   
 11   5  33  1   
 12   6   9  1   
 13   6  34  1   
 14   6  35  1   
 15   7  10  1   
 16   7  36  1   
 17   7  37  1   
 18   8  11  1   
 19   8  38  1   
 20   8  39  1   
 21   9  11  1   
 22   9  40  1   
 23   9  41  1   
 24  10  12  1   
 25  10  13  2   
 26  11  14  1   
 27  11  15  1   
 28  12  16  2   
 29  12  17  1   
 30  13  18  1   
 31  13  19  1   
 32  14  20  1   
 33  15  21  ar  
 34  15  22  ar  
 35  16  18  1   
 36  17  42  1   
 37  17  43  1   
 38  17  44  1   
 39  18  23  1   
 40  19  45  1   
 41  19  46  1   
 42  19  47  1   
 43  20  24  1   
 44  20  48  1   
 45  20  49  1   
 46  21  24  1   
 47  21  25  ar  
 48  22  26  ar  
 49  22  50  1   
 50  23  51  1   
 51  23  52  1   
 52  23  53  1   
 53  24  54  1   
 54  24  55  1   
 55  25  27  ar  
 56  25  56  1   
 57  26  27  ar  
 58  26  57  1   
 59  27  28  1   
 60  28  29  1   
 61  29  58  1   
 62  29  59  1   
 63  29  60  1   
@<TRIPOS>SUBSTRUCTURE
  1 ****   8 GROUP 4 **** **** 0

# MOE 2024.06 (io_trps.svl 2023.06)
