@<TRIPOS>MOLECULE
NONAME
47 48 1 0 0 
SMALL
USER_CHARGES


@<TRIPOS>ATOM
  1 CL       4.3050    -1.4940     2.7760 Cl    1 <1>  -0.1770 
  2 C        3.7200    -2.2600     1.3240 C.ar  1 <1>   0.1770 
  3 C        2.3650    -2.2650     1.0650 C.ar  1 <1>  -0.1500 
  4 C        4.6220    -2.8500     0.4600 C.ar  1 <1>  -0.1500 
  5 C        1.8730    -2.8840    -0.0820 C.ar  1 <1>   0.0860 
  6 C        4.1560    -3.4590    -0.6930 C.ar  1 <1>  -0.1440 
  7 C        0.4530    -2.9300    -0.3690 C.2   1 <1>   0.5440 
  8 C        2.7950    -3.4650    -0.9540 C.ar  1 <1>  -0.1500 
  9 C        5.1330    -4.1010    -1.6630 C.3   1 <1>  -0.0960 
 10 O        0.0280    -2.4050    -1.3800 O.2   1 <1>  -0.5700 
 11 N       -0.4460    -3.5810     0.4490 N.am  1 <1>  -0.6600 
 12 C       -0.0280    -4.5580     1.5040 C.3   1 <1>   0.3210 
 13 C       -1.9020    -3.5840     0.1280 C.3   1 <1>   0.1400 
 14 C       -0.0180    -5.9860     0.9620 C.2   1 <1>   0.0460 
 15 C       -2.1540    -4.3240    -1.1990 C.3   1 <1>   0.3430 
 16 N       -1.1680    -6.6500     0.6900 N.2   1 <1>  -0.5650 
 17 C        1.0590    -6.7680     0.7070 C.2   1 <1>  -0.3320 
 18 N       -3.5940    -4.6980    -1.4010 N.4   1 <1>  -0.9590 
 19 C       -0.7640    -7.8140     0.2940 C.2   1 <1>   0.0360 
 20 N        0.5780    -7.9480     0.2770 N.pl3 1 <1>   0.0330 
 21 C        2.5510    -6.5080     0.8450 C.3   1 <1>  -0.0600 
 22 C       -3.9690    -5.8320    -0.4960 C.3   1 <1>   0.2630 
 23 C       -3.8170    -5.0740    -2.8280 C.3   1 <1>   0.2630 
 24 H        1.6910    -1.7860     1.7520 H     1 <1>   0.1500 
 25 H        5.6720    -2.8250     0.6920 H     1 <1>   0.1500 
 26 H        2.4240    -3.9250    -1.8540 H     1 <1>   0.1500 
 27 H        5.9310    -4.5840    -1.1270 H     1 <1>   0.0800 
 28 H        5.5540    -3.3490    -2.3060 H     1 <1>   0.0800 
 29 H        4.6390    -4.8370    -2.2710 H     1 <1>   0.0800 
 30 H       -0.7080    -4.5040     2.3360 H     1 <1>   0.0800 
 31 H        0.9470    -4.3150     1.8800 H     1 <1>   0.0800 
 32 H       -2.2400    -2.5660     0.0410 H     1 <1>   0.0800 
 33 H       -2.4370    -4.0590     0.9300 H     1 <1>   0.0800 
 34 H       -1.5490    -5.2150    -1.2190 H     1 <1>   0.0800 
 35 H       -1.8290    -3.6840    -2.0040 H     1 <1>   0.0800 
 36 H       -4.1750    -3.8750    -1.1820 H     1 <1>   0.4500 
 37 H       -1.4130    -8.6220     0.0040 H     1 <1>   0.1500 
 38 H        1.1140    -8.7800     0.0090 H     1 <1>   0.2700 
 39 H        2.7410    -5.5280     1.2420 H     1 <1>   0.0800 
 40 H        3.0310    -6.5800    -0.1150 H     1 <1>   0.0800 
 41 H        2.9940    -7.2300     1.5080 H     1 <1>   0.0800 
 42 H       -3.3510    -6.6910    -0.7020 H     1 <1>   0.0800 
 43 H       -5.0020    -6.1040    -0.6390 H     1 <1>   0.0800 
 44 H       -3.8250    -5.5570     0.5360 H     1 <1>   0.0800 
 45 H       -3.2090    -5.9250    -3.0880 H     1 <1>   0.0800 
 46 H       -3.5540    -4.2530    -3.4750 H     1 <1>   0.0800 
 47 H       -4.8520    -5.3240    -2.9920 H     1 <1>   0.0800 
@<TRIPOS>BOND
  1   1   2  1   
  2   2   3  ar  
  3   2   4  ar  
  4   3   5  ar  
  5   3  24  1   
  6   4   6  ar  
  7   4  25  1   
  8   5   7  1   
  9   5   8  ar  
 10   6   8  ar  
 11   6   9  1   
 12   7  10  2   
 13   7  11  am  
 14   8  26  1   
 15   9  27  1   
 16   9  28  1   
 17   9  29  1   
 18  11  12  1   
 19  11  13  1   
 20  12  14  1   
 21  12  30  1   
 22  12  31  1   
 23  13  15  1   
 24  13  32  1   
 25  13  33  1   
 26  14  16  1   
 27  14  17  2   
 28  15  18  1   
 29  15  34  1   
 30  15  35  1   
 31  16  19  2   
 32  17  20  1   
 33  17  21  1   
 34  18  22  1   
 35  18  23  1   
 36  18  36  1   
 37  19  20  1   
 38  19  37  1   
 39  20  38  1   
 40  21  39  1   
 41  21  40  1   
 42  21  41  1   
 43  22  42  1   
 44  22  43  1   
 45  22  44  1   
 46  23  45  1   
 47  23  46  1   
 48  23  47  1   
@<TRIPOS>SUBSTRUCTURE
  1 ****  11 GROUP 4 **** **** 0

# MOE 2024.06 (io_trps.svl 2023.06)
