@<TRIPOS>MOLECULE
NONAME
47 49 1 0 0 
SMALL
USER_CHARGES


@<TRIPOS>ATOM
  1 O        0.3440    -0.2260    -0.9090 O.2   1 <1>  -0.5700 
  2 C        1.3730    -0.5090    -0.3430 C.2   1 <1>   0.5690 
  3 N        2.2780     0.4200     0.0940 N.am  1 <1>  -0.4940 
  4 C        1.6880    -1.9730    -0.1000 C.3   1 <1>  -0.0190 
  5 C        2.2340     1.8340    -0.0140 C.2   1 <1>  -0.0880 
  6 C        1.6660    -2.7590    -1.4110 C.3   1 <1>   0.1200 
  7 C        0.6880    -2.6120     0.8690 C.3   1 <1>  -0.0160 
  8 N        3.1890     2.6850     0.4540 N.pl3 1 <1>   0.3140 
  9 C        1.2860     2.6170    -0.5790 C.2   1 <1>  -0.1500 
 10 O        2.0880    -4.0860    -1.1690 O.3   1 <1>  -0.3630 
 11 C        0.8970    -4.1180     0.9150 C.ar  1 <1>  -0.1430 
 12 N        2.8740     3.9740     0.2030 N.2   1 <1>  -0.7070 
 13 C        4.4330     2.3360     1.1690 C.3   1 <1>   0.0960 
 14 C        1.7380     3.9200    -0.4140 C.2   1 <1>   0.1080 
 15 C        1.5830    -4.7760    -0.1060 C.ar  1 <1>   0.0820 
 16 C        0.3970    -4.8450     1.9830 C.ar  1 <1>  -0.1500 
 17 C        5.5100     1.8350     0.1950 C.3   1 <1>  -0.1600 
 18 C        1.0140     5.1590    -0.8860 C.3   1 <1>  -0.0590 
 19 C        1.7760    -6.1590    -0.0470 C.ar  1 <1>   0.0820 
 20 C        0.5830    -6.2140     2.0440 C.ar  1 <1>  -0.1500 
 21 C        6.7860     1.4250     0.9380 C.3   1 <1>  -0.2400 
 22 O        2.4600    -6.7560    -1.0650 O.3   1 <1>  -0.3620 
 23 C        1.2690    -6.8710     1.0370 C.ar  1 <1>  -0.1500 
 24 C        2.6670    -8.1490    -1.1010 C.3   1 <1>   0.0400 
 25 H        3.1080     0.0380     0.5450 H     1 <1>   0.3700 
 26 H        2.6770    -2.0550     0.3130 H     1 <1>   0.0800 
 27 H        2.3350    -2.3290    -2.1350 H     1 <1>   0.0800 
 28 H        0.6720    -2.7940    -1.8250 H     1 <1>   0.0800 
 29 H       -0.3180    -2.4170     0.5380 H     1 <1>   0.0800 
 30 H        0.8090    -2.1890     1.8510 H     1 <1>   0.0800 
 31 H        0.3730     2.3160    -1.0580 H     1 <1>   0.1500 
 32 H        4.2060     1.5870     1.9040 H     1 <1>   0.0800 
 33 H        4.7820     3.2160     1.6790 H     1 <1>   0.0800 
 34 H       -0.1390    -4.3490     2.7730 H     1 <1>   0.1500 
 35 H        5.7440     2.6240    -0.5010 H     1 <1>   0.0800 
 36 H        5.1400     0.9930    -0.3630 H     1 <1>   0.0800 
 37 H        0.0950     4.8940    -1.3740 H     1 <1>   0.0800 
 38 H        1.6380     5.6970    -1.5750 H     1 <1>   0.0800 
 39 H        0.7980     5.7890    -0.0440 H     1 <1>   0.0800 
 40 H        0.1920    -6.7710     2.8770 H     1 <1>   0.1500 
 41 H        7.1900     2.2610     1.4820 H     1 <1>   0.0800 
 42 H        7.5290     1.0900     0.2340 H     1 <1>   0.0800 
 43 H        6.5860     0.6240     1.6280 H     1 <1>   0.0800 
 44 H        1.3960    -7.9330     1.1160 H     1 <1>   0.1500 
 45 H        3.2120    -8.3810    -1.9980 H     1 <1>   0.0800 
 46 H        1.7110    -8.6430    -1.1170 H     1 <1>   0.0800 
 47 H        3.2400    -8.4400    -0.2400 H     1 <1>   0.0800 
@<TRIPOS>BOND
  1   1   2  2   
  2   2   3  am  
  3   2   4  1   
  4   3   5  1   
  5   3  25  1   
  6   4   6  1   
  7   4   7  1   
  8   4  26  1   
  9   5   8  1   
 10   5   9  2   
 11   6  10  1   
 12   6  27  1   
 13   6  28  1   
 14   7  11  1   
 15   7  29  1   
 16   7  30  1   
 17   8  12  1   
 18   8  13  1   
 19   9  14  1   
 20   9  31  1   
 21  10  15  1   
 22  11  15  ar  
 23  11  16  ar  
 24  12  14  2   
 25  13  17  1   
 26  13  32  1   
 27  13  33  1   
 28  14  18  1   
 29  15  19  ar  
 30  16  20  ar  
 31  16  34  1   
 32  17  21  1   
 33  17  35  1   
 34  17  36  1   
 35  18  37  1   
 36  18  38  1   
 37  18  39  1   
 38  19  22  1   
 39  19  23  ar  
 40  20  23  ar  
 41  20  40  1   
 42  21  41  1   
 43  21  42  1   
 44  21  43  1   
 45  22  24  1   
 46  23  44  1   
 47  24  45  1   
 48  24  46  1   
 49  24  47  1   
@<TRIPOS>SUBSTRUCTURE
  1 ****   4 GROUP 4 **** **** 0

# MOE 2024.06 (io_trps.svl 2023.06)
