@<TRIPOS>MOLECULE
NONAME
49 52 1 0 0 
SMALL
USER_CHARGES


@<TRIPOS>ATOM
  1 O       -0.3920     0.7210     0.0540 O.2   1 <1>  -0.5700 
  2 C       -1.4800     1.2440     0.1260 C.2   1 <1>   0.5690 
  3 N       -1.7010     2.3620     0.8920 N.am  1 <1>  -0.6600 
  4 C       -2.6170     0.6120    -0.6860 C.3   1 <1>   0.2010 
  5 C       -3.0590     2.9740     1.0450 C.3   1 <1>   0.1400 
  6 C       -0.5990     3.0150     1.6500 C.3   1 <1>   0.2840 
  7 N       -3.9860     1.1150    -0.3170 N.am  1 <1>  -0.6600 
  8 C       -4.0100     2.5900    -0.0980 C.3   1 <1>   0.1400 
  9 C       -0.3810     4.4280     1.1290 C.ar  1 <1>  -0.1430 
 10 C       -5.0790     0.3340    -0.0490 C.2   1 <1>   0.5690 
 11 C        0.0380     4.6170    -0.1840 C.ar  1 <1>  -0.1500 
 12 C       -0.6050     5.5320     1.9550 C.ar  1 <1>  -0.1500 
 13 O       -6.1040     0.8140     0.3720 O.2   1 <1>  -0.5700 
 14 C       -5.0180    -1.1740    -0.2720 C.3   1 <1>  -0.0990 
 15 C        0.2150     5.9090    -0.6350 C.ar  1 <1>   0.0830 
 16 C       -0.4200     6.8250     1.4830 C.ar  1 <1>  -0.1500 
 17 C       -6.3720    -1.8960    -0.1140 C.3   1 <1>  -0.1600 
 18 O        0.6010     6.3190    -1.8480 O.3   1 <1>  -0.3630 
 19 C       -0.0080     6.9830     0.1750 C.ar  1 <1>   0.0830 
 20 C       -6.2360    -3.4050    -0.3470 C.3   1 <1>   0.0960 
 21 C        0.6360     7.7440    -1.8040 C.3   1 <1>   0.4000 
 22 O        0.2300     8.1190    -0.4890 O.3   1 <1>  -0.3630 
 23 N       -7.5350    -4.0820    -0.1630 N.pl3 1 <1>   0.0480 
 24 C       -8.3740    -4.5480    -1.1150 C.2   1 <1>   0.0360 
 25 C       -8.1350    -4.3930     1.0000 C.2   1 <1>  -0.3020 
 26 N       -9.4370    -5.1190    -0.6480 N.2   1 <1>  -0.5650 
 27 C       -9.2890    -5.0210     0.6860 C.2   1 <1>   0.0770 
 28 H       -2.5530    -0.4510    -0.5550 H     1 <1>   0.0800 
 29 H       -2.4390     0.8280    -1.7230 H     1 <1>   0.0800 
 30 H       -2.9780     4.0470     1.0730 H     1 <1>   0.0800 
 31 H       -3.4860     2.6500     1.9790 H     1 <1>   0.0800 
 32 H        0.3170     2.4580     1.5450 H     1 <1>   0.0800 
 33 H       -0.8530     3.0330     2.6950 H     1 <1>   0.0800 
 34 H       -3.7020     3.0890    -1.0010 H     1 <1>   0.0800 
 35 H       -5.0040     2.9290     0.1370 H     1 <1>   0.0800 
 36 H        0.2200     3.7840    -0.8410 H     1 <1>   0.1500 
 37 H       -0.9270     5.3890     2.9720 H     1 <1>   0.1500 
 38 H       -4.3210    -1.5850     0.4350 H     1 <1>   0.0800 
 39 H       -4.6450    -1.3520    -1.2640 H     1 <1>   0.0800 
 40 H       -0.5870     7.6860     2.1050 H     1 <1>   0.1500 
 41 H       -7.0770    -1.4840    -0.8160 H     1 <1>   0.0800 
 42 H       -6.7490    -1.7210     0.8810 H     1 <1>   0.0800 
 43 H       -5.5340    -3.8270     0.3490 H     1 <1>   0.0800 
 44 H       -5.8870    -3.5970    -1.3460 H     1 <1>   0.0800 
 45 H       -0.0560     8.1440    -2.5240 H     1 <1>   0.0800 
 46 H        1.6400     8.0860    -1.9830 H     1 <1>   0.0800 
 47 H       -8.1610    -4.4450    -2.1640 H     1 <1>   0.1500 
 48 H       -7.7230    -4.1570     1.9640 H     1 <1>   0.1500 
 49 H      -10.0320    -5.4130     1.3600 H     1 <1>   0.1500 
@<TRIPOS>BOND
  1   1   2  2   
  2   2   3  am  
  3   2   4  1   
  4   3   5  1   
  5   3   6  1   
  6   4   7  1   
  7   4  28  1   
  8   4  29  1   
  9   5   8  1   
 10   5  30  1   
 11   5  31  1   
 12   6   9  1   
 13   6  32  1   
 14   6  33  1   
 15   7   8  1   
 16   7  10  am  
 17   8  34  1   
 18   8  35  1   
 19   9  11  ar  
 20   9  12  ar  
 21  10  13  2   
 22  10  14  1   
 23  11  15  ar  
 24  11  36  1   
 25  12  16  ar  
 26  12  37  1   
 27  14  17  1   
 28  14  38  1   
 29  14  39  1   
 30  15  18  1   
 31  15  19  ar  
 32  16  19  ar  
 33  16  40  1   
 34  17  20  1   
 35  17  41  1   
 36  17  42  1   
 37  18  21  1   
 38  19  22  1   
 39  20  23  1   
 40  20  43  1   
 41  20  44  1   
 42  21  22  1   
 43  21  45  1   
 44  21  46  1   
 45  23  24  1   
 46  23  25  1   
 47  24  26  2   
 48  24  47  1   
 49  25  27  2   
 50  25  48  1   
 51  26  27  1   
 52  27  49  1   
@<TRIPOS>SUBSTRUCTURE
  1 ****   7 GROUP 4 **** **** 0

# MOE 2024.06 (io_trps.svl 2023.06)
