@<TRIPOS>MOLECULE
NONAME
51 56 1 0 0 
SMALL
USER_CHARGES


@<TRIPOS>ATOM
  1 S        0.1390     0.1640     1.4770 S.3   1 <1>  -0.0800 
  2 C        1.2200    -1.0630     0.7700 C.2   1 <1>  -0.0450 
  3 C        1.0140     1.4920     0.7250 C.2   1 <1>  -0.1100 
  4 C        2.1590    -0.4190     0.0270 C.2   1 <1>   0.0620 
  5 C        1.0110    -2.4500     1.0720 C.2   1 <1>   0.7150 
  6 C        2.0380     1.0090     0.0010 C.2   1 <1>   0.0620 
  7 O        3.1450    -1.0310    -0.6630 O.3   1 <1>  -0.3420 
  8 O        1.9600    -3.1590     1.3620 O.2   1 <1>  -0.5700 
  9 N       -0.2440    -3.0320     1.0500 N.am  1 <1>  -0.6600 
 10 O        2.9090     1.7780    -0.7070 O.3   1 <1>  -0.3420 
 11 C        4.2250    -0.2280    -1.0970 C.3   1 <1>   0.1200 
 12 C       -0.4410    -4.3770     1.6640 C.3   1 <1>   0.1400 
 13 C       -1.3740    -2.4690     0.2520 C.3   1 <1>   0.1400 
 14 C        3.7020     1.1010    -1.6660 C.3   1 <1>   0.1200 
 15 C       -1.9270    -4.7030     1.8150 C.3   1 <1>  -0.1600 
 16 C       -2.0760    -3.6010    -0.4930 C.3   1 <1>  -0.1600 
 17 C       -2.6920    -4.6190     0.4830 C.3   1 <1>   0.4600 
 18 O       -3.9850    -4.1760     0.8320 O.3   1 <1>  -0.5600 
 19 C       -2.7820    -5.9990    -0.1620 C.2   1 <1>  -0.3320 
 20 C       -5.0590    -4.4840    -0.0260 C.3   1 <1>   0.1200 
 21 N       -1.7300    -6.7870    -0.5450 N.pl3 1 <1>   0.0330 
 22 C       -3.9360    -6.6370    -0.4370 C.2   1 <1>  -0.1810 
 23 C       -5.2700    -6.0030    -0.1360 C.3   1 <1>   0.0210 
 24 C       -2.2390    -7.9500    -1.0670 C.ar  1 <1>  -0.1520 
 25 C       -3.6290    -7.8890    -1.0110 C.ar  1 <1>   0.0000 
 26 C       -1.5930    -9.0710    -1.5940 C.ar  1 <1>  -0.1500 
 27 C       -4.3900    -8.9620    -1.4850 C.ar  1 <1>  -0.1500 
 28 C       -2.3530   -10.1200    -2.0580 C.ar  1 <1>  -0.1500 
 29 C       -3.7520   -10.0660    -2.0030 C.ar  1 <1>  -0.1500 
 30 H        0.6730     2.4950     0.9030 H     1 <1>   0.1500 
 31 H        4.7660    -0.7780    -1.8450 H     1 <1>   0.0800 
 32 H        4.8690    -0.0490    -0.2550 H     1 <1>   0.0800 
 33 H        0.0320    -4.3970     2.6320 H     1 <1>   0.0800 
 34 H        0.0400    -5.1160     1.0460 H     1 <1>   0.0800 
 35 H       -1.0070    -1.7510    -0.4610 H     1 <1>   0.0800 
 36 H       -2.0680    -1.9760     0.9120 H     1 <1>   0.0800 
 37 H        4.5190     1.7480    -1.9330 H     1 <1>   0.0800 
 38 H        3.0960     0.9220    -2.5370 H     1 <1>   0.0800 
 39 H       -2.3440    -4.0020     2.5170 H     1 <1>   0.0800 
 40 H       -2.0400    -5.6850     2.2340 H     1 <1>   0.0800 
 41 H       -1.3460    -4.0850    -1.1150 H     1 <1>   0.0800 
 42 H       -2.8280    -3.2000    -1.1440 H     1 <1>   0.0800 
 43 H       -4.8540    -4.0690    -0.9970 H     1 <1>   0.0800 
 44 H       -5.9420    -4.0150     0.3710 H     1 <1>   0.0800 
 45 H       -0.7340    -6.5630    -0.4690 H     1 <1>   0.2700 
 46 H       -5.9690    -6.2170    -0.9230 H     1 <1>   0.0800 
 47 H       -5.6580    -6.3900     0.7890 H     1 <1>   0.0800 
 48 H       -0.5190    -9.1050    -1.6330 H     1 <1>   0.1500 
 49 H       -5.4610    -8.9070    -1.4350 H     1 <1>   0.1500 
 50 H       -1.8800   -10.9940    -2.4680 H     1 <1>   0.1500 
 51 H       -4.3230   -10.9000    -2.3710 H     1 <1>   0.1500 
@<TRIPOS>BOND
  1   1   2  1   
  2   1   3  1   
  3   2   4  2   
  4   2   5  1   
  5   3   6  2   
  6   3  30  1   
  7   4   6  1   
  8   4   7  1   
  9   5   8  2   
 10   5   9  am  
 11   6  10  1   
 12   7  11  1   
 13   9  12  1   
 14   9  13  1   
 15  10  14  1   
 16  11  14  1   
 17  11  31  1   
 18  11  32  1   
 19  12  15  1   
 20  12  33  1   
 21  12  34  1   
 22  13  16  1   
 23  13  35  1   
 24  13  36  1   
 25  14  37  1   
 26  14  38  1   
 27  15  17  1   
 28  15  39  1   
 29  15  40  1   
 30  16  17  1   
 31  16  41  1   
 32  16  42  1   
 33  17  18  1   
 34  17  19  1   
 35  18  20  1   
 36  19  21  1   
 37  19  22  2   
 38  20  23  1   
 39  20  43  1   
 40  20  44  1   
 41  21  24  1   
 42  21  45  1   
 43  22  23  1   
 44  22  25  1   
 45  23  46  1   
 46  23  47  1   
 47  24  25  ar  
 48  24  26  ar  
 49  25  27  ar  
 50  26  28  ar  
 51  26  48  1   
 52  27  29  ar  
 53  27  49  1   
 54  28  29  ar  
 55  28  50  1   
 56  29  51  1   
@<TRIPOS>SUBSTRUCTURE
  1 ****  16 GROUP 4 **** **** 0

# MOE 2024.06 (io_trps.svl 2023.06)
