@<TRIPOS>MOLECULE
NONAME
49 52 1 0 0 
SMALL
USER_CHARGES


@<TRIPOS>ATOM
  1 F        1.6770     0.5560    -3.1880 F     1 <1>  -0.1900 
  2 C        2.5240     1.1010    -2.3570 C.ar  1 <1>   0.1900 
  3 C        3.2080     0.2890    -1.4780 C.ar  1 <1>  -0.1500 
  4 C        2.7000     2.4700    -2.3910 C.ar  1 <1>  -0.1500 
  5 C        4.1060     0.8710    -0.5950 C.ar  1 <1>   0.1170 
  6 C        3.6030     3.0450    -1.5120 C.ar  1 <1>  -0.1500 
  7 N        4.8070     0.0850     0.3210 N.am  1 <1>  -0.5470 
  8 C        4.3110     2.2540    -0.6120 C.ar  1 <1>  -0.1430 
  9 C        5.4790     0.5690     1.3930 C.2   1 <1>   0.5690 
 10 C        5.3510     2.8460     0.3560 C.3   1 <1>   0.1250 
 11 O        6.1250    -0.1540     2.1050 O.2   1 <1>  -0.5700 
 12 C        5.3910     2.0500     1.6740 C.3   1 <1>  -0.0990 
 13 C        5.1680     4.3410     0.6190 C.2   1 <1>   0.5690 
 14 O        4.3610     4.6970     1.4470 O.2   1 <1>  -0.5700 
 15 N        5.9400     5.2040    -0.0980 N.am  1 <1>  -0.4930 
 16 C        6.0900     6.6100    -0.0150 C.2   1 <1>   0.0630 
 17 C        7.3190     7.2310    -0.2580 C.2   1 <1>   0.3720 
 18 C        5.2370     7.6210     0.2600 C.2   1 <1>  -0.3320 
 19 N        7.2630     8.5180    -0.1240 N.2   1 <1>  -0.7070 
 20 N        8.4910     6.5290    -0.6070 N.pl3 1 <1>  -0.8210 
 21 N        5.9740     8.7600     0.2070 N.pl3 1 <1>   0.3140 
 22 C        3.7450     7.5880     0.5630 C.3   1 <1>  -0.0600 
 23 C        9.4820     6.5560     0.5030 C.3   1 <1>   0.2090 
 24 C        9.1480     7.0900    -1.8220 C.3   1 <1>   0.2090 
 25 C        5.5100    10.1300     0.4590 C.3   1 <1>   0.0160 
 26 C       10.8370     6.7900    -0.1480 C.3   1 <1>  -0.1600 
 27 C       10.5050     7.6180    -1.3770 C.3   1 <1>  -0.1600 
 28 H        3.0380    -0.7710    -1.4810 H     1 <1>   0.1500 
 29 H        2.1440     3.0690    -3.0900 H     1 <1>   0.1500 
 30 H        3.7380     4.1140    -1.5470 H     1 <1>   0.1500 
 31 H        4.8300    -0.9290     0.2120 H     1 <1>   0.3700 
 32 H        6.3100     2.7170    -0.1130 H     1 <1>   0.0800 
 33 H        6.2330     2.3560     2.2680 H     1 <1>   0.0800 
 34 H        4.4950     2.2270     2.2400 H     1 <1>   0.0800 
 35 H        6.7120     4.8090    -0.6380 H     1 <1>   0.3700 
 36 H        3.3180     6.6550     0.2440 H     1 <1>   0.0800 
 37 H        3.2340     8.3780     0.0440 H     1 <1>   0.0800 
 38 H        3.5830     7.6930     1.6210 H     1 <1>   0.0800 
 39 H        9.4650     5.6260     1.0440 H     1 <1>   0.0800 
 40 H        9.2610     7.3630     1.1830 H     1 <1>   0.0800 
 41 H        8.5600     7.8710    -2.2770 H     1 <1>   0.0800 
 42 H        9.2790     6.2950    -2.5360 H     1 <1>   0.0800 
 43 H        4.9820    10.1580     1.3930 H     1 <1>   0.0800 
 44 H        4.8630    10.4330    -0.3410 H     1 <1>   0.0800 
 45 H        6.3600    10.7860     0.5050 H     1 <1>   0.0800 
 46 H       11.2560     5.8440    -0.4390 H     1 <1>   0.0800 
 47 H       11.5170     7.2930     0.5160 H     1 <1>   0.0800 
 48 H       10.3960     8.6530    -1.1030 H     1 <1>   0.0800 
 49 H       11.2450     7.5310    -2.1510 H     1 <1>   0.0800 
@<TRIPOS>BOND
  1   1   2  1   
  2   2   3  ar  
  3   2   4  ar  
  4   3   5  ar  
  5   3  28  1   
  6   4   6  ar  
  7   4  29  1   
  8   5   7  1   
  9   5   8  ar  
 10   6   8  ar  
 11   6  30  1   
 12   7   9  am  
 13   7  31  1   
 14   8  10  1   
 15   9  11  2   
 16   9  12  1   
 17  10  12  1   
 18  10  13  1   
 19  10  32  1   
 20  12  33  1   
 21  12  34  1   
 22  13  14  2   
 23  13  15  am  
 24  15  16  1   
 25  15  35  1   
 26  16  17  1   
 27  16  18  2   
 28  17  19  2   
 29  17  20  1   
 30  18  21  1   
 31  18  22  1   
 32  19  21  1   
 33  20  23  1   
 34  20  24  1   
 35  21  25  1   
 36  22  36  1   
 37  22  37  1   
 38  22  38  1   
 39  23  26  1   
 40  23  39  1   
 41  23  40  1   
 42  24  27  1   
 43  24  41  1   
 44  24  42  1   
 45  25  43  1   
 46  25  44  1   
 47  25  45  1   
 48  26  27  1   
 49  26  46  1   
 50  26  47  1   
 51  27  48  1   
 52  27  49  1   
@<TRIPOS>SUBSTRUCTURE
  1 ****  15 GROUP 4 **** **** 0

# MOE 2024.06 (io_trps.svl 2023.06)
