@<TRIPOS>MOLECULE
NONAME
51 54 1 0 0 
SMALL
USER_CHARGES


@<TRIPOS>ATOM
  1 O        1.1520    -0.3840     1.5250 O.3   1 <1>  -0.0190 
  2 N        1.3710     0.8720     1.2550 N.2   1 <1>  -0.4100 
  3 C        1.4520    -1.1570     0.5160 C.2   1 <1>  -0.0400 
  4 C        1.8190     0.9080     0.0490 C.2   1 <1>   0.1080 
  5 C        1.8950    -0.3780    -0.4820 C.2   1 <1>  -0.1500 
  6 C        1.2760    -2.6620     0.6240 C.3   1 <1>   0.2900 
  7 C        2.2120     2.1770    -0.7010 C.3   1 <1>   0.1010 
  8 N       -0.1410    -3.0340     0.7660 N.3   1 <1>  -0.8100 
  9 C        3.3520     2.9060     0.0200 C.3   1 <1>  -0.2400 
 10 C        1.0030     3.1070    -0.8670 C.3   1 <1>  -0.2400 
 11 C       -0.9880    -2.5710    -0.3380 C.3   1 <1>   0.1100 
 12 C       -0.3440    -4.4870     0.8580 C.3   1 <1>   0.1100 
 13 C       -2.2440    -3.4240    -0.2140 C.3   1 <1>   0.2000 
 14 C       -1.6970    -4.7930     0.1860 C.3   1 <1>  -0.0800 
 15 O       -2.9740    -2.9340     0.8510 O.3   1 <1>  -0.6800 
 16 C       -1.5410    -5.7050    -1.0460 C.3   1 <1>  -0.0170 
 17 C       -0.9750    -7.0670    -0.6800 C.ar  1 <1>   0.1670 
 18 N        0.2790    -7.2860    -0.9360 N.ar  1 <1>  -0.6200 
 19 C       -1.8250    -8.0140    -0.0860 C.ar  1 <1>  -0.1500 
 20 C        0.7880    -8.5020    -0.6070 C.ar  1 <1>   0.3100 
 21 C       -1.3400    -9.2390     0.2570 C.ar  1 <1>  -0.1500 
 22 C        0.0120    -9.5150    -0.0020 C.ar  1 <1>   0.0000 
 23 C        2.1410    -8.7660    -0.8750 C.ar  1 <1>  -0.1500 
 24 C        0.6200   -10.7470     0.3120 C.ar  1 <1>  -0.1500 
 25 C        2.7130    -9.9710    -0.5610 C.ar  1 <1>  -0.1500 
 26 C        1.9420   -10.9720     0.0390 C.ar  1 <1>  -0.1500 
 27 H        2.2330    -0.6450    -1.4650 H     1 <1>   0.1500 
 28 H        1.8210    -3.0140     1.4830 H     1 <1>   0.0800 
 29 H        1.6870    -3.1310    -0.2540 H     1 <1>   0.0800 
 30 H        2.5580     1.8970    -1.6810 H     1 <1>   0.0800 
 31 H        3.0360     3.2100     1.0030 H     1 <1>   0.0800 
 32 H        3.6540     3.7770    -0.5330 H     1 <1>   0.0800 
 33 H        4.1990     2.2510     0.1240 H     1 <1>   0.0800 
 34 H        0.6370     3.4140     0.0970 H     1 <1>   0.0800 
 35 H        0.2120     2.5920    -1.3820 H     1 <1>   0.0800 
 36 H        1.2740     3.9810    -1.4310 H     1 <1>   0.0800 
 37 H       -1.2080    -1.5190    -0.2570 H     1 <1>   0.0800 
 38 H       -0.5080    -2.7680    -1.2810 H     1 <1>   0.0800 
 39 H        0.4570    -5.0110     0.3620 H     1 <1>   0.0800 
 40 H       -0.3570    -4.7840     1.8940 H     1 <1>   0.0800 
 41 H       -2.8670    -3.4240    -1.0920 H     1 <1>   0.0800 
 42 H       -2.3590    -5.2750     0.8850 H     1 <1>   0.0800 
 43 H       -2.3190    -2.7090     1.5490 H     1 <1>   0.4000 
 44 H       -0.8940    -5.2380    -1.7680 H     1 <1>   0.0800 
 45 H       -2.4990    -5.8440    -1.5130 H     1 <1>   0.0800 
 46 H       -2.8530    -7.7580     0.0930 H     1 <1>   0.1500 
 47 H       -1.9600    -9.9890     0.7140 H     1 <1>   0.1500 
 48 H        2.7150    -7.9850    -1.3370 H     1 <1>   0.1500 
 49 H        0.0220   -11.5130     0.7730 H     1 <1>   0.1500 
 50 H        3.7510   -10.1600    -0.7720 H     1 <1>   0.1500 
 51 H        2.4040   -11.9140     0.2800 H     1 <1>   0.1500 
@<TRIPOS>BOND
  1   1   2  1   
  2   1   3  1   
  3   2   4  2   
  4   3   5  2   
  5   3   6  1   
  6   4   5  1   
  7   4   7  1   
  8   5  27  1   
  9   6   8  1   
 10   6  28  1   
 11   6  29  1   
 12   7   9  1   
 13   7  10  1   
 14   7  30  1   
 15   8  11  1   
 16   8  12  1   
 17   9  31  1   
 18   9  32  1   
 19   9  33  1   
 20  10  34  1   
 21  10  35  1   
 22  10  36  1   
 23  11  13  1   
 24  11  37  1   
 25  11  38  1   
 26  12  14  1   
 27  12  39  1   
 28  12  40  1   
 29  13  14  1   
 30  13  15  1   
 31  13  41  1   
 32  14  16  1   
 33  14  42  1   
 34  15  43  1   
 35  16  17  1   
 36  16  44  1   
 37  16  45  1   
 38  17  18  ar  
 39  17  19  ar  
 40  18  20  ar  
 41  19  21  ar  
 42  19  46  1   
 43  20  22  ar  
 44  20  23  ar  
 45  21  22  ar  
 46  21  47  1   
 47  22  24  ar  
 48  23  25  ar  
 49  23  48  1   
 50  24  26  ar  
 51  24  49  1   
 52  25  26  ar  
 53  25  50  1   
 54  26  51  1   
@<TRIPOS>SUBSTRUCTURE
  1 ****  12 GROUP 4 **** **** 0

# MOE 2024.06 (io_trps.svl 2023.06)
