@<TRIPOS>MOLECULE
NONAME
47 48 1 0 0 
SMALL
USER_CHARGES


@<TRIPOS>ATOM
  1 O        0.5670     0.2380    -1.9200 O.2   1 <1>  -0.5700 
  2 C        0.9900    -0.3940    -0.9800 C.2   1 <1>   0.5690 
  3 N        1.4560     0.2270     0.1340 N.am  1 <1>  -0.7300 
  4 C        1.0210    -1.9150    -1.0820 C.3   1 <1>   0.2370 
  5 C        1.5750     1.6790     0.3340 C.3   1 <1>   0.2840 
  6 N        0.6310    -2.5230     0.2190 N.pl3 1 <1>   0.3140 
  7 C        2.4000    -2.4210    -1.5640 C.3   1 <1>  -0.1600 
  8 C        3.0490     2.0250     0.4520 C.ar  1 <1>  -0.1440 
  9 N        1.3810    -2.4280     1.3450 N.2   1 <1>  -0.7070 
 10 C       -0.4850    -3.2470     0.4490 C.2   1 <1>  -0.3020 
 11 C        2.4470    -3.9410    -1.7890 C.3   1 <1>  -0.2400 
 12 C        3.8160     2.1660    -0.6930 C.ar  1 <1>  -0.1500 
 13 C        3.6450     2.1880     1.6920 C.ar  1 <1>  -0.1500 
 14 C        0.7220    -3.0940     2.2440 C.2   1 <1>   0.1390 
 15 C       -0.4570    -3.6290     1.7430 C.2   1 <1>  -0.1500 
 16 C        5.1620     2.4740    -0.6030 C.ar  1 <1>  -0.1500 
 17 C        4.9910     2.4950     1.7870 C.ar  1 <1>  -0.1500 
 18 C        5.7560     2.6470     0.6390 C.ar  1 <1>  -0.1430 
 19 C        7.2270     2.9980     0.7390 C.3   1 <1>   0.4860 
 20 N        7.3450     4.4420     1.0910 N.4   1 <1>  -0.9590 
 21 C        6.8340     5.3200    -0.0090 C.3   1 <1>   0.2630 
 22 C        8.7440     4.8040     1.4720 C.3   1 <1>   0.2630 
 23 H        1.7680    -0.3710     0.9140 H     1 <1>   0.3700 
 24 H        0.2830    -2.2010    -1.8070 H     1 <1>   0.0800 
 25 H        1.0460     1.9600     1.2280 H     1 <1>   0.0800 
 26 H        1.1370     2.2060    -0.4970 H     1 <1>   0.0800 
 27 H        3.1530    -2.1380    -0.8480 H     1 <1>   0.0800 
 28 H        2.6370    -1.9280    -2.4910 H     1 <1>   0.0800 
 29 H       -1.2240    -3.4490    -0.3050 H     1 <1>   0.1500 
 30 H        2.2810    -4.4670    -0.8650 H     1 <1>   0.0800 
 31 H        3.4130    -4.2250    -2.1670 H     1 <1>   0.0800 
 32 H        1.6990    -4.2430    -2.5020 H     1 <1>   0.0800 
 33 H        3.3580     2.0250    -1.6590 H     1 <1>   0.1500 
 34 H        3.0600     2.0680     2.5890 H     1 <1>   0.1500 
 35 H        1.0580    -3.2120     3.2610 H     1 <1>   0.1500 
 36 H       -1.1710    -4.2170     2.2920 H     1 <1>   0.1500 
 37 H        5.7310     2.5690    -1.5120 H     1 <1>   0.1500 
 38 H        5.4260     2.6060     2.7650 H     1 <1>   0.1500 
 39 H        7.7210     2.7970    -0.1970 H     1 <1>   0.0800 
 40 H        7.6820     2.3900     1.5040 H     1 <1>   0.0800 
 41 H        6.7230     4.5790     1.9030 H     1 <1>   0.4500 
 42 H        7.4200     5.1830    -0.9030 H     1 <1>   0.0800 
 43 H        6.8870     6.3560     0.2830 H     1 <1>   0.0800 
 44 H        5.8060     5.0800    -0.2310 H     1 <1>   0.0800 
 45 H        9.4110     4.6570     0.6380 H     1 <1>   0.0800 
 46 H        9.0790     4.1930     2.2950 H     1 <1>   0.0800 
 47 H        8.7930     5.8380     1.7730 H     1 <1>   0.0800 
@<TRIPOS>BOND
  1   1   2  2   
  2   2   3  am  
  3   2   4  1   
  4   3   5  1   
  5   3  23  1   
  6   4   6  1   
  7   4   7  1   
  8   4  24  1   
  9   5   8  1   
 10   5  25  1   
 11   5  26  1   
 12   6   9  1   
 13   6  10  1   
 14   7  11  1   
 15   7  27  1   
 16   7  28  1   
 17   8  12  ar  
 18   8  13  ar  
 19   9  14  2   
 20  10  15  2   
 21  10  29  1   
 22  11  30  1   
 23  11  31  1   
 24  11  32  1   
 25  12  16  ar  
 26  12  33  1   
 27  13  17  ar  
 28  13  34  1   
 29  14  15  1   
 30  14  35  1   
 31  15  36  1   
 32  16  18  ar  
 33  16  37  1   
 34  17  18  ar  
 35  17  38  1   
 36  18  19  1   
 37  19  20  1   
 38  19  39  1   
 39  19  40  1   
 40  20  21  1   
 41  20  22  1   
 42  20  41  1   
 43  21  42  1   
 44  21  43  1   
 45  21  44  1   
 46  22  45  1   
 47  22  46  1   
 48  22  47  1   
@<TRIPOS>SUBSTRUCTURE
  1 ****   8 GROUP 4 **** **** 0

# MOE 2024.06 (io_trps.svl 2023.06)
