@<TRIPOS>MOLECULE
NONAME
42 43 1 0 0 
SMALL
USER_CHARGES


@<TRIPOS>ATOM
  1 S        0.1360    -0.0310    -0.9100 S.o2  1 <1>   1.3330 
  2 O        1.2400    -0.4200    -1.7600 O.2   1 <1>  -0.6500 
  3 O       -1.1360     0.3060    -1.5060 O.2   1 <1>  -0.6500 
  4 N       -0.1570    -1.3050     0.1780 N.am  1 <1>  -0.8490 
  5 C        0.6570     1.3180     0.1610 C.3   1 <1>  -0.0550 
  6 C       -1.4860    -1.2500     0.7970 C.3   1 <1>   0.1160 
  7 C        0.0470    -2.6190    -0.4390 C.3   1 <1>   0.1160 
  8 C        2.1230     1.3210     0.6490 C.3   1 <1>  -0.0800 
  9 C        3.1360     1.5690    -0.4710 C.3   1 <1>   0.2200 
 10 C        2.6340     0.0470     1.3330 C.3   1 <1>   0.1200 
 11 N        3.8460     2.8420    -0.2140 N.am  1 <1>  -0.7300 
 12 C        4.0910     0.3830    -0.3470 C.3   1 <1>   0.1200 
 13 O        3.9720    -0.0430     0.9720 O.3   1 <1>  -0.5600 
 14 C        3.3840     4.0770    -0.5620 C.2   1 <1>   0.5440 
 15 O        2.3130     4.1350    -1.1340 O.2   1 <1>  -0.5700 
 16 C        4.1260     5.2940    -0.2770 C.ar  1 <1>   0.0860 
 17 C        5.1070     5.4040     0.7150 C.ar  1 <1>   0.1900 
 18 C        3.8750     6.4540    -1.0150 C.ar  1 <1>  -0.1500 
 19 F        5.4000     4.3760     1.4680 F     1 <1>  -0.1900 
 20 C        5.8080     6.5700     0.9690 C.ar  1 <1>  -0.1500 
 21 C        4.5670     7.6280    -0.7730 C.ar  1 <1>   0.0820 
 22 C        5.5350     7.6950     0.2140 C.ar  1 <1>  -0.1500 
 23 O        4.3060     8.7260    -1.4980 O.3   1 <1>  -0.5330 
 24 H        0.5020     2.2390    -0.3690 H     1 <1>   0.0800 
 25 H        0.0120     1.3460     1.0170 H     1 <1>   0.0800 
 26 H       -1.5780    -2.0200     1.5440 H     1 <1>   0.0800 
 27 H       -2.2540    -1.3900     0.0540 H     1 <1>   0.0800 
 28 H       -1.6380    -0.2970     1.2720 H     1 <1>   0.0800 
 29 H       -0.1390    -3.4020     0.2770 H     1 <1>   0.0800 
 30 H        1.0650    -2.7130    -0.7810 H     1 <1>   0.0800 
 31 H       -0.6130    -2.7440    -1.2810 H     1 <1>   0.0800 
 32 H        2.2050     2.1120     1.3750 H     1 <1>   0.0800 
 33 H        2.6930     1.5970    -1.4530 H     1 <1>   0.0800 
 34 H        2.1520    -0.8450     0.9760 H     1 <1>   0.0800 
 35 H        2.5620     0.0960     2.4050 H     1 <1>   0.0800 
 36 H        4.6400     2.7650     0.4290 H     1 <1>   0.3700 
 37 H        5.1140     0.6410    -0.5570 H     1 <1>   0.0800 
 38 H        3.7760    -0.4250    -0.9850 H     1 <1>   0.0800 
 39 H        3.1260     6.4240    -1.7870 H     1 <1>   0.1500 
 40 H        6.5530     6.5950     1.7440 H     1 <1>   0.1500 
 41 H        6.0600     8.6190     0.3830 H     1 <1>   0.1500 
 42 H        3.6020     8.5980    -2.1590 H     1 <1>   0.4500 
@<TRIPOS>BOND
  1   1   2  2   
  2   1   3  2   
  3   1   4  am  
  4   1   5  1   
  5   4   6  1   
  6   4   7  1   
  7   5   8  1   
  8   5  24  1   
  9   5  25  1   
 10   6  26  1   
 11   6  27  1   
 12   6  28  1   
 13   7  29  1   
 14   7  30  1   
 15   7  31  1   
 16   8   9  1   
 17   8  10  1   
 18   8  32  1   
 19   9  11  1   
 20   9  12  1   
 21   9  33  1   
 22  10  13  1   
 23  10  34  1   
 24  10  35  1   
 25  11  14  am  
 26  11  36  1   
 27  12  13  1   
 28  12  37  1   
 29  12  38  1   
 30  14  15  2   
 31  14  16  1   
 32  16  17  ar  
 33  16  18  ar  
 34  17  19  1   
 35  17  20  ar  
 36  18  21  ar  
 37  18  39  1   
 38  20  22  ar  
 39  20  40  1   
 40  21  22  ar  
 41  21  23  1   
 42  22  41  1   
 43  23  42  1   
@<TRIPOS>SUBSTRUCTURE
  1 ****  11 GROUP 4 **** **** 0

# MOE 2024.06 (io_trps.svl 2023.06)
