@<TRIPOS>MOLECULE
NONAME
55 57 1 0 0 
SMALL
USER_CHARGES


@<TRIPOS>ATOM
  1 O       -0.3850     0.5520    -1.3640 O.2   1 <1>  -0.5700 
  2 C       -1.4510     0.9930    -0.9850 C.2   1 <1>   0.5690 
  3 N       -2.5320     0.1320    -0.8850 N.am  1 <1>  -0.6600 
  4 C       -1.4940     2.5150    -0.5840 C.3   1 <1>   0.3410 
  5 C       -2.4120    -1.2670    -1.4020 C.3   1 <1>   0.1400 
  6 C       -3.8480     0.5050    -0.2820 C.3   1 <1>   0.1400 
  7 O       -2.7790     3.0620    -0.8360 O.3   1 <1>  -0.5600 
  8 C       -1.1650     2.6480     0.9140 C.3   1 <1>  -0.2400 
  9 C       -0.4690     3.3270    -1.4080 C.3   1 <1>  -0.2400 
 10 C       -3.7540    -1.7820    -1.9310 C.3   1 <1>  -0.1600 
 11 C       -4.5680    -0.7330     0.2470 C.3   1 <1>  -0.1600 
 12 C       -3.0680     4.3990    -0.5390 C.3   1 <1>   0.0400 
 13 C       -4.9000    -1.7060    -0.9000 C.3   1 <1>   0.4240 
 14 O       -5.9830    -1.1550    -1.6130 O.3   1 <1>  -0.5600 
 15 C       -5.2320    -3.1130    -0.3540 C.ar  1 <1>  -0.1430 
 16 C       -7.2730    -1.4050    -1.1450 C.3   1 <1>   0.1200 
 17 C       -6.4880    -3.6800    -0.5230 C.ar  1 <1>  -0.1430 
 18 C       -4.2670    -3.8490     0.3210 C.ar  1 <1>  -0.1500 
 19 C       -7.5600    -2.8990    -1.2570 C.3   1 <1>  -0.0170 
 20 C       -6.7660    -4.9440    -0.0280 C.ar  1 <1>  -0.1500 
 21 C       -4.5230    -5.1160     0.8180 C.ar  1 <1>   0.0820 
 22 C       -5.7990    -5.6770     0.6550 C.ar  1 <1>   0.0820 
 23 O       -3.4630    -5.7050     1.4420 O.3   1 <1>  -0.3630 
 24 O       -6.0770    -6.9090     1.1740 O.3   1 <1>  -0.3620 
 25 C       -3.2930    -7.1050     1.4390 C.3   1 <1>   0.0400 
 26 C       -7.3830    -7.4420     1.1880 C.3   1 <1>   0.0400 
 27 H       -2.0540    -1.8990    -0.6090 H     1 <1>   0.0800 
 28 H       -1.6900    -1.3010    -2.2000 H     1 <1>   0.0800 
 29 H       -4.4530     0.9890    -1.0310 H     1 <1>   0.0800 
 30 H       -3.6990     1.1930     0.5290 H     1 <1>   0.0800 
 31 H       -1.9400     2.2040     1.5110 H     1 <1>   0.0800 
 32 H       -1.0270     3.6730     1.2020 H     1 <1>   0.0800 
 33 H       -0.2470     2.1270     1.1200 H     1 <1>   0.0800 
 34 H       -0.7310     3.2880    -2.4500 H     1 <1>   0.0800 
 35 H        0.5120     2.9020    -1.2960 H     1 <1>   0.0800 
 36 H       -0.4100     4.3480    -1.0850 H     1 <1>   0.0800 
 37 H       -3.6310    -2.7960    -2.2640 H     1 <1>   0.0800 
 38 H       -4.0010    -1.1930    -2.7970 H     1 <1>   0.0800 
 39 H       -5.4610    -0.4450     0.7660 H     1 <1>   0.0800 
 40 H       -3.9290    -1.2070     0.9680 H     1 <1>   0.0800 
 41 H       -4.1060     4.5660    -0.7690 H     1 <1>   0.0800 
 42 H       -2.4690     5.0500    -1.1490 H     1 <1>   0.0800 
 43 H       -2.9070     4.5910     0.5060 H     1 <1>   0.0800 
 44 H       -7.9580    -0.8440    -1.7560 H     1 <1>   0.0800 
 45 H       -7.3550    -1.0720    -0.1260 H     1 <1>   0.0800 
 46 H       -3.2830    -3.4480     0.4740 H     1 <1>   0.1500 
 47 H       -7.5720    -3.1840    -2.2930 H     1 <1>   0.0800 
 48 H       -8.5270    -3.1050    -0.8360 H     1 <1>   0.0800 
 49 H       -7.7490    -5.3420    -0.1850 H     1 <1>   0.1500 
 50 H       -2.2640    -7.3180     1.6620 H     1 <1>   0.0800 
 51 H       -3.5490    -7.4880     0.4670 H     1 <1>   0.0800 
 52 H       -3.9250    -7.5320     2.1970 H     1 <1>   0.0800 
 53 H       -7.3540    -8.3810     1.7110 H     1 <1>   0.0800 
 54 H       -7.7080    -7.6000     0.1750 H     1 <1>   0.0800 
 55 H       -8.0340    -6.7580     1.7030 H     1 <1>   0.0800 
@<TRIPOS>BOND
  1   1   2  2   
  2   2   3  am  
  3   2   4  1   
  4   3   5  1   
  5   3   6  1   
  6   4   7  1   
  7   4   8  1   
  8   4   9  1   
  9   5  10  1   
 10   5  27  1   
 11   5  28  1   
 12   6  11  1   
 13   6  29  1   
 14   6  30  1   
 15   7  12  1   
 16   8  31  1   
 17   8  32  1   
 18   8  33  1   
 19   9  34  1   
 20   9  35  1   
 21   9  36  1   
 22  10  13  1   
 23  10  37  1   
 24  10  38  1   
 25  11  13  1   
 26  11  39  1   
 27  11  40  1   
 28  12  41  1   
 29  12  42  1   
 30  12  43  1   
 31  13  14  1   
 32  13  15  1   
 33  14  16  1   
 34  15  17  ar  
 35  15  18  ar  
 36  16  19  1   
 37  16  44  1   
 38  16  45  1   
 39  17  19  1   
 40  17  20  ar  
 41  18  21  ar  
 42  18  46  1   
 43  19  47  1   
 44  19  48  1   
 45  20  22  ar  
 46  20  49  1   
 47  21  22  ar  
 48  21  23  1   
 49  22  24  1   
 50  23  25  1   
 51  24  26  1   
 52  25  50  1   
 53  25  51  1   
 54  25  52  1   
 55  26  53  1   
 56  26  54  1   
 57  26  55  1   
@<TRIPOS>SUBSTRUCTURE
  1 ****  13 GROUP 4 **** **** 0

# MOE 2024.06 (io_trps.svl 2023.06)
