@<TRIPOS>MOLECULE
NONAME
43 44 1 0 0 
SMALL
USER_CHARGES


@<TRIPOS>ATOM
  1 S        1.2850    -0.9430     1.5520 S.o2  1 <1>   1.4470 
  2 O        2.4370    -1.7790     1.3030 O.2   1 <1>  -0.6500 
  3 O        1.1230    -0.3040     2.8320 O.2   1 <1>  -0.6500 
  4 N       -0.0650    -1.9190     1.3840 N.am  1 <1>  -0.9140 
  5 C        1.1070     0.2880     0.2290 C.ar  1 <1>  -0.0090 
  6 C        0.0850    -3.0940     0.5380 C.3   1 <1>   0.2760 
  7 C       -0.0710     1.0210     0.0540 C.ar  1 <1>   0.0730 
  8 C        2.1750     0.5270    -0.6300 C.ar  1 <1>  -0.1500 
  9 C       -1.2970    -3.6250     0.1790 C.3   1 <1>  -0.0800 
 10 C        0.6250    -4.2660     1.3540 C.3   1 <1>   0.1200 
 11 C       -1.2350     0.8400     0.8780 C.1   1 <1>   0.4840 
 12 C       -0.1400     1.9610    -0.9710 C.ar  1 <1>  -0.1500 
 13 C        2.0940     1.4620    -1.6450 C.ar  1 <1>  -0.1500 
 14 C       -1.6450    -4.5350     1.3660 C.3   1 <1>   0.1200 
 15 C       -2.3560    -2.5370    -0.1020 C.3   1 <1>  -0.0550 
 16 O       -0.4660    -4.7040     2.0990 O.3   1 <1>  -0.5600 
 17 N       -2.1970     0.6890     1.4720 N.1   1 <1>  -0.5570 
 18 C        0.9300     2.1830    -1.8160 C.ar  1 <1>  -0.1500 
 19 S       -3.9130    -3.1880    -0.6940 S.o2  1 <1>   1.3330 
 20 O       -3.6470    -3.8780    -1.9360 O.2   1 <1>  -0.6500 
 21 O       -4.5830    -3.8860     0.3810 O.2   1 <1>  -0.6500 
 22 N       -4.8040    -1.7890    -1.0490 N.am  1 <1>  -0.8490 
 23 C       -5.2940    -1.0910     0.1470 C.3   1 <1>   0.1160 
 24 C       -5.9230    -2.0720    -1.9520 C.3   1 <1>   0.1160 
 25 H       -0.2460    -2.2750     2.3270 H     1 <1>   0.4200 
 26 H        0.6800    -2.8780    -0.3350 H     1 <1>   0.0800 
 27 H        3.0930    -0.0270    -0.5050 H     1 <1>   0.1500 
 28 H       -1.2030    -4.2480    -0.6950 H     1 <1>   0.0800 
 29 H        1.4310    -3.9990     2.0160 H     1 <1>   0.0800 
 30 H        0.9350    -5.0710     0.7110 H     1 <1>   0.0800 
 31 H       -1.0450     2.5300    -1.1130 H     1 <1>   0.1500 
 32 H        2.9340     1.6290    -2.2980 H     1 <1>   0.1500 
 33 H       -1.9960    -5.5000     1.0410 H     1 <1>   0.0800 
 34 H       -2.3750    -4.0880     2.0210 H     1 <1>   0.0800 
 35 H       -1.9680    -1.8620    -0.8400 H     1 <1>   0.0800 
 36 H       -2.5350    -1.9750     0.7930 H     1 <1>   0.0800 
 37 H        0.8590     2.9150    -2.6030 H     1 <1>   0.1500 
 38 H       -5.8020    -0.1850    -0.1360 H     1 <1>   0.0800 
 39 H       -4.4730    -0.8240     0.7900 H     1 <1>   0.0800 
 40 H       -5.9750    -1.7180     0.6990 H     1 <1>   0.0800 
 41 H       -6.4530    -1.1640    -2.1840 H     1 <1>   0.0800 
 42 H       -6.6020    -2.7750    -1.4990 H     1 <1>   0.0800 
 43 H       -5.5550    -2.4910    -2.8730 H     1 <1>   0.0800 
@<TRIPOS>BOND
  1   1   2  2   
  2   1   3  2   
  3   1   4  am  
  4   1   5  1   
  5   4   6  1   
  6   4  25  1   
  7   5   7  ar  
  8   5   8  ar  
  9   6   9  1   
 10   6  10  1   
 11   6  26  1   
 12   7  11  1   
 13   7  12  ar  
 14   8  13  ar  
 15   8  27  1   
 16   9  14  1   
 17   9  15  1   
 18   9  28  1   
 19  10  16  1   
 20  10  29  1   
 21  10  30  1   
 22  11  17  3   
 23  12  18  ar  
 24  12  31  1   
 25  13  18  ar  
 26  13  32  1   
 27  14  16  1   
 28  14  33  1   
 29  14  34  1   
 30  15  19  1   
 31  15  35  1   
 32  15  36  1   
 33  18  37  1   
 34  19  20  2   
 35  19  21  2   
 36  19  22  am  
 37  22  23  1   
 38  22  24  1   
 39  23  38  1   
 40  23  39  1   
 41  23  40  1   
 42  24  41  1   
 43  24  42  1   
 44  24  43  1   
@<TRIPOS>SUBSTRUCTURE
  1 ****   4 GROUP 4 **** **** 0

# MOE 2024.06 (io_trps.svl 2023.06)
