@<TRIPOS>MOLECULE
NONAME
58 60 1 0 0 
SMALL
USER_CHARGES


@<TRIPOS>ATOM
  1 S       -0.8360     1.6300     0.7370 S.3   1 <1>  -0.4600 
  2 C       -1.7330     0.2070     1.4560 C.3   1 <1>   0.1310 
  3 C       -0.2580     0.9860    -0.8540 C.3   1 <1>   0.0700 
  4 C       -2.7750    -0.3580     0.4940 C.2   1 <1>   0.5690 
  5 C        0.6150     2.0600    -1.4950 C.3   1 <1>  -0.2400 
  6 O       -2.5860    -1.4790     0.0820 O.2   1 <1>  -0.5700 
  7 N       -3.8800     0.3660     0.1110 N.am  1 <1>  -0.6600 
  8 C       -4.1540     1.7620     0.5660 C.3   1 <1>   0.1400 
  9 C       -4.8320    -0.2070    -0.8850 C.3   1 <1>   0.1400 
 10 C       -5.6630     1.9810     0.6630 C.3   1 <1>  -0.1600 
 11 C       -5.5620     0.9080    -1.6380 C.3   1 <1>  -0.1600 
 12 C       -6.3820     1.8280    -0.7020 C.3   1 <1>   0.2800 
 13 O       -6.4060     3.0560    -1.3680 O.3   1 <1>  -0.5600 
 14 C       -7.8300     1.2910    -0.5790 C.3   1 <1>  -0.1600 
 15 C       -7.2480     4.0790    -0.9000 C.3   1 <1>   0.1200 
 16 C       -8.8910     2.2890    -0.0760 C.3   1 <1>   0.3000 
 17 C       -8.7090     3.6250    -0.8570 C.3   1 <1>   0.2000 
 18 N      -10.2030     1.6430    -0.3720 N.am  1 <1>  -0.7300 
 19 C       -8.8210     2.4560     1.4540 C.3   1 <1>  -0.2400 
 20 O       -9.4460     4.6610    -0.2960 O.3   1 <1>  -0.6800 
 21 C      -11.4800     2.1230    -0.2410 C.2   1 <1>   0.6160 
 22 O      -11.6450     3.2800     0.0960 O.2   1 <1>  -0.5700 
 23 C      -12.6160     1.2700    -0.5150 C.2   1 <1>   0.0140 
 24 C      -12.5650    -0.1030    -0.4410 C.2   1 <1>  -0.0410 
 25 C      -13.8730     1.8510    -0.8780 C.2   1 <1>  -0.1500 
 26 N      -13.6600    -0.8820    -0.7210 N.am  1 <1>  -0.5390 
 27 C      -14.9530     1.0680    -1.1480 C.2   1 <1>  -0.1360 
 28 C      -14.8660    -0.3470    -1.0770 C.2   1 <1>   0.6160 
 29 O      -15.7940    -1.1000    -1.3130 O.2   1 <1>  -0.5700 
 30 H       -0.9960    -0.5420     1.6810 H     1 <1>   0.0800 
 31 H       -2.1920     0.5390     2.3680 H     1 <1>   0.0800 
 32 H        0.2970     0.0840    -0.6600 H     1 <1>   0.0800 
 33 H       -1.1240     0.7680    -1.4550 H     1 <1>   0.0800 
 34 H        1.4540     2.2820    -0.8600 H     1 <1>   0.0800 
 35 H        0.0430     2.9580    -1.6480 H     1 <1>   0.0800 
 36 H        0.9800     1.7170    -2.4460 H     1 <1>   0.0800 
 37 H       -3.7090     1.9410     1.5290 H     1 <1>   0.0800 
 38 H       -3.7260     2.4580    -0.1370 H     1 <1>   0.0800 
 39 H       -4.2910    -0.8160    -1.5910 H     1 <1>   0.0800 
 40 H       -5.5390    -0.8360    -0.3730 H     1 <1>   0.0800 
 41 H       -5.8290     2.9450     1.0970 H     1 <1>   0.0800 
 42 H       -6.0430     1.2530     1.3570 H     1 <1>   0.0800 
 43 H       -6.1830     0.4700    -2.3960 H     1 <1>   0.0800 
 44 H       -4.8140     1.4890    -2.1500 H     1 <1>   0.0800 
 45 H       -8.1340     0.9830    -1.5640 H     1 <1>   0.0800 
 46 H       -7.8280     0.4120     0.0390 H     1 <1>   0.0800 
 47 H       -6.9190     4.4010     0.0690 H     1 <1>   0.0800 
 48 H       -7.1530     4.9050    -1.5820 H     1 <1>   0.0800 
 49 H       -9.0540     3.4970    -1.8680 H     1 <1>   0.0800 
 50 H      -10.1030     0.7060    -0.7560 H     1 <1>   0.3700 
 51 H       -7.9490     3.0030     1.7470 H     1 <1>   0.0800 
 52 H       -8.8100     1.5000     1.9440 H     1 <1>   0.0800 
 53 H       -9.6680     3.0130     1.8120 H     1 <1>   0.0800 
 54 H      -10.3630     4.3230    -0.1070 H     1 <1>   0.4000 
 55 H      -11.6650    -0.6180    -0.1510 H     1 <1>   0.1500 
 56 H      -13.9380     2.9260    -0.9290 H     1 <1>   0.1500 
 57 H      -13.6570    -1.9030    -0.6700 H     1 <1>   0.3700 
 58 H      -15.9080     1.4730    -1.4220 H     1 <1>   0.1500 
@<TRIPOS>BOND
  1   1   2  1   
  2   1   3  1   
  3   2   4  1   
  4   2  30  1   
  5   2  31  1   
  6   3   5  1   
  7   3  32  1   
  8   3  33  1   
  9   4   6  2   
 10   4   7  am  
 11   5  34  1   
 12   5  35  1   
 13   5  36  1   
 14   7   8  1   
 15   7   9  1   
 16   8  10  1   
 17   8  37  1   
 18   8  38  1   
 19   9  11  1   
 20   9  39  1   
 21   9  40  1   
 22  10  12  1   
 23  10  41  1   
 24  10  42  1   
 25  11  12  1   
 26  11  43  1   
 27  11  44  1   
 28  12  13  1   
 29  12  14  1   
 30  13  15  1   
 31  14  16  1   
 32  14  45  1   
 33  14  46  1   
 34  15  17  1   
 35  15  47  1   
 36  15  48  1   
 37  16  17  1   
 38  16  18  1   
 39  16  19  1   
 40  17  20  1   
 41  17  49  1   
 42  18  21  am  
 43  18  50  1   
 44  19  51  1   
 45  19  52  1   
 46  19  53  1   
 47  20  54  1   
 48  21  22  2   
 49  21  23  1   
 50  23  24  2   
 51  23  25  1   
 52  24  26  1   
 53  24  55  1   
 54  25  27  2   
 55  25  56  1   
 56  26  28  am  
 57  26  57  1   
 58  27  28  1   
 59  27  58  1   
 60  28  29  2   
@<TRIPOS>SUBSTRUCTURE
  1 ****  14 GROUP 4 **** **** 0

# MOE 2024.06 (io_trps.svl 2023.06)
