@<TRIPOS>MOLECULE
NONAME
55 57 1 0 0 
SMALL
USER_CHARGES


@<TRIPOS>ATOM
  1 O       -0.8810    -0.9370     1.8320 O.2   1 <1>  -0.5700 
  2 C       -0.7480    -1.6670     0.8700 C.2   1 <1>   0.7800 
  3 O        0.4600    -2.1120     0.5270 O.3   1 <1>  -0.4300 
  4 N       -1.8180    -2.0830     0.1140 N.am  1 <1>  -0.6600 
  5 C        1.6260    -1.7350     1.2220 C.3   1 <1>   0.2000 
  6 C       -1.6900    -3.0190    -1.0270 C.3   1 <1>   0.1400 
  7 C       -3.1970    -1.6420     0.4210 C.3   1 <1>   0.1400 
  8 C        2.1160    -0.4000     0.6600 C.3   1 <1>  -0.2400 
  9 C        2.6560    -2.8410     1.0070 C.3   1 <1>  -0.2400 
 10 C       -2.5010    -4.2770    -0.7090 C.3   1 <1>  -0.1600 
 11 C       -4.0240    -2.8780     0.7710 C.3   1 <1>  -0.1600 
 12 C       -3.9500    -3.9270    -0.3430 C.3   1 <1>   0.4230 
 13 N       -4.6850    -5.1220     0.1270 N.4   1 <1>  -0.9060 
 14 C       -4.9560    -6.1940    -0.8740 C.3   1 <1>   0.4230 
 15 C       -6.2270    -6.9590    -0.4980 C.3   1 <1>  -0.0800 
 16 C       -3.9340    -7.3090    -0.6730 C.3   1 <1>   0.1200 
 17 C       -5.7290    -7.9840     0.5340 C.3   1 <1>   0.1200 
 18 C       -7.4430    -6.1340    -0.0300 C.3   1 <1>  -0.0170 
 19 O       -4.3360    -7.8760     0.5280 O.3   1 <1>  -0.5600 
 20 C       -8.6440    -7.0380     0.1890 C.ar  1 <1>  -0.1430 
 21 C       -9.0140    -7.4780     1.4450 C.ar  1 <1>  -0.1500 
 22 C       -9.4290    -7.4680    -0.8620 C.ar  1 <1>  -0.1500 
 23 C      -10.1130    -8.3100     1.5830 C.ar  1 <1>   0.1600 
 24 C      -10.5090    -8.3000    -0.6150 C.ar  1 <1>   0.1600 
 25 N      -10.8650    -8.7320     0.5820 N.ar  1 <1>  -0.6200 
 26 H        1.4000    -1.6490     2.2730 H     1 <1>   0.0800 
 27 H       -2.0620    -2.5400    -1.9170 H     1 <1>   0.0800 
 28 H       -0.6600    -3.2830    -1.2010 H     1 <1>   0.0800 
 29 H       -3.2040    -0.9500     1.2480 H     1 <1>   0.0800 
 30 H       -3.6070    -1.1350    -0.4370 H     1 <1>   0.0800 
 31 H        2.3050    -0.4810    -0.3960 H     1 <1>   0.0800 
 32 H        3.0260    -0.1090     1.1510 H     1 <1>   0.0800 
 33 H        1.3820     0.3670     0.8340 H     1 <1>   0.0800 
 34 H        2.8740    -2.9540    -0.0400 H     1 <1>   0.0800 
 35 H        2.2830    -3.7700     1.3980 H     1 <1>   0.0800 
 36 H        3.5660    -2.5970     1.5240 H     1 <1>   0.0800 
 37 H       -2.0190    -4.7830     0.1100 H     1 <1>   0.0800 
 38 H       -2.4740    -4.9100    -1.5760 H     1 <1>   0.0800 
 39 H       -5.0430    -2.5710     0.9270 H     1 <1>   0.0800 
 40 H       -3.6410    -3.2800     1.6930 H     1 <1>   0.0800 
 41 H       -4.4380    -3.5230    -1.2170 H     1 <1>   0.0800 
 42 H       -5.5680    -4.8200     0.5420 H     1 <1>   0.4500 
 43 H       -4.1620    -5.5810     0.8910 H     1 <1>   0.4500 
 44 H       -4.9810    -5.8100    -1.8810 H     1 <1>   0.0800 
 45 H       -6.5340    -7.5180    -1.3670 H     1 <1>   0.0800 
 46 H       -2.9170    -6.9740    -0.5900 H     1 <1>   0.0800 
 47 H       -4.0080    -8.0580    -1.4440 H     1 <1>   0.0800 
 48 H       -6.0020    -8.9910     0.2600 H     1 <1>   0.0800 
 49 H       -6.0750    -7.7780     1.5330 H     1 <1>   0.0800 
 50 H       -7.6980    -5.3980    -0.7740 H     1 <1>   0.0800 
 51 H       -7.2340    -5.6180     0.8910 H     1 <1>   0.0800 
 52 H       -8.4670    -7.1890     2.3240 H     1 <1>   0.1500 
 53 H       -9.2210    -7.1700    -1.8730 H     1 <1>   0.1500 
 54 H      -10.3890    -8.6450     2.5690 H     1 <1>   0.1500 
 55 H      -11.1120    -8.6270    -1.4460 H     1 <1>   0.1500 
@<TRIPOS>BOND
  1   1   2  2   
  2   2   3  1   
  3   2   4  am  
  4   3   5  1   
  5   4   6  1   
  6   4   7  1   
  7   5   8  1   
  8   5   9  1   
  9   5  26  1   
 10   6  10  1   
 11   6  27  1   
 12   6  28  1   
 13   7  11  1   
 14   7  29  1   
 15   7  30  1   
 16   8  31  1   
 17   8  32  1   
 18   8  33  1   
 19   9  34  1   
 20   9  35  1   
 21   9  36  1   
 22  10  12  1   
 23  10  37  1   
 24  10  38  1   
 25  11  12  1   
 26  11  39  1   
 27  11  40  1   
 28  12  13  1   
 29  12  41  1   
 30  13  14  1   
 31  13  42  1   
 32  13  43  1   
 33  14  15  1   
 34  14  16  1   
 35  14  44  1   
 36  15  17  1   
 37  15  18  1   
 38  15  45  1   
 39  16  19  1   
 40  16  46  1   
 41  16  47  1   
 42  17  19  1   
 43  17  48  1   
 44  17  49  1   
 45  18  20  1   
 46  18  50  1   
 47  18  51  1   
 48  20  21  ar  
 49  20  22  ar  
 50  21  23  ar  
 51  21  52  1   
 52  22  24  ar  
 53  22  53  1   
 54  23  25  ar  
 55  23  54  1   
 56  24  25  ar  
 57  24  55  1   
@<TRIPOS>SUBSTRUCTURE
  1 ****  13 GROUP 4 **** **** 0

# MOE 2024.06 (io_trps.svl 2023.06)
