@<TRIPOS>MOLECULE
NONAME
54 56 1 0 0 
SMALL
USER_CHARGES


@<TRIPOS>ATOM
  1 S        3.2640     1.8750    -2.7630 S.3   1 <1>  -0.0800 
  2 C        4.1680     0.6390    -1.9160 C.2   1 <1>   0.1980 
  3 C        2.7780     2.5300    -1.2270 C.2   1 <1>  -0.1100 
  4 N        4.1060     0.7170    -0.6480 N.2   1 <1>  -0.5650 
  5 C        4.9190    -0.3690    -2.7540 C.3   1 <1>  -0.0600 
  6 C        3.3210     1.7890    -0.2490 C.2   1 <1>   0.0460 
  7 C        3.1570     2.0270     1.2400 C.3   1 <1>   0.0820 
  8 C        3.7540     3.3580     1.6750 C.2   1 <1>   0.5690 
  9 O        2.9660     4.2130     2.0090 O.2   1 <1>  -0.5700 
 10 N        5.1140     3.5870     1.7100 N.am  1 <1>  -0.6600 
 11 C        6.1360     2.5830     1.2630 C.3   1 <1>   0.1400 
 12 C        5.6300     4.8760     2.2630 C.3   1 <1>   0.1400 
 13 C        6.5580     2.8170    -0.1960 C.3   1 <1>   0.1400 
 14 C        6.9110     5.3950     1.5970 C.3   1 <1>  -0.1600 
 15 N        7.4820     3.9820    -0.3540 N.am  1 <1>  -0.6600 
 16 C        6.9080     5.2940     0.0680 C.3   1 <1>   0.1400 
 17 C        8.7400     3.8010    -0.8820 C.2   1 <1>   0.5690 
 18 O        9.1850     2.7000    -1.1070 O.2   1 <1>  -0.5700 
 19 C        9.6480     4.9710    -1.2050 C.3   1 <1>  -0.0990 
 20 C       10.4010     5.4500     0.0390 C.3   1 <1>   0.0210 
 21 C       11.0900     6.7680    -0.2420 C.2   1 <1>   0.1080 
 22 N       10.4630     7.8970    -0.1350 N.2   1 <1>  -0.7070 
 23 C       12.4160     6.9320    -0.6420 C.2   1 <1>  -0.1810 
 24 N       11.3800     8.8230    -0.4610 N.pl3 1 <1>   0.3000 
 25 C       12.5710     8.2690    -0.7720 C.2   1 <1>  -0.3320 
 26 C       13.4230     5.8190    -0.8690 C.3   1 <1>  -0.0590 
 27 C       13.7790     9.0960    -1.1770 C.3   1 <1>  -0.0600 
 28 H        2.1430     3.3980    -1.2190 H     1 <1>   0.1500 
 29 H        4.2330    -0.9000    -3.3880 H     1 <1>   0.0800 
 30 H        5.4220    -1.0710    -2.1150 H     1 <1>   0.0800 
 31 H        5.6480     0.1350    -3.3620 H     1 <1>   0.0800 
 32 H        3.6020     1.2280     1.8020 H     1 <1>   0.0800 
 33 H        2.1080     2.0290     1.4690 H     1 <1>   0.0800 
 34 H        5.7350     1.5900     1.3420 H     1 <1>   0.0800 
 35 H        7.0020     2.6200     1.9000 H     1 <1>   0.0800 
 36 H        5.8040     4.7550     3.3190 H     1 <1>   0.0800 
 37 H        4.8730     5.6340     2.1500 H     1 <1>   0.0800 
 38 H        5.6880     2.9750    -0.8060 H     1 <1>   0.0800 
 39 H        7.0320     1.9190    -0.5510 H     1 <1>   0.0800 
 40 H        7.7680     4.8900     2.0030 H     1 <1>   0.0800 
 41 H        7.0100     6.4320     1.8640 H     1 <1>   0.0800 
 42 H        7.4830     6.1090    -0.3290 H     1 <1>   0.0800 
 43 H        5.9050     5.3940    -0.3130 H     1 <1>   0.0800 
 44 H        9.0820     5.7730    -1.6390 H     1 <1>   0.0800 
 45 H       10.3620     4.6610    -1.9460 H     1 <1>   0.0800 
 46 H       11.1150     4.7080     0.3430 H     1 <1>   0.0800 
 47 H        9.7180     5.6010     0.8530 H     1 <1>   0.0800 
 48 H       11.1650     9.8270    -0.4620 H     1 <1>   0.2700 
 49 H       13.0270     5.1050    -1.5680 H     1 <1>   0.0800 
 50 H       13.6310     5.3210     0.0600 H     1 <1>   0.0800 
 51 H       14.3430     6.2070    -1.2640 H     1 <1>   0.0800 
 52 H       14.6300     8.4680    -1.3630 H     1 <1>   0.0800 
 53 H       14.0330     9.7860    -0.3920 H     1 <1>   0.0800 
 54 H       13.5630     9.6500    -2.0730 H     1 <1>   0.0800 
@<TRIPOS>BOND
  1   1   2  1   
  2   1   3  1   
  3   2   4  2   
  4   2   5  1   
  5   3   6  2   
  6   3  28  1   
  7   4   6  1   
  8   5  29  1   
  9   5  30  1   
 10   5  31  1   
 11   6   7  1   
 12   7   8  1   
 13   7  32  1   
 14   7  33  1   
 15   8   9  2   
 16   8  10  am  
 17  10  11  1   
 18  10  12  1   
 19  11  13  1   
 20  11  34  1   
 21  11  35  1   
 22  12  14  1   
 23  12  36  1   
 24  12  37  1   
 25  13  15  1   
 26  13  38  1   
 27  13  39  1   
 28  14  16  1   
 29  14  40  1   
 30  14  41  1   
 31  15  16  1   
 32  15  17  am  
 33  16  42  1   
 34  16  43  1   
 35  17  18  2   
 36  17  19  1   
 37  19  20  1   
 38  19  44  1   
 39  19  45  1   
 40  20  21  1   
 41  20  46  1   
 42  20  47  1   
 43  21  22  2   
 44  21  23  1   
 45  22  24  1   
 46  23  25  2   
 47  23  26  1   
 48  24  25  1   
 49  24  48  1   
 50  25  27  1   
 51  26  49  1   
 52  26  50  1   
 53  26  51  1   
 54  27  52  1   
 55  27  53  1   
 56  27  54  1   
@<TRIPOS>SUBSTRUCTURE
  1 ****  15 GROUP 4 **** **** 0

# MOE 2024.06 (io_trps.svl 2023.06)
