@<TRIPOS>MOLECULE
NONAME
39 39 1 0 0 
SMALL
USER_CHARGES


@<TRIPOS>ATOM
  1 O       -1.0440    -0.6310    -0.3060 O.2   1 <1>  -0.5700 
  2 C       -1.7020     0.2910     0.1180 C.2   1 <1>   0.5690 
  3 N       -2.7680     0.0750     0.9510 N.am  1 <1>  -0.6600 
  4 C       -1.3090     1.6850    -0.3250 C.3   1 <1>  -0.0990 
  5 C       -3.0850    -1.3150     1.3990 C.3   1 <1>   0.3200 
  6 C       -3.7930     1.1000     1.3160 C.3   1 <1>   0.1400 
  7 C       -0.4950     2.3970     0.7590 C.3   1 <1>   0.2200 
  8 C       -3.8870    -2.0360     0.3310 C.2   1 <1>   0.0060 
  9 C       -4.9030     1.1640     0.2590 C.3   1 <1>   0.1200 
 10 N       -0.3650     3.8330     0.4330 N.am  1 <1>  -0.7300 
 11 C        0.8730     1.7620     1.0180 C.3   1 <1>  -0.2400 
 12 N       -5.1200    -2.4160     0.4510 N.2   1 <1>  -0.5650 
 13 N       -3.3440    -2.3280    -0.8690 N.pl3 1 <1>   0.0330 
 14 O       -5.7640     2.2040     0.5770 O.3   1 <1>  -0.6800 
 15 C        0.3510     4.5250    -0.4840 C.2   1 <1>   0.5690 
 16 C       -5.3930    -2.9910    -0.7370 C.2   1 <1>   0.0770 
 17 C       -4.3200    -2.9450    -1.5570 C.2   1 <1>  -0.3020 
 18 O        0.2090     5.7170    -0.5500 O.2   1 <1>  -0.5700 
 19 C        1.3280     3.8730    -1.4320 C.3   1 <1>  -0.1790 
 20 H       -2.1890     2.2520    -0.5620 H     1 <1>   0.0800 
 21 H       -0.7280     1.5990    -1.2230 H     1 <1>   0.0800 
 22 H       -3.6480    -1.2920     2.3150 H     1 <1>   0.0800 
 23 H       -2.1740    -1.8560     1.5860 H     1 <1>   0.0800 
 24 H       -3.3330     2.0680     1.4000 H     1 <1>   0.0800 
 25 H       -4.2240     0.8540     2.2710 H     1 <1>   0.0800 
 26 H       -1.0490     2.3400     1.6820 H     1 <1>   0.0800 
 27 H       -5.4710     0.2510     0.2230 H     1 <1>   0.0800 
 28 H       -4.4880     1.3710    -0.7120 H     1 <1>   0.0800 
 29 H       -0.9660     4.4410     0.9940 H     1 <1>   0.3700 
 30 H        1.4150     1.6090     0.1040 H     1 <1>   0.0800 
 31 H        0.7440     0.8010     1.4820 H     1 <1>   0.0800 
 32 H        1.4510     2.3790     1.6830 H     1 <1>   0.0800 
 33 H       -2.3860    -2.0850    -1.1580 H     1 <1>   0.2700 
 34 H       -6.4320     1.9110     1.2290 H     1 <1>   0.4000 
 35 H       -6.3620    -3.4150    -0.9430 H     1 <1>   0.1500 
 36 H       -4.2010    -3.3060    -2.5630 H     1 <1>   0.1500 
 37 H        0.8950     3.0100    -1.8950 H     1 <1>   0.0800 
 38 H        2.2170     3.5970    -0.8990 H     1 <1>   0.0800 
 39 H        1.5980     4.5720    -2.2020 H     1 <1>   0.0800 
@<TRIPOS>BOND
  1   1   2  2   
  2   2   3  am  
  3   2   4  1   
  4   3   5  1   
  5   3   6  1   
  6   4   7  1   
  7   4  20  1   
  8   4  21  1   
  9   5   8  1   
 10   5  22  1   
 11   5  23  1   
 12   6   9  1   
 13   6  24  1   
 14   6  25  1   
 15   7  10  1   
 16   7  11  1   
 17   7  26  1   
 18   8  12  2   
 19   8  13  1   
 20   9  14  1   
 21   9  27  1   
 22   9  28  1   
 23  10  15  am  
 24  10  29  1   
 25  11  30  1   
 26  11  31  1   
 27  11  32  1   
 28  12  16  1   
 29  13  17  1   
 30  13  33  1   
 31  14  34  1   
 32  15  18  2   
 33  15  19  1   
 34  16  17  2   
 35  16  35  1   
 36  17  36  1   
 37  19  37  1   
 38  19  38  1   
 39  19  39  1   
@<TRIPOS>SUBSTRUCTURE
  1 ****   2 GROUP 4 **** **** 0

# MOE 2024.06 (io_trps.svl 2023.06)
