@<TRIPOS>MOLECULE
NONAME
44 46 1 0 0 
SMALL
USER_CHARGES


@<TRIPOS>ATOM
  1 O        1.6250     0.1800     0.6360 O.2   1 <1>  -0.5700 
  2 C        2.4170    -0.7430     0.6520 C.2   1 <1>   0.6160 
  3 N        3.7410    -0.4410     0.8640 N.am  1 <1>  -0.6600 
  4 C        1.9770    -2.0900     0.4130 C.2   1 <1>  -0.1360 
  5 C        4.1190     0.7150     1.7450 C.3   1 <1>   0.1400 
  6 C        4.8440    -1.0830     0.0920 C.3   1 <1>   0.1400 
  7 C        0.7660    -2.4830    -0.0460 C.2   1 <1>  -0.1780 
  8 C        4.7970     1.9300     1.0470 C.3   1 <1>   0.4230 
  9 C        5.4390    -0.1100    -0.9510 C.3   1 <1>  -0.0800 
 10 C        0.2900    -3.8200    -0.2980 C.ar  1 <1>   0.0280 
 11 N        4.4080     2.1890    -0.3970 N.4   1 <1>  -0.9590 
 12 C        6.3340     1.8960     1.2050 C.3   1 <1>   0.1200 
 13 C        6.8400     0.3970    -0.5740 C.3   1 <1>   0.1200 
 14 C        4.4560     1.0110    -1.3310 C.3   1 <1>   0.3430 
 15 C       -0.8890    -4.0110    -1.0160 C.ar  1 <1>  -0.1500 
 16 C        0.9610    -4.9600     0.1490 C.ar  1 <1>  -0.1500 
 17 C        3.0440     2.8030    -0.4600 C.3   1 <1>   0.2630 
 18 O        6.9070     0.6980     0.7820 O.3   1 <1>  -0.5600 
 19 C       -1.3750    -5.2770    -1.2860 C.ar  1 <1>  -0.1500 
 20 C        0.4810    -6.2290    -0.1190 C.ar  1 <1>  -0.1500 
 21 C       -0.6880    -6.3910    -0.8390 C.ar  1 <1>  -0.1500 
 22 H        2.7200    -2.8260     0.6410 H     1 <1>   0.1500 
 23 H        3.2350     1.0750     2.2430 H     1 <1>   0.0800 
 24 H        4.7680     0.3500     2.5230 H     1 <1>   0.0800 
 25 H        5.6030    -1.4360     0.7710 H     1 <1>   0.0800 
 26 H        4.4620    -1.9430    -0.4300 H     1 <1>   0.0800 
 27 H        0.0380    -1.7190    -0.2640 H     1 <1>   0.1500 
 28 H        4.4900     2.7940     1.6110 H     1 <1>   0.0800 
 29 H        5.5760    -0.6890    -1.8470 H     1 <1>   0.0800 
 30 H        5.0770     2.8790    -0.7560 H     1 <1>   0.4500 
 31 H        6.5780     1.9940     2.2490 H     1 <1>   0.0800 
 32 H        6.8020     2.7110     0.6820 H     1 <1>   0.0800 
 33 H        7.1390     1.2550    -1.1520 H     1 <1>   0.0800 
 34 H        7.5590    -0.3870    -0.7440 H     1 <1>   0.0800 
 35 H        3.4710     0.5750    -1.3950 H     1 <1>   0.0800 
 36 H        4.7040     1.3670    -2.3180 H     1 <1>   0.0800 
 37 H       -1.4360    -3.1570    -1.3720 H     1 <1>   0.1500 
 38 H        1.8650    -4.8640     0.7180 H     1 <1>   0.1500 
 39 H        2.3040     2.1230    -0.0730 H     1 <1>   0.0800 
 40 H        2.7850     3.0410    -1.4790 H     1 <1>   0.0800 
 41 H        3.0100     3.7080     0.1230 H     1 <1>   0.0800 
 42 H       -2.2870    -5.3970    -1.8450 H     1 <1>   0.1500 
 43 H        1.0150    -7.0940     0.2350 H     1 <1>   0.1500 
 44 H       -1.0630    -7.3780    -1.0480 H     1 <1>   0.1500 
@<TRIPOS>BOND
  1   1   2  2   
  2   2   3  am  
  3   2   4  1   
  4   3   5  1   
  5   3   6  1   
  6   4   7  2   
  7   4  22  1   
  8   5   8  1   
  9   5  23  1   
 10   5  24  1   
 11   6   9  1   
 12   6  25  1   
 13   6  26  1   
 14   7  10  1   
 15   7  27  1   
 16   8  11  1   
 17   8  12  1   
 18   8  28  1   
 19   9  13  1   
 20   9  14  1   
 21   9  29  1   
 22  10  15  ar  
 23  10  16  ar  
 24  11  14  1   
 25  11  17  1   
 26  11  30  1   
 27  12  18  1   
 28  12  31  1   
 29  12  32  1   
 30  13  18  1   
 31  13  33  1   
 32  13  34  1   
 33  14  35  1   
 34  14  36  1   
 35  15  19  ar  
 36  15  37  1   
 37  16  20  ar  
 38  16  38  1   
 39  17  39  1   
 40  17  40  1   
 41  17  41  1   
 42  19  21  ar  
 43  19  42  1   
 44  20  21  ar  
 45  20  43  1   
 46  21  44  1   
@<TRIPOS>SUBSTRUCTURE
  1 ****   2 GROUP 4 **** **** 0

# MOE 2024.06 (io_trps.svl 2023.06)
