@<TRIPOS>MOLECULE
NONAME
50 53 1 0 0 
SMALL
USER_CHARGES


@<TRIPOS>ATOM
  1 S       -0.6210    -0.5030    -1.3620 S.o2  1 <1>   1.5760 
  2 O        0.4010    -1.4870    -1.0800 O.2   1 <1>  -0.6500 
  3 O       -1.4730    -0.6390    -2.5230 O.2   1 <1>  -0.6500 
  4 N       -1.6060    -0.3300    -0.0050 N.am  1 <1>  -0.8490 
  5 N        0.1120     1.0220    -1.3870 N.am  1 <1>  -0.8490 
  6 C       -2.7130     0.6110    -0.2630 C.3   1 <1>   0.1960 
  7 C       -2.1240    -1.6260     0.4340 C.3   1 <1>   0.1960 
  8 C        0.7630     1.2840    -2.6710 C.3   1 <1>   0.1160 
  9 C        1.0680     1.1970    -0.2910 C.3   1 <1>   0.1160 
 10 C       -3.5300     0.8860     1.0140 C.3   1 <1>   0.1430 
 11 C       -2.9200    -1.4680     1.7360 C.3   1 <1>  -0.1600 
 12 C       -4.6460     1.8590     0.6800 C.ar  1 <1>   0.1670 
 13 C       -4.0600    -0.4480     1.5810 C.3   1 <1>  -0.1600 
 14 C       -2.6990     1.6780     2.0600 C.3   1 <1>  -0.1600 
 15 N       -5.7310     1.5720     0.0020 N.ar  1 <1>  -0.6200 
 16 C       -4.3850     3.1040     1.1640 C.ar  1 <1>  -0.1440 
 17 C       -3.0640     3.1630     1.8880 C.3   1 <1>  -0.0170 
 18 C       -6.5910     2.5820    -0.1820 C.ar  1 <1>   0.6200 
 19 C       -5.3130     4.0860     0.9320 C.ar  1 <1>   0.1600 
 20 N       -6.4160     3.8350     0.2650 N.ar  1 <1>  -0.6200 
 21 C       -7.8130     2.2970    -0.9230 C.ar  1 <1>   0.0000 
 22 C       -7.8620     1.3000    -1.9030 C.ar  1 <1>  -0.1500 
 23 C       -8.9950     3.0060    -0.6890 C.ar  1 <1>  -0.1500 
 24 C       -9.0200     1.0260    -2.6070 C.ar  1 <1>  -0.1500 
 25 C      -10.1570     2.7380    -1.3890 C.ar  1 <1>  -0.1500 
 26 C      -10.1730     1.7460    -2.3510 C.ar  1 <1>  -0.1500 
 27 H       -3.3660     0.2100    -1.0210 H     1 <1>   0.0800 
 28 H       -2.3200     1.5430    -0.6320 H     1 <1>   0.0800 
 29 H       -1.3040    -2.3040     0.6080 H     1 <1>   0.0800 
 30 H       -2.7520    -2.0480    -0.3350 H     1 <1>   0.0800 
 31 H        0.0390     1.2290    -3.4670 H     1 <1>   0.0800 
 32 H        1.5360     0.5560    -2.8560 H     1 <1>   0.0800 
 33 H        1.1950     2.2700    -2.6740 H     1 <1>   0.0800 
 34 H        0.5790     1.0280     0.6540 H     1 <1>   0.0800 
 35 H        1.4570     2.2010    -0.2960 H     1 <1>   0.0800 
 36 H        1.8860     0.5010    -0.3850 H     1 <1>   0.0800 
 37 H       -2.2480    -1.1560     2.5170 H     1 <1>   0.0800 
 38 H       -3.3280    -2.4220     2.0190 H     1 <1>   0.0800 
 39 H       -4.7900    -0.8500     0.8990 H     1 <1>   0.0800 
 40 H       -4.5540    -0.2870     2.5230 H     1 <1>   0.0800 
 41 H       -1.6410     1.5150     1.9530 H     1 <1>   0.0800 
 42 H       -2.9870     1.3760     3.0510 H     1 <1>   0.0800 
 43 H       -2.3360     3.6640     1.2730 H     1 <1>   0.0800 
 44 H       -3.1490     3.6620     2.8380 H     1 <1>   0.0800 
 45 H       -5.1510     5.0860     1.2950 H     1 <1>   0.1500 
 46 H       -6.9740     0.7300    -2.1170 H     1 <1>   0.1500 
 47 H       -9.0010     3.7820     0.0570 H     1 <1>   0.1500 
 48 H       -9.0260     0.2520    -3.3540 H     1 <1>   0.1500 
 49 H      -11.0500     3.3030    -1.1850 H     1 <1>   0.1500 
 50 H      -11.0760     1.5350    -2.8970 H     1 <1>   0.1500 
@<TRIPOS>BOND
  1   1   2  2   
  2   1   3  2   
  3   1   4  am  
  4   1   5  am  
  5   4   6  1   
  6   4   7  1   
  7   5   8  1   
  8   5   9  1   
  9   6  10  1   
 10   6  27  1   
 11   6  28  1   
 12   7  11  1   
 13   7  29  1   
 14   7  30  1   
 15   8  31  1   
 16   8  32  1   
 17   8  33  1   
 18   9  34  1   
 19   9  35  1   
 20   9  36  1   
 21  10  12  1   
 22  10  13  1   
 23  10  14  1   
 24  11  13  1   
 25  11  37  1   
 26  11  38  1   
 27  12  15  ar  
 28  12  16  ar  
 29  13  39  1   
 30  13  40  1   
 31  14  17  1   
 32  14  41  1   
 33  14  42  1   
 34  15  18  ar  
 35  16  17  1   
 36  16  19  ar  
 37  17  43  1   
 38  17  44  1   
 39  18  20  ar  
 40  18  21  1   
 41  19  20  ar  
 42  19  45  1   
 43  21  22  ar  
 44  21  23  ar  
 45  22  24  ar  
 46  22  46  1   
 47  23  25  ar  
 48  23  47  1   
 49  24  26  ar  
 50  24  48  1   
 51  25  26  ar  
 52  25  49  1   
 53  26  50  1   
@<TRIPOS>SUBSTRUCTURE
  1 ****  12 GROUP 4 **** **** 0

# MOE 2024.06 (io_trps.svl 2023.06)
