@<TRIPOS>MOLECULE
NONAME
39 40 1 0 0 
SMALL
USER_CHARGES


@<TRIPOS>ATOM
  1 CL      -0.9290    -0.3750    -2.6330 Cl    1 <1>  -0.1240 
  2 C       -1.3730    -1.8630    -1.8440 C.2   1 <1>   0.1640 
  3 S       -2.5250    -1.7450    -0.5340 S.3   1 <1>  -0.0800 
  4 C       -0.9840    -3.1300    -2.0600 C.2   1 <1>  -0.1500 
  5 C       -2.4640    -3.4930    -0.2750 C.2   1 <1>  -0.0220 
  6 C       -1.6120    -4.0540    -1.1640 C.2   1 <1>  -0.1500 
  7 S       -3.5020    -4.1970     1.0300 S.o2  1 <1>   1.5000 
  8 O       -3.2620    -5.6230     1.0930 O.2   1 <1>  -0.6500 
  9 O       -3.3560    -3.4000     2.2280 O.2   1 <1>  -0.6500 
 10 N       -5.0700    -3.9650     0.4350 N.am  1 <1>  -0.8490 
 11 C       -5.3830    -4.7950    -0.7600 C.3   1 <1>   0.1960 
 12 C       -6.0770    -4.0590     1.5110 C.3   1 <1>   0.1960 
 13 C       -6.4300    -5.8820    -0.4750 C.3   1 <1>   0.2000 
 14 C       -7.4850    -4.0380     0.9130 C.3   1 <1>  -0.1600 
 15 O       -6.6460    -6.6760    -1.5890 O.3   1 <1>  -0.6800 
 16 C       -7.7730    -5.3130     0.0560 C.3   1 <1>  -0.1060 
 17 C       -8.3200    -6.4740     0.9050 C.2   1 <1>   0.9060 
 18 C       -8.8410    -4.9560    -1.0310 C.3   1 <1>  -0.1600 
 19 O       -8.4620    -6.3460     2.1260 O.co2 1 <1>  -0.9000 
 20 O       -8.5560    -7.5480     0.3310 O.co2 1 <1>  -0.9000 
 21 C       -8.4060    -4.0130    -2.1700 C.3   1 <1>  -0.1600 
 22 C       -9.5870    -3.6940    -3.0910 C.3   1 <1>  -0.2400 
 23 H       -0.2840    -3.4510    -2.8110 H     1 <1>   0.1500 
 24 H       -1.4000    -5.1090    -1.2200 H     1 <1>   0.1500 
 25 H       -5.7620    -4.1430    -1.5250 H     1 <1>   0.0800 
 26 H       -4.4950    -5.2670    -1.1420 H     1 <1>   0.0800 
 27 H       -5.9420    -4.9670     2.0790 H     1 <1>   0.0800 
 28 H       -5.9590    -3.2260     2.1840 H     1 <1>   0.0800 
 29 H       -6.0010    -6.5340     0.2690 H     1 <1>   0.0800 
 30 H       -8.2070    -3.9570     1.7070 H     1 <1>   0.0800 
 31 H       -7.5720    -3.1400     0.3350 H     1 <1>   0.0800 
 32 H       -7.3600    -7.3100    -1.3140 H     1 <1>   0.4000 
 33 H       -9.1900    -5.8690    -1.4830 H     1 <1>   0.0800 
 34 H       -9.6900    -4.5280    -0.5260 H     1 <1>   0.0800 
 35 H       -8.0120    -3.0920    -1.7830 H     1 <1>   0.0800 
 36 H       -7.6380    -4.4880    -2.7550 H     1 <1>   0.0800 
 37 H      -10.3680    -3.2000    -2.5400 H     1 <1>   0.0800 
 38 H       -9.9810    -4.6000    -3.5160 H     1 <1>   0.0800 
 39 H       -9.2670    -3.0500    -3.8900 H     1 <1>   0.0800 
@<TRIPOS>BOND
  1   1   2  1   
  2   2   3  1   
  3   2   4  2   
  4   3   5  1   
  5   4   6  1   
  6   4  23  1   
  7   5   6  2   
  8   5   7  1   
  9   6  24  1   
 10   7   8  2   
 11   7   9  2   
 12   7  10  am  
 13  10  11  1   
 14  10  12  1   
 15  11  13  1   
 16  11  25  1   
 17  11  26  1   
 18  12  14  1   
 19  12  27  1   
 20  12  28  1   
 21  13  15  1   
 22  13  16  1   
 23  13  29  1   
 24  14  16  1   
 25  14  30  1   
 26  14  31  1   
 27  15  32  1   
 28  16  17  1   
 29  16  18  1   
 30  17  19  ar  
 31  17  20  ar  
 32  18  21  1   
 33  18  33  1   
 34  18  34  1   
 35  21  22  1   
 36  21  35  1   
 37  21  36  1   
 38  22  37  1   
 39  22  38  1   
 40  22  39  1   
@<TRIPOS>SUBSTRUCTURE
  1 ****  11 GROUP 4 **** **** 0

# MOE 2024.06 (io_trps.svl 2023.06)
