@<TRIPOS>MOLECULE
NONAME
54 56 1 0 0 
SMALL
USER_CHARGES


@<TRIPOS>ATOM
  1 O       -3.4550     1.1990    -2.6470 O.2   1 <1>  -0.5700 
  2 C       -3.4980     1.1160    -1.4340 C.2   1 <1>   0.5440 
  3 N       -3.4320     2.2760    -0.6910 N.am  1 <1>  -0.6600 
  4 C       -3.6270    -0.1880    -0.8290 C.ar  1 <1>   0.0860 
  5 C       -3.0570     3.5820    -1.3120 C.3   1 <1>   0.1400 
  6 C       -3.9260     2.4240     0.7110 C.3   1 <1>   0.1400 
  7 C       -4.5880    -1.0830    -1.2900 C.ar  1 <1>   0.1600 
  8 C       -2.8120    -0.6250     0.2110 C.ar  1 <1>  -0.1500 
  9 C       -2.1420     4.3850    -0.3730 C.3   1 <1>   0.1200 
 10 C       -2.9520     3.2820     1.5370 C.3   1 <1>   0.1200 
 11 N       -4.8150    -2.2950    -0.8130 N.ar  1 <1>  -0.6200 
 12 C       -3.0290    -1.8840     0.7160 C.ar  1 <1>  -0.1500 
 13 O       -2.7130     4.5060     0.9010 O.3   1 <1>  -0.5600 
 14 C       -4.0340    -2.6890     0.1870 C.ar  1 <1>   0.4100 
 15 N       -4.2440    -3.9390     0.7050 N.pl3 1 <1>  -0.8690 
 16 C       -5.0470    -4.9800     0.0270 C.3   1 <1>   0.2890 
 17 C       -6.5300    -4.8050     0.3810 C.3   1 <1>   0.1200 
 18 C       -4.4960    -6.3350     0.4650 C.3   1 <1>  -0.2400 
 19 O       -7.3000    -5.7830    -0.2920 O.3   1 <1>  -0.3630 
 20 C       -8.6260    -5.5350    -0.3760 C.ar  1 <1>   0.0830 
 21 C       -9.1150    -4.7070    -1.3850 C.ar  1 <1>  -0.1430 
 22 C       -9.4890    -6.1260     0.5430 C.ar  1 <1>  -0.1430 
 23 C      -10.4760    -4.4550    -1.4460 C.ar  1 <1>  -0.1500 
 24 C       -8.1910    -4.0800    -2.4210 C.3   1 <1>  -0.0970 
 25 C      -10.8460    -5.8600     0.4620 C.ar  1 <1>  -0.1500 
 26 C       -8.9620    -7.0530     1.6290 C.3   1 <1>  -0.0970 
 27 C      -11.3370    -5.0260    -0.5260 C.ar  1 <1>  -0.1500 
 28 H       -3.9490     4.1490    -1.5130 H     1 <1>   0.0800 
 29 H       -2.5490     3.4210    -2.2470 H     1 <1>   0.0800 
 30 H       -4.0530     1.4670     1.1820 H     1 <1>   0.0800 
 31 H       -4.8860     2.9100     0.6930 H     1 <1>   0.0800 
 32 H       -5.2080    -0.7620    -2.1100 H     1 <1>   0.1500 
 33 H       -2.0340     0.0110     0.5960 H     1 <1>   0.1500 
 34 H       -1.9920     5.3770    -0.7610 H     1 <1>   0.0800 
 35 H       -1.1840     3.9030    -0.2780 H     1 <1>   0.0800 
 36 H       -2.0140     2.7730     1.6700 H     1 <1>   0.0800 
 37 H       -3.3720     3.4930     2.5040 H     1 <1>   0.0800 
 38 H       -2.4280    -2.2620     1.5210 H     1 <1>   0.1500 
 39 H       -3.5370    -4.3140     1.3360 H     1 <1>   0.4000 
 40 H       -4.9340    -4.8730    -1.0390 H     1 <1>   0.0800 
 41 H       -6.8660    -3.8310     0.0750 H     1 <1>   0.0800 
 42 H       -6.6880    -4.9240     1.4370 H     1 <1>   0.0800 
 43 H       -4.6130    -6.4670     1.5260 H     1 <1>   0.0800 
 44 H       -3.4580    -6.4160     0.1990 H     1 <1>   0.0800 
 45 H       -5.0310    -7.1220    -0.0350 H     1 <1>   0.0800 
 46 H      -10.8730    -3.8130    -2.2120 H     1 <1>   0.1500 
 47 H       -7.4320    -4.7810    -2.7160 H     1 <1>   0.0800 
 48 H       -7.7150    -3.2080    -2.0100 H     1 <1>   0.0800 
 49 H       -8.7400    -3.7910    -3.2980 H     1 <1>   0.0800 
 50 H      -11.5280    -6.3010     1.1670 H     1 <1>   0.1500 
 51 H       -8.2910    -7.7750     1.1990 H     1 <1>   0.0800 
 52 H       -9.7660    -7.5800     2.1090 H     1 <1>   0.0800 
 53 H       -8.4310    -6.4820     2.3680 H     1 <1>   0.0800 
 54 H      -12.3920    -4.8240    -0.5820 H     1 <1>   0.1500 
@<TRIPOS>BOND
  1   1   2  2   
  2   2   3  am  
  3   2   4  1   
  4   3   5  1   
  5   3   6  1   
  6   4   7  ar  
  7   4   8  ar  
  8   5   9  1   
  9   5  28  1   
 10   5  29  1   
 11   6  10  1   
 12   6  30  1   
 13   6  31  1   
 14   7  11  ar  
 15   7  32  1   
 16   8  12  ar  
 17   8  33  1   
 18   9  13  1   
 19   9  34  1   
 20   9  35  1   
 21  10  13  1   
 22  10  36  1   
 23  10  37  1   
 24  11  14  ar  
 25  12  14  ar  
 26  12  38  1   
 27  14  15  1   
 28  15  16  1   
 29  15  39  1   
 30  16  17  1   
 31  16  18  1   
 32  16  40  1   
 33  17  19  1   
 34  17  41  1   
 35  17  42  1   
 36  18  43  1   
 37  18  44  1   
 38  18  45  1   
 39  19  20  1   
 40  20  21  ar  
 41  20  22  ar  
 42  21  23  ar  
 43  21  24  1   
 44  22  25  ar  
 45  22  26  1   
 46  23  27  ar  
 47  23  46  1   
 48  24  47  1   
 49  24  48  1   
 50  24  49  1   
 51  25  27  ar  
 52  25  50  1   
 53  26  51  1   
 54  26  52  1   
 55  26  53  1   
 56  27  54  1   
@<TRIPOS>SUBSTRUCTURE
  1 ****  11 GROUP 4 **** **** 0

# MOE 2024.06 (io_trps.svl 2023.06)
