@<TRIPOS>MOLECULE
NONAME
48 49 1 0 0 
SMALL
USER_CHARGES


@<TRIPOS>ATOM
  1 S        0.4760     0.9840    -0.1720 S.o2  1 <1>   1.3330 
  2 O       -0.5610     1.9260    -0.5280 O.2   1 <1>  -0.6500 
  3 O        0.2940    -0.4230    -0.4490 O.2   1 <1>  -0.6500 
  4 N        0.7530     1.1520     1.4970 N.am  1 <1>  -0.8490 
  5 C        2.0240     1.5020    -0.9180 C.3   1 <1>  -0.0550 
  6 C        0.6000     2.5310     1.9760 C.3   1 <1>   0.1160 
  7 C       -0.0950     0.2560     2.2890 C.3   1 <1>   0.1160 
  8 C        3.2170     0.5650    -0.6240 C.3   1 <1>  -0.0800 
  9 C        4.4780     0.8760    -1.4140 C.3   1 <1>   0.2200 
 10 C        3.7160     0.5780     0.8260 C.3   1 <1>   0.1200 
 11 N        4.7290     2.3350    -1.4590 N.am  1 <1>  -0.7300 
 12 C        5.5310     0.2220    -0.5300 C.3   1 <1>   0.1200 
 13 O        5.1090     0.4620     0.7770 O.3   1 <1>  -0.5600 
 14 C        4.5030     3.1460    -2.5220 C.2   1 <1>   0.5690 
 15 O        3.9890     2.7290    -3.5310 O.2   1 <1>  -0.5700 
 16 C        4.8890     4.6150    -2.4480 C.3   1 <1>   0.0440 
 17 C        5.4220     5.0310    -1.0790 C.ar  1 <1>  -0.1440 
 18 C        4.5770     5.5910    -0.1340 C.ar  1 <1>  -0.1500 
 19 C        6.7590     4.8430    -0.7650 C.ar  1 <1>  -0.1500 
 20 C        5.0640     5.9560     1.1090 C.ar  1 <1>  -0.1500 
 21 C        7.2450     5.2070     0.4790 C.ar  1 <1>  -0.1500 
 22 C        6.4000     5.7660     1.4250 C.ar  1 <1>  -0.1440 
 23 C        6.9310     6.1730     2.7890 C.3   1 <1>   0.2630 
 24 O        6.9710     7.5520     2.8290 O.3   1 <1>  -0.6800 
 25 H        1.8860     1.5360    -1.9820 H     1 <1>   0.0800 
 26 H        2.2570     2.4970    -0.5960 H     1 <1>   0.0800 
 27 H        0.8700     2.5920     3.0160 H     1 <1>   0.0800 
 28 H       -0.4200     2.8600     1.8580 H     1 <1>   0.0800 
 29 H        1.2420     3.1920     1.4200 H     1 <1>   0.0800 
 30 H        0.1120     0.3770     3.3390 H     1 <1>   0.0800 
 31 H        0.1020    -0.7690     2.0240 H     1 <1>   0.0800 
 32 H       -1.1360     0.4660     2.1050 H     1 <1>   0.0800 
 33 H        2.9230    -0.4440    -0.8580 H     1 <1>   0.0800 
 34 H        4.4610     0.4620    -2.4080 H     1 <1>   0.0800 
 35 H        3.3130    -0.2420     1.3960 H     1 <1>   0.0800 
 36 H        3.4880     1.5080     1.3180 H     1 <1>   0.0800 
 37 H        5.1390     2.7300    -0.6040 H     1 <1>   0.3700 
 38 H        6.5150     0.6310    -0.6770 H     1 <1>   0.0800 
 39 H        5.5470    -0.8440    -0.6810 H     1 <1>   0.0800 
 40 H        5.6330     4.8040    -3.1980 H     1 <1>   0.0800 
 41 H        4.0250     5.2030    -2.6970 H     1 <1>   0.0800 
 42 H        3.5360     5.7480    -0.3590 H     1 <1>   0.1500 
 43 H        7.4290     4.4090    -1.4870 H     1 <1>   0.1500 
 44 H        4.4010     6.3970     1.8350 H     1 <1>   0.1500 
 45 H        8.2860     5.0530     0.7040 H     1 <1>   0.1500 
 46 H        7.9280     5.8010     2.9470 H     1 <1>   0.0800 
 47 H        6.2890     5.8290     3.5810 H     1 <1>   0.0800 
 48 H        7.1880     7.8810     1.9350 H     1 <1>   0.4000 
@<TRIPOS>BOND
  1   1   2  2   
  2   1   3  2   
  3   1   4  am  
  4   1   5  1   
  5   4   6  1   
  6   4   7  1   
  7   5   8  1   
  8   5  25  1   
  9   5  26  1   
 10   6  27  1   
 11   6  28  1   
 12   6  29  1   
 13   7  30  1   
 14   7  31  1   
 15   7  32  1   
 16   8   9  1   
 17   8  10  1   
 18   8  33  1   
 19   9  11  1   
 20   9  12  1   
 21   9  34  1   
 22  10  13  1   
 23  10  35  1   
 24  10  36  1   
 25  11  14  am  
 26  11  37  1   
 27  12  13  1   
 28  12  38  1   
 29  12  39  1   
 30  14  15  2   
 31  14  16  1   
 32  16  17  1   
 33  16  40  1   
 34  16  41  1   
 35  17  18  ar  
 36  17  19  ar  
 37  18  20  ar  
 38  18  42  1   
 39  19  21  ar  
 40  19  43  1   
 41  20  22  ar  
 42  20  44  1   
 43  21  22  ar  
 44  21  45  1   
 45  22  23  1   
 46  23  24  1   
 47  23  46  1   
 48  23  47  1   
 49  24  48  1   
@<TRIPOS>SUBSTRUCTURE
  1 ****  11 GROUP 4 **** **** 0

# MOE 2024.06 (io_trps.svl 2023.06)
