@<TRIPOS>MOLECULE
NONAME
56 59 1 0 0 
SMALL
USER_CHARGES


@<TRIPOS>ATOM
  1 F        4.9130    -0.3290    -1.2890 F     1 <1>  -0.1900 
  2 C        3.8340    -0.7370    -0.6780 C.ar  1 <1>   0.1900 
  3 C        3.1090     0.1720     0.0950 C.ar  1 <1>   0.0860 
  4 C        3.4790    -2.0640    -0.8220 C.ar  1 <1>  -0.1500 
  5 C        3.4950     1.5570     0.2180 C.2   1 <1>   0.5440 
  6 C        1.9730    -0.3150     0.7490 C.ar  1 <1>  -0.1500 
  7 C        2.3490    -2.4920    -0.1560 C.ar  1 <1>   0.1900 
  8 O        3.1150     2.3780    -0.5930 O.2   1 <1>  -0.5700 
  9 N        4.3090     1.9930     1.2380 N.am  1 <1>  -0.6600 
 10 C        1.5890    -1.6410     0.6290 C.ar  1 <1>  -0.1500 
 11 F        1.9860    -3.7390    -0.2660 F     1 <1>  -0.1900 
 12 C        5.6690     1.4180     1.4120 C.3   1 <1>   0.1400 
 13 C        4.0450     3.3070     1.8830 C.3   1 <1>   0.1400 
 14 C        6.5920     1.8360     0.2470 C.3   1 <1>   0.3430 
 15 C        5.1000     4.3590     1.5230 C.3   1 <1>  -0.1600 
 16 N        6.8940     3.3080     0.1670 N.4   1 <1>  -0.9590 
 17 C        5.6840     4.1900     0.1190 C.3   1 <1>   0.3430 
 18 C        7.7540     3.5800    -1.0090 C.3   1 <1>   0.4810 
 19 C        8.3270     4.9710    -0.8520 C.2   1 <1>  -0.2540 
 20 C        8.0320     6.0370    -1.6090 C.2   1 <1>  -0.2880 
 21 C        9.3340     5.1660     0.2870 C.3   1 <1>   0.1160 
 22 C        8.7140     7.3770    -1.3200 C.3   1 <1>  -0.0220 
 23 C       10.6110     5.9650    -0.1630 C.3   1 <1>   0.0000 
 24 C        8.9280     6.4660     1.0540 C.3   1 <1>   0.0000 
 25 C        9.6650     7.2230    -0.1010 C.3   1 <1>   0.0000 
 26 C       11.7710     5.9790     0.8620 C.3   1 <1>  -0.2400 
 27 C       11.2040     5.6040    -1.5430 C.3   1 <1>  -0.2400 
 28 H        4.0550    -2.7410    -1.4270 H     1 <1>   0.1500 
 29 H        1.3850     0.3590     1.3500 H     1 <1>   0.1500 
 30 H        0.7140    -2.0160     1.1300 H     1 <1>   0.1500 
 31 H        6.0880     1.7270     2.3540 H     1 <1>   0.0800 
 32 H        5.5940     0.3440     1.4290 H     1 <1>   0.0800 
 33 H        3.0770     3.6610     1.5640 H     1 <1>   0.0800 
 34 H        4.0000     3.1800     2.9520 H     1 <1>   0.0800 
 35 H        6.1290     1.5240    -0.6740 H     1 <1>   0.0800 
 36 H        7.5180     1.2940     0.3410 H     1 <1>   0.0800 
 37 H        5.8810     4.3750     2.2610 H     1 <1>   0.0800 
 38 H        4.6160     5.3180     1.5690 H     1 <1>   0.0800 
 39 H        7.4390     3.5930     0.9860 H     1 <1>   0.4500 
 40 H        5.9680     5.1660    -0.2400 H     1 <1>   0.0800 
 41 H        4.9430     3.7930    -0.5560 H     1 <1>   0.0800 
 42 H        8.5600     2.8670    -1.0660 H     1 <1>   0.0800 
 43 H        7.1730     3.5190    -1.9150 H     1 <1>   0.0800 
 44 H        7.3450     6.0540    -2.4410 H     1 <1>   0.1500 
 45 H        9.5150     4.3120     0.9170 H     1 <1>   0.0000 
 46 H        7.9710     8.1240    -1.1000 H     1 <1>   0.0800 
 47 H        9.2730     7.7040    -2.1790 H     1 <1>   0.0800 
 48 H        7.8660     6.6430     1.0940 H     1 <1>   0.0000 
 49 H        9.3790     6.5750     2.0230 H     1 <1>   0.0000 
 50 H       10.1470     8.1340     0.2060 H     1 <1>   0.0000 
 51 H       12.5110     6.6990     0.5600 H     1 <1>   0.0800 
 52 H       12.2420     5.0130     0.8970 H     1 <1>   0.0800 
 53 H       11.4680     6.2310     1.8600 H     1 <1>   0.0800 
 54 H       11.9300     6.3440    -1.8290 H     1 <1>   0.0800 
 55 H       10.4730     5.5480    -2.3260 H     1 <1>   0.0800 
 56 H       11.7000     4.6520    -1.4910 H     1 <1>   0.0800 
@<TRIPOS>BOND
  1   1   2  1   
  2   2   3  ar  
  3   2   4  ar  
  4   3   5  1   
  5   3   6  ar  
  6   4   7  ar  
  7   4  28  1   
  8   5   8  2   
  9   5   9  am  
 10   6  10  ar  
 11   6  29  1   
 12   7  10  ar  
 13   7  11  1   
 14   9  12  1   
 15   9  13  1   
 16  10  30  1   
 17  12  14  1   
 18  12  31  1   
 19  12  32  1   
 20  13  15  1   
 21  13  33  1   
 22  13  34  1   
 23  14  16  1   
 24  14  35  1   
 25  14  36  1   
 26  15  17  1   
 27  15  37  1   
 28  15  38  1   
 29  16  17  1   
 30  16  18  1   
 31  16  39  1   
 32  17  40  1   
 33  17  41  1   
 34  18  19  1   
 35  18  42  1   
 36  18  43  1   
 37  19  20  2   
 38  19  21  1   
 39  20  22  1   
 40  20  44  1   
 41  21  23  1   
 42  21  24  1   
 43  21  45  1   
 44  22  25  1   
 45  22  46  1   
 46  22  47  1   
 47  23  25  1   
 48  23  26  1   
 49  23  27  1   
 50  24  25  1   
 51  24  48  1   
 52  24  49  1   
 53  25  50  1   
 54  26  51  1   
 55  26  52  1   
 56  26  53  1   
 57  27  54  1   
 58  27  55  1   
 59  27  56  1   
@<TRIPOS>SUBSTRUCTURE
  1 ****  14 GROUP 4 **** **** 0

# MOE 2024.06 (io_trps.svl 2023.06)
