@<TRIPOS>MOLECULE
NONAME
55 58 1 0 0 
SMALL
USER_CHARGES


@<TRIPOS>ATOM
  1 O       -3.0780     0.3980    -2.1960 O.2   1 <1>  -0.5700 
  2 C       -2.4940     0.6830    -1.1670 C.2   1 <1>   0.5440 
  3 N       -2.1800    -0.3320    -0.3100 N.am  1 <1>  -0.7300 
  4 C       -2.1490     2.0590    -0.8580 C.ar  1 <1>   0.0860 
  5 C       -2.5660    -1.7460    -0.5080 C.3   1 <1>   0.2200 
  6 C       -1.9790     2.5070     0.4560 C.ar  1 <1>  -0.1500 
  7 C       -1.9740     2.9990    -1.8750 C.ar  1 <1>  -0.1500 
  8 C       -3.9250    -1.9770     0.1300 C.3   1 <1>  -0.0800 
  9 C       -1.6720    -2.6550     0.3250 C.3   1 <1>   0.1200 
 10 C       -1.6400     3.8180     0.7400 C.ar  1 <1>  -0.1500 
 11 C       -1.6370     4.3100    -1.6000 C.ar  1 <1>  -0.1500 
 12 C       -3.5660    -2.3040     1.5840 C.3   1 <1>   0.1200 
 13 C       -4.6840    -3.1240    -0.5640 C.3   1 <1>  -0.0160 
 14 O       -2.2070    -2.6390     1.6130 O.3   1 <1>  -0.5600 
 15 C       -1.4630     4.7340    -0.2930 C.ar  1 <1>   0.0830 
 16 C       -6.1020    -3.2600    -0.0210 C.ar  1 <1>  -0.1430 
 17 O       -1.1310     6.0340    -0.1150 O.3   1 <1>  -0.3630 
 18 C       -7.1310    -2.3500    -0.3650 C.ar  1 <1>   0.0000 
 19 C       -6.4200    -4.2810     0.8260 C.ar  1 <1>  -0.1500 
 20 C       -0.8720     6.6150     1.1440 C.3   1 <1>   0.2000 
 21 C       -8.4080    -2.5550     0.2110 C.ar  1 <1>   0.3100 
 22 C       -6.9700    -1.2520    -1.2440 C.ar  1 <1>  -0.1500 
 23 C       -7.7190    -4.3970     1.3350 C.ar  1 <1>   0.1600 
 24 C       -1.0370     8.1240     0.9830 C.3   1 <1>  -0.2400 
 25 C        0.5550     6.2590     1.5680 C.3   1 <1>  -0.2400 
 26 N       -8.6850    -3.5800     1.0570 N.ar  1 <1>  -0.6200 
 27 C       -9.4470    -1.6630    -0.1010 C.ar  1 <1>  -0.1500 
 28 C       -8.0040    -0.4020    -1.5280 C.ar  1 <1>  -0.1500 
 29 C       -9.2590    -0.6060    -0.9500 C.ar  1 <1>  -0.1500 
 30 H       -1.7210    -0.1400     0.5820 H     1 <1>   0.3700 
 31 H       -2.5370    -1.9940    -1.5560 H     1 <1>   0.0800 
 32 H       -2.1210     1.8220     1.2720 H     1 <1>   0.1500 
 33 H       -2.1070     2.6890    -2.8980 H     1 <1>   0.1500 
 34 H       -4.5240    -1.0860     0.0860 H     1 <1>   0.0800 
 35 H       -0.6490    -2.3230     0.3520 H     1 <1>   0.0800 
 36 H       -1.7180    -3.6680    -0.0350 H     1 <1>   0.0800 
 37 H       -1.5210     4.1090     1.7650 H     1 <1>   0.1500 
 38 H       -1.5050     5.0180    -2.3980 H     1 <1>   0.1500 
 39 H       -4.1340    -3.1270     1.9800 H     1 <1>   0.0800 
 40 H       -3.7010    -1.4420     2.2130 H     1 <1>   0.0800 
 41 H       -4.1510    -4.0490    -0.4260 H     1 <1>   0.0800 
 42 H       -4.7310    -2.9470    -1.6250 H     1 <1>   0.0800 
 43 H       -5.6930    -5.0140     1.1250 H     1 <1>   0.1500 
 44 H       -1.5980     6.2540     1.8510 H     1 <1>   0.0800 
 45 H       -6.0160    -1.0730    -1.7060 H     1 <1>   0.1500 
 46 H       -7.9270    -5.2170     2.0010 H     1 <1>   0.1500 
 47 H       -0.3440     8.5010     0.2530 H     1 <1>   0.0800 
 48 H       -0.8550     8.6170     1.9200 H     1 <1>   0.0800 
 49 H       -2.0410     8.3490     0.6690 H     1 <1>   0.0800 
 50 H        1.2590     6.6180     0.8390 H     1 <1>   0.0800 
 51 H        0.6680     5.1960     1.6720 H     1 <1>   0.0800 
 52 H        0.7790     6.7160     2.5150 H     1 <1>   0.0800 
 53 H      -10.4030    -1.8410     0.3540 H     1 <1>   0.1500 
 54 H       -7.8630     0.4300    -2.1970 H     1 <1>   0.1500 
 55 H      -10.0640     0.0700    -1.1810 H     1 <1>   0.1500 
@<TRIPOS>BOND
  1   1   2  2   
  2   2   3  am  
  3   2   4  1   
  4   3   5  1   
  5   3  30  1   
  6   4   6  ar  
  7   4   7  ar  
  8   5   8  1   
  9   5   9  1   
 10   5  31  1   
 11   6  10  ar  
 12   6  32  1   
 13   7  11  ar  
 14   7  33  1   
 15   8  12  1   
 16   8  13  1   
 17   8  34  1   
 18   9  14  1   
 19   9  35  1   
 20   9  36  1   
 21  10  15  ar  
 22  10  37  1   
 23  11  15  ar  
 24  11  38  1   
 25  12  14  1   
 26  12  39  1   
 27  12  40  1   
 28  13  16  1   
 29  13  41  1   
 30  13  42  1   
 31  15  17  1   
 32  16  18  ar  
 33  16  19  ar  
 34  17  20  1   
 35  18  21  ar  
 36  18  22  ar  
 37  19  23  ar  
 38  19  43  1   
 39  20  24  1   
 40  20  25  1   
 41  20  44  1   
 42  21  26  ar  
 43  21  27  ar  
 44  22  28  ar  
 45  22  45  1   
 46  23  26  ar  
 47  23  46  1   
 48  24  47  1   
 49  24  48  1   
 50  24  49  1   
 51  25  50  1   
 52  25  51  1   
 53  25  52  1   
 54  27  29  ar  
 55  27  53  1   
 56  28  29  ar  
 57  28  54  1   
 58  29  55  1   
@<TRIPOS>SUBSTRUCTURE
  1 ****   2 GROUP 4 **** **** 0

# MOE 2024.06 (io_trps.svl 2023.06)
