@<TRIPOS>MOLECULE
NONAME
28 28 1 0 0 
SMALL
USER_CHARGES


@<TRIPOS>ATOM
  1 O        0.0320     0.5470    -1.4720 O.2   1 <1>  -0.5700 
  2 C        0.0130     1.5300    -0.7550 C.2   1 <1>   0.6340 
  3 O        1.0800     1.8460    -0.0180 O.3   1 <1>  -0.4300 
  4 C       -1.1740     2.3400    -0.5850 C.ar  1 <1>   0.0860 
  5 C        2.3930     1.3500    -0.1180 C.3   1 <1>   0.2800 
  6 C       -1.1840     3.7330    -0.4630 C.ar  1 <1>  -0.1790 
  7 C       -2.4190     1.7300    -0.5060 C.ar  1 <1>  -0.1500 
  8 C        2.9260     1.5500    -1.5410 C.3   1 <1>  -0.2400 
  9 C        3.2100     2.2030     0.8510 C.3   1 <1>  -0.2400 
 10 C        2.4330    -0.1170     0.3230 C.3   1 <1>  -0.2400 
 11 C       -0.0100     4.5470    -0.6200 C.2   1 <1>   0.9790 
 12 C       -2.3900     4.3710    -0.2080 C.ar  1 <1>   0.1600 
 13 C       -3.5570     2.4740    -0.2740 C.ar  1 <1>   0.1600 
 14 O        0.1980     5.4900     0.1600 O.co2 1 <1>  -0.9000 
 15 O        0.7650     4.3610    -1.5710 O.co2 1 <1>  -0.9000 
 16 N       -3.5720     3.7840    -0.1090 N.ar  1 <1>  -0.6200 
 17 H       -2.4900     0.6640    -0.6220 H     1 <1>   0.1500 
 18 H        2.7960     2.5770    -1.8380 H     1 <1>   0.0800 
 19 H        2.4110     0.9180    -2.2400 H     1 <1>   0.0800 
 20 H        3.9710     1.3100    -1.5840 H     1 <1>   0.0800 
 21 H        3.1440     3.2390     0.5650 H     1 <1>   0.0800 
 22 H        4.2430     1.9090     0.8360 H     1 <1>   0.0800 
 23 H        2.8340     2.0960     1.8520 H     1 <1>   0.0800 
 24 H        1.9060    -0.7400    -0.3750 H     1 <1>   0.0800 
 25 H        1.9930    -0.2230     1.2970 H     1 <1>   0.0800 
 26 H        3.4510    -0.4580     0.3650 H     1 <1>   0.0800 
 27 H       -2.3630     5.4430    -0.0860 H     1 <1>   0.1500 
 28 H       -4.5050     1.9680    -0.2150 H     1 <1>   0.1500 
@<TRIPOS>BOND
  1   1   2  2   
  2   2   3  1   
  3   2   4  1   
  4   3   5  1   
  5   4   6  ar  
  6   4   7  ar  
  7   5   8  1   
  8   5   9  1   
  9   5  10  1   
 10   6  11  1   
 11   6  12  ar  
 12   7  13  ar  
 13   7  17  1   
 14   8  18  1   
 15   8  19  1   
 16   8  20  1   
 17   9  21  1   
 18   9  22  1   
 19   9  23  1   
 20  10  24  1   
 21  10  25  1   
 22  10  26  1   
 23  11  14  ar  
 24  11  15  ar  
 25  12  16  ar  
 26  12  27  1   
 27  13  16  ar  
 28  13  28  1   
@<TRIPOS>SUBSTRUCTURE
  1 ****   2 GROUP 4 **** **** 0

# MOE 2024.06 (io_trps.svl 2023.06)
