@<TRIPOS>MOLECULE
NONAME
47 48 1 0 0 
SMALL
USER_CHARGES


@<TRIPOS>ATOM
  1 O       -0.0320     1.0670    -0.1260 O.3   1 <1>  -0.6800 
  2 C        0.1190     1.2490     1.2510 C.3   1 <1>   0.1200 
  3 C        1.6020     1.0770     1.6420 C.3   1 <1>   0.3430 
  4 N        2.2710     0.0690     0.7640 N.4   1 <1>  -0.9590 
  5 C        1.8160    -1.3270     1.0570 C.3   1 <1>   0.5240 
  6 C        3.7590     0.1640     0.7130 C.3   1 <1>   0.3430 
  7 C        2.2790    -2.2980    -0.0230 C.2   1 <1>   0.0460 
  8 C        4.2090     1.5110     0.1480 C.3   1 <1>  -0.1600 
  9 N        3.5280    -2.8080    -0.0120 N.2   1 <1>  -0.5650 
 10 C        1.5780    -2.7750    -1.0750 C.2   1 <1>  -0.3020 
 11 C        5.7230     1.5390    -0.1180 C.3   1 <1>   0.0630 
 12 C        3.5620    -3.5800    -1.0480 C.2   1 <1>   0.0060 
 13 N        2.4030    -3.6040    -1.7400 N.pl3 1 <1>   0.0330 
 14 C        6.1540     2.9630    -0.4580 C.ar  1 <1>  -0.1430 
 15 C        6.1400     0.5670    -1.2320 C.3   1 <1>  -0.2400 
 16 C        4.7750    -4.3900    -1.4560 C.3   1 <1>  -0.0600 
 17 C        5.7010     3.5990    -1.6070 C.ar  1 <1>  -0.1500 
 18 C        7.0090     3.6470     0.3940 C.ar  1 <1>  -0.1500 
 19 C        6.0920     4.8950    -1.8950 C.ar  1 <1>  -0.1500 
 20 C        7.4010     4.9440     0.1070 C.ar  1 <1>  -0.1500 
 21 C        6.9420     5.5690    -1.0380 C.ar  1 <1>  -0.1500 
 22 H       -0.9380     1.3130    -0.4180 H     1 <1>   0.4000 
 23 H       -0.4950     0.5240     1.7570 H     1 <1>   0.0800 
 24 H       -0.2220     2.2370     1.5110 H     1 <1>   0.0800 
 25 H        1.6880     0.8010     2.6800 H     1 <1>   0.0800 
 26 H        2.0790     2.0340     1.5190 H     1 <1>   0.0800 
 27 H        1.8980     0.2660    -0.1810 H     1 <1>   0.4500 
 28 H        0.7400    -1.3540     1.0920 H     1 <1>   0.0800 
 29 H        2.1990    -1.6540     2.0090 H     1 <1>   0.0800 
 30 H        4.1430    -0.6080     0.0680 H     1 <1>   0.0800 
 31 H        4.1780     0.0130     1.6940 H     1 <1>   0.0800 
 32 H        3.9870     2.2940     0.8500 H     1 <1>   0.0800 
 33 H        3.6870     1.7120    -0.7700 H     1 <1>   0.0800 
 34 H        0.5660    -2.5840    -1.3870 H     1 <1>   0.1500 
 35 H        6.2330     1.2400     0.7820 H     1 <1>   0.0800 
 36 H        2.2040    -4.1480    -2.5860 H     1 <1>   0.2700 
 37 H        5.5950     0.7600    -2.1390 H     1 <1>   0.0800 
 38 H        5.9770    -0.4550    -0.9410 H     1 <1>   0.0800 
 39 H        7.1890     0.6890    -1.4400 H     1 <1>   0.0800 
 40 H        5.5780    -4.2240    -0.7600 H     1 <1>   0.0800 
 41 H        5.1040    -4.0970    -2.4370 H     1 <1>   0.0800 
 42 H        4.5360    -5.4380    -1.4590 H     1 <1>   0.0800 
 43 H        5.0420     3.0930    -2.2890 H     1 <1>   0.1500 
 44 H        7.3800     3.1790     1.2880 H     1 <1>   0.1500 
 45 H        5.7370     5.3790    -2.7880 H     1 <1>   0.1500 
 46 H        8.0650     5.4660     0.7740 H     1 <1>   0.1500 
 47 H        7.2470     6.5760    -1.2620 H     1 <1>   0.1500 
@<TRIPOS>BOND
  1   1   2  1   
  2   1  22  1   
  3   2   3  1   
  4   2  23  1   
  5   2  24  1   
  6   3   4  1   
  7   3  25  1   
  8   3  26  1   
  9   4   5  1   
 10   4   6  1   
 11   4  27  1   
 12   5   7  1   
 13   5  28  1   
 14   5  29  1   
 15   6   8  1   
 16   6  30  1   
 17   6  31  1   
 18   7   9  1   
 19   7  10  2   
 20   8  11  1   
 21   8  32  1   
 22   8  33  1   
 23   9  12  2   
 24  10  13  1   
 25  10  34  1   
 26  11  14  1   
 27  11  15  1   
 28  11  35  1   
 29  12  13  1   
 30  12  16  1   
 31  13  36  1   
 32  14  17  ar  
 33  14  18  ar  
 34  15  37  1   
 35  15  38  1   
 36  15  39  1   
 37  16  40  1   
 38  16  41  1   
 39  16  42  1   
 40  17  19  ar  
 41  17  43  1   
 42  18  20  ar  
 43  18  44  1   
 44  19  21  ar  
 45  19  45  1   
 46  20  21  ar  
 47  20  46  1   
 48  21  47  1   
@<TRIPOS>SUBSTRUCTURE
  1 ****   8 GROUP 4 **** **** 0

# MOE 2024.06 (io_trps.svl 2023.06)
