@<TRIPOS>MOLECULE
NONAME
35 36 1 0 0 
SMALL
USER_CHARGES


@<TRIPOS>ATOM
  1 O        0.2240     0.6280    -0.9170 O.2   1 <1>  -0.5700 
  2 C        0.1230     1.8290    -0.7060 C.2   1 <1>   0.6160 
  3 N       -0.7380     2.3110     0.2680 N.am  1 <1>  -0.4690 
  4 C        0.8790     2.7790    -1.4440 C.2   1 <1>  -0.1360 
  5 C       -0.8300     3.6610     0.5110 C.2   1 <1>  -0.0410 
  6 C       -1.5680     1.3500     1.0400 C.3   1 <1>   0.0600 
  7 C        0.7820     4.1120    -1.1980 C.2   1 <1>  -0.1500 
  8 C       -0.0910     4.5960    -0.1720 C.2   1 <1>   0.0140 
  9 C       -0.1930     6.0050     0.1280 C.2   1 <1>   0.6160 
 10 O       -1.2020     6.4500     0.6440 O.2   1 <1>  -0.5700 
 11 N        0.8670     6.8420    -0.1350 N.am  1 <1>  -0.4940 
 12 C        0.9370     8.2550    -0.0710 C.2   1 <1>  -0.0880 
 13 N        1.9910     8.9520     0.4360 N.pl3 1 <1>   0.3140 
 14 C        0.0380     9.1820    -0.4840 C.2   1 <1>  -0.1810 
 15 N        1.7950    10.2850     0.3520 N.2   1 <1>  -0.7070 
 16 C        3.2020     8.4040     1.0810 C.3   1 <1>   0.0960 
 17 C        0.6250    10.4080    -0.1930 C.2   1 <1>   0.1390 
 18 C       -1.3210     8.9910    -1.1300 C.3   1 <1>  -0.0590 
 19 C        4.2790     8.0600     0.0430 C.3   1 <1>  -0.2400 
 20 H        1.5200     2.3770    -2.2050 H     1 <1>   0.1500 
 21 H       -1.5170     3.9820     1.2790 H     1 <1>   0.1500 
 22 H       -2.1930     0.7920     0.3630 H     1 <1>   0.0800 
 23 H       -2.1900     1.8670     1.7480 H     1 <1>   0.0800 
 24 H       -0.9270     0.6640     1.5660 H     1 <1>   0.0800 
 25 H        1.3470     4.8170    -1.7820 H     1 <1>   0.1500 
 26 H        1.7430     6.3660    -0.3420 H     1 <1>   0.3700 
 27 H        2.9270     7.5340     1.6460 H     1 <1>   0.0800 
 28 H        3.5780     9.1460     1.7630 H     1 <1>   0.0800 
 29 H        0.1680    11.3620    -0.3950 H     1 <1>   0.1500 
 30 H       -1.3650     8.0430    -1.6340 H     1 <1>   0.0800 
 31 H       -1.5090     9.7710    -1.8440 H     1 <1>   0.0800 
 32 H       -2.0860     9.0130    -0.3740 H     1 <1>   0.0800 
 33 H        3.9210     7.3200    -0.6480 H     1 <1>   0.0800 
 34 H        5.1520     7.6760     0.5390 H     1 <1>   0.0800 
 35 H        4.5580     8.9470    -0.4990 H     1 <1>   0.0800 
@<TRIPOS>BOND
  1   1   2  2   
  2   2   3  am  
  3   2   4  1   
  4   3   5  1   
  5   3   6  1   
  6   4   7  2   
  7   4  20  1   
  8   5   8  2   
  9   5  21  1   
 10   6  22  1   
 11   6  23  1   
 12   6  24  1   
 13   7   8  1   
 14   7  25  1   
 15   8   9  1   
 16   9  10  2   
 17   9  11  am  
 18  11  12  1   
 19  11  26  1   
 20  12  13  1   
 21  12  14  2   
 22  13  15  1   
 23  13  16  1   
 24  14  17  1   
 25  14  18  1   
 26  15  17  2   
 27  16  19  1   
 28  16  27  1   
 29  16  28  1   
 30  17  29  1   
 31  18  30  1   
 32  18  31  1   
 33  18  32  1   
 34  19  33  1   
 35  19  34  1   
 36  19  35  1   
@<TRIPOS>SUBSTRUCTURE
  1 ****   9 GROUP 4 **** **** 0

# MOE 2024.06 (io_trps.svl 2023.06)
