@<TRIPOS>MOLECULE
NONAME
45 48 1 0 0 
SMALL
USER_CHARGES


@<TRIPOS>ATOM
  1 S        0.0460    -0.4400     1.1360 S.3   1 <1>  -0.0800 
  2 C        0.2360    -2.1840     0.9020 C.2   1 <1>  -0.0450 
  3 C       -1.6890    -0.6200     1.3890 C.2   1 <1>  -0.1100 
  4 C        1.4180    -2.9140     0.6250 C.2   1 <1>   0.8660 
  5 C       -0.9670    -2.7900     1.0230 C.2   1 <1>   0.0830 
  6 C       -2.0580    -1.9130     1.2960 C.2   1 <1>  -0.1500 
  7 O        2.5120    -2.3810     0.5110 O.2   1 <1>  -0.5700 
  8 N        1.3390    -4.2800     0.4750 N.2   1 <1>  -0.6610 
  9 N       -0.9710    -4.1510     0.8620 N.pl3 1 <1>  -0.5330 
 10 C        0.1820    -4.8340     0.5960 C.2   1 <1>   0.4390 
 11 C        0.0270    -6.3480     0.4440 C.3   1 <1>   0.1710 
 12 N       -1.3370    -6.7450    -0.0050 N.3   1 <1>  -0.8100 
 13 C       -1.5640    -8.1810     0.2650 C.3   1 <1>   0.1100 
 14 C       -1.5170    -6.4600    -1.4410 C.3   1 <1>   0.1100 
 15 C       -2.9940    -8.5970    -0.1070 C.3   1 <1>   0.2000 
 16 C       -2.9520    -6.7910    -1.8640 C.3   1 <1>  -0.1600 
 17 O       -3.0940    -9.9740     0.0780 O.3   1 <1>  -0.5600 
 18 C       -3.3020    -8.2580    -1.5720 C.3   1 <1>  -0.1600 
 19 C       -4.3930   -10.4460     0.3220 C.3   1 <1>   0.2630 
 20 C       -4.4290   -11.9560     0.5530 C.ar  1 <1>   0.1670 
 21 N       -5.6160   -12.4450     0.8900 N.ar  1 <1>  -0.6200 
 22 C       -3.2900   -12.7400     0.4100 C.ar  1 <1>  -0.1500 
 23 C       -5.6680   -13.7520     1.0930 C.ar  1 <1>   0.1600 
 24 C       -3.3600   -14.1000     0.6240 C.ar  1 <1>  -0.1500 
 25 C       -4.5900   -14.6110     0.9760 C.ar  1 <1>  -0.1500 
 26 H       -2.2530     0.2760     1.5820 H     1 <1>   0.1500 
 27 H       -3.0580    -2.2900     1.4110 H     1 <1>   0.1500 
 28 H       -1.8260    -4.7210     0.8650 H     1 <1>   0.4000 
 29 H        0.2240    -6.7810     1.4080 H     1 <1>   0.0800 
 30 H        0.7700    -6.7180    -0.2420 H     1 <1>   0.0800 
 31 H       -1.4150    -8.3770     1.3130 H     1 <1>   0.0800 
 32 H       -0.8650    -8.7720    -0.3020 H     1 <1>   0.0800 
 33 H       -0.8220    -7.0450    -2.0220 H     1 <1>   0.0800 
 34 H       -1.3250    -5.4180    -1.6380 H     1 <1>   0.0800 
 35 H       -3.6790    -8.0970     0.5580 H     1 <1>   0.0800 
 36 H       -3.0650    -6.5980    -2.9170 H     1 <1>   0.0800 
 37 H       -3.6290    -6.1410    -1.3370 H     1 <1>   0.0800 
 38 H       -4.3420    -8.4230    -1.7860 H     1 <1>   0.0800 
 39 H       -2.7120    -8.8930    -2.2100 H     1 <1>   0.0800 
 40 H       -5.0150   -10.2090    -0.5210 H     1 <1>   0.0800 
 41 H       -4.7760    -9.9530     1.1980 H     1 <1>   0.0800 
 42 H       -2.3530   -12.2940     0.1330 H     1 <1>   0.1500 
 43 H       -6.6250   -14.1620     1.3680 H     1 <1>   0.1500 
 44 H       -2.4940   -14.7310     0.5210 H     1 <1>   0.1500 
 45 H       -4.7150   -15.6630     1.1570 H     1 <1>   0.1500 
@<TRIPOS>BOND
  1   1   2  1   
  2   1   3  1   
  3   2   4  1   
  4   2   5  2   
  5   3   6  2   
  6   3  26  1   
  7   4   7  2   
  8   4   8  1   
  9   5   6  1   
 10   5   9  1   
 11   6  27  1   
 12   8  10  2   
 13   9  10  1   
 14   9  28  1   
 15  10  11  1   
 16  11  12  1   
 17  11  29  1   
 18  11  30  1   
 19  12  13  1   
 20  12  14  1   
 21  13  15  1   
 22  13  31  1   
 23  13  32  1   
 24  14  16  1   
 25  14  33  1   
 26  14  34  1   
 27  15  17  1   
 28  15  18  1   
 29  15  35  1   
 30  16  18  1   
 31  16  36  1   
 32  16  37  1   
 33  17  19  1   
 34  18  38  1   
 35  18  39  1   
 36  19  20  1   
 37  19  40  1   
 38  19  41  1   
 39  20  21  ar  
 40  20  22  ar  
 41  21  23  ar  
 42  22  24  ar  
 43  22  42  1   
 44  23  25  ar  
 45  23  43  1   
 46  24  25  ar  
 47  24  44  1   
 48  25  45  1   
@<TRIPOS>SUBSTRUCTURE
  1 ****  12 GROUP 4 **** **** 0

# MOE 2024.06 (io_trps.svl 2023.06)
