@<TRIPOS>MOLECULE
NONAME
56 58 1 0 0 
SMALL
USER_CHARGES


@<TRIPOS>ATOM
  1 O        0.1290     0.0770    -1.0710 O.3   1 <1>  -0.5600 
  2 C        1.3730    -0.5480    -1.2790 C.3   1 <1>   0.2000 
  3 C        0.1450     1.4730    -1.0930 C.3   1 <1>   0.1200 
  4 C        2.4310    -0.0480    -0.2560 C.3   1 <1>   0.5660 
  5 C        1.1840    -2.0690    -1.1530 C.3   1 <1>   0.1200 
  6 C        1.0630     2.0080     0.0190 C.3   1 <1>   0.3430 
  7 N        2.4460     1.4390    -0.0910 N.4   1 <1>  -0.9590 
  8 C        3.8380    -0.4720    -0.6550 C.ar  1 <1>  -0.1440 
  9 O        1.0470    -2.4260     0.1870 O.3   1 <1>  -0.6800 
 10 C        3.3100     1.8460     1.0470 C.3   1 <1>   0.4870 
 11 C        4.5500    -1.3120     0.1890 C.ar  1 <1>  -0.1500 
 12 C        4.4330    -0.0270    -1.8310 C.ar  1 <1>  -0.1500 
 13 C        3.7070     3.2860     0.8110 C.ar  1 <1>  -0.1440 
 14 C        5.8430    -1.6950    -0.1190 C.ar  1 <1>   0.0820 
 15 C        5.7300    -0.3990    -2.1390 C.ar  1 <1>  -0.1500 
 16 C        2.9820     4.3150     1.3920 C.ar  1 <1>  -0.1500 
 17 C        4.7950     3.5880     0.0020 C.ar  1 <1>  -0.1500 
 18 O        6.4570    -2.5340     0.7490 O.3   1 <1>  -0.3620 
 19 C        6.4500    -1.2140    -1.2840 C.ar  1 <1>   0.0820 
 20 C        3.3340     5.6270     1.1440 C.ar  1 <1>   0.0820 
 21 C        5.1520     4.9060    -0.2380 C.ar  1 <1>  -0.1500 
 22 C        6.7830    -3.8200     0.2650 C.3   1 <1>   0.0400 
 23 O        7.7270    -1.5030    -1.6330 O.3   1 <1>  -0.3630 
 24 O        2.6110     6.6120     1.6980 O.3   1 <1>  -0.5330 
 25 C        4.4190     5.9420     0.3320 C.ar  1 <1>   0.0820 
 26 C        8.7490    -1.0510    -0.7700 C.3   1 <1>   0.0400 
 27 O        4.6970     7.2640     0.1450 O.3   1 <1>  -0.3630 
 28 C        5.8290     7.6740    -0.5920 C.3   1 <1>   0.0400 
 29 H        1.6820    -0.3210    -2.2830 H     1 <1>   0.0800 
 30 H        0.4670     1.8060    -2.0640 H     1 <1>   0.0800 
 31 H       -0.8650     1.8120    -0.9330 H     1 <1>   0.0800 
 32 H        2.1930    -0.4980     0.6940 H     1 <1>   0.0800 
 33 H        2.0390    -2.5920    -1.5470 H     1 <1>   0.0800 
 34 H        0.3020    -2.3790    -1.6890 H     1 <1>   0.0800 
 35 H        0.6310     1.7420     0.9700 H     1 <1>   0.0800 
 36 H        1.1020     3.0840    -0.0390 H     1 <1>   0.0800 
 37 H        2.8920     1.8270    -0.9270 H     1 <1>   0.4500 
 38 H        0.6910    -3.3370     0.2660 H     1 <1>   0.4000 
 39 H        2.7840     1.7430     1.9830 H     1 <1>   0.0800 
 40 H        4.2010     1.2410     1.0840 H     1 <1>   0.0800 
 41 H        4.1120    -1.6920     1.0970 H     1 <1>   0.1500 
 42 H        3.9090     0.6090    -2.5240 H     1 <1>   0.1500 
 43 H        6.2000    -0.0580    -3.0460 H     1 <1>   0.1500 
 44 H        2.1430     4.1270     2.0400 H     1 <1>   0.1500 
 45 H        5.3810     2.8020    -0.4470 H     1 <1>   0.1500 
 46 H        6.0000     5.1060    -0.8660 H     1 <1>   0.1500 
 47 H        7.1740    -4.3970     1.0830 H     1 <1>   0.0800 
 48 H        7.5240    -3.7360    -0.5090 H     1 <1>   0.0800 
 49 H        5.8920    -4.2830    -0.1200 H     1 <1>   0.0800 
 50 H        2.9960     7.4790     1.4510 H     1 <1>   0.4500 
 51 H        9.6950    -1.2510    -1.2390 H     1 <1>   0.0800 
 52 H        8.6890    -1.5760     0.1660 H     1 <1>   0.0800 
 53 H        8.6320     0.0070    -0.6150 H     1 <1>   0.0800 
 54 H        5.8640     8.7490    -0.5810 H     1 <1>   0.0800 
 55 H        5.7330     7.3250    -1.6050 H     1 <1>   0.0800 
 56 H        6.7140     7.2770    -0.1280 H     1 <1>   0.0800 
@<TRIPOS>BOND
  1   1   2  1   
  2   1   3  1   
  3   2   4  1   
  4   2   5  1   
  5   2  29  1   
  6   3   6  1   
  7   3  30  1   
  8   3  31  1   
  9   4   7  1   
 10   4   8  1   
 11   4  32  1   
 12   5   9  1   
 13   5  33  1   
 14   5  34  1   
 15   6   7  1   
 16   6  35  1   
 17   6  36  1   
 18   7  10  1   
 19   7  37  1   
 20   8  11  ar  
 21   8  12  ar  
 22   9  38  1   
 23  10  13  1   
 24  10  39  1   
 25  10  40  1   
 26  11  14  ar  
 27  11  41  1   
 28  12  15  ar  
 29  12  42  1   
 30  13  16  ar  
 31  13  17  ar  
 32  14  18  1   
 33  14  19  ar  
 34  15  19  ar  
 35  15  43  1   
 36  16  20  ar  
 37  16  44  1   
 38  17  21  ar  
 39  17  45  1   
 40  18  22  1   
 41  19  23  1   
 42  20  24  1   
 43  20  25  ar  
 44  21  25  ar  
 45  21  46  1   
 46  22  47  1   
 47  22  48  1   
 48  22  49  1   
 49  23  26  1   
 50  24  50  1   
 51  25  27  1   
 52  26  51  1   
 53  26  52  1   
 54  26  53  1   
 55  27  28  1   
 56  28  54  1   
 57  28  55  1   
 58  28  56  1   
@<TRIPOS>SUBSTRUCTURE
  1 ****  10 GROUP 4 **** **** 0

# MOE 2024.06 (io_trps.svl 2023.06)
