@<TRIPOS>MOLECULE
NONAME
49 50 1 0 0 
SMALL
USER_CHARGES


@<TRIPOS>ATOM
  1 S        1.1740     1.4790     1.2100 S.o2  1 <1>   1.3330 
  2 O        0.0930     1.6600     0.2740 O.2   1 <1>  -0.6500 
  3 O        1.8800     0.2270     1.2970 O.2   1 <1>  -0.6500 
  4 N        2.4230     2.5950     0.8240 N.am  1 <1>  -0.7570 
  5 C        0.6670     1.9550     2.8710 C.3   1 <1>  -0.0550 
  6 C        2.3750     3.7980     0.1390 C.ar  1 <1>   0.1990 
  7 C        0.0540     3.3610     3.0090 C.3   1 <1>  -0.2400 
  8 C        3.5700     4.3600    -0.2940 C.ar  1 <1>  -0.1500 
  9 C        1.2000     4.4880    -0.1440 C.ar  1 <1>  -0.1500 
 10 C        3.5940     5.5580    -0.9810 C.ar  1 <1>  -0.1500 
 11 C        1.2230     5.6860    -0.8320 C.ar  1 <1>  -0.1500 
 12 C        2.4180     6.2560    -1.2730 C.ar  1 <1>   0.0860 
 13 C        2.4300     7.5200    -1.9840 C.2   1 <1>   0.5440 
 14 O        1.5480     8.3410    -1.8110 O.2   1 <1>  -0.5700 
 15 N        3.4580     7.8380    -2.8260 N.am  1 <1>  -0.7300 
 16 C        3.6340     9.1070    -3.5630 C.3   1 <1>   0.1400 
 17 C        4.8690     9.8550    -3.0450 C.3   1 <1>  -0.1600 
 18 C        4.6240    10.7540    -1.8210 C.3   1 <1>   0.3540 
 19 N        4.1680    10.0040    -0.6220 N.pl3 1 <1>  -0.4570 
 20 N        4.9550     9.0700    -0.0220 N.2   1 <1>  -0.2600 
 21 C        3.0120    10.0960     0.0120 C.cat 1 <1>   0.6560 
 22 C        4.2370     8.6300     0.9480 C.2   1 <1>   0.4850 
 23 N        3.0330     9.2440     1.0060 N.pl3 1 <1>  -0.7000 
 24 C        1.8520    11.0110    -0.3150 C.3   1 <1>  -0.0960 
 25 C        4.6410     7.5530     1.9290 C.3   1 <1>  -0.0720 
 26 H        3.2980     2.0780     0.7990 H     1 <1>   0.4200 
 27 H        1.5160     1.8880     3.5230 H     1 <1>   0.0800 
 28 H       -0.0550     1.2410     3.2180 H     1 <1>   0.0800 
 29 H        0.7730     4.1130     2.7380 H     1 <1>   0.0800 
 30 H       -0.2520     3.5300     4.0270 H     1 <1>   0.0800 
 31 H       -0.8080     3.4540     2.3720 H     1 <1>   0.0800 
 32 H        4.4930     3.8470    -0.0910 H     1 <1>   0.1500 
 33 H        0.2510     4.0910     0.1620 H     1 <1>   0.1500 
 34 H        4.5420     5.9590    -1.2930 H     1 <1>   0.1500 
 35 H        0.2960     6.1930    -1.0420 H     1 <1>   0.1500 
 36 H        4.1180     7.0990    -3.0790 H     1 <1>   0.3700 
 37 H        2.7510     9.7190    -3.4800 H     1 <1>   0.0800 
 38 H        3.7690     8.8700    -4.6060 H     1 <1>   0.0800 
 39 H        5.2090    10.4980    -3.8370 H     1 <1>   0.0800 
 40 H        5.6690     9.1640    -2.8430 H     1 <1>   0.0800 
 41 H        3.8980    11.5060    -2.0750 H     1 <1>   0.0800 
 42 H        5.5410    11.2590    -1.5710 H     1 <1>   0.0800 
 43 H        2.2840     9.0560     1.6700 H     1 <1>   0.4500 
 44 H        1.6440    10.9790    -1.3680 H     1 <1>   0.0800 
 45 H        2.0880    12.0190    -0.0280 H     1 <1>   0.0800 
 46 H        0.9710    10.6920     0.2100 H     1 <1>   0.0800 
 47 H        5.6230     7.1880     1.6890 H     1 <1>   0.0800 
 48 H        3.9450     6.7350     1.8820 H     1 <1>   0.0800 
 49 H        4.6540     7.9520     2.9260 H     1 <1>   0.0800 
@<TRIPOS>BOND
  1   1   2  2   
  2   1   3  2   
  3   1   4  am  
  4   1   5  1   
  5   4   6  1   
  6   4  26  1   
  7   5   7  1   
  8   5  27  1   
  9   5  28  1   
 10   6   8  ar  
 11   6   9  ar  
 12   7  29  1   
 13   7  30  1   
 14   7  31  1   
 15   8  10  ar  
 16   8  32  1   
 17   9  11  ar  
 18   9  33  1   
 19  10  12  ar  
 20  10  34  1   
 21  11  12  ar  
 22  11  35  1   
 23  12  13  1   
 24  13  14  2   
 25  13  15  am  
 26  15  16  1   
 27  15  36  1   
 28  16  17  1   
 29  16  37  1   
 30  16  38  1   
 31  17  18  1   
 32  17  39  1   
 33  17  40  1   
 34  18  19  1   
 35  18  41  1   
 36  18  42  1   
 37  19  20  1   
 38  19  21  ar  
 39  20  22  2   
 40  21  23  ar  
 41  21  24  1   
 42  22  23  1   
 43  22  25  1   
 44  23  43  1   
 45  24  44  1   
 46  24  45  1   
 47  24  46  1   
 48  25  47  1   
 49  25  48  1   
 50  25  49  1   
@<TRIPOS>SUBSTRUCTURE
  1 ****  12 GROUP 4 **** **** 0

# MOE 2024.06 (io_trps.svl 2023.06)
