@<TRIPOS>MOLECULE
NONAME
53 55 1 0 0 
SMALL
USER_CHARGES


@<TRIPOS>ATOM
  1 CL       0.3950    -0.6170    -0.0620 Cl    1 <1>  -0.1770 
  2 C        0.0080    -2.3130     0.0750 C.ar  1 <1>   0.1770 
  3 C        0.2440    -3.1510    -0.9980 C.ar  1 <1>  -0.1500 
  4 C       -0.5290    -2.7930     1.2550 C.ar  1 <1>  -0.1500 
  5 C       -0.0650    -4.4970    -0.8860 C.ar  1 <1>  -0.1500 
  6 C       -0.8360    -4.1390     1.3610 C.ar  1 <1>  -0.1500 
  7 C       -0.6050    -4.9950     0.2920 C.ar  1 <1>  -0.1430 
  8 C       -0.9440    -6.4740     0.4040 C.3   1 <1>  -0.0160 
  9 C       -2.3180    -6.7510    -0.2030 C.3   1 <1>   0.1400 
 10 N       -2.6430    -8.1880    -0.0770 N.am  1 <1>  -0.7300 
 11 C       -2.5810    -9.1130    -1.0690 C.2   1 <1>   0.5690 
 12 O       -2.2240    -8.8380    -2.1890 O.2   1 <1>  -0.5700 
 13 C       -2.9790   -10.5550    -0.7380 C.3   1 <1>   0.1710 
 14 N       -3.9010   -10.6870     0.4330 N.3   1 <1>  -0.8100 
 15 C       -5.2570   -10.1670     0.1290 C.3   1 <1>   0.1100 
 16 C       -4.0860   -12.0910     0.8150 C.3   1 <1>   0.1100 
 17 C       -6.2310   -11.3570     0.0900 C.3   1 <1>   0.2000 
 18 C       -5.3110   -12.5740     0.0430 C.3   1 <1>  -0.0800 
 19 O       -6.9830   -11.3970     1.2710 O.3   1 <1>  -0.5600 
 20 C       -5.9150   -13.8740     0.6050 C.3   1 <1>   0.0200 
 21 C       -8.1210   -10.5940     1.2750 C.3   1 <1>   0.0400 
 22 C       -5.0210   -15.0840     0.3850 C.2   1 <1>  -0.0400 
 23 O       -5.3420   -16.2150     0.9550 O.3   1 <1>  -0.0190 
 24 C       -3.8930   -15.2860    -0.3150 C.2   1 <1>  -0.1500 
 25 N       -4.4890   -17.1590     0.6790 N.2   1 <1>  -0.4100 
 26 C       -3.6050   -16.6280    -0.0850 C.2   1 <1>   0.1080 
 27 C       -2.4170   -17.3710    -0.6530 C.3   1 <1>  -0.0590 
 28 H        0.6620    -2.7550    -1.9050 H     1 <1>   0.1500 
 29 H       -0.7030    -2.1200     2.0750 H     1 <1>   0.1500 
 30 H        0.1160    -5.1550    -1.7190 H     1 <1>   0.1500 
 31 H       -1.2540    -4.5160     2.2780 H     1 <1>   0.1500 
 32 H       -0.9370    -6.7720     1.4370 H     1 <1>   0.0800 
 33 H       -0.2020    -7.0510    -0.1200 H     1 <1>   0.0800 
 34 H       -2.3150    -6.4710    -1.2440 H     1 <1>   0.0800 
 35 H       -3.0700    -6.1680     0.3010 H     1 <1>   0.0800 
 36 H       -2.9930    -8.5290     0.8260 H     1 <1>   0.3700 
 37 H       -2.0690   -11.0890    -0.5300 H     1 <1>   0.0800 
 38 H       -3.4260   -10.9940    -1.6120 H     1 <1>   0.0800 
 39 H       -5.5500    -9.4680     0.8930 H     1 <1>   0.0800 
 40 H       -5.2660    -9.6610    -0.8210 H     1 <1>   0.0800 
 41 H       -3.2100   -12.6850     0.6180 H     1 <1>   0.0800 
 42 H       -4.2950   -12.1290     1.8710 H     1 <1>   0.0800 
 43 H       -6.8970   -11.3260    -0.7550 H     1 <1>   0.0800 
 44 H       -5.0270   -12.7360    -0.9810 H     1 <1>   0.0800 
 45 H       -6.8630   -14.0610     0.1350 H     1 <1>   0.0800 
 46 H       -6.0910   -13.7650     1.6610 H     1 <1>   0.0800 
 47 H       -8.5990   -10.6990     2.2320 H     1 <1>   0.0800 
 48 H       -8.7910   -10.9220     0.4990 H     1 <1>   0.0800 
 49 H       -7.8390    -9.5660     1.1230 H     1 <1>   0.0800 
 50 H       -3.3180   -14.6120    -0.9210 H     1 <1>   0.1500 
 51 H       -1.5110   -16.8380    -0.4320 H     1 <1>   0.0800 
 52 H       -2.5230   -17.4680    -1.7180 H     1 <1>   0.0800 
 53 H       -2.3570   -18.3530    -0.2190 H     1 <1>   0.0800 
@<TRIPOS>BOND
  1   1   2  1   
  2   2   3  ar  
  3   2   4  ar  
  4   3   5  ar  
  5   3  28  1   
  6   4   6  ar  
  7   4  29  1   
  8   5   7  ar  
  9   5  30  1   
 10   6   7  ar  
 11   6  31  1   
 12   7   8  1   
 13   8   9  1   
 14   8  32  1   
 15   8  33  1   
 16   9  10  1   
 17   9  34  1   
 18   9  35  1   
 19  10  11  am  
 20  10  36  1   
 21  11  12  2   
 22  11  13  1   
 23  13  14  1   
 24  13  37  1   
 25  13  38  1   
 26  14  15  1   
 27  14  16  1   
 28  15  17  1   
 29  15  39  1   
 30  15  40  1   
 31  16  18  1   
 32  16  41  1   
 33  16  42  1   
 34  17  18  1   
 35  17  19  1   
 36  17  43  1   
 37  18  20  1   
 38  18  44  1   
 39  19  21  1   
 40  20  22  1   
 41  20  45  1   
 42  20  46  1   
 43  21  47  1   
 44  21  48  1   
 45  21  49  1   
 46  22  23  1   
 47  22  24  2   
 48  23  25  1   
 49  24  26  1   
 50  24  50  1   
 51  25  26  2   
 52  26  27  1   
 53  27  51  1   
 54  27  52  1   
 55  27  53  1   
@<TRIPOS>SUBSTRUCTURE
  1 ****  13 GROUP 4 **** **** 0

# MOE 2024.06 (io_trps.svl 2023.06)
