@<TRIPOS>MOLECULE
F1913-0930
37 39 1 0 0 
SMALL
USER_CHARGES


@<TRIPOS>ATOM
  1 N       -7.7510     2.5080     0.7840 N.pl3 1 <1>  -0.8440 
  2 C       -6.9970     1.4350     0.7150 C.cat 1 <1>   1.2000 
  3 C       -9.1910     2.1920     0.8760 C.3   1 <1>   0.2480 
  4 N       -5.6530     1.4450     0.6230 N.pl3 1 <1>  -0.7220 
  5 N       -7.7370     0.3500     0.7520 N.pl3 1 <1>  -0.8440 
  6 C       -9.1810     0.6440     0.8530 C.3   1 <1>   0.2480 
  7 C       -9.9380     2.8240    -0.3050 C.3   1 <1>  -0.1600 
  8 C       -4.8350     2.7130     0.6420 C.3   1 <1>   0.1680 
  9 C       -4.8180     0.1890     0.6050 C.3   1 <1>   0.1680 
 10 C       -9.9190     0.0380    -0.3460 C.3   1 <1>  -0.1600 
 11 C      -11.3310     2.1950    -0.4700 C.3   1 <1>  -0.1600 
 12 C       -3.7210     2.7220    -0.4330 C.3   1 <1>   0.3430 
 13 C       -3.7040     0.2260    -0.4700 C.3   1 <1>   0.3430 
 14 C      -11.3210     0.6520    -0.4930 C.3   1 <1>  -0.1600 
 15 N       -2.8820     1.4790    -0.3930 N.4   1 <1>  -0.9060 
 16 H       -7.4460     3.4750     0.8060 H     1 <1>   0.4500 
 17 H       -9.6040     2.5420     1.8080 H     1 <1>   0.0800 
 18 H       -7.4190    -0.6130     0.7460 H     1 <1>   0.4500 
 19 H       -9.5890     0.2610     1.7750 H     1 <1>   0.0800 
 20 H       -9.3850     2.6730    -1.2170 H     1 <1>   0.0800 
 21 H      -10.0430     3.8840    -0.1490 H     1 <1>   0.0800 
 22 H       -4.3830     2.8240     1.6140 H     1 <1>   0.0800 
 23 H       -5.4580     3.5750     0.4830 H     1 <1>   0.0800 
 24 H       -5.4300    -0.6770     0.4200 H     1 <1>   0.0800 
 25 H       -4.3640     0.0550     1.5730 H     1 <1>   0.0800 
 26 H      -10.0110    -1.0270    -0.2210 H     1 <1>   0.0800 
 27 H       -9.3690     0.2230    -1.2530 H     1 <1>   0.0800 
 28 H      -11.7750     2.5610    -1.3820 H     1 <1>   0.0800 
 29 H      -11.9630     2.5260     0.3380 H     1 <1>   0.0800 
 30 H       -3.0960     3.5900    -0.2900 H     1 <1>   0.0800 
 31 H       -4.1810     2.8140    -1.4040 H     1 <1>   0.0800 
 32 H       -4.1640     0.1570    -1.4440 H     1 <1>   0.0800 
 33 H       -3.0670    -0.6380    -0.3520 H     1 <1>   0.0800 
 34 H      -11.9480     0.2900     0.3050 H     1 <1>   0.0800 
 35 H      -11.7600     0.3070    -1.4140 H     1 <1>   0.0800 
 36 H       -2.3140     1.4700     0.4660 H     1 <1>   0.4500 
 37 H       -2.2070     1.4950    -1.1730 H     1 <1>   0.4500 
@<TRIPOS>BOND
  1   1   2  ar  
  2   1   3  1   
  3   1  16  1   
  4   2   4  ar  
  5   2   5  ar  
  6   3   6  1   
  7   3   7  1   
  8   3  17  1   
  9   4   8  1   
 10   4   9  1   
 11   5   6  1   
 12   5  18  1   
 13   6  10  1   
 14   6  19  1   
 15   7  11  1   
 16   7  20  1   
 17   7  21  1   
 18   8  12  1   
 19   8  22  1   
 20   8  23  1   
 21   9  13  1   
 22   9  24  1   
 23   9  25  1   
 24  10  14  1   
 25  10  26  1   
 26  10  27  1   
 27  11  14  1   
 28  11  28  1   
 29  11  29  1   
 30  12  15  1   
 31  12  30  1   
 32  12  31  1   
 33  13  15  1   
 34  13  32  1   
 35  13  33  1   
 36  14  34  1   
 37  14  35  1   
 38  15  36  1   
 39  15  37  1   
@<TRIPOS>SUBSTRUCTURE
  1 ****   2 GROUP 4 **** **** 0

# MOE 2024.06 (io_trps.svl 2023.06)
