@<TRIPOS>MOLECULE
NONAME
57 58 1 0 0 
SMALL
USER_CHARGES


@<TRIPOS>ATOM
  1 O       -0.0690     0.7180     1.3300 O.2   1 <1>  -0.5700 
  2 C       -1.0420     0.8290     0.6190 C.2   1 <1>   0.5690 
  3 N       -1.8490    -0.2300     0.3460 N.am  1 <1>  -0.7300 
  4 C       -1.3130     2.2270     0.0010 C.3   1 <1>   0.4840 
  5 C       -1.7010    -1.5680     0.9410 C.3   1 <1>   0.2780 
  6 N       -0.0440     3.0650    -0.0620 N.4   1 <1>  -0.9590 
  7 C       -2.3850     2.9510     0.8250 C.3   1 <1>  -0.2400 
  8 C       -3.0980    -2.0620     1.2420 C.2   1 <1>  -0.2880 
  9 C       -0.2390     4.5010    -0.4010 C.3   1 <1>   0.3430 
 10 C        0.9630     2.4100    -0.9460 C.3   1 <1>   0.3430 
 11 C       -3.7100    -3.0750     0.6210 C.2   1 <1>  -0.3000 
 12 C        1.0880     5.2510    -0.2770 C.3   1 <1>  -0.1600 
 13 C        2.3090     3.1210    -0.8160 C.3   1 <1>  -0.1600 
 14 C        2.2020     4.6210    -1.1270 C.3   1 <1>   0.4230 
 15 N        3.5050     5.3000    -0.8520 N.4   1 <1>  -0.9590 
 16 C        3.5310     6.7920    -1.0810 C.3   1 <1>   0.3430 
 17 C        4.7180     4.7060    -1.5280 C.3   1 <1>   0.3430 
 18 C        4.8280     7.4160    -0.5090 C.3   1 <1>   0.1100 
 19 C        6.0220     5.3710    -1.0230 C.3   1 <1>   0.1100 
 20 N        5.7570     6.3870     0.0240 N.3   1 <1>  -0.8100 
 21 C        7.0270     6.9810     0.5000 C.3   1 <1>   0.1100 
 22 C        6.8440     7.7590     1.8090 C.3   1 <1>   0.1200 
 23 O        8.0720     8.2570     2.2140 O.3   1 <1>  -0.6800 
 24 H       -2.6970    -0.1570    -0.2220 H     1 <1>   0.3700 
 25 H       -1.6910     2.0770    -0.9970 H     1 <1>   0.0800 
 26 H       -1.1130    -1.5280     1.8440 H     1 <1>   0.0800 
 27 H       -1.2150    -2.2240     0.2390 H     1 <1>   0.0800 
 28 H        0.3200     2.9770     0.9030 H     1 <1>   0.4500 
 29 H       -2.0110     3.2040     1.8020 H     1 <1>   0.0800 
 30 H       -3.2320     2.3010     0.9600 H     1 <1>   0.0800 
 31 H       -2.7450     3.8330     0.3260 H     1 <1>   0.0800 
 32 H       -3.5670    -1.5020     2.0340 H     1 <1>   0.1500 
 33 H       -0.9540     4.9480     0.2710 H     1 <1>   0.0800 
 34 H       -0.6220     4.5900    -1.4060 H     1 <1>   0.0800 
 35 H        0.6270     2.4390    -1.9700 H     1 <1>   0.0800 
 36 H        1.0880     1.3750    -0.6630 H     1 <1>   0.0800 
 37 H       -4.7070    -3.4080     0.8580 H     1 <1>   0.1500 
 38 H       -3.2750    -3.6600    -0.1710 H     1 <1>   0.1500 
 39 H        1.3750     5.2710     0.7600 H     1 <1>   0.0800 
 40 H        0.9070     6.2620    -0.5950 H     1 <1>   0.0800 
 41 H        2.9800     2.6450    -1.5060 H     1 <1>   0.0800 
 42 H        2.6840     2.9670     0.1810 H     1 <1>   0.0800 
 43 H        1.9550     4.7410    -2.1700 H     1 <1>   0.0800 
 44 H        3.7530     5.2240     0.1500 H     1 <1>   0.4500 
 45 H        2.6930     7.2660    -0.5990 H     1 <1>   0.0800 
 46 H        3.4690     7.0070    -2.1350 H     1 <1>   0.0800 
 47 H        4.6480     4.8270    -2.5970 H     1 <1>   0.0800 
 48 H        4.7840     3.6520    -1.3200 H     1 <1>   0.0800 
 49 H        4.5570     8.1010     0.2770 H     1 <1>   0.0800 
 50 H        5.3140     7.9910    -1.2800 H     1 <1>   0.0800 
 51 H        6.5360     5.8250    -1.8540 H     1 <1>   0.0800 
 52 H        6.6690     4.6070    -0.6250 H     1 <1>   0.0800 
 53 H        7.4350     7.6360    -0.2520 H     1 <1>   0.0800 
 54 H        7.7360     6.1910     0.6840 H     1 <1>   0.0800 
 55 H        6.4620     7.1230     2.5900 H     1 <1>   0.0800 
 56 H        6.1910     8.6010     1.6710 H     1 <1>   0.0800 
 57 H        8.6490     7.5440     2.5530 H     1 <1>   0.4000 
@<TRIPOS>BOND
  1   1   2  2   
  2   2   3  am  
  3   2   4  1   
  4   3   5  1   
  5   3  24  1   
  6   4   6  1   
  7   4   7  1   
  8   4  25  1   
  9   5   8  1   
 10   5  26  1   
 11   5  27  1   
 12   6   9  1   
 13   6  10  1   
 14   6  28  1   
 15   7  29  1   
 16   7  30  1   
 17   7  31  1   
 18   8  11  2   
 19   8  32  1   
 20   9  12  1   
 21   9  33  1   
 22   9  34  1   
 23  10  13  1   
 24  10  35  1   
 25  10  36  1   
 26  11  37  1   
 27  11  38  1   
 28  12  14  1   
 29  12  39  1   
 30  12  40  1   
 31  13  14  1   
 32  13  41  1   
 33  13  42  1   
 34  14  15  1   
 35  14  43  1   
 36  15  16  1   
 37  15  17  1   
 38  15  44  1   
 39  16  18  1   
 40  16  45  1   
 41  16  46  1   
 42  17  19  1   
 43  17  47  1   
 44  17  48  1   
 45  18  20  1   
 46  18  49  1   
 47  18  50  1   
 48  19  20  1   
 49  19  51  1   
 50  19  52  1   
 51  20  21  1   
 52  21  22  1   
 53  21  53  1   
 54  21  54  1   
 55  22  23  1   
 56  22  55  1   
 57  22  56  1   
 58  23  57  1   
@<TRIPOS>SUBSTRUCTURE
  1 ****  13 GROUP 4 **** **** 0

# MOE 2024.06 (io_trps.svl 2023.06)
