@<TRIPOS>MOLECULE
NONAME
45 47 1 0 0 
SMALL
USER_CHARGES


@<TRIPOS>ATOM
  1 S        0.4130     0.0960    -1.6770 S.o2  1 <1>   1.3330 
  2 O        0.9660    -1.0690    -2.3310 O.2   1 <1>  -0.6500 
  3 O       -0.5310     0.9370    -2.3770 O.2   1 <1>  -0.6500 
  4 N       -0.3240    -0.4130    -0.2320 N.am  1 <1>  -0.8490 
  5 C        1.7860     1.1160    -1.1250 C.3   1 <1>  -0.0550 
  6 C       -0.9300    -1.7440    -0.3540 C.3   1 <1>   0.1160 
  7 C       -1.3220     0.5360     0.2760 C.3   1 <1>   0.1160 
  8 C        2.8670     0.3450    -0.3390 C.3   1 <1>  -0.0800 
  9 C        4.1840     1.0850    -0.1300 C.3   1 <1>   0.2200 
 10 C        2.4660    -0.0600     1.0890 C.3   1 <1>   0.1200 
 11 N        3.9540     2.5040     0.2550 N.am  1 <1>  -0.7300 
 12 C        4.6990     0.3600     1.1040 C.3   1 <1>   0.1200 
 13 O        3.5650     0.2370     1.9020 O.3   1 <1>  -0.5600 
 14 C        4.5590     3.5820    -0.3340 C.2   1 <1>   0.7030 
 15 O        5.1190     3.4010    -1.3970 O.2   1 <1>  -0.5700 
 16 C        4.5840     4.9070     0.2790 C.2   1 <1>   0.2770 
 17 N        5.4970     5.9080    -0.0740 N.pl3 1 <1>  -0.6290 
 18 C        3.8100     5.4580     1.2690 C.2   1 <1>   0.1820 
 19 C        5.2440     6.9460     0.6920 C.cat 1 <1>   0.8920 
 20 C        6.5570     6.1150    -0.9900 C.2   1 <1>   0.2290 
 21 N        4.2460     6.7350     1.5220 N.pl3 1 <1>  -0.7000 
 22 C        2.6290     4.9090     2.0540 C.3   1 <1>  -0.0720 
 23 S        6.3070     8.2860     0.3660 S.3   1 <1>  -0.1930 
 24 C        7.1160     7.3340    -0.9000 C.2   1 <1>  -0.0490 
 25 H        2.2490     1.5410    -1.9950 H     1 <1>   0.0800 
 26 H        1.4130     1.9270    -0.5310 H     1 <1>   0.0800 
 27 H       -1.3810    -2.0380     0.5780 H     1 <1>   0.0800 
 28 H       -0.1770    -2.4720    -0.6060 H     1 <1>   0.0800 
 29 H       -1.6810    -1.7440    -1.1270 H     1 <1>   0.0800 
 30 H       -1.6840     0.2130     1.2380 H     1 <1>   0.0800 
 31 H       -2.1550     0.6080    -0.4050 H     1 <1>   0.0800 
 32 H       -0.8840     1.5130     0.3870 H     1 <1>   0.0800 
 33 H        3.0910    -0.5610    -0.8780 H     1 <1>   0.0800 
 34 H        4.8530     0.9960    -0.9710 H     1 <1>   0.0800 
 35 H        2.2570    -1.1150     1.1560 H     1 <1>   0.0800 
 36 H        1.6230     0.4990     1.4550 H     1 <1>   0.0800 
 37 H        3.6040     2.5540     1.2160 H     1 <1>   0.3700 
 38 H        5.4630     0.9040     1.6310 H     1 <1>   0.0800 
 39 H        5.0510    -0.6290     0.8610 H     1 <1>   0.0800 
 40 H        6.8340     5.3200    -1.6690 H     1 <1>   0.1500 
 41 H        3.8940     7.4200     2.1970 H     1 <1>   0.4500 
 42 H        2.2560     3.9970     1.6280 H     1 <1>   0.0800 
 43 H        1.8250     5.6240     2.0520 H     1 <1>   0.0800 
 44 H        2.9180     4.7230     3.0740 H     1 <1>   0.0800 
 45 H        7.9230     7.8050    -1.4350 H     1 <1>   0.1500 
@<TRIPOS>BOND
  1   1   2  2   
  2   1   3  2   
  3   1   4  am  
  4   1   5  1   
  5   4   6  1   
  6   4   7  1   
  7   5   8  1   
  8   5  25  1   
  9   5  26  1   
 10   6  27  1   
 11   6  28  1   
 12   6  29  1   
 13   7  30  1   
 14   7  31  1   
 15   7  32  1   
 16   8   9  1   
 17   8  10  1   
 18   8  33  1   
 19   9  11  1   
 20   9  12  1   
 21   9  34  1   
 22  10  13  1   
 23  10  35  1   
 24  10  36  1   
 25  11  14  am  
 26  11  37  1   
 27  12  13  1   
 28  12  38  1   
 29  12  39  1   
 30  14  15  2   
 31  14  16  1   
 32  16  17  1   
 33  16  18  2   
 34  17  19  ar  
 35  17  20  1   
 36  18  21  1   
 37  18  22  1   
 38  19  21  ar  
 39  19  23  1   
 40  20  24  2   
 41  20  40  1   
 42  21  41  1   
 43  22  42  1   
 44  22  43  1   
 45  22  44  1   
 46  23  24  1   
 47  24  45  1   
@<TRIPOS>SUBSTRUCTURE
  1 ****  11 GROUP 4 **** **** 0

# MOE 2024.06 (io_trps.svl 2023.06)
