@<TRIPOS>MOLECULE
NONAME
54 57 1 0 0 
SMALL
USER_CHARGES


@<TRIPOS>ATOM
  1 O       -0.2660    -0.1180    -2.1720 O.2   1 <1>  -0.5700 
  2 C        0.3470    -0.6530    -1.2760 C.2   1 <1>   0.5690 
  3 N        1.1670    -0.0020    -0.4080 N.am  1 <1>  -0.4930 
  4 C        0.2290    -2.1710    -1.1180 C.3   1 <1>   0.1710 
  5 C        1.6100     1.3430    -0.3200 C.2   1 <1>   0.0630 
  6 N        0.6000    -2.6940     0.2340 N.3   1 <1>  -0.8100 
  7 C        2.8670     1.6930     0.1890 C.2   1 <1>   0.3720 
  8 C        1.0270     2.5190    -0.6420 C.2   1 <1>  -0.3320 
  9 C        0.8330    -4.1490     0.1880 C.3   1 <1>   0.2530 
 10 C       -0.4140    -2.2910     1.2430 C.3   1 <1>   0.1100 
 11 N        3.0760     2.9720     0.1630 N.2   1 <1>  -0.7070 
 12 N        3.8130     0.7640     0.6670 N.pl3 1 <1>  -0.8210 
 13 N        1.9400     3.4830    -0.3590 N.pl3 1 <1>   0.3140 
 14 C       -0.3610     2.8020    -1.1980 C.3   1 <1>  -0.0600 
 15 C       -0.4690    -4.9250     0.0990 C.ar  1 <1>  -0.1440 
 16 C       -0.4110    -3.1570     2.5160 C.3   1 <1>   0.1200 
 17 C        4.9360     0.5990    -0.2930 C.3   1 <1>   0.2090 
 18 C        4.3870     1.1480     1.9870 C.3   1 <1>   0.2090 
 19 C        1.7950     4.9290    -0.5620 C.3   1 <1>   0.0160 
 20 C       -1.3410    -5.0040     1.1840 C.ar  1 <1>   0.0820 
 21 C       -0.7860    -5.5890    -1.0780 C.ar  1 <1>  -0.1500 
 22 O       -1.1460    -4.3650     2.3670 O.3   1 <1>  -0.3630 
 23 C        6.2040     0.5480     0.5450 C.3   1 <1>  -0.1600 
 24 C        5.8700     1.4040     1.7540 C.3   1 <1>  -0.1600 
 25 C       -2.4970    -5.7630     1.0820 C.ar  1 <1>  -0.1500 
 26 C       -1.9480    -6.3350    -1.1750 C.ar  1 <1>  -0.1500 
 27 C       -2.8030    -6.4260    -0.0920 C.ar  1 <1>  -0.1500 
 28 H        1.6940    -0.6280     0.2090 H     1 <1>   0.3700 
 29 H        0.8780    -2.6050    -1.8570 H     1 <1>   0.0800 
 30 H       -0.7780    -2.4650    -1.3600 H     1 <1>   0.0800 
 31 H        1.3650    -4.4570     1.0710 H     1 <1>   0.0800 
 32 H        1.4670    -4.3870    -0.6480 H     1 <1>   0.0800 
 33 H       -1.4050    -2.3120     0.8190 H     1 <1>   0.0800 
 34 H       -0.2120    -1.2740     1.5320 H     1 <1>   0.0800 
 35 H       -1.0180     1.9750    -1.0010 H     1 <1>   0.0800 
 36 H       -0.3090     2.9510    -2.2610 H     1 <1>   0.0800 
 37 H       -0.7870     3.6740    -0.7370 H     1 <1>   0.0800 
 38 H       -0.8870    -2.6120     3.3110 H     1 <1>   0.0800 
 39 H        0.5910    -3.3930     2.8250 H     1 <1>   0.0800 
 40 H        4.9760     1.4420    -0.9650 H     1 <1>   0.0800 
 41 H        4.8080    -0.3020    -0.8660 H     1 <1>   0.0800 
 42 H        4.2580     0.3230     2.6660 H     1 <1>   0.0800 
 43 H        3.9030     2.0170     2.4030 H     1 <1>   0.0800 
 44 H        1.4580     5.1130    -1.5640 H     1 <1>   0.0800 
 45 H        2.7480     5.4020    -0.4100 H     1 <1>   0.0800 
 46 H        1.0850     5.3130     0.1450 H     1 <1>   0.0800 
 47 H       -0.1270    -5.5350    -1.9260 H     1 <1>   0.1500 
 48 H        7.0560     0.9170     0.0020 H     1 <1>   0.0800 
 49 H        6.3840    -0.4680     0.8480 H     1 <1>   0.0800 
 50 H        6.4610     1.1580     2.6170 H     1 <1>   0.0800 
 51 H        6.0030     2.4450     1.5150 H     1 <1>   0.0800 
 52 H       -3.1560    -5.8260     1.9290 H     1 <1>   0.1500 
 53 H       -2.1850    -6.8470    -2.0910 H     1 <1>   0.1500 
 54 H       -3.7050    -7.0090    -0.1620 H     1 <1>   0.1500 
@<TRIPOS>BOND
  1   1   2  2   
  2   2   3  am  
  3   2   4  1   
  4   3   5  1   
  5   3  28  1   
  6   4   6  1   
  7   4  29  1   
  8   4  30  1   
  9   5   7  1   
 10   5   8  2   
 11   6   9  1   
 12   6  10  1   
 13   7  11  2   
 14   7  12  1   
 15   8  13  1   
 16   8  14  1   
 17   9  15  1   
 18   9  31  1   
 19   9  32  1   
 20  10  16  1   
 21  10  33  1   
 22  10  34  1   
 23  11  13  1   
 24  12  17  1   
 25  12  18  1   
 26  13  19  1   
 27  14  35  1   
 28  14  36  1   
 29  14  37  1   
 30  15  20  ar  
 31  15  21  ar  
 32  16  22  1   
 33  16  38  1   
 34  16  39  1   
 35  17  23  1   
 36  17  40  1   
 37  17  41  1   
 38  18  24  1   
 39  18  42  1   
 40  18  43  1   
 41  19  44  1   
 42  19  45  1   
 43  19  46  1   
 44  20  22  1   
 45  20  25  ar  
 46  21  26  ar  
 47  21  47  1   
 48  23  24  1   
 49  23  48  1   
 50  23  49  1   
 51  24  50  1   
 52  24  51  1   
 53  25  27  ar  
 54  25  52  1   
 55  26  27  ar  
 56  26  53  1   
 57  27  54  1   
@<TRIPOS>SUBSTRUCTURE
  1 ****   3 GROUP 4 **** **** 0

# MOE 2024.06 (io_trps.svl 2023.06)
