@<TRIPOS>MOLECULE
NONAME
56 59 1 0 0 
SMALL
USER_CHARGES


@<TRIPOS>ATOM
  1 S       -1.9200     1.6360     0.5640 S.3   1 <1>  -0.0800 
  2 C       -3.5370     0.9810     0.6740 C.2   1 <1>  -0.1100 
  3 C       -1.3580     0.5560     1.8220 C.2   1 <1>  -0.1100 
  4 C       -3.6260    -0.0080     1.5990 C.2   1 <1>  -0.0860 
  5 C       -2.3620    -0.2270     2.2550 C.2   1 <1>  -0.1500 
  6 C       -4.8030    -0.7760     1.9530 C.2   1 <1>   0.7160 
  7 O       -5.0240    -1.0180     3.1250 O.2   1 <1>  -0.5700 
  8 N       -5.6740    -1.2580     0.9950 N.am  1 <1>  -0.6600 
  9 C       -6.9570    -1.8930     1.3940 C.3   1 <1>   0.1400 
 10 C       -5.2620    -1.4170    -0.4290 C.3   1 <1>   0.1400 
 11 C       -8.0620    -1.5680     0.3830 C.3   1 <1>  -0.1600 
 12 C       -6.2320    -2.3150    -1.2040 C.3   1 <1>  -0.1600 
 13 C       -7.6860    -1.7910    -1.1100 C.3   1 <1>   0.2800 
 14 O       -7.7000    -0.4970    -1.6910 O.3   1 <1>  -0.5600 
 15 C       -8.7500    -2.7130    -1.8170 C.3   1 <1>   0.2000 
 16 C       -7.7900    -0.4040    -3.0830 C.3   1 <1>   0.1200 
 17 O       -8.1450    -3.5820    -2.7400 O.3   1 <1>  -0.6800 
 18 C       -9.8400    -1.8600    -2.5380 C.3   1 <1>   0.3000 
 19 C       -9.1340    -0.9680    -3.5780 C.3   1 <1>  -0.1600 
 20 N      -10.5050    -0.9220    -1.5980 N.am  1 <1>  -0.7300 
 21 C      -10.9160    -2.7050    -3.2380 C.3   1 <1>  -0.2400 
 22 C      -11.3050    -1.2260    -0.5300 C.2   1 <1>   0.7030 
 23 O      -11.4570    -2.3930    -0.2230 O.2   1 <1>  -0.5700 
 24 C      -11.9290    -0.1660     0.2560 C.2   1 <1>   0.2770 
 25 N      -12.5610    -0.2700     1.5010 N.pl3 1 <1>  -0.7640 
 26 C      -12.0150     1.1480    -0.0800 C.2   1 <1>   0.2000 
 27 C      -12.9850     0.9350     1.8550 C.cat 1 <1>   0.6500 
 28 C      -12.7330    -1.5430     2.2620 C.3   1 <1>   0.2740 
 29 N      -12.6650     1.8160     0.9200 N.pl3 1 <1>  -0.7000 
 30 H       -4.2850     1.4080     0.0300 H     1 <1>   0.1500 
 31 H       -0.3240     0.6260     2.1110 H     1 <1>   0.1500 
 32 H       -2.2810    -0.9710     3.0300 H     1 <1>   0.1500 
 33 H       -6.8110    -2.9590     1.4530 H     1 <1>   0.0800 
 34 H       -7.2570    -1.5490     2.3700 H     1 <1>   0.0800 
 35 H       -5.2400    -0.4480    -0.8960 H     1 <1>   0.0800 
 36 H       -4.2700    -1.8360    -0.4700 H     1 <1>   0.0800 
 37 H       -8.3580    -0.5460     0.5380 H     1 <1>   0.0800 
 38 H       -8.9000    -2.1810     0.6550 H     1 <1>   0.0800 
 39 H       -6.1780    -3.3150    -0.8100 H     1 <1>   0.0800 
 40 H       -5.9070    -2.3710    -2.2250 H     1 <1>   0.0800 
 41 H       -9.2190    -3.3610    -1.0980 H     1 <1>   0.0800 
 42 H       -7.6980     0.6350    -3.3510 H     1 <1>   0.0800 
 43 H       -6.9620    -0.9350    -3.5190 H     1 <1>   0.0800 
 44 H       -7.6920    -3.0790    -3.4410 H     1 <1>   0.4000 
 45 H       -9.7810    -0.1650    -3.8800 H     1 <1>   0.0800 
 46 H       -8.9340    -1.5370    -4.4680 H     1 <1>   0.0800 
 47 H       -9.9200    -0.0840    -1.5190 H     1 <1>   0.3700 
 48 H      -10.4790    -3.2990    -4.0200 H     1 <1>   0.0800 
 49 H      -11.6700    -2.0750    -3.6760 H     1 <1>   0.0800 
 50 H      -11.3800    -3.3850    -2.5480 H     1 <1>   0.0800 
 51 H      -11.6520     1.6320    -0.9730 H     1 <1>   0.1500 
 52 H      -13.5140     1.1670     2.7710 H     1 <1>   0.1500 
 53 H      -11.7710    -1.9870     2.4590 H     1 <1>   0.0800 
 54 H      -13.3200    -2.2390     1.6850 H     1 <1>   0.0800 
 55 H      -13.2300    -1.3630     3.1990 H     1 <1>   0.0800 
 56 H      -12.8770     2.8200     0.9400 H     1 <1>   0.4500 
@<TRIPOS>BOND
  1   1   2  1   
  2   1   3  1   
  3   2   4  2   
  4   2  30  1   
  5   3   5  2   
  6   3  31  1   
  7   4   5  1   
  8   4   6  1   
  9   5  32  1   
 10   6   7  2   
 11   6   8  am  
 12   8   9  1   
 13   8  10  1   
 14   9  11  1   
 15   9  33  1   
 16   9  34  1   
 17  10  12  1   
 18  10  35  1   
 19  10  36  1   
 20  11  13  1   
 21  11  37  1   
 22  11  38  1   
 23  12  13  1   
 24  12  39  1   
 25  12  40  1   
 26  13  14  1   
 27  13  15  1   
 28  14  16  1   
 29  15  17  1   
 30  15  18  1   
 31  15  41  1   
 32  16  19  1   
 33  16  42  1   
 34  16  43  1   
 35  17  44  1   
 36  18  19  1   
 37  18  20  1   
 38  18  21  1   
 39  19  45  1   
 40  19  46  1   
 41  20  22  am  
 42  20  47  1   
 43  21  48  1   
 44  21  49  1   
 45  21  50  1   
 46  22  23  2   
 47  22  24  1   
 48  24  25  1   
 49  24  26  2   
 50  25  27  ar  
 51  25  28  1   
 52  26  29  1   
 53  26  51  1   
 54  27  29  ar  
 55  27  52  1   
 56  28  53  1   
 57  28  54  1   
 58  28  55  1   
 59  29  56  1   
@<TRIPOS>SUBSTRUCTURE
  1 ****  11 GROUP 4 **** **** 0

# MOE 2024.06 (io_trps.svl 2023.06)
