@<TRIPOS>MOLECULE
NONAME
47 49 1 0 0 
SMALL
USER_CHARGES


@<TRIPOS>ATOM
  1 CL       0.1600     0.2850    -1.2250 Cl    1 <1>  -0.1770 
  2 C       -0.0790     1.9080    -0.6170 C.ar  1 <1>   0.1770 
  3 C        0.9980     2.6830    -0.2210 C.ar  1 <1>   0.1900 
  4 C       -1.3600     2.4200    -0.5360 C.ar  1 <1>  -0.1500 
  5 F        2.2150     2.2050    -0.2960 F     1 <1>  -0.1900 
  6 C        0.8200     3.9690     0.2560 C.ar  1 <1>  -0.1500 
  7 C       -1.5680     3.7130    -0.0560 C.ar  1 <1>   0.1170 
  8 C       -0.4670     4.4750     0.3330 C.ar  1 <1>  -0.1500 
  9 N       -2.8460     4.2810     0.0330 N.am  1 <1>  -0.5470 
 10 C       -4.0710     3.7020     0.2090 C.2   1 <1>   0.6900 
 11 O       -4.1730     2.5120     0.4410 O.2   1 <1>  -0.5700 
 12 N       -5.1890     4.4930     0.1490 N.am  1 <1>  -0.6600 
 13 C       -6.4930     3.9560     0.6370 C.3   1 <1>   0.1400 
 14 C       -5.2190     5.8160    -0.5430 C.3   1 <1>   0.1400 
 15 C       -7.4280     5.1000     1.0400 C.3   1 <1>  -0.1600 
 16 C       -6.5920     6.0400    -1.1750 C.3   1 <1>  -0.1600 
 17 C       -7.7050     6.0950    -0.1130 C.3   1 <1>   0.2800 
 18 O       -7.6110     7.3790     0.4590 O.3   1 <1>  -0.5600 
 19 C       -9.0760     5.8280    -0.7920 C.3   1 <1>  -0.1600 
 20 C       -8.7130     8.2500     0.3790 C.3   1 <1>   0.1200 
 21 C      -10.3170     6.3800    -0.0470 C.3   1 <1>   0.2800 
 22 C       -9.9560     7.5400     0.9190 C.3   1 <1>   0.2000 
 23 O      -11.1330     6.9200    -1.0250 O.3   1 <1>  -0.6800 
 24 C      -11.1680     5.2790     0.6010 C.3   1 <1>  -0.2400 
 25 O       -9.6370     7.0790     2.1950 O.3   1 <1>  -0.6800 
 26 H       -2.1880     1.8120    -0.8490 H     1 <1>   0.1500 
 27 H        1.6720     4.5530     0.5580 H     1 <1>   0.1500 
 28 H       -0.6180     5.4720     0.7060 H     1 <1>   0.1500 
 29 H       -2.8830     5.2900     0.1190 H     1 <1>   0.3700 
 30 H       -6.9420     3.3630    -0.1410 H     1 <1>   0.0800 
 31 H       -6.3220     3.3160     1.4870 H     1 <1>   0.0800 
 32 H       -5.0190     6.5970     0.1720 H     1 <1>   0.0800 
 33 H       -4.4680     5.8460    -1.3130 H     1 <1>   0.0800 
 34 H       -6.9640     5.6120     1.8640 H     1 <1>   0.0800 
 35 H       -8.3430     4.6750     1.4030 H     1 <1>   0.0800 
 36 H       -6.7740     5.2360    -1.8660 H     1 <1>   0.0800 
 37 H       -6.5900     6.9550    -1.7410 H     1 <1>   0.0800 
 38 H       -9.0320     6.2800    -1.7680 H     1 <1>   0.0800 
 39 H       -9.1820     4.7710    -0.9540 H     1 <1>   0.0800 
 40 H       -8.4960     9.1240     0.9670 H     1 <1>   0.0800 
 41 H       -8.8520     8.5490    -0.6460 H     1 <1>   0.0800 
 42 H      -10.7900     8.2130     1.0170 H     1 <1>   0.0800 
 43 H      -11.5350     6.2020    -1.5470 H     1 <1>   0.4000 
 44 H      -10.6160     4.7820     1.3770 H     1 <1>   0.0800 
 45 H      -11.4670     4.5410    -0.1210 H     1 <1>   0.0800 
 46 H      -12.0430     5.7110     1.0530 H     1 <1>   0.0800 
 47 H       -8.6730     6.8940     2.1930 H     1 <1>   0.4000 
@<TRIPOS>BOND
  1   1   2  1   
  2   2   3  ar  
  3   2   4  ar  
  4   3   5  1   
  5   3   6  ar  
  6   4   7  ar  
  7   4  26  1   
  8   6   8  ar  
  9   6  27  1   
 10   7   8  ar  
 11   7   9  1   
 12   8  28  1   
 13   9  10  am  
 14   9  29  1   
 15  10  11  2   
 16  10  12  am  
 17  12  13  1   
 18  12  14  1   
 19  13  15  1   
 20  13  30  1   
 21  13  31  1   
 22  14  16  1   
 23  14  32  1   
 24  14  33  1   
 25  15  17  1   
 26  15  34  1   
 27  15  35  1   
 28  16  17  1   
 29  16  36  1   
 30  16  37  1   
 31  17  18  1   
 32  17  19  1   
 33  18  20  1   
 34  19  21  1   
 35  19  38  1   
 36  19  39  1   
 37  20  22  1   
 38  20  40  1   
 39  20  41  1   
 40  21  22  1   
 41  21  23  1   
 42  21  24  1   
 43  22  25  1   
 44  22  42  1   
 45  23  43  1   
 46  24  44  1   
 47  24  45  1   
 48  24  46  1   
 49  25  47  1   
@<TRIPOS>SUBSTRUCTURE
  1 ****  12 GROUP 4 **** **** 0

# MOE 2024.06 (io_trps.svl 2023.06)
