@<TRIPOS>MOLECULE
NONAME
45 47 1 0 0 
SMALL
USER_CHARGES


@<TRIPOS>ATOM
  1 S       -0.5510    -0.6460     0.8990 S.3   1 <1>  -0.0800 
  2 C       -1.3610    -1.6620    -0.2480 C.2   1 <1>   0.4420 
  3 C       -1.0960     0.7110    -0.0260 C.2   1 <1>   0.1980 
  4 N       -1.9430    -0.9860    -1.1680 N.2   1 <1>  -0.3380 
  5 N       -1.3020    -3.0220    -0.0230 N.am  1 <1>  -0.4940 
  6 N       -1.7870     0.3660    -1.0360 N.2   1 <1>  -0.3380 
  7 C       -0.6970     2.0940     0.4640 C.3   1 <1>   0.0200 
  8 C       -1.7510    -4.0380    -0.8210 C.2   1 <1>   0.5690 
  9 C       -1.2380     3.2220    -0.4290 C.3   1 <1>  -0.1600 
 10 O       -2.1450    -3.8760    -1.9490 O.2   1 <1>  -0.5700 
 11 C       -1.7770    -5.4620    -0.2470 C.3   1 <1>   0.1710 
 12 C       -0.8220     4.6040     0.0880 C.3   1 <1>  -0.2400 
 13 N       -3.1150    -5.9450     0.2120 N.3   1 <1>  -0.8100 
 14 C       -4.0800    -5.9600    -0.9180 C.3   1 <1>   0.2780 
 15 C       -3.6130    -5.1650     1.3580 C.3   1 <1>   0.0300 
 16 C       -5.3790    -6.6920    -0.5760 C.2   1 <1>   0.1820 
 17 N       -5.4370    -7.9740    -0.0540 N.pl3 1 <1>  -0.6290 
 18 C       -6.6440    -6.2490    -0.7200 C.2   1 <1>   0.2000 
 19 C       -6.7440    -8.2840     0.1070 C.cat 1 <1>   0.7910 
 20 C       -4.4540    -8.8640     0.3190 C.2   1 <1>   0.2290 
 21 N       -7.4900    -7.2420    -0.2960 N.pl3 1 <1>  -0.7000 
 22 C       -7.1210    -9.5320     0.6300 C.2   1 <1>  -0.1410 
 23 C       -4.8000   -10.0810     0.8330 C.2   1 <1>  -0.1500 
 24 C       -6.1570   -10.4340     0.9920 C.2   1 <1>  -0.1500 
 25 H       -0.8840    -3.2860     0.8640 H     1 <1>   0.3700 
 26 H        0.3760     2.1490     0.4950 H     1 <1>   0.0800 
 27 H       -1.0700     2.2230     1.4640 H     1 <1>   0.0800 
 28 H       -2.3130     3.1630    -0.4660 H     1 <1>   0.0800 
 29 H       -0.8680     3.0900    -1.4320 H     1 <1>   0.0800 
 30 H       -1.0830    -5.5260     0.5720 H     1 <1>   0.0800 
 31 H       -1.4150    -6.1270    -1.0130 H     1 <1>   0.0800 
 32 H       -1.2050     4.7670     1.0810 H     1 <1>   0.0800 
 33 H       -1.2160     5.3690    -0.5580 H     1 <1>   0.0800 
 34 H        0.2500     4.6940     0.1080 H     1 <1>   0.0800 
 35 H       -3.6280    -6.4580    -1.7590 H     1 <1>   0.0800 
 36 H       -4.3120    -4.9520    -1.2190 H     1 <1>   0.0800 
 37 H       -2.8820    -5.1660     2.1490 H     1 <1>   0.0800 
 38 H       -4.5150    -5.6080     1.7450 H     1 <1>   0.0800 
 39 H       -3.8200    -4.1470     1.0710 H     1 <1>   0.0800 
 40 H       -6.9890    -5.2980    -1.0970 H     1 <1>   0.1500 
 41 H       -3.4240    -8.5670     0.1950 H     1 <1>   0.1500 
 42 H       -8.5120    -7.2130    -0.2810 H     1 <1>   0.4500 
 43 H       -8.1660    -9.7530     0.7360 H     1 <1>   0.1500 
 44 H       -4.0430   -10.7880     1.1260 H     1 <1>   0.1500 
 45 H       -6.4060   -11.4020     1.3980 H     1 <1>   0.1500 
@<TRIPOS>BOND
  1   1   2  1   
  2   1   3  1   
  3   2   4  2   
  4   2   5  1   
  5   3   6  2   
  6   3   7  1   
  7   4   6  1   
  8   5   8  am  
  9   5  25  1   
 10   7   9  1   
 11   7  26  1   
 12   7  27  1   
 13   8  10  2   
 14   8  11  1   
 15   9  12  1   
 16   9  28  1   
 17   9  29  1   
 18  11  13  1   
 19  11  30  1   
 20  11  31  1   
 21  12  32  1   
 22  12  33  1   
 23  12  34  1   
 24  13  14  1   
 25  13  15  1   
 26  14  16  1   
 27  14  35  1   
 28  14  36  1   
 29  15  37  1   
 30  15  38  1   
 31  15  39  1   
 32  16  17  1   
 33  16  18  2   
 34  17  19  ar  
 35  17  20  1   
 36  18  21  1   
 37  18  40  1   
 38  19  21  ar  
 39  19  22  1   
 40  20  23  2   
 41  20  41  1   
 42  21  42  1   
 43  22  24  2   
 44  22  43  1   
 45  23  24  1   
 46  23  44  1   
 47  24  45  1   
@<TRIPOS>SUBSTRUCTURE
  1 ****  15 GROUP 4 **** **** 0

# MOE 2024.06 (io_trps.svl 2023.06)
