@<TRIPOS>MOLECULE
NONAME
53 56 1 0 0 
SMALL
USER_CHARGES


@<TRIPOS>ATOM
  1 F       -6.5180    -1.8140    -1.5140 F     1 <1>  -0.1900 
  2 C       -6.0970    -0.7170    -0.9470 C.ar  1 <1>   0.1900 
  3 C       -5.8190     0.3810    -1.7370 C.ar  1 <1>  -0.1500 
  4 C       -5.9490    -0.6900     0.4260 C.ar  1 <1>  -0.1500 
  5 C       -5.3860     1.5430    -1.1240 C.ar  1 <1>  -0.1500 
  6 C       -5.5150     0.4810     1.0220 C.ar  1 <1>  -0.1500 
  7 C       -5.2340     1.6170     0.2620 C.ar  1 <1>   0.0000 
  8 C       -4.8010     2.8420     0.8990 C.ar  1 <1>   0.0000 
  9 C       -5.5260     4.0400     0.7700 C.ar  1 <1>   0.0860 
 10 C       -3.6330     2.8420     1.6560 C.ar  1 <1>  -0.1500 
 11 C       -6.7600     4.1020     0.0150 C.2   1 <1>   0.5440 
 12 C       -5.0380     5.1900     1.3880 C.ar  1 <1>  -0.1500 
 13 C       -3.1730     3.9900     2.2720 C.ar  1 <1>  -0.1500 
 14 O       -6.7860     4.7430    -1.0200 O.2   1 <1>  -0.5700 
 15 N       -7.9010     3.4480     0.4360 N.am  1 <1>  -0.6600 
 16 C       -3.8770     5.1710     2.1350 C.ar  1 <1>  -0.1500 
 17 C       -8.9770     3.1260    -0.5480 C.3   1 <1>   0.2200 
 18 C       -8.0440     2.9620     1.8420 C.3   1 <1>   0.0600 
 19 C       -9.3730     1.6520    -0.5670 C.3   1 <1>  -0.1600 
 20 C      -10.2810     3.8690    -0.2820 C.3   1 <1>  -0.1600 
 21 C      -10.7460     1.6390    -1.2490 C.3   1 <1>  -0.0800 
 22 C      -11.3500     3.0450    -1.0150 C.3   1 <1>  -0.0800 
 23 C      -11.6250     0.4600    -0.7880 C.3   1 <1>   0.1400 
 24 C      -12.7050     3.0200    -0.2860 C.3   1 <1>  -0.0990 
 25 N      -13.0500     0.7210    -1.1140 N.am  1 <1>  -0.6600 
 26 C      -13.6030     1.9480    -0.8700 C.2   1 <1>   0.5690 
 27 C      -13.8330    -0.4190    -1.6590 C.3   1 <1>   0.0600 
 28 O      -14.7620     2.2100    -1.0890 O.2   1 <1>  -0.5700 
 29 H       -5.9400     0.3250    -2.8030 H     1 <1>   0.1500 
 30 H       -6.1680    -1.5670     1.0090 H     1 <1>   0.1500 
 31 H       -5.1680     2.4110    -1.7250 H     1 <1>   0.1500 
 32 H       -5.3940     0.5200     2.0910 H     1 <1>   0.1500 
 33 H       -3.0730     1.9290     1.7570 H     1 <1>   0.1500 
 34 H       -5.5850     6.1100     1.2720 H     1 <1>   0.1500 
 35 H       -2.2660     3.9680     2.8520 H     1 <1>   0.1500 
 36 H       -3.5200     6.0710     2.6050 H     1 <1>   0.1500 
 37 H       -8.6500     3.3820    -1.5430 H     1 <1>   0.0800 
 38 H       -9.0590     3.0690     2.1790 H     1 <1>   0.0800 
 39 H       -7.4120     3.5290     2.5030 H     1 <1>   0.0800 
 40 H       -7.7650     1.9250     1.8980 H     1 <1>   0.0800 
 41 H       -8.6550     1.0630    -1.1090 H     1 <1>   0.0800 
 42 H       -9.4680     1.2730     0.4330 H     1 <1>   0.0800 
 43 H      -10.4910     3.8940     0.7700 H     1 <1>   0.0800 
 44 H      -10.2310     4.8750    -0.6580 H     1 <1>   0.0800 
 45 H      -10.5860     1.5290    -2.3080 H     1 <1>   0.0800 
 46 H      -11.5100     3.4860    -1.9860 H     1 <1>   0.0800 
 47 H      -11.5450     0.3300     0.2770 H     1 <1>   0.0800 
 48 H      -11.2930    -0.4460    -1.2650 H     1 <1>   0.0800 
 49 H      -13.1860     3.9770    -0.3680 H     1 <1>   0.0800 
 50 H      -12.5690     2.7990     0.7560 H     1 <1>   0.0800 
 51 H      -13.8230    -1.2350    -0.9580 H     1 <1>   0.0800 
 52 H      -13.4040    -0.7420    -2.5910 H     1 <1>   0.0800 
 53 H      -14.8540    -0.1270    -1.8340 H     1 <1>   0.0800 
@<TRIPOS>BOND
  1   1   2  1   
  2   2   3  ar  
  3   2   4  ar  
  4   3   5  ar  
  5   3  29  1   
  6   4   6  ar  
  7   4  30  1   
  8   5   7  ar  
  9   5  31  1   
 10   6   7  ar  
 11   6  32  1   
 12   7   8  1   
 13   8   9  ar  
 14   8  10  ar  
 15   9  11  1   
 16   9  12  ar  
 17  10  13  ar  
 18  10  33  1   
 19  11  14  2   
 20  11  15  am  
 21  12  16  ar  
 22  12  34  1   
 23  13  16  ar  
 24  13  35  1   
 25  15  17  1   
 26  15  18  1   
 27  16  36  1   
 28  17  19  1   
 29  17  20  1   
 30  17  37  1   
 31  18  38  1   
 32  18  39  1   
 33  18  40  1   
 34  19  21  1   
 35  19  41  1   
 36  19  42  1   
 37  20  22  1   
 38  20  43  1   
 39  20  44  1   
 40  21  22  1   
 41  21  23  1   
 42  21  45  1   
 43  22  24  1   
 44  22  46  1   
 45  23  25  1   
 46  23  47  1   
 47  23  48  1   
 48  24  26  1   
 49  24  49  1   
 50  24  50  1   
 51  25  26  am  
 52  25  27  1   
 53  26  28  2   
 54  27  51  1   
 55  27  52  1   
 56  27  53  1   
@<TRIPOS>SUBSTRUCTURE
  1 ****  17 GROUP 4 **** **** 0

# MOE 2024.06 (io_trps.svl 2023.06)
