@<TRIPOS>MOLECULE
NONAME
42 45 1 0 0 
SMALL
USER_CHARGES


@<TRIPOS>ATOM
  1 O       -0.6520     0.2480    -0.2990 O.2   1 <1>  -0.5700 
  2 C       -1.6980     0.8820    -0.2340 C.2   1 <1>   0.7160 
  3 N       -2.8560     0.1810     0.0130 N.am  1 <1>  -0.6600 
  4 C       -1.6460     2.3350    -0.4070 C.2   1 <1>   0.2030 
  5 C       -4.1750     0.8000     0.3250 C.3   1 <1>   0.2350 
  6 C       -2.8560    -1.2570     0.4020 C.3   1 <1>   0.2350 
  7 N       -2.6140     3.1560    -0.7870 N.2   1 <1>  -0.7070 
  8 C       -0.4780     3.0710    -0.1810 C.2   1 <1>  -0.1500 
  9 C       -5.1280    -0.3600     0.5580 C.3   1 <1>  -0.2420 
 10 C       -4.3140    -1.6320     0.5950 C.3   1 <1>  -0.2420 
 11 N       -2.0670     4.3760    -0.7820 N.pl3 1 <1>   0.3000 
 12 C       -0.7650     4.3730    -0.4200 C.2   1 <1>  -0.2050 
 13 C       -6.3470     0.0900     1.3700 C.2   1 <1>   0.9470 
 14 C       -5.3110    -1.4050    -0.5110 C.3   1 <1>  -0.2000 
 15 C       -4.4390    -2.8990     1.4460 C.2   1 <1>   0.9470 
 16 C        0.0630     5.5510    -0.3420 C.ar  1 <1>   0.0530 
 17 O       -7.4840    -0.0570     0.9010 O.co2 1 <1>  -0.9000 
 18 O       -6.1670     0.7390     2.4110 O.co2 1 <1>  -0.9000 
 19 O       -4.9690    -3.9090     0.9610 O.co2 1 <1>  -0.9000 
 20 O       -3.8640    -2.9470     2.5420 O.co2 1 <1>  -0.9000 
 21 C       -0.4600     6.7870     0.0280 C.ar  1 <1>  -0.1500 
 22 C        1.4210     5.4830    -0.6380 C.ar  1 <1>  -0.1500 
 23 C        0.3320     7.9190     0.0920 C.ar  1 <1>   0.0820 
 24 C        2.2260     6.6070    -0.5750 C.ar  1 <1>  -0.1500 
 25 O       -0.2840     9.0710     0.4580 O.3   1 <1>  -0.3630 
 26 C        1.6870     7.8280    -0.2130 C.ar  1 <1>  -0.1500 
 27 C        0.4350    10.2770     0.5860 C.3   1 <1>   0.0400 
 28 H       -4.0880     1.4030     1.2130 H     1 <1>   0.0800 
 29 H       -4.5230     1.4060    -0.4930 H     1 <1>   0.0800 
 30 H       -2.4030    -1.8620    -0.3630 H     1 <1>   0.0800 
 31 H       -2.3140    -1.3760     1.3260 H     1 <1>   0.0800 
 32 H        0.4570     2.6420     0.1310 H     1 <1>   0.1500 
 33 H       -2.5970     5.2160    -1.0420 H     1 <1>   0.2700 
 34 H       -4.9610    -1.2130    -1.5080 H     1 <1>   0.1000 
 35 H       -6.2190    -1.9860    -0.4960 H     1 <1>   0.1000 
 36 H       -1.4980     6.8810     0.2830 H     1 <1>   0.1500 
 37 H        1.8490     4.5390    -0.9250 H     1 <1>   0.1500 
 38 H        3.2740     6.5290    -0.8100 H     1 <1>   0.1500 
 39 H        2.3300     8.6860    -0.1730 H     1 <1>   0.1500 
 40 H       -0.2520    11.0440     0.8940 H     1 <1>   0.0800 
 41 H        0.8630    10.5320    -0.3680 H     1 <1>   0.0800 
 42 H        1.2000    10.1500     1.3310 H     1 <1>   0.0800 
@<TRIPOS>BOND
  1   1   2  2   
  2   2   3  am  
  3   2   4  1   
  4   3   5  1   
  5   3   6  1   
  6   4   7  2   
  7   4   8  1   
  8   5   9  1   
  9   5  28  1   
 10   5  29  1   
 11   6  10  1   
 12   6  30  1   
 13   6  31  1   
 14   7  11  1   
 15   8  12  2   
 16   8  32  1   
 17   9  10  1   
 18   9  13  1   
 19   9  14  1   
 20  10  14  1   
 21  10  15  1   
 22  11  12  1   
 23  11  33  1   
 24  12  16  1   
 25  13  17  ar  
 26  13  18  ar  
 27  14  34  1   
 28  14  35  1   
 29  15  19  ar  
 30  15  20  ar  
 31  16  21  ar  
 32  16  22  ar  
 33  21  23  ar  
 34  21  36  1   
 35  22  24  ar  
 36  22  37  1   
 37  23  25  1   
 38  23  26  ar  
 39  24  26  ar  
 40  24  38  1   
 41  25  27  1   
 42  26  39  1   
 43  27  40  1   
 44  27  41  1   
 45  27  42  1   
@<TRIPOS>SUBSTRUCTURE
  1 ****   4 GROUP 4 **** **** 0

# MOE 2024.06 (io_trps.svl 2023.06)
