@<TRIPOS>MOLECULE
NONAME
52 55 1 0 0 
SMALL
USER_CHARGES


@<TRIPOS>ATOM
  1 O       -1.1370    -0.2360     1.1230 O.2   1 <1>  -0.5700 
  2 C       -1.7060     0.6890     0.5690 C.2   1 <1>   0.5440 
  3 N       -2.9200     0.4210    -0.0280 N.am  1 <1>  -0.6600 
  4 C       -1.1520     2.0310     0.6000 C.ar  1 <1>   0.0860 
  5 C       -3.2630    -0.9670    -0.4250 C.3   1 <1>   0.1400 
  6 C       -4.1090     1.2370     0.3600 C.3   1 <1>   0.1400 
  7 C       -1.4070     2.9480    -0.4110 C.ar  1 <1>  -0.1500 
  8 C       -0.3310     2.4420     1.6730 C.ar  1 <1>  -0.1500 
  9 C       -4.4180    -1.3810     0.5080 C.3   1 <1>   0.4230 
 10 C       -5.4510     0.5600    -0.0680 C.3   1 <1>  -0.1600 
 11 C       -0.8910     4.2350    -0.3420 C.ar  1 <1>   0.2270 
 12 C        0.1950     3.7110     1.7500 C.ar  1 <1>  -0.1500 
 13 N       -4.1170    -2.6180     1.3120 N.4   1 <1>  -0.9590 
 14 C       -5.8020    -1.0320    -0.2050 C.3   1 <1>   0.0000 
 15 N       -1.0430     5.2720    -1.2100 N.2   1 <1>  -0.5650 
 16 C       -0.1000     4.6110     0.7260 C.ar  1 <1>  -0.1520 
 17 C       -4.2000    -3.8100     0.4920 C.3   1 <1>   0.3430 
 18 C       -2.8180    -2.5250     2.0610 C.3   1 <1>   0.2630 
 19 C       -6.2160    -2.5820    -0.4470 C.3   1 <1>  -0.1600 
 20 C       -7.2080    -0.6000    -0.8660 C.3   1 <1>   0.1200 
 21 C       -0.3650     6.2310    -0.6860 C.2   1 <1>   0.0060 
 22 N        0.2340     5.9020     0.4880 N.pl3 1 <1>   0.0330 
 23 C       -5.6670    -3.8730     0.1990 C.3   1 <1>  -0.1600 
 24 O       -8.1560    -0.5260     0.1520 O.3   1 <1>  -0.6800 
 25 C       -0.2350     7.6060    -1.3040 C.3   1 <1>  -0.0600 
 26 H       -3.5860    -0.9670    -1.4520 H     1 <1>   0.0800 
 27 H       -2.4090    -1.6150    -0.3520 H     1 <1>   0.0800 
 28 H       -4.1010     1.3720     1.4300 H     1 <1>   0.0800 
 29 H       -4.0390     2.2170    -0.0850 H     1 <1>   0.0800 
 30 H       -2.0010     2.6910    -1.2670 H     1 <1>   0.1500 
 31 H       -0.1140     1.7290     2.4510 H     1 <1>   0.1500 
 32 H       -4.3850    -0.6790     1.3200 H     1 <1>   0.0800 
 33 H       -6.1990     1.0490     0.5380 H     1 <1>   0.0800 
 34 H       -5.5060     0.9930    -1.0550 H     1 <1>   0.0800 
 35 H        0.8190     4.0100     2.5740 H     1 <1>   0.1500 
 36 H       -4.8750    -2.6840     2.0050 H     1 <1>   0.4500 
 37 H       -3.6180    -3.7090    -0.4100 H     1 <1>   0.0800 
 38 H       -3.8840    -4.6850     1.0380 H     1 <1>   0.0800 
 39 H       -1.9820    -2.5280     1.3800 H     1 <1>   0.0800 
 40 H       -2.7120    -3.3570     2.7370 H     1 <1>   0.0800 
 41 H       -2.7790    -1.6100     2.6300 H     1 <1>   0.0800 
 42 H       -7.2690    -2.7590    -0.2720 H     1 <1>   0.0800 
 43 H       -6.0600    -2.7470    -1.5030 H     1 <1>   0.0800 
 44 H       -7.5930    -1.2710    -1.6200 H     1 <1>   0.0800 
 45 H       -7.2690     0.3430    -1.3820 H     1 <1>   0.0800 
 46 H        0.8200     6.5010     1.0730 H     1 <1>   0.2700 
 47 H       -5.8580    -4.7090    -0.4530 H     1 <1>   0.0800 
 48 H       -6.1970    -4.0730     1.1150 H     1 <1>   0.0800 
 49 H       -9.0370    -0.2810    -0.2000 H     1 <1>   0.4000 
 50 H       -0.7880     7.6440    -2.2260 H     1 <1>   0.0800 
 51 H        0.7970     7.8210    -1.5140 H     1 <1>   0.0800 
 52 H       -0.6280     8.3510    -0.6370 H     1 <1>   0.0800 
@<TRIPOS>BOND
  1   1   2  2   
  2   2   3  am  
  3   2   4  1   
  4   3   5  1   
  5   3   6  1   
  6   4   7  ar  
  7   4   8  ar  
  8   5   9  1   
  9   5  26  1   
 10   5  27  1   
 11   6  10  1   
 12   6  28  1   
 13   6  29  1   
 14   7  11  ar  
 15   7  30  1   
 16   8  12  ar  
 17   8  31  1   
 18   9  13  1   
 19   9  14  1   
 20   9  32  1   
 21  10  14  1   
 22  10  33  1   
 23  10  34  1   
 24  11  15  1   
 25  11  16  ar  
 26  12  16  ar  
 27  12  35  1   
 28  13  17  1   
 29  13  18  1   
 30  13  36  1   
 31  14  19  1   
 32  14  20  1   
 33  15  21  2   
 34  16  22  1   
 35  17  23  1   
 36  17  37  1   
 37  17  38  1   
 38  18  39  1   
 39  18  40  1   
 40  18  41  1   
 41  19  23  1   
 42  19  42  1   
 43  19  43  1   
 44  20  24  1   
 45  20  44  1   
 46  20  45  1   
 47  21  22  1   
 48  21  25  1   
 49  22  46  1   
 50  23  47  1   
 51  23  48  1   
 52  24  49  1   
 53  25  50  1   
 54  25  51  1   
 55  25  52  1   
@<TRIPOS>SUBSTRUCTURE
  1 ****   3 GROUP 4 **** **** 0

# MOE 2024.06 (io_trps.svl 2023.06)
