@<TRIPOS>MOLECULE
NONAME
41 42 1 0 0 
SMALL
USER_CHARGES


@<TRIPOS>ATOM
  1 O        0.8350     2.0400     1.8050 O.co2 1 <1>  -0.9000 
  2 C        1.3830     0.9860     1.4520 C.2   1 <1>   0.9060 
  3 O        1.2990    -0.0370     2.1480 O.co2 1 <1>  -0.9000 
  4 C        2.2010     0.9400     0.1440 C.3   1 <1>  -0.1060 
  5 C        3.4100     0.0050     0.4040 C.3   1 <1>   0.2000 
  6 C        2.7500     2.3500    -0.2260 C.3   1 <1>  -0.1600 
  7 C        1.3300     0.3640    -1.0120 C.3   1 <1>  -0.1600 
  8 O        4.1810    -0.1280    -0.7510 O.3   1 <1>  -0.6800 
  9 C        4.3300     0.5770     1.5010 C.3   1 <1>   0.2090 
 10 C        3.7200     2.9100     0.8260 C.3   1 <1>   0.2090 
 11 C        0.0480     1.1580    -1.3170 C.3   1 <1>  -0.1600 
 12 N        4.8160     1.9460     1.1340 N.pl3 1 <1>  -0.8380 
 13 C       -0.7650     0.4830    -2.4250 C.3   1 <1>  -0.2400 
 14 C        6.0450     2.0750     0.5180 C.ar  1 <1>   0.4100 
 15 N        6.0290     2.1020    -0.8100 N.ar  1 <1>  -0.6200 
 16 C        7.2180     2.1520     1.2800 C.ar  1 <1>  -0.1440 
 17 C        7.2050     2.1990    -1.4020 C.ar  1 <1>   0.1600 
 18 C        8.4320     2.2530     0.6380 C.ar  1 <1>  -0.1500 
 19 C        7.1660     2.1300     2.8030 C.3   1 <1>  -0.0970 
 20 C        8.4170     2.2760    -0.7410 C.ar  1 <1>  -0.1500 
 21 H        3.0700    -0.9780     0.6830 H     1 <1>   0.0800 
 22 H        1.9350     3.0440    -0.3150 H     1 <1>   0.0800 
 23 H        3.2490     2.3180    -1.1770 H     1 <1>   0.0800 
 24 H        1.9210     0.3050    -1.9090 H     1 <1>   0.0800 
 25 H        1.0510    -0.6410    -0.7440 H     1 <1>   0.0800 
 26 H        4.7200     0.7050    -0.8120 H     1 <1>   0.4000 
 27 H        5.1650    -0.0860     1.6390 H     1 <1>   0.0800 
 28 H        3.7970     0.6310     2.4340 H     1 <1>   0.0800 
 29 H        3.1810     3.1230     1.7340 H     1 <1>   0.0800 
 30 H        4.1440     3.8320     0.4680 H     1 <1>   0.0800 
 31 H       -0.5570     1.2270    -0.4280 H     1 <1>   0.0800 
 32 H        0.2980     2.1570    -1.6250 H     1 <1>   0.0800 
 33 H       -1.0510    -0.5090    -2.1230 H     1 <1>   0.0800 
 34 H       -0.1840     0.4190    -3.3290 H     1 <1>   0.0800 
 35 H       -1.6550     1.0520    -2.6240 H     1 <1>   0.0800 
 36 H        7.2020     2.2170    -2.4770 H     1 <1>   0.1500 
 37 H        9.3590     2.3130     1.1810 H     1 <1>   0.1500 
 38 H        8.1280     2.3480     3.2290 H     1 <1>   0.0800 
 39 H        6.8460     1.1620     3.1410 H     1 <1>   0.0800 
 40 H        6.4610     2.8640     3.1510 H     1 <1>   0.0800 
 41 H        9.3330     2.3520    -1.2970 H     1 <1>   0.1500 
@<TRIPOS>BOND
  1   1   2  ar  
  2   2   3  ar  
  3   2   4  1   
  4   4   5  1   
  5   4   6  1   
  6   4   7  1   
  7   5   8  1   
  8   5   9  1   
  9   5  21  1   
 10   6  10  1   
 11   6  22  1   
 12   6  23  1   
 13   7  11  1   
 14   7  24  1   
 15   7  25  1   
 16   8  26  1   
 17   9  12  1   
 18   9  27  1   
 19   9  28  1   
 20  10  12  1   
 21  10  29  1   
 22  10  30  1   
 23  11  13  1   
 24  11  31  1   
 25  11  32  1   
 26  12  14  1   
 27  13  33  1   
 28  13  34  1   
 29  13  35  1   
 30  14  15  ar  
 31  14  16  ar  
 32  15  17  ar  
 33  16  18  ar  
 34  16  19  1   
 35  17  20  ar  
 36  17  36  1   
 37  18  20  ar  
 38  18  37  1   
 39  19  38  1   
 40  19  39  1   
 41  19  40  1   
 42  20  41  1   
@<TRIPOS>SUBSTRUCTURE
  1 ****  12 GROUP 4 **** **** 0

# MOE 2024.06 (io_trps.svl 2023.06)
