@<TRIPOS>MOLECULE
NONAME
44 45 1 0 0 
SMALL
USER_CHARGES


@<TRIPOS>ATOM
  1 S        0.6390     0.0850     0.7050 S.o2  1 <1>   1.3330 
  2 O        0.5650     0.8990     1.8970 O.2   1 <1>  -0.6500 
  3 O        0.7750    -1.3500     0.8290 O.2   1 <1>  -0.6500 
  4 N       -0.7430     0.3900    -0.2330 N.am  1 <1>  -0.8490 
  5 C        1.9730     0.7080    -0.3150 C.3   1 <1>  -0.0550 
  6 C       -1.9470     0.5420     0.5890 C.3   1 <1>   0.1160 
  7 C       -0.9740    -0.6110    -1.2790 C.3   1 <1>   0.1160 
  8 C        3.3450     0.6610     0.3800 C.3   1 <1>  -0.0800 
  9 C        4.4620     1.1610    -0.5160 C.3   1 <1>   0.2200 
 10 C        3.8330    -0.7330     0.7510 C.3   1 <1>   0.1200 
 11 N        4.6340     2.6210    -0.3560 N.am  1 <1>  -0.7300 
 12 C        5.6810     0.3550    -0.0670 C.3   1 <1>   0.1200 
 13 O        5.2190    -0.6220     0.8190 O.3   1 <1>  -0.5600 
 14 C        4.0960     3.5720    -1.1750 C.2   1 <1>   0.5440 
 15 O        3.4370     3.1770    -2.1190 O.2   1 <1>  -0.5700 
 16 C        4.2600     4.9990    -0.9380 C.ar  1 <1>   0.0860 
 17 C        5.1620     5.5570    -0.0230 C.ar  1 <1>   0.1900 
 18 C        3.4800     5.9170    -1.6490 C.ar  1 <1>  -0.1500 
 19 F        5.9360     4.7710     0.6800 F     1 <1>  -0.1900 
 20 C        5.2960     6.9230     0.1910 C.ar  1 <1>  -0.1440 
 21 C        3.5920     7.2820    -1.4550 C.ar  1 <1>  -0.1500 
 22 C        4.4970     7.7860    -0.5380 C.ar  1 <1>  -0.1500 
 23 C        6.2940     7.4760     1.2000 C.3   1 <1>  -0.0970 
 24 H        2.0170     0.1480    -1.2270 H     1 <1>   0.0800 
 25 H        1.7590     1.7280    -0.5720 H     1 <1>   0.0800 
 26 H       -2.7990     0.7540    -0.0330 H     1 <1>   0.0800 
 27 H       -1.8220     1.3620     1.2760 H     1 <1>   0.0800 
 28 H       -2.1310    -0.3570     1.1530 H     1 <1>   0.0800 
 29 H       -1.8100    -0.3190    -1.8910 H     1 <1>   0.0800 
 30 H       -1.1800    -1.5740    -0.8400 H     1 <1>   0.0800 
 31 H       -0.1070    -0.6970    -1.9100 H     1 <1>   0.0800 
 32 H        3.3110     1.2440     1.2860 H     1 <1>   0.0800 
 33 H        4.2590     0.9240    -1.5480 H     1 <1>   0.0800 
 34 H        3.5950    -1.4550    -0.0120 H     1 <1>   0.0800 
 35 H        3.4570    -1.0660     1.7030 H     1 <1>   0.0800 
 36 H        5.1540     2.9230     0.4730 H     1 <1>   0.3700 
 37 H        6.4010     0.9620     0.4520 H     1 <1>   0.0800 
 38 H        6.1450    -0.1410    -0.9010 H     1 <1>   0.0800 
 39 H        2.7670     5.5510    -2.3700 H     1 <1>   0.1500 
 40 H        2.9730     7.9570    -2.0220 H     1 <1>   0.1500 
 41 H        4.5720     8.8510    -0.3990 H     1 <1>   0.1500 
 42 H        6.2730     8.5510     1.2170 H     1 <1>   0.0800 
 43 H        7.2900     7.1590     0.9440 H     1 <1>   0.0800 
 44 H        6.0600     7.1150     2.1850 H     1 <1>   0.0800 
@<TRIPOS>BOND
  1   1   2  2   
  2   1   3  2   
  3   1   4  am  
  4   1   5  1   
  5   4   6  1   
  6   4   7  1   
  7   5   8  1   
  8   5  24  1   
  9   5  25  1   
 10   6  26  1   
 11   6  27  1   
 12   6  28  1   
 13   7  29  1   
 14   7  30  1   
 15   7  31  1   
 16   8   9  1   
 17   8  10  1   
 18   8  32  1   
 19   9  11  1   
 20   9  12  1   
 21   9  33  1   
 22  10  13  1   
 23  10  34  1   
 24  10  35  1   
 25  11  14  am  
 26  11  36  1   
 27  12  13  1   
 28  12  37  1   
 29  12  38  1   
 30  14  15  2   
 31  14  16  1   
 32  16  17  ar  
 33  16  18  ar  
 34  17  19  1   
 35  17  20  ar  
 36  18  21  ar  
 37  18  39  1   
 38  20  22  ar  
 39  20  23  1   
 40  21  22  ar  
 41  21  40  1   
 42  22  41  1   
 43  23  42  1   
 44  23  43  1   
 45  23  44  1   
@<TRIPOS>SUBSTRUCTURE
  1 ****  11 GROUP 4 **** **** 0

# MOE 2024.06 (io_trps.svl 2023.06)
