@<TRIPOS>MOLECULE
NONAME
46 48 1 0 0 
SMALL
USER_CHARGES


@<TRIPOS>ATOM
  1 O       -4.0940    -1.1070    -1.6980 O.2   1 <1>  -0.5700 
  2 C       -3.4420    -0.4000    -0.9670 C.2   1 <1>   0.5690 
  3 N       -2.8740    -0.7840     0.1970 N.am  1 <1>  -0.6600 
  4 C       -3.1680     1.0520    -1.2400 C.3   1 <1>  -0.0990 
  5 C       -2.1620     0.3050     0.8820 C.3   1 <1>   0.1400 
  6 C       -2.9080    -2.1590     0.7380 C.3   1 <1>   0.1400 
  7 C       -2.5360     1.5560     0.0710 C.3   1 <1>  -0.1600 
  8 C       -4.1660    -2.3470     1.5830 C.3   1 <1>  -0.0990 
  9 C       -4.5180    -3.8160     1.6530 C.2   1 <1>   0.5690 
 10 O       -4.2210    -4.4240     2.6530 O.2   1 <1>  -0.5700 
 11 N       -5.1390    -4.4270     0.6000 N.am  1 <1>  -0.6600 
 12 C       -5.5820    -3.7960    -0.6760 C.3   1 <1>   0.1400 
 13 C       -5.4430    -5.8790     0.5830 C.3   1 <1>   0.1400 
 14 C       -6.5910    -4.7870    -1.2500 C.3   1 <1>   0.2000 
 15 C       -6.0500    -6.1480    -0.8000 C.3   1 <1>  -0.0800 
 16 O       -7.8170    -4.5550    -0.6410 O.3   1 <1>  -0.6800 
 17 C       -7.0710    -7.3010    -0.8190 C.3   1 <1>  -0.0170 
 18 C       -6.4120    -8.6200    -0.4450 C.ar  1 <1>  -0.1440 
 19 C       -6.4460    -9.1190     0.8420 C.ar  1 <1>  -0.1500 
 20 C       -5.7420    -9.3870    -1.3770 C.ar  1 <1>  -0.1500 
 21 C       -5.8240   -10.3230     1.1270 C.ar  1 <1>   0.1600 
 22 C       -5.1540   -10.5790    -0.9880 C.ar  1 <1>   0.1600 
 23 N       -5.1770   -11.0650     0.2420 N.ar  1 <1>  -0.6200 
 24 H       -2.4790     1.1280    -2.0600 H     1 <1>   0.0800 
 25 H       -4.0790     1.5720    -1.4720 H     1 <1>   0.0800 
 26 H       -2.4850     0.3880     1.9060 H     1 <1>   0.0800 
 27 H       -1.1010     0.1220     0.8420 H     1 <1>   0.0800 
 28 H       -2.9160    -2.8480    -0.0910 H     1 <1>   0.0800 
 29 H       -2.0260    -2.3560     1.3240 H     1 <1>   0.0800 
 30 H       -3.2600     2.1260     0.6270 H     1 <1>   0.0800 
 31 H       -1.6760     2.1760    -0.1100 H     1 <1>   0.0800 
 32 H       -4.9920    -1.8080     1.1610 H     1 <1>   0.0800 
 33 H       -3.9920    -1.9750     2.5750 H     1 <1>   0.0800 
 34 H       -6.0220    -2.8250    -0.5310 H     1 <1>   0.0800 
 35 H       -4.7390    -3.7090    -1.3390 H     1 <1>   0.0800 
 36 H       -4.5480    -6.4580     0.7420 H     1 <1>   0.0800 
 37 H       -6.1490    -6.0950     1.3660 H     1 <1>   0.0800 
 38 H       -6.7130    -4.7000    -2.3160 H     1 <1>   0.0800 
 39 H       -5.2390    -6.4070    -1.4580 H     1 <1>   0.0800 
 40 H       -7.6670    -4.4450     0.3200 H     1 <1>   0.4000 
 41 H       -7.4980    -7.3820    -1.8030 H     1 <1>   0.0800 
 42 H       -7.8780    -7.0990    -0.1360 H     1 <1>   0.0800 
 43 H       -6.9500    -8.5840     1.6260 H     1 <1>   0.1500 
 44 H       -5.6720    -9.0690    -2.4010 H     1 <1>   0.1500 
 45 H       -5.8600   -10.6950     2.1360 H     1 <1>   0.1500 
 46 H       -4.6360   -11.1640    -1.7290 H     1 <1>   0.1500 
@<TRIPOS>BOND
  1   1   2  2   
  2   2   3  am  
  3   2   4  1   
  4   3   5  1   
  5   3   6  1   
  6   4   7  1   
  7   4  24  1   
  8   4  25  1   
  9   5   7  1   
 10   5  26  1   
 11   5  27  1   
 12   6   8  1   
 13   6  28  1   
 14   6  29  1   
 15   7  30  1   
 16   7  31  1   
 17   8   9  1   
 18   8  32  1   
 19   8  33  1   
 20   9  10  2   
 21   9  11  am  
 22  11  12  1   
 23  11  13  1   
 24  12  14  1   
 25  12  34  1   
 26  12  35  1   
 27  13  15  1   
 28  13  36  1   
 29  13  37  1   
 30  14  15  1   
 31  14  16  1   
 32  14  38  1   
 33  15  17  1   
 34  15  39  1   
 35  16  40  1   
 36  17  18  1   
 37  17  41  1   
 38  17  42  1   
 39  18  19  ar  
 40  18  20  ar  
 41  19  21  ar  
 42  19  43  1   
 43  20  22  ar  
 44  20  44  1   
 45  21  23  ar  
 46  21  45  1   
 47  22  23  ar  
 48  22  46  1   
@<TRIPOS>SUBSTRUCTURE
  1 ****  11 GROUP 4 **** **** 0

# MOE 2024.06 (io_trps.svl 2023.06)
