@<TRIPOS>MOLECULE
NONAME
56 59 1 0 0 
SMALL
USER_CHARGES


@<TRIPOS>ATOM
  1 O        0.2590     0.8250    -1.1930 O.2   1 <1>  -0.5700 
  2 C       -0.2900     1.9020    -1.0500 C.2   1 <1>   0.7150 
  3 N       -1.6690     1.9520    -1.0460 N.am  1 <1>  -0.6600 
  4 C        0.5140     3.0700    -0.8380 C.2   1 <1>  -0.2370 
  5 C       -2.4740     3.1950    -0.8370 C.3   1 <1>   0.1400 
  6 C       -2.4800     0.6930    -1.0430 C.3   1 <1>   0.1400 
  7 N        1.4670     3.1540     0.1260 N.pl3 1 <1>   0.3140 
  8 C        0.5340     4.2790    -1.4650 C.2   1 <1>  -0.1500 
  9 C       -3.1460     3.1960     0.5540 C.3   1 <1>   0.1440 
 10 C       -3.7850     0.8500    -0.2400 C.3   1 <1>  -0.1600 
 11 N        2.0400     4.3690     0.1640 N.2   1 <1>  -0.7070 
 12 C        1.9210     2.0860     1.0490 C.3   1 <1>   0.0960 
 13 C        1.4790     5.0360    -0.7990 C.2   1 <1>   0.1080 
 14 C       -4.3030     4.1800     0.4980 C.ar  1 <1>   0.1660 
 15 C       -3.5900     1.7710     0.9780 C.3   1 <1>  -0.1600 
 16 C       -2.2260     3.8420     1.6230 C.3   1 <1>  -0.1600 
 17 C        0.9120     1.8320     2.1770 C.3   1 <1>  -0.2400 
 18 C        1.8480     6.4800    -1.1210 C.3   1 <1>   0.1010 
 19 N       -5.4580     3.9710    -0.0960 N.ar  1 <1>  -0.6200 
 20 C       -4.0010     5.3480     1.1320 C.ar  1 <1>  -0.1430 
 21 C       -2.6090     5.3290     1.7110 C.3   1 <1>  -0.0170 
 22 C        0.6460     7.4080    -0.9040 C.3   1 <1>  -0.2400 
 23 C        2.3780     6.6050    -2.5540 C.3   1 <1>  -0.2400 
 24 C       -6.3080     4.9850    -0.0160 C.ar  1 <1>   0.4770 
 25 C       -4.9560     6.3330     1.1530 C.ar  1 <1>   0.1600 
 26 N       -6.1270     6.1590     0.5750 N.ar  1 <1>  -0.6200 
 27 C       -7.6510     4.7850    -0.6750 C.3   1 <1>  -0.0970 
 28 H       -3.2370     3.2240    -1.5960 H     1 <1>   0.0800 
 29 H       -1.8880     4.0850    -0.9530 H     1 <1>   0.0800 
 30 H       -1.9010    -0.1000    -0.6010 H     1 <1>   0.0800 
 31 H       -2.7040     0.4110    -2.0580 H     1 <1>   0.0800 
 32 H       -0.0580     4.5990    -2.3030 H     1 <1>   0.1500 
 33 H       -4.1220    -0.1200     0.0800 H     1 <1>   0.0800 
 34 H       -4.5510     1.2580    -0.8770 H     1 <1>   0.0800 
 35 H        2.8620     2.3910     1.4710 H     1 <1>   0.0800 
 36 H        2.0880     1.1870     0.4840 H     1 <1>   0.0800 
 37 H       -4.5000     1.8240     1.5520 H     1 <1>   0.0800 
 38 H       -2.8340     1.3270     1.6030 H     1 <1>   0.0800 
 39 H       -1.1830     3.7210     1.3930 H     1 <1>   0.0800 
 40 H       -2.4180     3.3950     2.5820 H     1 <1>   0.0800 
 41 H        0.7490     2.7350     2.7370 H     1 <1>   0.0800 
 42 H        1.2990     1.0820     2.8430 H     1 <1>   0.0800 
 43 H       -0.0210     1.4780     1.7760 H     1 <1>   0.0800 
 44 H        2.6320     6.7760    -0.4440 H     1 <1>   0.0800 
 45 H       -1.9520     5.9270     1.1010 H     1 <1>   0.0800 
 46 H       -2.5910     5.6830     2.7270 H     1 <1>   0.0800 
 47 H       -0.1570     7.1520    -1.5710 H     1 <1>   0.0800 
 48 H        0.9300     8.4300    -1.0760 H     1 <1>   0.0800 
 49 H        0.2970     7.3150     0.1090 H     1 <1>   0.0800 
 50 H        1.6170     6.3390    -3.2660 H     1 <1>   0.0800 
 51 H        3.2170     5.9460    -2.6870 H     1 <1>   0.0800 
 52 H        2.6990     7.6120    -2.7470 H     1 <1>   0.0800 
 53 H       -4.7640     7.2720     1.6430 H     1 <1>   0.1500 
 54 H       -7.6520     3.8880    -1.2670 H     1 <1>   0.0800 
 55 H       -7.8690     5.6230    -1.3090 H     1 <1>   0.0800 
 56 H       -8.4090     4.7080     0.0820 H     1 <1>   0.0800 
@<TRIPOS>BOND
  1   1   2  2   
  2   2   3  am  
  3   2   4  1   
  4   3   5  1   
  5   3   6  1   
  6   4   7  1   
  7   4   8  2   
  8   5   9  1   
  9   5  28  1   
 10   5  29  1   
 11   6  10  1   
 12   6  30  1   
 13   6  31  1   
 14   7  11  1   
 15   7  12  1   
 16   8  13  1   
 17   8  32  1   
 18   9  14  1   
 19   9  15  1   
 20   9  16  1   
 21  10  15  1   
 22  10  33  1   
 23  10  34  1   
 24  11  13  2   
 25  12  17  1   
 26  12  35  1   
 27  12  36  1   
 28  13  18  1   
 29  14  19  ar  
 30  14  20  ar  
 31  15  37  1   
 32  15  38  1   
 33  16  21  1   
 34  16  39  1   
 35  16  40  1   
 36  17  41  1   
 37  17  42  1   
 38  17  43  1   
 39  18  22  1   
 40  18  23  1   
 41  18  44  1   
 42  19  24  ar  
 43  20  21  1   
 44  20  25  ar  
 45  21  45  1   
 46  21  46  1   
 47  22  47  1   
 48  22  48  1   
 49  22  49  1   
 50  23  50  1   
 51  23  51  1   
 52  23  52  1   
 53  24  26  ar  
 54  24  27  1   
 55  25  26  ar  
 56  25  53  1   
 57  27  54  1   
 58  27  55  1   
 59  27  56  1   
@<TRIPOS>SUBSTRUCTURE
  1 ****   5 GROUP 4 **** **** 0

# MOE 2024.06 (io_trps.svl 2023.06)
