@<TRIPOS>MOLECULE
NONAME
45 47 1 0 0 
SMALL
USER_CHARGES


@<TRIPOS>ATOM
  1 S        0.1590    -0.0640    -1.6180 S.o2  1 <1>   1.4470 
  2 O       -0.7340     0.8620    -2.2830 O.2   1 <1>  -0.6500 
  3 O        0.9330    -1.0040    -2.4000 O.2   1 <1>  -0.6500 
  4 N       -0.7570    -0.9300    -0.4860 N.am  1 <1>  -0.8490 
  5 C        1.3010     0.8430    -0.5430 C.ar  1 <1>  -0.0090 
  6 C       -1.4190    -2.1140    -1.0740 C.3   1 <1>   0.1960 
  7 C       -1.7310    -0.0850     0.2080 C.3   1 <1>   0.1960 
  8 C        1.3990     2.2210    -0.5870 C.ar  1 <1>  -0.1500 
  9 C        2.1090     0.1390     0.3690 C.ar  1 <1>  -0.1500 
 10 C       -2.0060    -3.0200     0.0270 C.3   1 <1>  -0.1060 
 11 C       -2.3950    -0.8570     1.3480 C.3   1 <1>  -0.1600 
 12 C        2.2780     2.8880     0.2620 C.ar  1 <1>   0.2270 
 13 C        2.9870     0.7830     1.2120 C.ar  1 <1>  -0.1500 
 14 C       -2.8220    -4.1380    -0.6240 C.2   1 <1>   0.9060 
 15 C       -3.0070    -2.1520     0.8180 C.3   1 <1>   0.2000 
 16 C       -0.8770    -3.6110     0.9350 C.3   1 <1>  -0.1600 
 17 N        2.5180     4.2220     0.3820 N.2   1 <1>  -0.5650 
 18 C        3.0610     2.1730     1.1470 C.ar  1 <1>  -0.1520 
 19 O       -2.7920    -4.2910    -1.8500 O.co2 1 <1>  -0.9000 
 20 O       -3.5360    -4.8470     0.1020 O.co2 1 <1>  -0.9000 
 21 O       -3.5240    -2.8610     1.8830 O.3   1 <1>  -0.6800 
 22 C        0.1580    -4.4730     0.1910 C.3   1 <1>  -0.1600 
 23 C        3.4140     4.3010     1.3030 C.2   1 <1>   0.0360 
 24 N        3.7920     3.1020     1.8120 N.pl3 1 <1>   0.0330 
 25 C        1.1640    -5.0850     1.1690 C.3   1 <1>  -0.2400 
 26 H       -2.2030    -1.7950    -1.7430 H     1 <1>   0.0800 
 27 H       -0.7220    -2.6830    -1.6660 H     1 <1>   0.0800 
 28 H       -1.2400     0.7830     0.6150 H     1 <1>   0.0800 
 29 H       -2.4840     0.2500    -0.4880 H     1 <1>   0.0800 
 30 H        0.8060     2.8050    -1.2670 H     1 <1>   0.1500 
 31 H        2.0240    -0.9360     0.3960 H     1 <1>   0.1500 
 32 H       -3.1680    -0.2520     1.7840 H     1 <1>   0.0800 
 33 H       -1.6640    -1.0710     2.1060 H     1 <1>   0.0800 
 34 H        3.6000     0.2320     1.9050 H     1 <1>   0.1500 
 35 H       -3.8370    -1.9120     0.1740 H     1 <1>   0.0800 
 36 H       -0.3580    -2.8160     1.4360 H     1 <1>   0.0800 
 37 H       -1.3360    -4.2220     1.6930 H     1 <1>   0.0800 
 38 H       -3.7230    -3.7720     1.5170 H     1 <1>   0.4000 
 39 H       -0.3440    -5.2650    -0.3410 H     1 <1>   0.0800 
 40 H        0.6940    -3.8760    -0.5260 H     1 <1>   0.0800 
 41 H        3.8410     5.2250     1.6550 H     1 <1>   0.1500 
 42 H        4.4860     2.9280     2.5440 H     1 <1>   0.2700 
 43 H        0.6560    -5.7120     1.8800 H     1 <1>   0.0800 
 44 H        1.6890    -4.3110     1.6990 H     1 <1>   0.0800 
 45 H        1.8790    -5.6830     0.6320 H     1 <1>   0.0800 
@<TRIPOS>BOND
  1   1   2  2   
  2   1   3  2   
  3   1   4  am  
  4   1   5  1   
  5   4   6  1   
  6   4   7  1   
  7   5   8  ar  
  8   5   9  ar  
  9   6  10  1   
 10   6  26  1   
 11   6  27  1   
 12   7  11  1   
 13   7  28  1   
 14   7  29  1   
 15   8  12  ar  
 16   8  30  1   
 17   9  13  ar  
 18   9  31  1   
 19  10  14  1   
 20  10  15  1   
 21  10  16  1   
 22  11  15  1   
 23  11  32  1   
 24  11  33  1   
 25  12  17  1   
 26  12  18  ar  
 27  13  18  ar  
 28  13  34  1   
 29  14  19  ar  
 30  14  20  ar  
 31  15  21  1   
 32  15  35  1   
 33  16  22  1   
 34  16  36  1   
 35  16  37  1   
 36  17  23  2   
 37  18  24  1   
 38  21  38  1   
 39  22  25  1   
 40  22  39  1   
 41  22  40  1   
 42  23  24  1   
 43  23  41  1   
 44  24  42  1   
 45  25  43  1   
 46  25  44  1   
 47  25  45  1   
@<TRIPOS>SUBSTRUCTURE
  1 ****   4 GROUP 4 **** **** 0

# MOE 2024.06 (io_trps.svl 2023.06)
