@<TRIPOS>MOLECULE
NONAME
41 42 1 0 0 
SMALL
USER_CHARGES


@<TRIPOS>ATOM
  1 CL       4.0180     3.3280     4.9590 Cl    1 <1>  -0.1770 
  2 C        3.7930     3.0560     3.2450 C.ar  1 <1>   0.1770 
  3 C        3.6190     1.7770     2.7430 C.ar  1 <1>   0.1900 
  4 C        3.7910     4.1370     2.3850 C.ar  1 <1>  -0.1500 
  5 F        3.6210     0.7490     3.5530 F     1 <1>  -0.1900 
  6 C        3.4420     1.5520     1.3900 C.ar  1 <1>  -0.1500 
  7 C        3.6140     3.9320     1.0230 C.ar  1 <1>   0.0830 
  8 C        3.4390     2.6370     0.5260 C.ar  1 <1>  -0.1500 
  9 O        3.6240     5.0400     0.2410 O.3   1 <1>  -0.3630 
 10 C        3.4540     4.9550    -1.1690 C.3   1 <1>   0.1810 
 11 C        3.5040     6.3310    -1.8230 C.2   1 <1>   0.5690 
 12 O        3.4640     6.4000    -3.0280 O.2   1 <1>  -0.5700 
 13 N        3.5930     7.4450    -1.0500 N.am  1 <1>  -0.7300 
 14 C        3.6410     8.8390    -1.5460 C.3   1 <1>   0.2200 
 15 C        4.9830     9.4770    -1.1420 C.3   1 <1>   0.1400 
 16 C        2.5730     9.6560    -0.8090 C.3   1 <1>  -0.0990 
 17 N        4.6740    10.1600     0.1280 N.am  1 <1>  -0.6600 
 18 C        3.3410    10.2610     0.3320 C.2   1 <1>   0.5690 
 19 C        5.7440    10.6360     1.0450 C.3   1 <1>   0.1400 
 20 O        2.8100    10.7720     1.2860 O.2   1 <1>  -0.5700 
 21 C        5.7350    12.1620     1.1410 C.3   1 <1>   0.1200 
 22 O        6.8650    12.5680     1.8480 O.3   1 <1>  -0.5600 
 23 C        6.9200    13.9380     2.0770 C.3   1 <1>   0.0400 
 24 H        3.9250     5.1310     2.7690 H     1 <1>   0.1500 
 25 H        3.3090     0.5480     1.0260 H     1 <1>   0.1500 
 26 H        3.3010     2.4520    -0.5230 H     1 <1>   0.1500 
 27 H        2.5000     4.5040    -1.3720 H     1 <1>   0.0800 
 28 H        4.2430     4.3460    -1.5710 H     1 <1>   0.0800 
 29 H        3.6570     7.3250    -0.0340 H     1 <1>   0.3700 
 30 H        3.5000     8.8580    -2.6140 H     1 <1>   0.0800 
 31 H        5.2880    10.2080    -1.8710 H     1 <1>   0.0800 
 32 H        5.7540     8.7360    -1.0190 H     1 <1>   0.0800 
 33 H        1.7520     9.0560    -0.4640 H     1 <1>   0.0800 
 34 H        2.2100    10.4500    -1.4330 H     1 <1>   0.0800 
 35 H        6.7010    10.3060     0.6820 H     1 <1>   0.0800 
 36 H        5.5770    10.2210     2.0240 H     1 <1>   0.0800 
 37 H        4.8550    12.4930     1.6660 H     1 <1>   0.0800 
 38 H        5.7730    12.5990     0.1590 H     1 <1>   0.0800 
 39 H        7.8230    14.1510     2.6200 H     1 <1>   0.0800 
 40 H        6.0660    14.2340     2.6630 H     1 <1>   0.0800 
 41 H        6.9310    14.4570     1.1340 H     1 <1>   0.0800 
@<TRIPOS>BOND
  1   1   2  1   
  2   2   3  ar  
  3   2   4  ar  
  4   3   5  1   
  5   3   6  ar  
  6   4   7  ar  
  7   4  24  1   
  8   6   8  ar  
  9   6  25  1   
 10   7   8  ar  
 11   7   9  1   
 12   8  26  1   
 13   9  10  1   
 14  10  11  1   
 15  10  27  1   
 16  10  28  1   
 17  11  12  2   
 18  11  13  am  
 19  13  14  1   
 20  13  29  1   
 21  14  15  1   
 22  14  16  1   
 23  14  30  1   
 24  15  17  1   
 25  15  31  1   
 26  15  32  1   
 27  16  18  1   
 28  16  33  1   
 29  16  34  1   
 30  17  18  am  
 31  17  19  1   
 32  18  20  2   
 33  19  21  1   
 34  19  35  1   
 35  19  36  1   
 36  21  22  1   
 37  21  37  1   
 38  21  38  1   
 39  22  23  1   
 40  23  39  1   
 41  23  40  1   
 42  23  41  1   
@<TRIPOS>SUBSTRUCTURE
  1 ****  13 GROUP 4 **** **** 0

# MOE 2024.06 (io_trps.svl 2023.06)
