@<TRIPOS>MOLECULE
NONAME
51 54 1 0 0 
SMALL
USER_CHARGES


@<TRIPOS>ATOM
  1 S        0.4230     0.0480    -0.5570 S.o2  1 <1>   1.3330 
  2 O       -0.2520     0.1010    -1.8330 O.2   1 <1>  -0.6500 
  3 O        1.8600     0.2090    -0.5050 O.2   1 <1>  -0.6500 
  4 N        0.0230    -1.4120     0.2090 N.am  1 <1>  -0.8490 
  5 C       -0.3250     1.2900     0.4960 C.3   1 <1>  -0.0550 
  6 C        0.9070    -1.7460     1.3300 C.3   1 <1>   0.1160 
  7 C       -0.0350    -2.5330    -0.7330 C.3   1 <1>   0.1160 
  8 C       -0.2040     2.7170    -0.0800 C.3   1 <1>  -0.0800 
  9 C       -0.7750     3.8130     0.8130 C.3   1 <1>   0.2000 
 10 C        1.2380     3.1700    -0.3420 C.3   1 <1>   0.2090 
 11 O       -0.3230     3.6250     2.1110 O.3   1 <1>  -0.6800 
 12 C       -0.1180     5.0750     0.2600 C.3   1 <1>   0.2090 
 13 N        1.2660     4.6560    -0.1360 N.pl3 1 <1>  -0.8380 
 14 C        2.3970     5.4260    -0.1580 C.ar  1 <1>   0.1000 
 15 C        2.4100     6.8630    -0.1450 C.ar  1 <1>   0.0000 
 16 C        3.6470     4.7920    -0.1430 C.ar  1 <1>  -0.1500 
 17 C        3.6290     7.5300     0.1600 C.ar  1 <1>   0.3610 
 18 C        1.3000     7.6830    -0.4640 C.ar  1 <1>  -0.1500 
 19 C        4.8170     5.4700     0.0710 C.ar  1 <1>   0.2180 
 20 N        4.7880     6.7980     0.2610 N.ar  1 <1>  -0.1790 
 21 C        3.6840     8.9250     0.3030 C.ar  1 <1>  -0.1500 
 22 C        1.3890     9.0400    -0.3340 C.ar  1 <1>   0.0820 
 23 C        6.1600     4.7600     0.1160 C.3   1 <1>  -0.0970 
 24 C        2.5530     9.6510     0.0590 C.ar  1 <1>   0.0820 
 25 O        0.4480     9.9620    -0.5530 O.3   1 <1>  -0.3620 
 26 O        2.3780    10.9660     0.1170 O.3   1 <1>  -0.3620 
 27 C        1.0310    11.2330    -0.2680 C.3   1 <1>   0.4000 
 28 H       -1.3640     1.0580     0.6230 H     1 <1>   0.0800 
 29 H        0.1370     1.2470     1.4630 H     1 <1>   0.0800 
 30 H        0.5550    -2.6350     1.8260 H     1 <1>   0.0800 
 31 H        0.9210    -0.9430     2.0460 H     1 <1>   0.0800 
 32 H        1.9130    -1.9150     0.9800 H     1 <1>   0.0800 
 33 H       -0.3130    -3.4380    -0.2200 H     1 <1>   0.0800 
 34 H        0.9220    -2.6740    -1.2080 H     1 <1>   0.0800 
 35 H       -0.7730    -2.3390    -1.4930 H     1 <1>   0.0800 
 36 H       -0.7250     2.7470    -1.0220 H     1 <1>   0.0800 
 37 H       -1.8510     3.8530     0.8180 H     1 <1>   0.0800 
 38 H        1.5480     2.9160    -1.3420 H     1 <1>   0.0800 
 39 H        1.8960     2.7000     0.3690 H     1 <1>   0.0800 
 40 H        0.6280     3.8570     2.1360 H     1 <1>   0.4000 
 41 H       -0.1150     5.8640     0.9920 H     1 <1>   0.0800 
 42 H       -0.6580     5.3880    -0.6170 H     1 <1>   0.0800 
 43 H        3.7010     3.7290    -0.2800 H     1 <1>   0.1500 
 44 H        0.3820     7.2710    -0.8280 H     1 <1>   0.1500 
 45 H        5.6540     7.3080     0.4460 H     1 <1>   0.4570 
 46 H        4.5870     9.4370     0.5820 H     1 <1>   0.1500 
 47 H        6.0370     3.7040    -0.0530 H     1 <1>   0.0800 
 48 H        6.6240     4.8910     1.0780 H     1 <1>   0.0800 
 49 H        6.8150     5.1440    -0.6470 H     1 <1>   0.0800 
 50 H        0.5050    11.6990     0.5470 H     1 <1>   0.0800 
 51 H        1.0190    11.8450    -1.1530 H     1 <1>   0.0800 
@<TRIPOS>BOND
  1   1   2  2   
  2   1   3  2   
  3   1   4  am  
  4   1   5  1   
  5   4   6  1   
  6   4   7  1   
  7   5   8  1   
  8   5  28  1   
  9   5  29  1   
 10   6  30  1   
 11   6  31  1   
 12   6  32  1   
 13   7  33  1   
 14   7  34  1   
 15   7  35  1   
 16   8   9  1   
 17   8  10  1   
 18   8  36  1   
 19   9  11  1   
 20   9  12  1   
 21   9  37  1   
 22  10  13  1   
 23  10  38  1   
 24  10  39  1   
 25  11  40  1   
 26  12  13  1   
 27  12  41  1   
 28  12  42  1   
 29  13  14  1   
 30  14  15  ar  
 31  14  16  ar  
 32  15  17  ar  
 33  15  18  ar  
 34  16  19  ar  
 35  16  43  1   
 36  17  20  ar  
 37  17  21  ar  
 38  18  22  ar  
 39  18  44  1   
 40  19  20  ar  
 41  19  23  1   
 42  20  45  1   
 43  21  24  ar  
 44  21  46  1   
 45  22  24  ar  
 46  22  25  1   
 47  23  47  1   
 48  23  48  1   
 49  23  49  1   
 50  24  26  1   
 51  25  27  1   
 52  26  27  1   
 53  27  50  1   
 54  27  51  1   
@<TRIPOS>SUBSTRUCTURE
  1 ****  13 GROUP 4 **** **** 0

# MOE 2024.06 (io_trps.svl 2023.06)
