@<TRIPOS>MOLECULE
NONAME
40 43 1 0 0 
SMALL
USER_CHARGES


@<TRIPOS>ATOM
  1 S        0.0610    -0.0570     1.7280 S.3   1 <1>  -0.0800 
  2 C       -0.5890     1.0710     0.5260 C.2   1 <1>  -0.0450 
  3 C       -0.7730    -1.4070     0.9980 C.2   1 <1>  -0.1400 
  4 C       -0.2300     2.4630     0.5960 C.2   1 <1>   0.7150 
  5 C       -1.3840     0.3830    -0.3350 C.2   1 <1>  -0.1500 
  6 C       -1.4890    -1.0110    -0.0640 C.2   1 <1>  -0.1810 
  7 C       -0.6500    -2.8060     1.5610 C.3   1 <1>   0.0200 
  8 O       -0.6610     3.2550    -0.2190 O.2   1 <1>  -0.5700 
  9 N        0.5940     2.9050     1.5920 N.am  1 <1>  -0.4940 
 10 C       -2.3180    -1.9870    -0.8800 C.3   1 <1>   0.0210 
 11 C       -1.2250    -3.8120     0.5460 C.3   1 <1>  -0.1600 
 12 C        1.0120     4.1960     1.9280 C.2   1 <1>   0.2510 
 13 C       -2.5350    -3.3070    -0.1040 C.3   1 <1>  -0.0800 
 14 N        1.2170     4.5150     3.1670 N.2   1 <1>  -0.3380 
 15 N        1.2750     5.2280     1.0940 N.pl3 1 <1>   0.3340 
 16 C       -3.1310    -4.3820    -1.0210 C.3   1 <1>  -0.2400 
 17 N        1.6030     5.7890     3.1960 N.2   1 <1>  -0.3380 
 18 C        1.6390     6.2120     1.9670 C.2   1 <1>   0.3120 
 19 C        1.3610     5.4710    -0.2730 C.2   1 <1>  -0.1810 
 20 N        2.0080     7.4760     1.5620 N.2   1 <1>  -0.5760 
 21 C        1.7400     6.7080    -0.6770 C.2   1 <1>  -0.1360 
 22 C        2.0490     7.7020     0.2950 C.2   1 <1>   0.3750 
 23 C        2.4470     9.0780    -0.1910 C.3   1 <1>  -0.1790 
 24 H       -1.9050     0.8300    -1.1640 H     1 <1>   0.1500 
 25 H       -1.1990    -2.8580     2.4840 H     1 <1>   0.0800 
 26 H        0.3820    -3.0360     1.7610 H     1 <1>   0.0800 
 27 H        0.7520     2.2240     2.3340 H     1 <1>   0.3700 
 28 H       -1.8020    -2.1810    -1.8040 H     1 <1>   0.0800 
 29 H       -3.2720    -1.5460    -1.1120 H     1 <1>   0.0800 
 30 H       -1.3950    -4.7520     1.0410 H     1 <1>   0.0800 
 31 H       -0.4960    -3.9750    -0.2290 H     1 <1>   0.0800 
 32 H       -3.2410    -3.1120     0.6870 H     1 <1>   0.0800 
 33 H       -2.4510    -4.6200    -1.8200 H     1 <1>   0.0800 
 34 H       -4.0560    -4.0380    -1.4480 H     1 <1>   0.0800 
 35 H       -3.3310    -5.2800    -0.4620 H     1 <1>   0.0800 
 36 H        1.1230     4.6650    -0.9430 H     1 <1>   0.1500 
 37 H        1.8180     6.9690    -1.7170 H     1 <1>   0.1500 
 38 H        1.6520     9.5050    -0.7740 H     1 <1>   0.0800 
 39 H        3.3350     9.0110    -0.7920 H     1 <1>   0.0800 
 40 H        2.6460     9.7240     0.6460 H     1 <1>   0.0800 
@<TRIPOS>BOND
  1   1   2  1   
  2   1   3  1   
  3   2   4  1   
  4   2   5  2   
  5   3   6  2   
  6   3   7  1   
  7   4   8  2   
  8   4   9  am  
  9   5   6  1   
 10   5  24  1   
 11   6  10  1   
 12   7  11  1   
 13   7  25  1   
 14   7  26  1   
 15   9  12  1   
 16   9  27  1   
 17  10  13  1   
 18  10  28  1   
 19  10  29  1   
 20  11  13  1   
 21  11  30  1   
 22  11  31  1   
 23  12  14  2   
 24  12  15  1   
 25  13  16  1   
 26  13  32  1   
 27  14  17  1   
 28  15  18  1   
 29  15  19  1   
 30  16  33  1   
 31  16  34  1   
 32  16  35  1   
 33  17  18  2   
 34  18  20  1   
 35  19  21  2   
 36  19  36  1   
 37  20  22  2   
 38  21  22  1   
 39  21  37  1   
 40  22  23  1   
 41  23  38  1   
 42  23  39  1   
 43  23  40  1   
@<TRIPOS>SUBSTRUCTURE
  1 ****   4 GROUP 4 **** **** 0

# MOE 2024.06 (io_trps.svl 2023.06)
