@<TRIPOS>MOLECULE
NONAME
47 50 1 0 0 
SMALL
USER_CHARGES


@<TRIPOS>ATOM
  1 O        2.1500     1.8070     3.0750 O.2   1 <1>  -0.5700 
  2 C        2.5390     1.8160     1.9330 C.2   1 <1>   0.6900 
  3 N        2.9140     0.6770     1.3000 N.am  1 <1>  -0.4900 
  4 N        2.6130     2.9980     1.2490 N.am  1 <1>  -0.5390 
  5 C        3.3540     0.6680     0.0130 C.2   1 <1>   0.6160 
  6 C        3.0640     3.0700    -0.0680 C.2   1 <1>  -0.0290 
  7 O        3.6830    -0.3800    -0.4950 O.2   1 <1>  -0.5700 
  8 C        3.4240     1.9150    -0.6780 C.2   1 <1>  -0.1360 
  9 C        3.1400     4.4350    -0.7490 C.3   1 <1>   0.4810 
 10 N        4.1870     5.2660    -0.0860 N.4   1 <1>  -0.9590 
 11 C        4.1140     6.7040    -0.5200 C.3   1 <1>   0.3430 
 12 C        5.5570     4.7020    -0.2640 C.3   1 <1>   0.3430 
 13 C        5.4130     7.4790    -0.2270 C.3   1 <1>  -0.0800 
 14 C        6.5140     5.3950     0.7120 C.3   1 <1>  -0.1600 
 15 C        6.1800     6.8770     0.9670 C.3   1 <1>  -0.1600 
 16 C        5.1300     8.9840    -0.0320 C.3   1 <1>   0.0200 
 17 C        6.4100     9.8060    -0.0130 C.2   1 <1>   0.0060 
 18 N        7.4100     9.5810    -0.7930 N.2   1 <1>  -0.5650 
 19 N        6.5990    10.8570     0.8280 N.pl3 1 <1>   0.0330 
 20 C        8.3270    10.5310    -0.4550 C.ar  1 <1>   0.2270 
 21 C        7.8380    11.3340     0.5570 C.ar  1 <1>  -0.1520 
 22 C        9.6010    10.7620    -0.9720 C.ar  1 <1>  -0.1500 
 23 C        8.5950    12.3840     1.0820 C.ar  1 <1>  -0.1500 
 24 C       10.3570    11.7940    -0.4610 C.ar  1 <1>  -0.1500 
 25 C        9.8530    12.6040     0.5650 C.ar  1 <1>  -0.1500 
 26 H        2.8510    -0.2040     1.8020 H     1 <1>   0.3700 
 27 H        2.2180     3.7770     1.7810 H     1 <1>   0.3700 
 28 H        3.7770     1.8570    -1.6910 H     1 <1>   0.1500 
 29 H        2.1790     4.9180    -0.6770 H     1 <1>   0.0800 
 30 H        3.3780     4.3100    -1.7930 H     1 <1>   0.0800 
 31 H        4.0150     5.2340     0.9260 H     1 <1>   0.4500 
 32 H        3.2950     7.1820    -0.0070 H     1 <1>   0.0800 
 33 H        3.9180     6.7620    -1.5790 H     1 <1>   0.0800 
 34 H        5.8890     4.8740    -1.2760 H     1 <1>   0.0800 
 35 H        5.5660     3.6390    -0.0780 H     1 <1>   0.0800 
 36 H        6.0350     7.3840    -1.1030 H     1 <1>   0.0800 
 37 H        7.5070     5.3240     0.3020 H     1 <1>   0.0800 
 38 H        6.5270     4.8640     1.6480 H     1 <1>   0.0800 
 39 H        5.5830     6.9650     1.8590 H     1 <1>   0.0800 
 40 H        7.0970     7.4190     1.1380 H     1 <1>   0.0800 
 41 H        4.5870     9.1400     0.8840 H     1 <1>   0.0800 
 42 H        4.5260     9.3500    -0.8440 H     1 <1>   0.0800 
 43 H        5.9520    11.2350     1.5230 H     1 <1>   0.2700 
 44 H        9.9620    10.1260    -1.7580 H     1 <1>   0.1500 
 45 H        8.2010    13.0010     1.8690 H     1 <1>   0.1500 
 46 H       11.3420    11.9870    -0.8480 H     1 <1>   0.1500 
 47 H       10.4640    13.4040     0.9470 H     1 <1>   0.1500 
@<TRIPOS>BOND
  1   1   2  2   
  2   2   3  am  
  3   2   4  am  
  4   3   5  am  
  5   3  26  1   
  6   4   6  1   
  7   4  27  1   
  8   5   7  2   
  9   5   8  1   
 10   6   8  2   
 11   6   9  1   
 12   8  28  1   
 13   9  10  1   
 14   9  29  1   
 15   9  30  1   
 16  10  11  1   
 17  10  12  1   
 18  10  31  1   
 19  11  13  1   
 20  11  32  1   
 21  11  33  1   
 22  12  14  1   
 23  12  34  1   
 24  12  35  1   
 25  13  15  1   
 26  13  16  1   
 27  13  36  1   
 28  14  15  1   
 29  14  37  1   
 30  14  38  1   
 31  15  39  1   
 32  15  40  1   
 33  16  17  1   
 34  16  41  1   
 35  16  42  1   
 36  17  18  2   
 37  17  19  1   
 38  18  20  1   
 39  19  21  1   
 40  19  43  1   
 41  20  21  ar  
 42  20  22  ar  
 43  21  23  ar  
 44  22  24  ar  
 45  22  44  1   
 46  23  25  ar  
 47  23  45  1   
 48  24  25  ar  
 49  24  46  1   
 50  25  47  1   
@<TRIPOS>SUBSTRUCTURE
  1 ****  15 GROUP 4 **** **** 0

# MOE 2024.06 (io_trps.svl 2023.06)
