@<TRIPOS>MOLECULE
NONAME
44 48 1 0 0 
SMALL
USER_CHARGES


@<TRIPOS>ATOM
  1 CL      -0.3540    -0.6790    -1.9490 Cl    1 <1>  -0.1770 
  2 C       -1.8970    -1.2270    -1.3300 C.ar  1 <1>   0.1770 
  3 C       -2.0290    -1.6540    -0.0320 C.ar  1 <1>   0.1600 
  4 C       -3.0140    -1.2460    -2.1270 C.ar  1 <1>   0.1600 
  5 N       -3.1820    -2.0690     0.4440 N.ar  1 <1>  -0.6200 
  6 N       -4.1780    -1.6560    -1.6740 N.ar  1 <1>  -0.6200 
  7 C       -4.2200    -2.0490    -0.3970 C.ar  1 <1>   0.7200 
  8 N       -5.4360    -2.4780     0.0910 N.pl3 1 <1>  -0.8380 
  9 C       -5.5840    -3.2600     1.3500 C.3   1 <1>   0.2090 
 10 C       -6.7150    -2.3390    -0.6570 C.3   1 <1>   0.2090 
 11 C       -6.0490    -4.6700     0.9910 C.3   1 <1>  -0.1600 
 12 C       -7.1930    -3.7320    -1.0580 C.3   1 <1>  -0.1600 
 13 C       -7.3400    -4.6430     0.1670 C.3   1 <1>   0.4600 
 14 O       -8.3390    -4.1200     1.0190 O.3   1 <1>  -0.5600 
 15 C       -7.7250    -6.0580    -0.2480 C.2   1 <1>  -0.3320 
 16 C       -9.6850    -4.3980     0.7130 C.3   1 <1>   0.1200 
 17 N       -6.9500    -6.9340    -0.9570 N.pl3 1 <1>   0.0330 
 18 C       -8.9060    -6.6410     0.0380 C.2   1 <1>  -0.1810 
 19 C       -9.9760    -5.9060     0.8050 C.3   1 <1>   0.0210 
 20 C       -7.6610    -8.0990    -1.1140 C.ar  1 <1>  -0.1520 
 21 C       -8.8990    -7.9470    -0.4950 C.ar  1 <1>   0.0000 
 22 C       -7.3230    -9.2930    -1.7540 C.ar  1 <1>  -0.1500 
 23 C       -9.8160    -9.0020    -0.5120 C.ar  1 <1>  -0.1500 
 24 C       -8.2350   -10.3240    -1.7640 C.ar  1 <1>  -0.1500 
 25 C       -9.4810   -10.1790    -1.1420 C.ar  1 <1>  -0.1500 
 26 H       -1.1730    -1.6520     0.6200 H     1 <1>   0.1500 
 27 H       -2.9450    -0.9190    -3.1490 H     1 <1>   0.1500 
 28 H       -6.3130    -2.7810     1.9820 H     1 <1>   0.0800 
 29 H       -4.6600    -3.3160     1.8990 H     1 <1>   0.0800 
 30 H       -6.6000    -1.7230    -1.5320 H     1 <1>   0.0800 
 31 H       -7.4460    -1.8690    -0.0200 H     1 <1>   0.0800 
 32 H       -6.2110    -5.2430     1.8840 H     1 <1>   0.0800 
 33 H       -5.2680    -5.1470     0.4310 H     1 <1>   0.0800 
 34 H       -6.4690    -4.1520    -1.7310 H     1 <1>   0.0800 
 35 H       -8.1230    -3.6680    -1.5890 H     1 <1>   0.0800 
 36 H       -9.8930    -4.0380    -0.2780 H     1 <1>   0.0800 
 37 H      -10.2980    -3.8590     1.4130 H     1 <1>   0.0800 
 38 H       -6.0030    -6.7660    -1.3080 H     1 <1>   0.2700 
 39 H      -10.9430    -6.1150     0.3870 H     1 <1>   0.0800 
 40 H       -9.9670    -6.2200     1.8330 H     1 <1>   0.0800 
 41 H       -6.3640    -9.3960    -2.2280 H     1 <1>   0.1500 
 42 H      -10.7670    -8.8770    -0.0300 H     1 <1>   0.1500 
 43 H       -7.9980   -11.2540    -2.2500 H     1 <1>   0.1500 
 44 H      -10.1760   -11.0000    -1.1640 H     1 <1>   0.1500 
@<TRIPOS>BOND
  1   1   2  1   
  2   2   3  ar  
  3   2   4  ar  
  4   3   5  ar  
  5   3  26  1   
  6   4   6  ar  
  7   4  27  1   
  8   5   7  ar  
  9   6   7  ar  
 10   7   8  1   
 11   8   9  1   
 12   8  10  1   
 13   9  11  1   
 14   9  28  1   
 15   9  29  1   
 16  10  12  1   
 17  10  30  1   
 18  10  31  1   
 19  11  13  1   
 20  11  32  1   
 21  11  33  1   
 22  12  13  1   
 23  12  34  1   
 24  12  35  1   
 25  13  14  1   
 26  13  15  1   
 27  14  16  1   
 28  15  17  1   
 29  15  18  2   
 30  16  19  1   
 31  16  36  1   
 32  16  37  1   
 33  17  20  1   
 34  17  38  1   
 35  18  19  1   
 36  18  21  1   
 37  19  39  1   
 38  19  40  1   
 39  20  21  ar  
 40  20  22  ar  
 41  21  23  ar  
 42  22  24  ar  
 43  22  41  1   
 44  23  25  ar  
 45  23  42  1   
 46  24  25  ar  
 47  24  43  1   
 48  25  44  1   
@<TRIPOS>SUBSTRUCTURE
  1 ****  13 GROUP 4 **** **** 0

# MOE 2024.06 (io_trps.svl 2023.06)
