@<TRIPOS>MOLECULE
NONAME
54 56 1 0 0 
SMALL
USER_CHARGES


@<TRIPOS>ATOM
  1 O        4.8230     0.1510    -1.3910 O.2   1 <1>  -0.5700 
  2 C        4.1410    -0.4630    -0.6020 C.2   1 <1>   0.5690 
  3 N        3.5660     0.1480     0.4790 N.am  1 <1>  -0.6600 
  4 C        3.9440    -1.9490    -0.8480 C.3   1 <1>  -0.0990 
  5 C        2.8310    -0.5830     1.5410 C.3   1 <1>   0.1400 
  6 C        3.6330     1.6250     0.6330 C.3   1 <1>   0.1400 
  7 C        2.4720    -2.3330    -1.0780 C.3   1 <1>  -0.1600 
  8 C        1.5070    -1.1330     1.0020 C.3   1 <1>  -0.1600 
  9 C        4.9330     2.0080     1.3360 C.3   1 <1>  -0.0990 
 10 C        1.6550    -2.4470     0.2180 C.3   1 <1>  -0.1600 
 11 C        5.1090     3.5100     1.3140 C.2   1 <1>   0.5690 
 12 O        4.7450     4.1180     2.2930 O.2   1 <1>  -0.5700 
 13 N        5.6680     4.1440     0.2330 N.am  1 <1>  -0.6600 
 14 C        6.1020     3.4820    -1.0440 C.3   1 <1>   0.1400 
 15 C        5.9300     5.6080     0.2640 C.3   1 <1>   0.1400 
 16 C        7.6240     3.2690    -1.1120 C.3   1 <1>   0.1400 
 17 C        7.2830     5.9150     0.9220 C.3   1 <1>  -0.1600 
 18 N        8.3890     4.5270    -0.8370 N.am  1 <1>  -0.6600 
 19 C        8.4090     4.9230     0.5970 C.3   1 <1>   0.1400 
 20 C        8.6970     5.4020    -1.8590 C.2   1 <1>   0.7160 
 21 O        8.1840     5.2200    -2.9510 O.2   1 <1>  -0.5700 
 22 C        9.5750     6.5380    -1.6660 C.2   1 <1>  -0.0860 
 23 C       10.7190     6.6700    -0.9160 C.2   1 <1>  -0.3020 
 24 C        9.4000     7.7950    -2.2800 C.2   1 <1>  -0.1500 
 25 N       11.2230     7.9200    -1.0370 N.pl3 1 <1>   0.0330 
 26 C       10.4080     8.6080    -1.8760 C.2   1 <1>  -0.3020 
 27 H        4.3600    -2.5070    -0.0310 H     1 <1>   0.0800 
 28 H        4.5030    -2.2090    -1.7290 H     1 <1>   0.0800 
 29 H        2.6280     0.0870     2.3600 H     1 <1>   0.0800 
 30 H        3.4410    -1.3840     1.9230 H     1 <1>   0.0800 
 31 H        2.7870     1.9850     1.1930 H     1 <1>   0.0800 
 32 H        3.5940     2.0830    -0.3420 H     1 <1>   0.0800 
 33 H        2.4460    -3.2890    -1.5720 H     1 <1>   0.0800 
 34 H        2.0130    -1.6170    -1.7400 H     1 <1>   0.0800 
 35 H        1.0220    -0.3850     0.3980 H     1 <1>   0.0800 
 36 H        0.8660    -1.3280     1.8430 H     1 <1>   0.0800 
 37 H        5.7730     1.5390     0.8620 H     1 <1>   0.0800 
 38 H        4.8960     1.6790     2.3570 H     1 <1>   0.0800 
 39 H        2.0990    -3.1940     0.8530 H     1 <1>   0.0800 
 40 H        0.6690    -2.7960    -0.0390 H     1 <1>   0.0800 
 41 H        5.8030     4.0900    -1.8800 H     1 <1>   0.0800 
 42 H        5.6160     2.5330    -1.1670 H     1 <1>   0.0800 
 43 H        5.1430     6.1100     0.8020 H     1 <1>   0.0800 
 44 H        5.9280     5.9910    -0.7430 H     1 <1>   0.0800 
 45 H        7.8780     2.9010    -2.0910 H     1 <1>   0.0800 
 46 H        7.9100     2.5110    -0.4050 H     1 <1>   0.0800 
 47 H        7.1460     5.9320     1.9880 H     1 <1>   0.0800 
 48 H        7.5880     6.9040     0.6320 H     1 <1>   0.0800 
 49 H        8.2810     4.0440     1.2050 H     1 <1>   0.0800 
 50 H        9.3590     5.3520     0.8580 H     1 <1>   0.0800 
 51 H       11.1940     5.9160    -0.3150 H     1 <1>   0.1500 
 52 H        8.5910     8.0260    -2.9530 H     1 <1>   0.1500 
 53 H       12.0740     8.2840    -0.5910 H     1 <1>   0.2700 
 54 H       10.5900     9.6330    -2.1460 H     1 <1>   0.1500 
@<TRIPOS>BOND
  1   1   2  2   
  2   2   3  am  
  3   2   4  1   
  4   3   5  1   
  5   3   6  1   
  6   4   7  1   
  7   4  27  1   
  8   4  28  1   
  9   5   8  1   
 10   5  29  1   
 11   5  30  1   
 12   6   9  1   
 13   6  31  1   
 14   6  32  1   
 15   7  10  1   
 16   7  33  1   
 17   7  34  1   
 18   8  10  1   
 19   8  35  1   
 20   8  36  1   
 21   9  11  1   
 22   9  37  1   
 23   9  38  1   
 24  10  39  1   
 25  10  40  1   
 26  11  12  2   
 27  11  13  am  
 28  13  14  1   
 29  13  15  1   
 30  14  16  1   
 31  14  41  1   
 32  14  42  1   
 33  15  17  1   
 34  15  43  1   
 35  15  44  1   
 36  16  18  1   
 37  16  45  1   
 38  16  46  1   
 39  17  19  1   
 40  17  47  1   
 41  17  48  1   
 42  18  19  1   
 43  18  20  am  
 44  19  49  1   
 45  19  50  1   
 46  20  21  2   
 47  20  22  1   
 48  22  23  2   
 49  22  24  1   
 50  23  25  1   
 51  23  51  1   
 52  24  26  2   
 53  24  52  1   
 54  25  26  1   
 55  25  53  1   
 56  26  54  1   
@<TRIPOS>SUBSTRUCTURE
  1 ****  14 GROUP 4 **** **** 0

# MOE 2024.06 (io_trps.svl 2023.06)
