@<TRIPOS>MOLECULE
NONAME
48 51 1 0 0 
SMALL
USER_CHARGES


@<TRIPOS>ATOM
  1 CL       0.2340     0.3760     1.4000 Cl    1 <1>  -0.1770 
  2 C        0.1880     2.0440     0.8900 C.ar  1 <1>   0.1770 
  3 C        0.6190     2.3770    -0.3800 C.ar  1 <1>  -0.1500 
  4 C       -0.2780     3.0080     1.7640 C.ar  1 <1>  -0.1500 
  5 C        0.5800     3.7020    -0.7820 C.ar  1 <1>  -0.1500 
  6 C       -0.3140     4.3310     1.3560 C.ar  1 <1>  -0.1500 
  7 C        0.1130     4.6830     0.0820 C.ar  1 <1>  -0.0320 
  8 C        0.0790     6.1380    -0.3590 C.3   1 <1>  -0.0630 
  9 C       -0.6750     6.4630    -1.6160 C.3   1 <1>  -0.2000 
 10 C       -1.2380     6.8550    -0.2800 C.3   1 <1>  -0.2000 
 11 C        1.4030     6.8470    -0.0100 C.3   1 <1>   0.3040 
 12 N        1.3810     8.2770    -0.4020 N.pl3 1 <1>  -0.8690 
 13 C        2.5120     9.0350    -0.5210 C.ar  1 <1>   0.4100 
 14 N        3.6410     8.5290    -0.0430 N.ar  1 <1>  -0.6200 
 15 C        2.4440    10.2860    -1.1280 C.ar  1 <1>  -0.1500 
 16 C        4.7200     9.2820    -0.1730 C.ar  1 <1>   0.1600 
 17 C        3.5750    11.0570    -1.2490 C.ar  1 <1>  -0.1500 
 18 C        4.7700    10.5510    -0.7440 C.ar  1 <1>   0.0860 
 19 C        6.0170    11.2760    -0.8060 C.2   1 <1>   0.5440 
 20 O        7.0370    10.6760    -1.0900 O.2   1 <1>  -0.5700 
 21 N        6.0970    12.6280    -0.5420 N.am  1 <1>  -0.6600 
 22 C        7.3070    13.4320    -0.8960 C.3   1 <1>   0.1400 
 23 C        5.1660    13.3500     0.3780 C.3   1 <1>   0.1400 
 24 C        7.9530    14.0220     0.3670 C.3   1 <1>   0.1200 
 25 C        5.9370    13.9600     1.5630 C.3   1 <1>   0.1200 
 26 O        7.0090    14.7400     1.1120 O.3   1 <1>  -0.5600 
 27 H        0.9780     1.6090    -1.0420 H     1 <1>   0.1500 
 28 H       -0.6070     2.7240     2.7480 H     1 <1>   0.1500 
 29 H        0.9150     3.9720    -1.7680 H     1 <1>   0.1500 
 30 H       -0.6730     5.0900     2.0290 H     1 <1>   0.1500 
 31 H       -1.1570     5.6650    -2.1540 H     1 <1>   0.1000 
 32 H       -0.3000     7.2260    -2.2750 H     1 <1>   0.1000 
 33 H       -1.2580     7.8930     0.0010 H     1 <1>   0.1000 
 34 H       -2.1000     6.3210     0.0830 H     1 <1>   0.1000 
 35 H        2.2140     6.3510    -0.5160 H     1 <1>   0.0800 
 36 H        1.5810     6.7810     1.0490 H     1 <1>   0.0800 
 37 H        0.5580     8.5350    -0.9450 H     1 <1>   0.4000 
 38 H        1.4990    10.6350    -1.4980 H     1 <1>   0.1500 
 39 H        5.6430     8.8720     0.2010 H     1 <1>   0.1500 
 40 H        3.5490    12.0230    -1.7220 H     1 <1>   0.1500 
 41 H        7.0190    14.2340    -1.5520 H     1 <1>   0.0800 
 42 H        8.0290    12.8270    -1.4160 H     1 <1>   0.0800 
 43 H        4.4150    12.6830     0.7630 H     1 <1>   0.0800 
 44 H        4.6720    14.1380    -0.1630 H     1 <1>   0.0800 
 45 H        8.7440    14.6990     0.0990 H     1 <1>   0.0800 
 46 H        8.3610    13.2390     0.9830 H     1 <1>   0.0800 
 47 H        6.3220    13.1850     2.2030 H     1 <1>   0.0800 
 48 H        5.2900    14.5960     2.1400 H     1 <1>   0.0800 
@<TRIPOS>BOND
  1   1   2  1   
  2   2   3  ar  
  3   2   4  ar  
  4   3   5  ar  
  5   3  27  1   
  6   4   6  ar  
  7   4  28  1   
  8   5   7  ar  
  9   5  29  1   
 10   6   7  ar  
 11   6  30  1   
 12   7   8  1   
 13   8   9  1   
 14   8  10  1   
 15   8  11  1   
 16   9  10  1   
 17   9  31  1   
 18   9  32  1   
 19  10  33  1   
 20  10  34  1   
 21  11  12  1   
 22  11  35  1   
 23  11  36  1   
 24  12  13  1   
 25  12  37  1   
 26  13  14  ar  
 27  13  15  ar  
 28  14  16  ar  
 29  15  17  ar  
 30  15  38  1   
 31  16  18  ar  
 32  16  39  1   
 33  17  18  ar  
 34  17  40  1   
 35  18  19  1   
 36  19  20  2   
 37  19  21  am  
 38  21  22  1   
 39  21  23  1   
 40  22  24  1   
 41  22  41  1   
 42  22  42  1   
 43  23  25  1   
 44  23  43  1   
 45  23  44  1   
 46  24  26  1   
 47  24  45  1   
 48  24  46  1   
 49  25  26  1   
 50  25  47  1   
 51  25  48  1   
@<TRIPOS>SUBSTRUCTURE
  1 ****  14 GROUP 4 **** **** 0

# MOE 2024.06 (io_trps.svl 2023.06)
