@<TRIPOS>MOLECULE
NONAME
60 63 1 0 0 
SMALL
USER_CHARGES


@<TRIPOS>ATOM
  1 O       -1.1750    -1.4690    -0.0110 O.2   1 <1>  -0.5700 
  2 C       -0.4270    -2.2250    -0.5830 C.2   1 <1>   0.5690 
  3 N        0.6430    -1.7530    -1.3070 N.am  1 <1>  -0.6600 
  4 C       -0.7490    -3.6990    -0.4250 C.3   1 <1>  -0.0990 
  5 C        1.6600    -2.5970    -2.0210 C.3   1 <1>   0.1400 
  6 C        0.8730    -0.2830    -1.4230 C.3   1 <1>   0.1400 
  7 C       -0.1790    -4.6270    -1.4940 C.3   1 <1>   0.1200 
  8 C        2.1390    -3.8820    -1.2850 C.3   1 <1>   0.2800 
  9 C        2.0170     0.1410    -0.4970 C.3   1 <1>  -0.1600 
 10 O        1.1710    -4.9000    -1.2610 O.3   1 <1>  -0.5600 
 11 C        3.3230    -4.4800    -2.0820 C.3   1 <1>  -0.1600 
 12 C        2.5340    -3.6260     0.1910 C.3   1 <1>  -0.1600 
 13 C        2.1740     1.6640    -0.4430 C.3   1 <1>  -0.0170 
 14 C        4.3880    -5.1100    -1.1860 C.3   1 <1>   0.1400 
 15 C        3.9660    -3.1140     0.3340 C.3   1 <1>   0.1400 
 16 C        3.4300     2.0340     0.3310 C.ar  1 <1>  -0.1440 
 17 N        4.9420    -4.0610    -0.2790 N.am  1 <1>  -0.6600 
 18 C        3.4620     1.9080     1.7110 C.ar  1 <1>  -0.1500 
 19 C        4.5550     2.5000    -0.3330 C.ar  1 <1>  -0.1500 
 20 C        6.2760    -4.0640     0.0810 C.2   1 <1>   0.5440 
 21 C        4.6040     2.2420     2.4190 C.ar  1 <1>  -0.1500 
 22 C        5.6960     2.8390     0.3740 C.ar  1 <1>  -0.1500 
 23 O        6.9780    -4.9950    -0.2650 O.2   1 <1>  -0.5700 
 24 C        6.8530    -2.9950     0.8760 C.ar  1 <1>   0.0860 
 25 C        5.7210     2.7100     1.7510 C.ar  1 <1>  -0.1500 
 26 C        6.7640    -1.6580     0.4870 C.ar  1 <1>  -0.1500 
 27 C        7.5190    -3.2740     2.0690 C.ar  1 <1>  -0.1500 
 28 C        7.2890    -0.6440     1.2660 C.ar  1 <1>  -0.1500 
 29 C        8.0520    -2.2650     2.8510 C.ar  1 <1>  -0.1500 
 30 C        7.9330    -0.9460     2.4520 C.ar  1 <1>  -0.1500 
 31 H       -1.8190    -3.7870    -0.4600 H     1 <1>   0.0800 
 32 H       -0.4380    -4.0300     0.5480 H     1 <1>   0.0800 
 33 H        2.5300    -1.9900    -2.1880 H     1 <1>   0.0800 
 34 H        1.2880    -2.8560    -2.9960 H     1 <1>   0.0800 
 35 H       -0.0220     0.2550    -1.1560 H     1 <1>   0.0800 
 36 H        1.1060    -0.0340    -2.4440 H     1 <1>   0.0800 
 37 H       -0.3110    -4.2330    -2.4860 H     1 <1>   0.0800 
 38 H       -0.6910    -5.5720    -1.4450 H     1 <1>   0.0800 
 39 H        2.9420    -0.2790    -0.8450 H     1 <1>   0.0800 
 40 H        1.8220    -0.2240     0.4960 H     1 <1>   0.0800 
 41 H        3.8200    -3.7190    -2.6550 H     1 <1>   0.0800 
 42 H        2.9620    -5.2120    -2.7810 H     1 <1>   0.0800 
 43 H        2.4560    -4.5430     0.7480 H     1 <1>   0.0800 
 44 H        1.8760    -2.9200     0.6560 H     1 <1>   0.0800 
 45 H        1.3150     2.1030     0.0350 H     1 <1>   0.0800 
 46 H        2.2340     2.0620    -1.4410 H     1 <1>   0.0800 
 47 H        5.1720    -5.5260    -1.7960 H     1 <1>   0.0800 
 48 H        3.9610    -5.9060    -0.5980 H     1 <1>   0.0800 
 49 H        4.1940    -2.9880     1.3800 H     1 <1>   0.0800 
 50 H        4.0550    -2.1580    -0.1480 H     1 <1>   0.0800 
 51 H        2.5970     1.5480     2.2400 H     1 <1>   0.1500 
 52 H        4.5490     2.6060    -1.4040 H     1 <1>   0.1500 
 53 H        4.6200     2.1400     3.4900 H     1 <1>   0.1500 
 54 H        6.5630     3.2060    -0.1480 H     1 <1>   0.1500 
 55 H        6.6060     2.9750     2.3030 H     1 <1>   0.1500 
 56 H        6.2780    -1.4140    -0.4410 H     1 <1>   0.1500 
 57 H        7.6160    -4.3010     2.3770 H     1 <1>   0.1500 
 58 H        7.1980     0.3810     0.9480 H     1 <1>   0.1500 
 59 H        8.5590    -2.5060     3.7690 H     1 <1>   0.1500 
 60 H        8.3430    -0.1580     3.0600 H     1 <1>   0.1500 
@<TRIPOS>BOND
  1   1   2  2   
  2   2   3  am  
  3   2   4  1   
  4   3   5  1   
  5   3   6  1   
  6   4   7  1   
  7   4  31  1   
  8   4  32  1   
  9   5   8  1   
 10   5  33  1   
 11   5  34  1   
 12   6   9  1   
 13   6  35  1   
 14   6  36  1   
 15   7  10  1   
 16   7  37  1   
 17   7  38  1   
 18   8  10  1   
 19   8  11  1   
 20   8  12  1   
 21   9  13  1   
 22   9  39  1   
 23   9  40  1   
 24  11  14  1   
 25  11  41  1   
 26  11  42  1   
 27  12  15  1   
 28  12  43  1   
 29  12  44  1   
 30  13  16  1   
 31  13  45  1   
 32  13  46  1   
 33  14  17  1   
 34  14  47  1   
 35  14  48  1   
 36  15  17  1   
 37  15  49  1   
 38  15  50  1   
 39  16  18  ar  
 40  16  19  ar  
 41  17  20  am  
 42  18  21  ar  
 43  18  51  1   
 44  19  22  ar  
 45  19  52  1   
 46  20  23  2   
 47  20  24  1   
 48  21  25  ar  
 49  21  53  1   
 50  22  25  ar  
 51  22  54  1   
 52  24  26  ar  
 53  24  27  ar  
 54  25  55  1   
 55  26  28  ar  
 56  26  56  1   
 57  27  29  ar  
 58  27  57  1   
 59  28  30  ar  
 60  28  58  1   
 61  29  30  ar  
 62  29  59  1   
 63  30  60  1   
@<TRIPOS>SUBSTRUCTURE
  1 ****  15 GROUP 4 **** **** 0

# MOE 2024.06 (io_trps.svl 2023.06)
