@<TRIPOS>MOLECULE
NONAME
48 50 1 0 0 
SMALL
USER_CHARGES


@<TRIPOS>ATOM
  1 CL      -0.2610    -1.6310     0.2490 Cl    1 <1>  -0.1230 
  2 C       -1.3380    -0.2440     0.1800 C.2   1 <1>   0.1230 
  3 C       -2.5980    -0.2210    -0.4180 C.2   1 <1>   0.2030 
  4 C       -1.1070     0.9740     0.7010 C.2   1 <1>  -0.3320 
  5 N       -3.1250     0.9870    -0.2620 N.2   1 <1>  -0.7070 
  6 C       -3.1730    -1.3700    -1.0990 C.2   1 <1>   0.7160 
  7 N       -2.2110     1.7000     0.4140 N.pl3 1 <1>   0.3140 
  8 C        0.1080     1.4890     1.4580 C.3   1 <1>  -0.0600 
  9 O       -2.5720    -1.8650    -2.0400 O.2   1 <1>  -0.5700 
 10 N       -4.3710    -1.9520    -0.7150 N.am  1 <1>  -0.6600 
 11 C       -2.4520     3.1070     0.7620 C.3   1 <1>   0.0160 
 12 C       -4.8760    -3.1920    -1.4040 C.3   1 <1>   0.1400 
 13 C       -5.1990    -1.4490     0.4300 C.3   1 <1>   0.1400 
 14 C       -5.8210    -3.9730    -0.4850 C.3   1 <1>   0.2000 
 15 C       -6.6810    -1.6560     0.1160 C.3   1 <1>  -0.1600 
 16 O       -6.2080    -5.1690    -1.0700 O.3   1 <1>  -0.6800 
 17 C       -7.0670    -3.1600    -0.0530 C.3   1 <1>  -0.1060 
 18 C       -7.4720    -3.8350     1.2600 C.2   1 <1>   0.9060 
 19 C       -8.2280    -3.2590    -1.0880 C.3   1 <1>  -0.0170 
 20 O       -7.3070    -3.2590     2.3410 O.co2 1 <1>  -0.9000 
 21 O       -7.8790    -5.0060     1.2040 O.co2 1 <1>  -0.9000 
 22 C       -9.3990    -2.3120    -0.8260 C.ar  1 <1>  -0.1430 
 23 C       -9.6170    -1.2150    -1.6470 C.ar  1 <1>  -0.1500 
 24 C      -10.2620    -2.5440     0.2340 C.ar  1 <1>  -0.1500 
 25 C      -10.6820    -0.3620    -1.4110 C.ar  1 <1>  -0.1500 
 26 C      -11.3260    -1.6920     0.4730 C.ar  1 <1>  -0.1500 
 27 C      -11.5370    -0.5990    -0.3500 C.ar  1 <1>  -0.1500 
 28 H        0.8470     0.7130     1.5490 H     1 <1>   0.0800 
 29 H       -0.1750     1.8050     2.4460 H     1 <1>   0.0800 
 30 H        0.5490     2.3180     0.9350 H     1 <1>   0.0800 
 31 H       -1.7080     3.7190     0.2880 H     1 <1>   0.0800 
 32 H       -2.3990     3.2220     1.8280 H     1 <1>   0.0800 
 33 H       -3.4280     3.3940     0.4160 H     1 <1>   0.0800 
 34 H       -5.3960    -2.9060    -2.3000 H     1 <1>   0.0800 
 35 H       -4.0460    -3.8230    -1.6670 H     1 <1>   0.0800 
 36 H       -4.9420    -1.9830     1.3300 H     1 <1>   0.0800 
 37 H       -5.0270    -0.4020     0.5980 H     1 <1>   0.0800 
 38 H       -5.2540    -4.2430     0.3920 H     1 <1>   0.0800 
 39 H       -7.2800    -1.2120     0.8930 H     1 <1>   0.0800 
 40 H       -6.8890    -1.1090    -0.7860 H     1 <1>   0.0800 
 41 H       -6.8540    -5.5740    -0.4320 H     1 <1>   0.4000 
 42 H       -7.8350    -3.0610    -2.0690 H     1 <1>   0.0800 
 43 H       -8.6180    -4.2620    -1.1130 H     1 <1>   0.0800 
 44 H       -8.9560    -1.0220    -2.4720 H     1 <1>   0.1500 
 45 H      -10.1020    -3.3910     0.8820 H     1 <1>   0.1500 
 46 H      -10.8410     0.4860    -2.0520 H     1 <1>   0.1500 
 47 H      -11.9810    -1.8840     1.3030 H     1 <1>   0.1500 
 48 H      -12.3630     0.0630    -0.1620 H     1 <1>   0.1500 
@<TRIPOS>BOND
  1   1   2  1   
  2   2   3  1   
  3   2   4  2   
  4   3   5  2   
  5   3   6  1   
  6   4   7  1   
  7   4   8  1   
  8   5   7  1   
  9   6   9  2   
 10   6  10  am  
 11   7  11  1   
 12   8  28  1   
 13   8  29  1   
 14   8  30  1   
 15  10  12  1   
 16  10  13  1   
 17  11  31  1   
 18  11  32  1   
 19  11  33  1   
 20  12  14  1   
 21  12  34  1   
 22  12  35  1   
 23  13  15  1   
 24  13  36  1   
 25  13  37  1   
 26  14  16  1   
 27  14  17  1   
 28  14  38  1   
 29  15  17  1   
 30  15  39  1   
 31  15  40  1   
 32  16  41  1   
 33  17  18  1   
 34  17  19  1   
 35  18  20  ar  
 36  18  21  ar  
 37  19  22  1   
 38  19  42  1   
 39  19  43  1   
 40  22  23  ar  
 41  22  24  ar  
 42  23  25  ar  
 43  23  44  1   
 44  24  26  ar  
 45  24  45  1   
 46  25  27  ar  
 47  25  46  1   
 48  26  27  ar  
 49  26  47  1   
 50  27  48  1   
@<TRIPOS>SUBSTRUCTURE
  1 ****  13 GROUP 4 **** **** 0

# MOE 2024.06 (io_trps.svl 2023.06)
