@<TRIPOS>MOLECULE
NONAME
46 48 1 0 0 
SMALL
USER_CHARGES


@<TRIPOS>ATOM
  1 CL      -3.0910    -0.3420     2.5140 Cl    1 <1>  -0.1770 
  2 C       -2.8510    -1.1620     0.9890 C.ar  1 <1>   0.1770 
  3 C       -3.1590    -2.5040     0.8480 C.ar  1 <1>   0.1900 
  4 C       -2.3540    -0.4480    -0.0850 C.ar  1 <1>  -0.1500 
  5 F       -3.6490    -3.1570     1.8700 F     1 <1>  -0.1900 
  6 C       -2.9810    -3.1790    -0.3560 C.ar  1 <1>   0.0860 
  7 C       -2.1710    -1.0940    -1.2990 C.ar  1 <1>  -0.1500 
  8 C       -3.2960    -4.5810    -0.4850 C.2   1 <1>   0.5440 
  9 C       -2.4810    -2.4390    -1.4290 C.ar  1 <1>  -0.1500 
 10 O       -2.4910    -5.4200    -0.1210 O.2   1 <1>  -0.5700 
 11 N       -4.5070    -5.0160    -0.9830 N.am  1 <1>  -0.6600 
 12 C       -4.7100    -6.4630    -1.2310 C.3   1 <1>   0.1400 
 13 C       -5.7850    -4.3260    -0.6420 C.3   1 <1>   0.1400 
 14 C       -5.3640    -6.9660     0.0620 C.3   1 <1>   0.4230 
 15 C       -6.5490    -5.1120     0.4620 C.3   1 <1>  -0.1600 
 16 N       -4.8910    -8.2930     0.5960 N.4   1 <1>  -0.9590 
 17 C       -6.9290    -6.6360     0.0420 C.3   1 <1>   0.0000 
 18 C       -5.1020    -9.4120    -0.3320 C.3   1 <1>   0.3430 
 19 C       -3.4620    -8.1990     1.0410 C.3   1 <1>   0.2630 
 20 C       -7.3340    -8.1230    -0.4480 C.3   1 <1>  -0.1600 
 21 C       -8.4870    -6.2620     0.1090 C.3   1 <1>   0.1200 
 22 C       -6.3660    -9.1320    -1.1200 C.3   1 <1>  -0.1600 
 23 O       -8.8590    -6.2350     1.4510 O.3   1 <1>  -0.6800 
 24 H       -2.1140     0.5950     0.0280 H     1 <1>   0.1500 
 25 H       -1.7830    -0.5470    -2.1430 H     1 <1>   0.1500 
 26 H       -2.3300    -2.9310    -2.3760 H     1 <1>   0.1500 
 27 H       -5.3570    -6.5940    -2.0800 H     1 <1>   0.0800 
 28 H       -3.7720    -6.9510    -1.4250 H     1 <1>   0.0800 
 29 H       -5.5920    -3.3230    -0.3000 H     1 <1>   0.0800 
 30 H       -6.3930    -4.2550    -1.5280 H     1 <1>   0.0800 
 31 H       -4.9020    -6.3280     0.7920 H     1 <1>   0.0800 
 32 H       -5.9960    -5.0730     1.3880 H     1 <1>   0.0800 
 33 H       -7.3460    -4.4340     0.7240 H     1 <1>   0.0800 
 34 H       -5.4780    -8.4650     1.4240 H     1 <1>   0.4500 
 35 H       -4.2680    -9.5090    -1.0090 H     1 <1>   0.0800 
 36 H       -5.2050   -10.3310     0.2240 H     1 <1>   0.0800 
 37 H       -2.8170    -7.9930     0.2020 H     1 <1>   0.0800 
 38 H       -3.1470    -9.1210     1.5020 H     1 <1>   0.0800 
 39 H       -3.3440    -7.3990     1.7540 H     1 <1>   0.0800 
 40 H       -7.7930    -8.6360     0.3840 H     1 <1>   0.0800 
 41 H       -8.0600    -8.0830    -1.2450 H     1 <1>   0.0800 
 42 H       -9.2210    -6.9090    -0.3400 H     1 <1>   0.0800 
 43 H       -8.7240    -5.3130    -0.3460 H     1 <1>   0.0800 
 44 H       -6.0880    -8.7740    -2.0960 H     1 <1>   0.0800 
 45 H       -6.8770   -10.0670    -1.2830 H     1 <1>   0.0800 
 46 H       -9.8020    -5.9910     1.5540 H     1 <1>   0.4000 
@<TRIPOS>BOND
  1   1   2  1   
  2   2   3  ar  
  3   2   4  ar  
  4   3   5  1   
  5   3   6  ar  
  6   4   7  ar  
  7   4  24  1   
  8   6   8  1   
  9   6   9  ar  
 10   7   9  ar  
 11   7  25  1   
 12   8  10  2   
 13   8  11  am  
 14   9  26  1   
 15  11  12  1   
 16  11  13  1   
 17  12  14  1   
 18  12  27  1   
 19  12  28  1   
 20  13  15  1   
 21  13  29  1   
 22  13  30  1   
 23  14  16  1   
 24  14  17  1   
 25  14  31  1   
 26  15  17  1   
 27  15  32  1   
 28  15  33  1   
 29  16  18  1   
 30  16  19  1   
 31  16  34  1   
 32  17  20  1   
 33  17  21  1   
 34  18  22  1   
 35  18  35  1   
 36  18  36  1   
 37  19  37  1   
 38  19  38  1   
 39  19  39  1   
 40  20  22  1   
 41  20  40  1   
 42  20  41  1   
 43  21  23  1   
 44  21  42  1   
 45  21  43  1   
 46  22  44  1   
 47  22  45  1   
 48  23  46  1   
@<TRIPOS>SUBSTRUCTURE
  1 ****  11 GROUP 4 **** **** 0

# MOE 2024.06 (io_trps.svl 2023.06)
