@<TRIPOS>MOLECULE
NONAME
61 64 1 0 0 
SMALL
USER_CHARGES


@<TRIPOS>ATOM
  1 O       -1.2820    -0.0610    -0.3600 O.3   1 <1>  -0.6800 
  2 C       -2.1570    -1.0540     0.0490 C.3   1 <1>   0.2000 
  3 C       -1.8230    -2.3730    -0.6710 C.3   1 <1>   0.2090 
  4 C       -3.5780    -0.5880    -0.2850 C.3   1 <1>  -0.1600 
  5 N       -2.8400    -3.4290    -0.3410 N.pl3 1 <1>  -0.8380 
  6 C       -4.5940    -1.7090    -0.0070 C.3   1 <1>  -0.1600 
  7 C       -2.5460    -4.6750     0.1150 C.ar  1 <1>   0.4100 
  8 C       -4.2270    -3.0140    -0.7240 C.3   1 <1>   0.2090 
  9 N       -3.3610    -5.6610    -0.2180 N.ar  1 <1>  -0.6200 
 10 C       -1.4130    -4.9120     0.9190 C.ar  1 <1>  -0.1500 
 11 C       -3.0700    -6.8750     0.1890 C.ar  1 <1>   0.7710 
 12 C       -1.1390    -6.1740     1.3250 C.ar  1 <1>   0.2110 
 13 N       -1.9880    -7.1600     0.9390 N.ar  1 <1>  -0.1790 
 14 N       -3.9410    -7.8150    -0.2120 N.pl3 1 <1>  -0.8690 
 15 C       -4.0840    -9.2880    -0.0020 C.3   1 <1>   0.2090 
 16 C       -5.5780    -9.6820     0.1410 C.3   1 <1>   0.3430 
 17 N       -5.8240   -11.1630     0.2430 N.4   1 <1>  -0.9590 
 18 C       -5.5180   -11.8910    -1.0330 C.3   1 <1>   0.3430 
 19 C       -7.2410   -11.4110     0.6630 C.3   1 <1>   0.3430 
 20 C       -5.7000   -13.3930    -0.8310 C.3   1 <1>  -0.1600 
 21 C       -7.4610   -12.9030     0.9020 C.3   1 <1>  -0.1600 
 22 C       -7.1180   -13.7220    -0.3480 C.3   1 <1>   0.0630 
 23 C       -7.2830   -15.2160    -0.0960 C.ar  1 <1>  -0.1430 
 24 C       -6.5330   -15.8800     0.8670 C.ar  1 <1>  -0.1500 
 25 C       -8.2030   -15.9390    -0.8430 C.ar  1 <1>  -0.1500 
 26 C       -6.7000   -17.2370     1.0780 C.ar  1 <1>  -0.1500 
 27 C       -8.3710   -17.2970    -0.6330 C.ar  1 <1>  -0.1500 
 28 C       -7.6190   -17.9470     0.3280 C.ar  1 <1>  -0.1500 
 29 H       -0.3990    -0.1810     0.0390 H     1 <1>   0.4000 
 30 H       -2.0500    -1.1770     1.1130 H     1 <1>   0.0800 
 31 H       -0.8310    -2.6910    -0.4100 H     1 <1>   0.0800 
 32 H       -1.8460    -2.2000    -1.7340 H     1 <1>   0.0800 
 33 H       -3.6280    -0.3180    -1.3260 H     1 <1>   0.0800 
 34 H       -3.8220     0.2770     0.3060 H     1 <1>   0.0800 
 35 H       -5.5700    -1.3930    -0.3290 H     1 <1>   0.0800 
 36 H       -4.6450    -1.8990     1.0510 H     1 <1>   0.0800 
 37 H       -4.9450    -3.7710    -0.4580 H     1 <1>   0.0800 
 38 H       -4.2720    -2.8720    -1.7910 H     1 <1>   0.0800 
 39 H       -0.7910    -4.0870     1.2080 H     1 <1>   0.1500 
 40 H       -0.2850    -6.4170     1.9380 H     1 <1>   0.1500 
 41 H       -1.8240    -8.1270     1.1900 H     1 <1>   0.4570 
 42 H       -4.6320    -7.4010    -0.8550 H     1 <1>   0.4000 
 43 H       -3.5510    -9.5880     0.8830 H     1 <1>   0.0800 
 44 H       -3.6600    -9.7910    -0.8550 H     1 <1>   0.0800 
 45 H       -6.1200    -9.2970    -0.7080 H     1 <1>   0.0800 
 46 H       -5.9650    -9.2000     1.0240 H     1 <1>   0.0800 
 47 H       -5.2360   -11.5710     0.9830 H     1 <1>   0.4500 
 48 H       -4.5040   -11.6990    -1.3430 H     1 <1>   0.0800 
 49 H       -6.1800   -11.5530    -1.8150 H     1 <1>   0.0800 
 50 H       -7.9180   -11.0690    -0.1040 H     1 <1>   0.0800 
 51 H       -7.4610   -10.8720     1.5710 H     1 <1>   0.0800 
 52 H       -4.9670   -13.7530    -0.1310 H     1 <1>   0.0800 
 53 H       -5.5230   -13.8990    -1.7650 H     1 <1>   0.0800 
 54 H       -8.4930   -13.0720     1.1580 H     1 <1>   0.0800 
 55 H       -6.8690   -13.2220     1.7410 H     1 <1>   0.0800 
 56 H       -7.8050   -13.4350    -1.1270 H     1 <1>   0.0800 
 57 H       -5.8110   -15.3550     1.4660 H     1 <1>   0.1500 
 58 H       -8.8010   -15.4580    -1.5970 H     1 <1>   0.1500 
 59 H       -6.1150   -17.7450     1.8260 H     1 <1>   0.1500 
 60 H       -9.0860   -17.8480    -1.2170 H     1 <1>   0.1500 
 61 H       -7.7490   -19.0030     0.4920 H     1 <1>   0.1500 
@<TRIPOS>BOND
  1   1   2  1   
  2   1  29  1   
  3   2   3  1   
  4   2   4  1   
  5   2  30  1   
  6   3   5  1   
  7   3  31  1   
  8   3  32  1   
  9   4   6  1   
 10   4  33  1   
 11   4  34  1   
 12   5   7  1   
 13   5   8  1   
 14   6   8  1   
 15   6  35  1   
 16   6  36  1   
 17   7   9  ar  
 18   7  10  ar  
 19   8  37  1   
 20   8  38  1   
 21   9  11  ar  
 22  10  12  ar  
 23  10  39  1   
 24  11  13  ar  
 25  11  14  1   
 26  12  13  ar  
 27  12  40  1   
 28  13  41  1   
 29  14  15  1   
 30  14  42  1   
 31  15  16  1   
 32  15  43  1   
 33  15  44  1   
 34  16  17  1   
 35  16  45  1   
 36  16  46  1   
 37  17  18  1   
 38  17  19  1   
 39  17  47  1   
 40  18  20  1   
 41  18  48  1   
 42  18  49  1   
 43  19  21  1   
 44  19  50  1   
 45  19  51  1   
 46  20  22  1   
 47  20  52  1   
 48  20  53  1   
 49  21  22  1   
 50  21  54  1   
 51  21  55  1   
 52  22  23  1   
 53  22  56  1   
 54  23  24  ar  
 55  23  25  ar  
 56  24  26  ar  
 57  24  57  1   
 58  25  27  ar  
 59  25  58  1   
 60  26  28  ar  
 61  26  59  1   
 62  27  28  ar  
 63  27  60  1   
 64  28  61  1   
@<TRIPOS>SUBSTRUCTURE
  1 ****  15 GROUP 4 **** **** 0

# MOE 2024.06 (io_trps.svl 2023.06)
