@<TRIPOS>MOLECULE
NONAME
56 60 1 0 0 
SMALL
USER_CHARGES


@<TRIPOS>ATOM
  1 O       -0.7170     0.3700     0.9590 O.2   1 <1>  -0.5700 
  2 C       -1.6740     0.9690     0.5100 C.2   1 <1>   0.5440 
  3 N       -2.7870     0.2480     0.1370 N.am  1 <1>  -0.6600 
  4 C       -1.6050     2.3980     0.3670 C.ar  1 <1>   0.0860 
  5 C       -3.7720     0.6840    -0.8920 C.3   1 <1>   0.1400 
  6 C       -2.8700    -1.2290     0.3170 C.3   1 <1>   0.1400 
  7 C       -0.4910     3.0270    -0.1540 C.ar  1 <1>   0.1600 
  8 C       -2.6280     3.2460     0.7420 C.ar  1 <1>   0.1600 
  9 C       -4.7350    -0.4930    -1.0280 C.3   1 <1>   0.2000 
 10 C       -3.8560    -1.7180    -0.7530 C.3   1 <1>  -0.0800 
 11 N       -0.4110     4.3240    -0.3230 N.ar  1 <1>  -0.6200 
 12 N       -2.5830     4.5460     0.5850 N.ar  1 <1>  -0.6200 
 13 O       -5.6980    -0.3750    -0.0360 O.3   1 <1>  -0.6800 
 14 C       -4.6370    -2.9920    -0.3620 C.3   1 <1>  -0.0170 
 15 C       -1.4680     5.0460     0.0500 C.ar  1 <1>   0.7200 
 16 C       -3.8280    -4.2880    -0.2230 C.ar  1 <1>  -0.1430 
 17 N       -1.4050     6.4060    -0.1300 N.pl3 1 <1>  -0.8380 
 18 C       -4.4480    -5.4450     0.3110 C.ar  1 <1>   0.0000 
 19 C       -2.5190    -4.4080    -0.6010 C.ar  1 <1>  -0.1500 
 20 C       -2.5070     7.3470     0.2420 C.3   1 <1>   0.2090 
 21 C       -0.2100     7.1150    -0.6900 C.3   1 <1>   0.2090 
 22 C       -3.6680    -6.6210     0.4380 C.ar  1 <1>   0.3100 
 23 C       -5.8010    -5.5090     0.7220 C.ar  1 <1>  -0.1500 
 24 C       -1.8400    -5.6210    -0.4370 C.ar  1 <1>   0.1600 
 25 C       -1.9660     8.5120     1.0900 C.3   1 <1>   0.1200 
 26 C        0.1960     8.2930     0.2130 C.3   1 <1>   0.1200 
 27 N       -2.3680    -6.6920     0.0610 N.ar  1 <1>  -0.6200 
 28 C       -4.2570    -7.7780     0.9740 C.ar  1 <1>  -0.1500 
 29 C       -6.3460    -6.6530     1.2380 C.ar  1 <1>  -0.1500 
 30 O       -0.8900     9.1450     0.4530 O.3   1 <1>  -0.5600 
 31 C       -5.5660    -7.8040     1.3690 C.ar  1 <1>  -0.1500 
 32 H       -4.2940     1.5820    -0.6100 H     1 <1>   0.0800 
 33 H       -3.2580     0.8440    -1.8240 H     1 <1>   0.0800 
 34 H       -1.9020    -1.6870     0.2020 H     1 <1>   0.0800 
 35 H       -3.2390    -1.4400     1.3060 H     1 <1>   0.0800 
 36 H        0.3560     2.4250    -0.4380 H     1 <1>   0.1500 
 37 H       -3.5130     2.8280     1.1890 H     1 <1>   0.1500 
 38 H       -5.2310    -0.5260    -1.9830 H     1 <1>   0.0800 
 39 H       -3.3040    -1.9120    -1.6550 H     1 <1>   0.0800 
 40 H       -5.2540    -0.2290     0.8230 H     1 <1>   0.4000 
 41 H       -5.4040    -3.1570    -1.0990 H     1 <1>   0.0800 
 42 H       -5.1290    -2.8060     0.5770 H     1 <1>   0.0800 
 43 H       -1.9590    -3.6030    -1.0330 H     1 <1>   0.1500 
 44 H       -2.9500     7.7420    -0.6550 H     1 <1>   0.0800 
 45 H       -3.2820     6.8500     0.7980 H     1 <1>   0.0800 
 46 H        0.6320     6.4540    -0.7890 H     1 <1>   0.0800 
 47 H       -0.4500     7.4880    -1.6700 H     1 <1>   0.0800 
 48 H       -6.4270    -4.6420     0.6270 H     1 <1>   0.1500 
 49 H       -0.8090    -5.6650    -0.7450 H     1 <1>   0.1500 
 50 H       -1.6350     8.1510     2.0490 H     1 <1>   0.0800 
 51 H       -2.7350     9.2470     1.2440 H     1 <1>   0.0800 
 52 H        0.9690     8.8710    -0.2600 H     1 <1>   0.0800 
 53 H        0.5640     7.9280     1.1560 H     1 <1>   0.0800 
 54 H       -3.6370    -8.6510     1.0620 H     1 <1>   0.1500 
 55 H       -7.3770    -6.6830     1.5480 H     1 <1>   0.1500 
 56 H       -6.0040    -8.6980     1.7780 H     1 <1>   0.1500 
@<TRIPOS>BOND
  1   1   2  2   
  2   2   3  am  
  3   2   4  1   
  4   3   5  1   
  5   3   6  1   
  6   4   7  ar  
  7   4   8  ar  
  8   5   9  1   
  9   5  32  1   
 10   5  33  1   
 11   6  10  1   
 12   6  34  1   
 13   6  35  1   
 14   7  11  ar  
 15   7  36  1   
 16   8  12  ar  
 17   8  37  1   
 18   9  10  1   
 19   9  13  1   
 20   9  38  1   
 21  10  14  1   
 22  10  39  1   
 23  11  15  ar  
 24  12  15  ar  
 25  13  40  1   
 26  14  16  1   
 27  14  41  1   
 28  14  42  1   
 29  15  17  1   
 30  16  18  ar  
 31  16  19  ar  
 32  17  20  1   
 33  17  21  1   
 34  18  22  ar  
 35  18  23  ar  
 36  19  24  ar  
 37  19  43  1   
 38  20  25  1   
 39  20  44  1   
 40  20  45  1   
 41  21  26  1   
 42  21  46  1   
 43  21  47  1   
 44  22  27  ar  
 45  22  28  ar  
 46  23  29  ar  
 47  23  48  1   
 48  24  27  ar  
 49  24  49  1   
 50  25  30  1   
 51  25  50  1   
 52  25  51  1   
 53  26  30  1   
 54  26  52  1   
 55  26  53  1   
 56  28  31  ar  
 57  28  54  1   
 58  29  31  ar  
 59  29  55  1   
 60  31  56  1   
@<TRIPOS>SUBSTRUCTURE
  1 ****   3 GROUP 4 **** **** 0

# MOE 2024.06 (io_trps.svl 2023.06)
