@<TRIPOS>MOLECULE
NONAME
46 49 1 0 0 
SMALL
USER_CHARGES


@<TRIPOS>ATOM
  1 O        4.7600    -4.4820     2.2550 O.2   1 <1>  -0.5700 
  2 C        4.3290    -3.9810     1.2310 C.2   1 <1>   0.7160 
  3 N        3.4770    -4.6790     0.4350 N.am  1 <1>  -0.4900 
  4 C        4.6430    -2.6720     0.7870 C.2   1 <1>  -0.0860 
  5 C        2.9300    -4.1340    -0.7050 C.2   1 <1>   0.4490 
  6 C        4.0750    -2.2050    -0.3570 C.2   1 <1>  -0.0260 
  7 C        5.4450    -1.6230     1.2330 C.2   1 <1>   0.1390 
  8 N        3.1930    -2.9420    -1.1220 N.2   1 <1>  -0.5760 
  9 C        1.9620    -5.0300    -1.4740 C.3   1 <1>   0.1710 
 10 N        4.5430    -0.9490    -0.5410 N.pl3 1 <1>   0.3140 
 11 N        5.3930    -0.5890     0.4490 N.2   1 <1>  -0.7070 
 12 N        1.0180    -5.7180    -0.5600 N.3   1 <1>  -0.8100 
 13 C        4.2140    -0.0390    -1.6440 C.3   1 <1>   0.0160 
 14 C        0.5480    -7.0520    -1.0600 C.3   1 <1>   0.2510 
 15 C       -0.0820    -4.8570    -0.0710 C.3   1 <1>   0.1100 
 16 C       -0.8270    -7.0400    -1.7660 C.2   1 <1>   0.5690 
 17 C        0.5670    -8.0530     0.1070 C.3   1 <1>  -0.0160 
 18 C       -1.1950    -4.6420    -1.1160 C.3   1 <1>   0.1400 
 19 O       -1.2120    -8.0260    -2.3450 O.2   1 <1>  -0.5700 
 20 N       -1.5960    -5.9230    -1.7480 N.am  1 <1>  -0.7300 
 21 C        1.9460    -8.1000     0.7570 C.ar  1 <1>  -0.1440 
 22 C        2.1980    -7.3870     1.9190 C.ar  1 <1>  -0.1500 
 23 C        2.9690    -8.8330     0.1750 C.ar  1 <1>  -0.1500 
 24 C        3.4610    -7.3920     2.4840 C.ar  1 <1>  -0.1500 
 25 C        4.2320    -8.8410     0.7390 C.ar  1 <1>  -0.1500 
 26 C        4.4790    -8.1170     1.8920 C.ar  1 <1>  -0.1500 
 27 H        3.1850    -5.6120     0.7380 H     1 <1>   0.3700 
 28 H        6.0420    -1.6670     2.1290 H     1 <1>   0.1500 
 29 H        2.5590    -5.7570    -1.9950 H     1 <1>   0.0800 
 30 H        1.4270    -4.4540    -2.2080 H     1 <1>   0.0800 
 31 H        3.7730    -0.5960    -2.4490 H     1 <1>   0.0800 
 32 H        5.1140     0.4400    -1.9810 H     1 <1>   0.0800 
 33 H        3.5220     0.7010    -1.2890 H     1 <1>   0.0800 
 34 H        1.2530    -7.4200    -1.7830 H     1 <1>   0.0800 
 35 H        0.3100    -3.9040     0.2410 H     1 <1>   0.0800 
 36 H       -0.5180    -5.3190     0.7990 H     1 <1>   0.0800 
 37 H        0.3140    -9.0310    -0.2630 H     1 <1>   0.0800 
 38 H       -0.1810    -7.7810     0.8280 H     1 <1>   0.0800 
 39 H       -0.8520    -3.9630    -1.8770 H     1 <1>   0.0800 
 40 H       -2.0500    -4.1990    -0.6340 H     1 <1>   0.0800 
 41 H       -2.4780    -5.9570    -2.2650 H     1 <1>   0.3700 
 42 H        1.4130    -6.8150     2.3830 H     1 <1>   0.1500 
 43 H        2.7870    -9.3990    -0.7230 H     1 <1>   0.1500 
 44 H        3.6560    -6.8280     3.3810 H     1 <1>   0.1500 
 45 H        5.0240    -9.4090     0.2830 H     1 <1>   0.1500 
 46 H        5.4620    -8.1150     2.3310 H     1 <1>   0.1500 
@<TRIPOS>BOND
  1   1   2  2   
  2   2   3  am  
  3   2   4  1   
  4   3   5  1   
  5   3  27  1   
  6   4   6  2   
  7   4   7  1   
  8   5   8  2   
  9   5   9  1   
 10   6   8  1   
 11   6  10  1   
 12   7  11  2   
 13   7  28  1   
 14   9  12  1   
 15   9  29  1   
 16   9  30  1   
 17  10  11  1   
 18  10  13  1   
 19  12  14  1   
 20  12  15  1   
 21  13  31  1   
 22  13  32  1   
 23  13  33  1   
 24  14  16  1   
 25  14  17  1   
 26  14  34  1   
 27  15  18  1   
 28  15  35  1   
 29  15  36  1   
 30  16  19  2   
 31  16  20  am  
 32  17  21  1   
 33  17  37  1   
 34  17  38  1   
 35  18  20  1   
 36  18  39  1   
 37  18  40  1   
 38  20  41  1   
 39  21  22  ar  
 40  21  23  ar  
 41  22  24  ar  
 42  22  42  1   
 43  23  25  ar  
 44  23  43  1   
 45  24  26  ar  
 46  24  44  1   
 47  25  26  ar  
 48  25  45  1   
 49  26  46  1   
@<TRIPOS>SUBSTRUCTURE
  1 ****   3 GROUP 4 **** **** 0

# MOE 2024.06 (io_trps.svl 2023.06)
