@<TRIPOS>MOLECULE
NONAME
54 58 1 0 0 
SMALL
USER_CHARGES


@<TRIPOS>ATOM
  1 O        0.9440     1.9900    -1.8730 O.2   1 <1>  -0.5700 
  2 C        0.1070     2.6260    -1.2770 C.2   1 <1>   0.5690 
  3 N       -1.2120     2.2340    -1.2530 N.am  1 <1>  -0.6600 
  4 C        0.5950     3.8790    -0.5670 C.3   1 <1>   0.1570 
  5 C       -2.3170     2.9580    -0.5420 C.3   1 <1>   0.1400 
  6 C       -1.6360     0.9280    -1.8390 C.3   1 <1>   0.1400 
  7 N        0.4340     3.7880     0.9000 N.pl3 1 <1>   0.0480 
  8 C       -3.5220     3.1970    -1.4720 C.3   1 <1>   0.1440 
  9 C       -2.8330     1.1250    -2.7780 C.3   1 <1>  -0.1600 
 10 C        0.8510     2.8240     1.7620 C.2   1 <1>   0.0060 
 11 C       -0.1830     4.6960     1.6800 C.2   1 <1>  -0.3020 
 12 C       -4.6130     3.8820    -0.6710 C.ar  1 <1>   0.1660 
 13 C       -3.9900     1.8570    -2.0760 C.3   1 <1>  -0.1600 
 14 C       -3.2020     4.2470    -2.5710 C.3   1 <1>  -0.1600 
 15 N        0.5330     3.0580     2.9930 N.2   1 <1>  -0.5650 
 16 C        1.6180     1.5840     1.3450 C.3   1 <1>  -0.0600 
 17 C       -0.1160     4.2330     2.9460 C.2   1 <1>   0.0770 
 18 N       -5.3390     3.3150     0.2620 N.ar  1 <1>  -0.6200 
 19 C       -4.7470     5.1910    -1.0170 C.ar  1 <1>  -0.1440 
 20 C       -3.7730     5.5950    -2.0950 C.3   1 <1>  -0.0160 
 21 C       -6.2460     4.1010     0.8580 C.ar  1 <1>   0.6200 
 22 C       -5.6980     5.9300    -0.3630 C.ar  1 <1>   0.1600 
 23 N       -6.4510     5.3950     0.5710 N.ar  1 <1>  -0.6200 
 24 C       -7.0690     3.5030     1.9000 C.ar  1 <1>   0.0000 
 25 C       -8.3700     3.9490     2.1530 C.ar  1 <1>  -0.1500 
 26 C       -6.5960     2.4560     2.6970 C.ar  1 <1>  -0.1500 
 27 C       -9.1540     3.3840     3.1420 C.ar  1 <1>  -0.1500 
 28 C       -7.3750     1.8860     3.6880 C.ar  1 <1>  -0.1500 
 29 C       -8.6580     2.3500     3.9140 C.ar  1 <1>  -0.1500 
 30 H        0.0530     4.7270    -0.9340 H     1 <1>   0.0800 
 31 H        1.6370     4.0220    -0.7840 H     1 <1>   0.0800 
 32 H       -1.9860     3.9050    -0.1630 H     1 <1>   0.0800 
 33 H       -2.6320     2.3640     0.3000 H     1 <1>   0.0800 
 34 H       -1.9110     0.2620    -1.0380 H     1 <1>   0.0800 
 35 H       -0.8280     0.4710    -2.3840 H     1 <1>   0.0800 
 36 H       -3.1720     0.1640    -3.1190 H     1 <1>   0.0800 
 37 H       -2.5090     1.6790    -3.6420 H     1 <1>   0.0800 
 38 H       -0.6280     5.6020     1.3130 H     1 <1>   0.1500 
 39 H       -4.7990     2.0220    -2.7660 H     1 <1>   0.0800 
 40 H       -4.3670     1.2300    -1.2850 H     1 <1>   0.0800 
 41 H       -3.7080     3.9780    -3.4820 H     1 <1>   0.0800 
 42 H       -2.1500     4.3140    -2.7840 H     1 <1>   0.0800 
 43 H        2.4420     1.8470     0.7070 H     1 <1>   0.0800 
 44 H        0.9680     0.9050     0.8240 H     1 <1>   0.0800 
 45 H        2.0040     1.0860     2.2160 H     1 <1>   0.0800 
 46 H       -0.5040     4.6900     3.8410 H     1 <1>   0.1500 
 47 H       -4.2640     6.1210    -2.8960 H     1 <1>   0.0800 
 48 H       -2.9990     6.2110    -1.6720 H     1 <1>   0.0800 
 49 H       -5.8440     6.9690    -0.6040 H     1 <1>   0.1500 
 50 H       -8.7720     4.7530     1.5620 H     1 <1>   0.1500 
 51 H       -5.6000     2.0830     2.5380 H     1 <1>   0.1500 
 52 H      -10.1510     3.7510     3.3120 H     1 <1>   0.1500 
 53 H       -6.9810     1.0820     4.2850 H     1 <1>   0.1500 
 54 H       -9.2660     1.9090     4.6840 H     1 <1>   0.1500 
@<TRIPOS>BOND
  1   1   2  2   
  2   2   3  am  
  3   2   4  1   
  4   3   5  1   
  5   3   6  1   
  6   4   7  1   
  7   4  30  1   
  8   4  31  1   
  9   5   8  1   
 10   5  32  1   
 11   5  33  1   
 12   6   9  1   
 13   6  34  1   
 14   6  35  1   
 15   7  10  1   
 16   7  11  1   
 17   8  12  1   
 18   8  13  1   
 19   8  14  1   
 20   9  13  1   
 21   9  36  1   
 22   9  37  1   
 23  10  15  2   
 24  10  16  1   
 25  11  17  2   
 26  11  38  1   
 27  12  18  ar  
 28  12  19  ar  
 29  13  39  1   
 30  13  40  1   
 31  14  20  1   
 32  14  41  1   
 33  14  42  1   
 34  15  17  1   
 35  16  43  1   
 36  16  44  1   
 37  16  45  1   
 38  17  46  1   
 39  18  21  ar  
 40  19  20  1   
 41  19  22  ar  
 42  20  47  1   
 43  20  48  1   
 44  21  23  ar  
 45  21  24  1   
 46  22  23  ar  
 47  22  49  1   
 48  24  25  ar  
 49  24  26  ar  
 50  25  27  ar  
 51  25  50  1   
 52  26  28  ar  
 53  26  51  1   
 54  27  29  ar  
 55  27  52  1   
 56  28  29  ar  
 57  28  53  1   
 58  29  54  1   
@<TRIPOS>SUBSTRUCTURE
  1 ****   5 GROUP 4 **** **** 0

# MOE 2024.06 (io_trps.svl 2023.06)
