@<TRIPOS>MOLECULE
NONAME
43 45 1 0 0 
SMALL
USER_CHARGES


@<TRIPOS>ATOM
  1 F        5.0120    -0.1730     0.1990 F     1 <1>  -0.3400 
  2 C        4.8800    -1.3230     0.8500 C.3   1 <1>   1.1640 
  3 F        6.0230    -1.9780     0.6810 F     1 <1>  -0.3400 
  4 F        4.8130    -1.0150     2.1390 F     1 <1>  -0.3400 
  5 C        3.6520    -2.1270     0.3910 C.ar  1 <1>  -0.1440 
  6 C        2.4910    -1.4800    -0.0190 C.ar  1 <1>  -0.1500 
  7 C        3.6670    -3.5180     0.3790 C.ar  1 <1>  -0.1500 
  8 C        1.3840    -2.2020    -0.4270 C.ar  1 <1>  -0.1500 
  9 C        2.5560    -4.2340    -0.0300 C.ar  1 <1>  -0.1500 
 10 C        1.3860    -3.5960    -0.4350 C.ar  1 <1>   0.0860 
 11 C        0.2260    -4.3620    -0.8540 C.2   1 <1>   0.5440 
 12 O        0.3740    -5.2540    -1.6680 O.2   1 <1>  -0.5700 
 13 N       -1.0370    -4.1160    -0.3470 N.am  1 <1>  -0.6600 
 14 C       -2.2270    -4.7190    -1.0200 C.3   1 <1>   0.2200 
 15 C       -1.2390    -3.4040     0.9520 C.3   1 <1>   0.0600 
 16 C       -2.6890    -6.0010    -0.3410 C.3   1 <1>  -0.1600 
 17 C       -3.4710    -3.8320    -1.0470 C.3   1 <1>  -0.1600 
 18 C       -4.1220    -6.2090    -0.8500 C.3   1 <1>  -0.0800 
 19 C       -4.6300    -4.8100    -1.2840 C.3   1 <1>  -0.0800 
 20 C       -5.0100    -6.9620     0.1600 C.3   1 <1>   0.1400 
 21 C       -5.9440    -4.3710    -0.6060 C.3   1 <1>  -0.0990 
 22 N       -6.4330    -6.7280    -0.1580 N.am  1 <1>  -0.7300 
 23 C       -6.9190    -5.5260    -0.5280 C.2   1 <1>   0.5690 
 24 O       -8.0860    -5.3670    -0.7770 O.2   1 <1>  -0.5700 
 25 H        2.4430    -0.4020    -0.0250 H     1 <1>   0.1500 
 26 H        4.5480    -4.0580     0.6880 H     1 <1>   0.1500 
 27 H        0.4990    -1.6830    -0.7520 H     1 <1>   0.1500 
 28 H        2.5850    -5.3100    -0.0430 H     1 <1>   0.1500 
 29 H       -1.9790    -4.9550    -2.0430 H     1 <1>   0.0800 
 30 H       -1.9860    -3.9050     1.5420 H     1 <1>   0.0800 
 31 H       -1.5590    -2.3940     0.7650 H     1 <1>   0.0800 
 32 H       -0.3270    -3.3830     1.5210 H     1 <1>   0.0800 
 33 H       -2.0500    -6.8260    -0.6030 H     1 <1>   0.0800 
 34 H       -2.6890    -5.8710     0.7260 H     1 <1>   0.0800 
 35 H       -3.6110    -3.3390    -0.1030 H     1 <1>   0.0800 
 36 H       -3.4090    -3.0970    -1.8300 H     1 <1>   0.0800 
 37 H       -4.0640    -6.8160    -1.7380 H     1 <1>   0.0800 
 38 H       -4.8140    -4.8600    -2.3450 H     1 <1>   0.0800 
 39 H       -4.8240    -6.6070     1.1600 H     1 <1>   0.0800 
 40 H       -4.7930    -8.0160     0.1260 H     1 <1>   0.0800 
 41 H       -6.3900    -3.5600    -1.1520 H     1 <1>   0.0800 
 42 H       -5.7580    -4.0410     0.3980 H     1 <1>   0.0800 
 43 H       -7.0950    -7.5030    -0.0760 H     1 <1>   0.3700 
@<TRIPOS>BOND
  1   1   2  1   
  2   2   3  1   
  3   2   4  1   
  4   2   5  1   
  5   5   6  ar  
  6   5   7  ar  
  7   6   8  ar  
  8   6  25  1   
  9   7   9  ar  
 10   7  26  1   
 11   8  10  ar  
 12   8  27  1   
 13   9  10  ar  
 14   9  28  1   
 15  10  11  1   
 16  11  12  2   
 17  11  13  am  
 18  13  14  1   
 19  13  15  1   
 20  14  16  1   
 21  14  17  1   
 22  14  29  1   
 23  15  30  1   
 24  15  31  1   
 25  15  32  1   
 26  16  18  1   
 27  16  33  1   
 28  16  34  1   
 29  17  19  1   
 30  17  35  1   
 31  17  36  1   
 32  18  19  1   
 33  18  20  1   
 34  18  37  1   
 35  19  21  1   
 36  19  38  1   
 37  20  22  1   
 38  20  39  1   
 39  20  40  1   
 40  21  23  1   
 41  21  41  1   
 42  21  42  1   
 43  22  23  am  
 44  22  43  1   
 45  23  24  2   
@<TRIPOS>SUBSTRUCTURE
  1 ****  13 GROUP 4 **** **** 0

# MOE 2024.06 (io_trps.svl 2023.06)
