@<TRIPOS>MOLECULE
NONAME
47 49 1 0 0 
SMALL
USER_CHARGES


@<TRIPOS>ATOM
  1 S       -0.6690     0.0880     0.8900 S.3   1 <1>  -0.0800 
  2 C       -0.8740    -1.3190    -0.1450 C.2   1 <1>  -0.1400 
  3 C        0.5940     0.7230    -0.1500 C.2   1 <1>  -0.1100 
  4 C       -0.0250    -1.2630    -1.1880 C.2   1 <1>  -0.1500 
  5 C       -1.9200    -2.3380     0.2610 C.3   1 <1>   0.3200 
  6 C        0.8110    -0.1010    -1.1910 C.2   1 <1>  -0.1500 
  7 N       -3.2420    -1.7070     0.1840 N.am  1 <1>  -0.7300 
  8 C       -4.4020    -2.3750     0.3620 C.2   1 <1>   0.6900 
  9 O       -4.3750    -3.5830     0.5130 O.2   1 <1>  -0.5700 
 10 N       -5.5830    -1.6830     0.3860 N.am  1 <1>  -0.6600 
 11 C       -6.8390    -2.3670     0.8080 C.3   1 <1>   0.1400 
 12 C       -5.7040    -0.2650    -0.0630 C.3   1 <1>   0.1400 
 13 C       -7.8090    -1.3600     1.4330 C.3   1 <1>  -0.1600 
 14 C       -7.1060    -0.0100    -0.6170 C.3   1 <1>  -0.1600 
 15 C       -8.1890    -0.2080     0.4700 C.3   1 <1>   0.2800 
 16 O       -8.1330     0.9680     1.2510 O.3   1 <1>  -0.5600 
 17 C       -9.6140    -0.4400    -0.1320 C.3   1 <1>   0.2000 
 18 C       -9.2540     1.8000     1.3360 C.3   1 <1>   0.1200 
 19 O       -9.6330    -1.5460    -0.9980 O.3   1 <1>  -0.6800 
 20 C      -10.2390     0.8390    -0.7780 C.3   1 <1>   0.2800 
 21 C       -9.7470     2.1160    -0.0760 C.3   1 <1>  -0.1600 
 22 O      -11.6050     0.7800    -0.5750 O.3   1 <1>  -0.6800 
 23 C      -10.0590     0.9560    -2.2990 C.3   1 <1>  -0.2400 
 24 H        1.0450     1.6580     0.1330 H     1 <1>   0.1500 
 25 H        0.0530    -1.9980    -1.9710 H     1 <1>   0.1500 
 26 H       -1.7390    -2.6760     1.2670 H     1 <1>   0.0800 
 27 H       -1.8910    -3.1880    -0.4000 H     1 <1>   0.0800 
 28 H        1.5320     0.0580    -1.9740 H     1 <1>   0.1500 
 29 H       -3.2450    -0.6980     0.2970 H     1 <1>   0.3700 
 30 H       -7.2930    -2.8340    -0.0510 H     1 <1>   0.0800 
 31 H       -6.6100    -3.1380     1.5240 H     1 <1>   0.0800 
 32 H       -5.5180     0.3880     0.7730 H     1 <1>   0.0800 
 33 H       -4.9770    -0.0610    -0.8310 H     1 <1>   0.0800 
 34 H       -7.3390    -0.9640     2.3160 H     1 <1>   0.0800 
 35 H       -8.6880    -1.8900     1.7500 H     1 <1>   0.0800 
 36 H       -7.2550    -0.6880    -1.4360 H     1 <1>   0.0800 
 37 H       -7.1550     0.9880    -1.0090 H     1 <1>   0.0800 
 38 H      -10.2480    -0.7150     0.6930 H     1 <1>   0.0800 
 39 H      -10.0130     1.3060     1.9200 H     1 <1>   0.0800 
 40 H       -8.9530     2.6990     1.8440 H     1 <1>   0.0800 
 41 H       -9.3490    -1.2780    -1.8900 H     1 <1>   0.4000 
 42 H       -8.9240     2.5500    -0.6160 H     1 <1>   0.0800 
 43 H      -10.5260     2.8560    -0.0350 H     1 <1>   0.0800 
 44 H      -12.0510     1.4700    -1.1000 H     1 <1>   0.4000 
 45 H       -9.0170     0.9440    -2.5570 H     1 <1>   0.0800 
 46 H      -10.4760     1.8810    -2.6570 H     1 <1>   0.0800 
 47 H      -10.5460     0.1410    -2.8040 H     1 <1>   0.0800 
@<TRIPOS>BOND
  1   1   2  1   
  2   1   3  1   
  3   2   4  2   
  4   2   5  1   
  5   3   6  2   
  6   3  24  1   
  7   4   6  1   
  8   4  25  1   
  9   5   7  1   
 10   5  26  1   
 11   5  27  1   
 12   6  28  1   
 13   7   8  am  
 14   7  29  1   
 15   8   9  2   
 16   8  10  am  
 17  10  11  1   
 18  10  12  1   
 19  11  13  1   
 20  11  30  1   
 21  11  31  1   
 22  12  14  1   
 23  12  32  1   
 24  12  33  1   
 25  13  15  1   
 26  13  34  1   
 27  13  35  1   
 28  14  15  1   
 29  14  36  1   
 30  14  37  1   
 31  15  16  1   
 32  15  17  1   
 33  16  18  1   
 34  17  19  1   
 35  17  20  1   
 36  17  38  1   
 37  18  21  1   
 38  18  39  1   
 39  18  40  1   
 40  19  41  1   
 41  20  21  1   
 42  20  22  1   
 43  20  23  1   
 44  21  42  1   
 45  21  43  1   
 46  22  44  1   
 47  23  45  1   
 48  23  46  1   
 49  23  47  1   
@<TRIPOS>SUBSTRUCTURE
  1 ****  12 GROUP 4 **** **** 0

# MOE 2024.06 (io_trps.svl 2023.06)
