@<TRIPOS>MOLECULE
NONAME
52 56 1 0 0 
SMALL
USER_CHARGES


@<TRIPOS>ATOM
  1 O       -0.7120     0.2850     0.7600 O.2   1 <1>  -0.5700 
  2 C       -1.6850     0.9370     0.4060 C.2   1 <1>   0.7160 
  3 N       -2.9220     0.3340     0.5660 N.am  1 <1>  -0.6600 
  4 C       -1.4930     2.2830    -0.1470 C.2   1 <1>   0.2030 
  5 C       -4.2280     0.9530     0.2470 C.3   1 <1>   0.1400 
  6 C       -3.0860    -1.0240     1.1220 C.3   1 <1>   0.1400 
  7 N       -2.3880     3.0300    -0.7840 N.2   1 <1>  -0.7070 
  8 C       -0.2790     2.9870    -0.0780 C.2   1 <1>  -0.1810 
  9 C       -5.2900    -0.0510     0.7140 C.3   1 <1>  -0.0800 
 10 C       -4.5550    -1.3930     0.9130 C.3   1 <1>  -0.0800 
 11 N       -1.7580     4.1690    -1.1110 N.pl3 1 <1>   0.3000 
 12 C       -0.4800     4.1560    -0.7000 C.2   1 <1>  -0.3320 
 13 C        1.0610     2.6130     0.5430 C.3   1 <1>   0.3010 
 14 C       -6.5750    -0.1180    -0.1550 C.3   1 <1>   0.4240 
 15 C       -4.7620    -2.3510    -0.2720 C.3   1 <1>  -0.1600 
 16 C        0.6060     5.2010    -0.8430 C.3   1 <1>   0.0200 
 17 O        1.8740     3.7610     0.6430 O.3   1 <1>  -0.5600 
 18 O       -6.2510     0.0020    -1.4950 O.3   1 <1>  -0.6800 
 19 C       -7.5250     1.0400     0.2150 C.ar  1 <1>  -0.1440 
 20 C       -7.1990    -1.5210    -0.0340 C.3   1 <1>  -0.1600 
 21 C       -6.2570    -2.6550    -0.5060 C.3   1 <1>  -0.1600 
 22 C        1.9630     4.5420    -0.5210 C.3   1 <1>   0.1200 
 23 C       -7.3670     2.2910    -0.3750 C.ar  1 <1>  -0.1500 
 24 C       -8.5400     0.8880     1.1560 C.ar  1 <1>  -0.1500 
 25 C       -8.1950     3.3500    -0.0450 C.ar  1 <1>  -0.1500 
 26 C       -9.3710     1.9450     1.4880 C.ar  1 <1>  -0.1500 
 27 C       -9.2010     3.1780     0.8870 C.ar  1 <1>  -0.1500 
 28 H       -4.3380     1.8930     0.7600 H     1 <1>   0.0800 
 29 H       -4.2670     1.1320    -0.8130 H     1 <1>   0.0800 
 30 H       -2.4210    -1.7160     0.6330 H     1 <1>   0.0800 
 31 H       -2.8520    -0.9960     2.1730 H     1 <1>   0.0800 
 32 H       -5.5940     0.2680     1.6950 H     1 <1>   0.0800 
 33 H       -4.9190    -1.8830     1.8010 H     1 <1>   0.0800 
 34 H       -2.2240     4.9330    -1.6140 H     1 <1>   0.2700 
 35 H        1.5680     1.8820    -0.0610 H     1 <1>   0.0800 
 36 H        0.9240     2.2210     1.5350 H     1 <1>   0.0800 
 37 H       -4.3360    -1.9070    -1.1560 H     1 <1>   0.0800 
 38 H       -4.2350    -3.2730    -0.0960 H     1 <1>   0.0800 
 39 H        0.4280     6.0100    -0.1580 H     1 <1>   0.0800 
 40 H        0.6270     5.5940    -1.8430 H     1 <1>   0.0800 
 41 H       -5.7020    -0.7640    -1.7350 H     1 <1>   0.4000 
 42 H       -7.4290    -1.7020     1.0000 H     1 <1>   0.0800 
 43 H       -8.1260    -1.5550    -0.5790 H     1 <1>   0.0800 
 44 H       -6.5230    -3.5570     0.0180 H     1 <1>   0.0800 
 45 H       -6.4140    -2.8420    -1.5550 H     1 <1>   0.0800 
 46 H        2.7160     5.2930    -0.3590 H     1 <1>   0.0800 
 47 H        2.2750     3.9030    -1.3290 H     1 <1>   0.0800 
 48 H       -6.5910     2.4500    -1.1040 H     1 <1>   0.1500 
 49 H       -8.7040    -0.0500     1.6510 H     1 <1>   0.1500 
 50 H       -8.0550     4.3060    -0.5170 H     1 <1>   0.1500 
 51 H      -10.1510     1.8070     2.2150 H     1 <1>   0.1500 
 52 H       -9.8470     3.9990     1.1440 H     1 <1>   0.1500 
@<TRIPOS>BOND
  1   1   2  2   
  2   2   3  am  
  3   2   4  1   
  4   3   5  1   
  5   3   6  1   
  6   4   7  2   
  7   4   8  1   
  8   5   9  1   
  9   5  28  1   
 10   5  29  1   
 11   6  10  1   
 12   6  30  1   
 13   6  31  1   
 14   7  11  1   
 15   8  12  2   
 16   8  13  1   
 17   9  10  1   
 18   9  14  1   
 19   9  32  1   
 20  10  15  1   
 21  10  33  1   
 22  11  12  1   
 23  11  34  1   
 24  12  16  1   
 25  13  17  1   
 26  13  35  1   
 27  13  36  1   
 28  14  18  1   
 29  14  19  1   
 30  14  20  1   
 31  15  21  1   
 32  15  37  1   
 33  15  38  1   
 34  16  22  1   
 35  16  39  1   
 36  16  40  1   
 37  17  22  1   
 38  18  41  1   
 39  19  23  ar  
 40  19  24  ar  
 41  20  21  1   
 42  20  42  1   
 43  20  43  1   
 44  21  44  1   
 45  21  45  1   
 46  22  46  1   
 47  22  47  1   
 48  23  25  ar  
 49  23  48  1   
 50  24  26  ar  
 51  24  49  1   
 52  25  27  ar  
 53  25  50  1   
 54  26  27  ar  
 55  26  51  1   
 56  27  52  1   
@<TRIPOS>SUBSTRUCTURE
  1 ****   5 GROUP 4 **** **** 0

# MOE 2024.06 (io_trps.svl 2023.06)
