@<TRIPOS>MOLECULE
NONAME
50 52 1 0 0 
SMALL
USER_CHARGES


@<TRIPOS>ATOM
  1 O        1.2900     0.3470     1.8940 O.2   1 <1>  -0.5700 
  2 C        1.7420    -0.6420     1.3640 C.2   1 <1>   0.5690 
  3 N        3.0700    -0.6780     1.0030 N.am  1 <1>  -0.6600 
  4 C        0.7710    -1.7850     1.0660 C.3   1 <1>   0.1810 
  5 C        4.0660     0.1980     1.7050 C.3   1 <1>   0.1400 
  6 C        3.6410    -1.5780    -0.0430 C.3   1 <1>   0.1400 
  7 O        1.3550    -3.0480     1.3430 O.3   1 <1>  -0.3620 
  8 C        4.7900     1.2390     0.8080 C.3   1 <1>   0.4230 
  9 C        4.1900    -0.7670    -1.2370 C.3   1 <1>  -0.0800 
 10 C        0.7560    -4.1970     0.9460 C.ar  1 <1>   0.0820 
 11 N        4.0260     1.6940    -0.4230 N.4   1 <1>  -0.9590 
 12 C        6.2230     0.7870     0.4480 C.3   1 <1>   0.1200 
 13 C        5.7250    -0.7360    -1.3060 C.3   1 <1>   0.1200 
 14 C        3.5380     0.6210    -1.3640 C.3   1 <1>   0.3430 
 15 C       -0.5480    -4.2650     0.4640 C.ar  1 <1>  -0.1500 
 16 C        1.5100    -5.3530     1.0280 C.ar  1 <1>  -0.1500 
 17 C        2.8610     2.5380    -0.0040 C.3   1 <1>   0.2630 
 18 O        6.2750    -0.5120    -0.0510 O.3   1 <1>  -0.5600 
 19 C       -1.0870    -5.4760     0.0550 C.ar  1 <1>  -0.1440 
 20 C        0.9770    -6.5620     0.6230 C.ar  1 <1>  -0.1500 
 21 C       -0.3180    -6.6340     0.1330 C.ar  1 <1>  -0.1440 
 22 C       -2.5160    -5.5120    -0.4670 C.3   1 <1>  -0.0970 
 23 C       -0.8660    -7.9850    -0.3050 C.3   1 <1>  -0.0970 
 24 H        0.4940    -1.7560     0.0290 H     1 <1>   0.0800 
 25 H       -0.1040    -1.6840     1.6810 H     1 <1>   0.0800 
 26 H        3.5760     0.7320     2.5000 H     1 <1>   0.0800 
 27 H        4.7970    -0.4320     2.1820 H     1 <1>   0.0800 
 28 H        4.4110    -2.1940     0.3930 H     1 <1>   0.0800 
 29 H        2.8790    -2.2430    -0.4090 H     1 <1>   0.0800 
 30 H        4.9300     2.1090     1.4260 H     1 <1>   0.0800 
 31 H        3.8840    -1.3060    -2.1160 H     1 <1>   0.0800 
 32 H        4.6680     2.2910    -0.9570 H     1 <1>   0.4500 
 33 H        6.8190     0.7870     1.3440 H     1 <1>   0.0800 
 34 H        6.6860     1.4550    -0.2550 H     1 <1>   0.0800 
 35 H        6.0910     0.0030    -1.9990 H     1 <1>   0.0800 
 36 H        6.0840    -1.7010    -1.6250 H     1 <1>   0.0800 
 37 H        2.4790     0.4870    -1.2150 H     1 <1>   0.0800 
 38 H        3.6700     0.9690    -2.3750 H     1 <1>   0.0800 
 39 H       -1.1580    -3.3850     0.4080 H     1 <1>   0.1500 
 40 H        2.5130    -5.3040     1.4110 H     1 <1>   0.1500 
 41 H        2.1550     1.9490     0.5590 H     1 <1>   0.0800 
 42 H        2.3570     2.9400    -0.8670 H     1 <1>   0.0800 
 43 H        3.1900     3.3570     0.6140 H     1 <1>   0.0800 
 44 H        1.5810    -7.4500     0.6940 H     1 <1>   0.1500 
 45 H       -2.9610    -4.5330    -0.4530 H     1 <1>   0.0800 
 46 H       -3.1150    -6.1610     0.1450 H     1 <1>   0.0800 
 47 H       -2.5300    -5.8730    -1.4800 H     1 <1>   0.0800 
 48 H       -0.1320    -8.7590    -0.1790 H     1 <1>   0.0800 
 49 H       -1.1450    -7.9520    -1.3420 H     1 <1>   0.0800 
 50 H       -1.7290    -8.2410     0.2840 H     1 <1>   0.0800 
@<TRIPOS>BOND
  1   1   2  2   
  2   2   3  am  
  3   2   4  1   
  4   3   5  1   
  5   3   6  1   
  6   4   7  1   
  7   4  24  1   
  8   4  25  1   
  9   5   8  1   
 10   5  26  1   
 11   5  27  1   
 12   6   9  1   
 13   6  28  1   
 14   6  29  1   
 15   7  10  1   
 16   8  11  1   
 17   8  12  1   
 18   8  30  1   
 19   9  13  1   
 20   9  14  1   
 21   9  31  1   
 22  10  15  ar  
 23  10  16  ar  
 24  11  14  1   
 25  11  17  1   
 26  11  32  1   
 27  12  18  1   
 28  12  33  1   
 29  12  34  1   
 30  13  18  1   
 31  13  35  1   
 32  13  36  1   
 33  14  37  1   
 34  14  38  1   
 35  15  19  ar  
 36  15  39  1   
 37  16  20  ar  
 38  16  40  1   
 39  17  41  1   
 40  17  42  1   
 41  17  43  1   
 42  19  21  ar  
 43  19  22  1   
 44  20  21  ar  
 45  20  44  1   
 46  21  23  1   
 47  22  45  1   
 48  22  46  1   
 49  22  47  1   
 50  23  48  1   
 51  23  49  1   
 52  23  50  1   
@<TRIPOS>SUBSTRUCTURE
  1 ****   6 GROUP 4 **** **** 0

# MOE 2024.06 (io_trps.svl 2023.06)
