@<TRIPOS>MOLECULE
NONAME
47 48 1 0 0 
SMALL
USER_CHARGES


@<TRIPOS>ATOM
  1 O        0.2460     1.0840    -0.9490 O.3   1 <1>  -0.0190 
  2 N        0.7310     2.2740    -0.7520 N.2   1 <1>  -0.4100 
  3 C       -0.6970     0.7900    -0.0920 C.2   1 <1>  -0.0400 
  4 C        0.0900     2.7590     0.2550 C.2   1 <1>   0.1080 
  5 C       -0.8480     1.8430     0.7270 C.2   1 <1>  -0.1500 
  6 C       -1.3830    -0.5680    -0.1750 C.3   1 <1>   0.1000 
  7 C        0.3520     4.1460     0.8300 C.3   1 <1>   0.5240 
  8 C       -2.1950    -0.6720    -1.4700 C.3   1 <1>  -0.2400 
  9 C       -2.2930    -0.8130     1.0350 C.3   1 <1>  -0.2400 
 10 N        1.7090     4.6220     0.4110 N.4   1 <1>  -0.9590 
 11 C        2.7880     3.8140     1.0500 C.3   1 <1>   0.4860 
 12 C        1.9220     6.0890     0.5560 C.3   1 <1>   0.3430 
 13 C        4.0920     4.0770     0.3310 C.ar  1 <1>  -0.1440 
 14 C        1.0600     6.8580    -0.4460 C.3   1 <1>  -0.1600 
 15 C        4.3260     3.4920    -0.9060 C.ar  1 <1>   0.1600 
 16 C        5.0640     4.8940     0.8790 C.ar  1 <1>  -0.1500 
 17 C        1.3870     8.3560    -0.4000 C.3   1 <1>  -0.1600 
 18 N        5.4150     3.6760    -1.6280 N.ar  1 <1>  -0.6200 
 19 C        6.2100     5.0840     0.1370 C.ar  1 <1>  -0.1500 
 20 C        0.5310     9.1340    -1.4040 C.3   1 <1>  -0.2400 
 21 C        6.3340     4.4630    -1.0940 C.ar  1 <1>   0.1600 
 22 H       -1.5290     1.9660     1.5510 H     1 <1>   0.1500 
 23 H       -0.6200    -1.3290    -0.1850 H     1 <1>   0.0800 
 24 H        0.2800     4.1170     1.9040 H     1 <1>   0.0800 
 25 H       -0.4060     4.8110     0.4550 H     1 <1>   0.0800 
 26 H       -2.9580     0.0860    -1.4990 H     1 <1>   0.0800 
 27 H       -2.6630    -1.6370    -1.5440 H     1 <1>   0.0800 
 28 H       -1.5510    -0.5420    -2.3230 H     1 <1>   0.0800 
 29 H       -3.0850    -0.0860     1.0690 H     1 <1>   0.0800 
 30 H       -1.7250    -0.7560     1.9460 H     1 <1>   0.0800 
 31 H       -2.7330    -1.7930     0.9740 H     1 <1>   0.0800 
 32 H        1.7650     4.3890    -0.5930 H     1 <1>   0.4500 
 33 H        2.5600     2.7620     0.9770 H     1 <1>   0.0800 
 34 H        2.8840     4.0700     2.0920 H     1 <1>   0.0800 
 35 H        2.9560     6.3240     0.3560 H     1 <1>   0.0800 
 36 H        1.6940     6.4060     1.5610 H     1 <1>   0.0800 
 37 H        0.0150     6.7310    -0.2230 H     1 <1>   0.0800 
 38 H        1.2520     6.4940    -1.4410 H     1 <1>   0.0800 
 39 H        3.5820     2.8370    -1.3340 H     1 <1>   0.1500 
 40 H        4.9530     5.3670     1.8410 H     1 <1>   0.1500 
 41 H        2.4270     8.5130    -0.6360 H     1 <1>   0.0800 
 42 H        1.2050     8.7460     0.5880 H     1 <1>   0.0800 
 43 H        7.0080     5.7060     0.5040 H     1 <1>   0.1500 
 44 H        0.7100     8.7870    -2.4070 H     1 <1>   0.0800 
 45 H        0.7750    10.1810    -1.3610 H     1 <1>   0.0800 
 46 H       -0.5160     9.0230    -1.1810 H     1 <1>   0.0800 
 47 H        7.2330     4.6190    -1.6660 H     1 <1>   0.1500 
@<TRIPOS>BOND
  1   1   2  1   
  2   1   3  1   
  3   2   4  2   
  4   3   5  2   
  5   3   6  1   
  6   4   5  1   
  7   4   7  1   
  8   5  22  1   
  9   6   8  1   
 10   6   9  1   
 11   6  23  1   
 12   7  10  1   
 13   7  24  1   
 14   7  25  1   
 15   8  26  1   
 16   8  27  1   
 17   8  28  1   
 18   9  29  1   
 19   9  30  1   
 20   9  31  1   
 21  10  11  1   
 22  10  12  1   
 23  10  32  1   
 24  11  13  1   
 25  11  33  1   
 26  11  34  1   
 27  12  14  1   
 28  12  35  1   
 29  12  36  1   
 30  13  15  ar  
 31  13  16  ar  
 32  14  17  1   
 33  14  37  1   
 34  14  38  1   
 35  15  18  ar  
 36  15  39  1   
 37  16  19  ar  
 38  16  40  1   
 39  17  20  1   
 40  17  41  1   
 41  17  42  1   
 42  18  21  ar  
 43  19  21  ar  
 44  19  43  1   
 45  20  44  1   
 46  20  45  1   
 47  20  46  1   
 48  21  47  1   
@<TRIPOS>SUBSTRUCTURE
  1 ****  10 GROUP 4 **** **** 0

# MOE 2024.06 (io_trps.svl 2023.06)
