@<TRIPOS>MOLECULE
NONAME
34 35 1 0 0 
SMALL
USER_CHARGES


@<TRIPOS>ATOM
  1 F        0.5740     0.1960    -0.8090 F     1 <1>  -0.1900 
  2 C        1.6310     0.9280    -0.5330 C.ar  1 <1>   0.1900 
  3 C        1.5310     2.2870    -0.3080 C.ar  1 <1>   0.3920 
  4 C        2.8640     0.3440    -0.4630 C.ar  1 <1>   0.1600 
  5 O        0.3210     2.8870    -0.3700 O.3   1 <1>  -0.3630 
  6 N        2.5990     3.0120    -0.0330 N.ar  1 <1>  -0.6200 
  7 N        3.9410     1.0510    -0.1870 N.ar  1 <1>  -0.6200 
  8 C        0.1800     4.2740    -0.1330 C.3   1 <1>   0.0400 
  9 C        3.7590     2.3590     0.0180 C.ar  1 <1>   0.7200 
 10 N        4.8820     3.1040     0.3080 N.pl3 1 <1>  -0.8380 
 11 C        6.1650     2.5030     0.7880 C.3   1 <1>   0.2090 
 12 C        4.8830     4.5980     0.3880 C.3   1 <1>   0.2090 
 13 C        7.3700     3.1420     0.0720 C.3   1 <1>   0.1100 
 14 C        6.1300     5.1930    -0.2970 C.3   1 <1>   0.1100 
 15 N        7.3990     4.6170     0.2150 N.3   1 <1>  -0.8100 
 16 C        8.6110     5.1870    -0.4640 C.3   1 <1>   0.1100 
 17 C        8.9680     6.6880    -0.2540 C.3   1 <1>   1.0200 
 18 F        8.1070     7.5130    -0.8400 F     1 <1>  -0.3400 
 19 F       10.1580     6.9780    -0.7660 F     1 <1>  -0.3400 
 20 F        9.0170     7.0430     1.0240 F     1 <1>  -0.3400 
 21 H        2.9690    -0.7130    -0.6340 H     1 <1>   0.1500 
 22 H       -0.8600     4.5290    -0.2280 H     1 <1>   0.0800 
 23 H        0.7610     4.8110    -0.8620 H     1 <1>   0.0800 
 24 H        0.5270     4.4940     0.8610 H     1 <1>   0.0800 
 25 H        6.1890     1.4410     0.6220 H     1 <1>   0.0800 
 26 H        6.2570     2.6720     1.8460 H     1 <1>   0.0800 
 27 H        4.8730     4.8940     1.4220 H     1 <1>   0.0800 
 28 H        4.0080     5.0090    -0.0840 H     1 <1>   0.0800 
 29 H        7.3280     2.8740    -0.9700 H     1 <1>   0.0800 
 30 H        8.2700     2.7250     0.4890 H     1 <1>   0.0800 
 31 H        6.1190     6.2540    -0.1280 H     1 <1>   0.0800 
 32 H        6.0510     5.0210    -1.3570 H     1 <1>   0.0800 
 33 H        8.5280     5.0210    -1.5230 H     1 <1>   0.0800 
 34 H        9.4670     4.6360    -0.1210 H     1 <1>   0.0800 
@<TRIPOS>BOND
  1   1   2  1   
  2   2   3  ar  
  3   2   4  ar  
  4   3   5  1   
  5   3   6  ar  
  6   4   7  ar  
  7   4  21  1   
  8   5   8  1   
  9   6   9  ar  
 10   7   9  ar  
 11   8  22  1   
 12   8  23  1   
 13   8  24  1   
 14   9  10  1   
 15  10  11  1   
 16  10  12  1   
 17  11  13  1   
 18  11  25  1   
 19  11  26  1   
 20  12  14  1   
 21  12  27  1   
 22  12  28  1   
 23  13  15  1   
 24  13  29  1   
 25  13  30  1   
 26  14  15  1   
 27  14  31  1   
 28  14  32  1   
 29  15  16  1   
 30  16  17  1   
 31  16  33  1   
 32  16  34  1   
 33  17  18  1   
 34  17  19  1   
 35  17  20  1   
@<TRIPOS>SUBSTRUCTURE
  1 ****  10 GROUP 4 **** **** 0

# MOE 2024.06 (io_trps.svl 2023.06)
