@<TRIPOS>MOLECULE
NONAME
54 57 1 0 0 
SMALL
USER_CHARGES


@<TRIPOS>ATOM
  1 O        0.5200    -1.5340     1.0190 O.3   1 <1>  -0.5600 
  2 C        0.0530    -2.6880     0.3410 C.3   1 <1>   0.2800 
  3 C       -0.2550    -0.3640     0.9970 C.3   1 <1>   0.1200 
  4 C       -1.3770    -2.4830    -0.2420 C.3   1 <1>   0.2000 
  5 C        0.0530    -3.8220     1.3810 C.3   1 <1>  -0.1600 
  6 C        1.1150    -3.0070    -0.7370 C.3   1 <1>  -0.1600 
  7 C       -0.6560    -0.0430    -0.4440 C.3   1 <1>  -0.1600 
  8 O       -1.7910    -3.5940    -0.9850 O.3   1 <1>  -0.6800 
  9 C       -1.5400    -1.1540    -1.0380 C.3   1 <1>   0.2800 
 10 C        1.4180    -4.0420     2.0450 C.3   1 <1>   0.3430 
 11 C        2.3700    -3.7020    -0.1990 C.3   1 <1>   0.3430 
 12 O       -2.8550    -0.7660    -0.8770 O.3   1 <1>  -0.6800 
 13 C       -1.3310    -1.2570    -2.5550 C.3   1 <1>  -0.2400 
 14 N        2.5140    -3.4230     1.2520 N.4   1 <1>  -0.9590 
 15 C        3.8600    -3.7460     1.7920 C.3   1 <1>   0.4860 
 16 C        4.8980    -2.8130     1.1900 C.ar  1 <1>  -0.1440 
 17 C        5.6410    -3.1410     0.0440 C.ar  1 <1>   0.0530 
 18 C        5.0930    -1.5970     1.8290 C.ar  1 <1>  -0.1500 
 19 C        5.4900    -4.3700    -0.7110 C.2   1 <1>   0.0870 
 20 C        6.5740    -2.2060    -0.4040 C.ar  1 <1>  -0.1500 
 21 C        6.0200    -0.6890     1.3560 C.ar  1 <1>  -0.1500 
 22 O        5.0940    -5.4990    -0.1360 O.3   1 <1>  -0.2800 
 23 C        5.6940    -4.6130    -2.0350 C.2   1 <1>  -0.1500 
 24 C        6.7640    -0.9970     0.2360 C.ar  1 <1>  -0.1500 
 25 C        5.0500    -6.4490    -1.0460 C.2   1 <1>  -0.0100 
 26 C        5.4080    -5.9630    -2.2510 C.2   1 <1>  -0.1500 
 27 H       -1.1220    -0.5060     1.6220 H     1 <1>   0.0800 
 28 H        0.3400     0.4320     1.4100 H     1 <1>   0.0800 
 29 H       -2.0450    -2.4350     0.6010 H     1 <1>   0.0800 
 30 H       -0.6830    -3.6260     2.1400 H     1 <1>   0.0800 
 31 H       -0.2410    -4.7370     0.8980 H     1 <1>   0.0800 
 32 H        0.6990    -3.6560    -1.4860 H     1 <1>   0.0800 
 33 H        1.4050    -2.1030    -1.2380 H     1 <1>   0.0800 
 34 H        0.2500     0.0590    -1.0150 H     1 <1>   0.0800 
 35 H       -1.1610     0.9060    -0.4810 H     1 <1>   0.0800 
 36 H       -2.7010    -3.4250    -1.3090 H     1 <1>   0.4000 
 37 H        1.5910    -5.1000     2.1580 H     1 <1>   0.0800 
 38 H        1.4020    -3.5970     3.0260 H     1 <1>   0.0800 
 39 H        3.2260    -3.3390    -0.7420 H     1 <1>   0.0800 
 40 H        2.2980    -4.7660    -0.3550 H     1 <1>   0.0800 
 41 H       -3.0450     0.0070    -1.4430 H     1 <1>   0.4000 
 42 H       -0.3460    -1.6230    -2.7760 H     1 <1>   0.0800 
 43 H       -1.4360    -0.2930    -3.0200 H     1 <1>   0.0800 
 44 H       -2.0410    -1.9340    -2.9970 H     1 <1>   0.0800 
 45 H        2.3650    -2.4010     1.3330 H     1 <1>   0.4500 
 46 H        3.8580    -3.6020     2.8600 H     1 <1>   0.0800 
 47 H        4.1010    -4.7770     1.6110 H     1 <1>   0.0800 
 48 H        4.5280    -1.3370     2.7090 H     1 <1>   0.1500 
 49 H        7.1730    -2.4270    -1.2700 H     1 <1>   0.1500 
 50 H        6.1680     0.2530     1.8580 H     1 <1>   0.1500 
 51 H        6.0160    -3.9250    -2.7960 H     1 <1>   0.1500 
 52 H        7.4930    -0.2960    -0.1360 H     1 <1>   0.1500 
 53 H        4.7600    -7.4460    -0.7560 H     1 <1>   0.1500 
 54 H        5.4760    -6.4790    -3.1930 H     1 <1>   0.1500 
@<TRIPOS>BOND
  1   1   2  1   
  2   1   3  1   
  3   2   4  1   
  4   2   5  1   
  5   2   6  1   
  6   3   7  1   
  7   3  27  1   
  8   3  28  1   
  9   4   8  1   
 10   4   9  1   
 11   4  29  1   
 12   5  10  1   
 13   5  30  1   
 14   5  31  1   
 15   6  11  1   
 16   6  32  1   
 17   6  33  1   
 18   7   9  1   
 19   7  34  1   
 20   7  35  1   
 21   8  36  1   
 22   9  12  1   
 23   9  13  1   
 24  10  14  1   
 25  10  37  1   
 26  10  38  1   
 27  11  14  1   
 28  11  39  1   
 29  11  40  1   
 30  12  41  1   
 31  13  42  1   
 32  13  43  1   
 33  13  44  1   
 34  14  15  1   
 35  14  45  1   
 36  15  16  1   
 37  15  46  1   
 38  15  47  1   
 39  16  17  ar  
 40  16  18  ar  
 41  17  19  1   
 42  17  20  ar  
 43  18  21  ar  
 44  18  48  1   
 45  19  22  1   
 46  19  23  2   
 47  20  24  ar  
 48  20  49  1   
 49  21  24  ar  
 50  21  50  1   
 51  22  25  1   
 52  23  26  1   
 53  23  51  1   
 54  24  52  1   
 55  25  26  2   
 56  25  53  1   
 57  26  54  1   
@<TRIPOS>SUBSTRUCTURE
  1 ****  11 GROUP 4 **** **** 0

# MOE 2024.06 (io_trps.svl 2023.06)
