@<TRIPOS>MOLECULE
NONAME
53 55 1 0 0 
SMALL
USER_CHARGES


@<TRIPOS>ATOM
  1 O        2.4010    -0.6830     1.7980 O.2   1 <1>  -0.5700 
  2 C        2.3370    -0.9500     0.6240 C.2   1 <1>   0.5690 
  3 N        2.5020    -0.0240    -0.3650 N.am  1 <1>  -0.4940 
  4 C        2.0220    -2.3720     0.2140 C.3   1 <1>  -0.0990 
  5 C        2.3650     1.3710    -0.2370 C.2   1 <1>  -0.0880 
  6 C        0.7130    -2.8440     0.8540 C.3   1 <1>   0.0210 
  7 N        3.3550     2.3020    -0.1040 N.pl3 1 <1>   0.3140 
  8 C        1.1760     2.0350    -0.2620 C.2   1 <1>  -0.0540 
  9 C        0.2030    -4.0840     0.1460 C.2   1 <1>  -0.1810 
 10 N        2.8130     3.5540    -0.0730 N.2   1 <1>  -0.7070 
 11 C        4.8560     2.0780    -0.0240 C.3   1 <1>   0.2560 
 12 C       -0.1530     1.4940    -0.3650 C.ar  1 <1>   0.0540 
 13 C        1.5350     3.3770    -0.1590 C.2   1 <1>   0.1390 
 14 C        0.4400    -5.3820     0.3920 C.2   1 <1>  -0.0400 
 15 C       -0.6490    -4.1190    -0.9600 C.2   1 <1>   0.1080 
 16 C        5.3560     1.3620    -1.2920 C.3   1 <1>  -0.2400 
 17 C        5.2050     1.2410     1.2180 C.3   1 <1>  -0.2400 
 18 C        5.6140     3.4180     0.0880 C.3   1 <1>  -0.2400 
 19 C       -0.9330     1.7060    -1.4980 C.ar  1 <1>  -0.1500 
 20 C       -0.6900     0.7330     0.6680 C.ar  1 <1>  -0.1500 
 21 O       -0.2110    -6.0850    -0.4950 O.3   1 <1>  -0.0190 
 22 C        1.2740    -6.0910     1.4390 C.3   1 <1>  -0.0600 
 23 N       -0.8740    -5.3300    -1.3220 N.2   1 <1>  -0.4100 
 24 C       -1.2520    -2.9150    -1.6540 C.3   1 <1>  -0.0590 
 25 C       -2.2040     1.1690    -1.6000 C.ar  1 <1>  -0.1500 
 26 C       -1.9600     0.1940     0.5740 C.ar  1 <1>  -0.1500 
 27 C       -2.7200     0.4110    -0.5630 C.ar  1 <1>  -0.1500 
 28 H        2.4050    -0.3760    -1.3170 H     1 <1>   0.3700 
 29 H        2.8270    -3.0140     0.5220 H     1 <1>   0.0800 
 30 H        1.9390    -2.4290    -0.8560 H     1 <1>   0.0800 
 31 H       -0.0330    -2.0720     0.7910 H     1 <1>   0.0800 
 32 H        0.8740    -3.0520     1.8980 H     1 <1>   0.0800 
 33 H        0.8240     4.1850    -0.1490 H     1 <1>   0.1500 
 34 H        4.9390     0.3760    -1.3710 H     1 <1>   0.0800 
 35 H        6.4260     1.2650    -1.2660 H     1 <1>   0.0800 
 36 H        5.0880     1.9300    -2.1660 H     1 <1>   0.0800 
 37 H        4.8150     0.2450     1.1360 H     1 <1>   0.0800 
 38 H        4.7970     1.7000     2.1010 H     1 <1>   0.0800 
 39 H        6.2710     1.1660     1.3350 H     1 <1>   0.0800 
 40 H        5.4120     4.0360    -0.7690 H     1 <1>   0.0800 
 41 H        6.6750     3.2540     0.1420 H     1 <1>   0.0800 
 42 H        5.3090     3.9460     0.9740 H     1 <1>   0.0800 
 43 H       -0.5340     2.2960    -2.3050 H     1 <1>   0.1500 
 44 H       -0.0980     0.5700     1.5530 H     1 <1>   0.1500 
 45 H        1.7520    -5.3800     2.0870 H     1 <1>   0.0800 
 46 H        2.0270    -6.6880     0.9580 H     1 <1>   0.0800 
 47 H        0.6440    -6.7320     2.0280 H     1 <1>   0.0800 
 48 H       -0.5050    -2.1620    -1.8190 H     1 <1>   0.0800 
 49 H       -2.0370    -2.5060    -1.0470 H     1 <1>   0.0800 
 50 H       -1.6640    -3.2090    -2.6020 H     1 <1>   0.0800 
 51 H       -2.7930     1.3430    -2.4830 H     1 <1>   0.1500 
 52 H       -2.3590    -0.3890     1.3860 H     1 <1>   0.1500 
 53 H       -3.7100    -0.0040    -0.6380 H     1 <1>   0.1500 
@<TRIPOS>BOND
  1   1   2  2   
  2   2   3  am  
  3   2   4  1   
  4   3   5  1   
  5   3  28  1   
  6   4   6  1   
  7   4  29  1   
  8   4  30  1   
  9   5   7  1   
 10   5   8  2   
 11   6   9  1   
 12   6  31  1   
 13   6  32  1   
 14   7  10  1   
 15   7  11  1   
 16   8  12  1   
 17   8  13  1   
 18   9  14  2   
 19   9  15  1   
 20  10  13  2   
 21  11  16  1   
 22  11  17  1   
 23  11  18  1   
 24  12  19  ar  
 25  12  20  ar  
 26  13  33  1   
 27  14  21  1   
 28  14  22  1   
 29  15  23  2   
 30  15  24  1   
 31  16  34  1   
 32  16  35  1   
 33  16  36  1   
 34  17  37  1   
 35  17  38  1   
 36  17  39  1   
 37  18  40  1   
 38  18  41  1   
 39  18  42  1   
 40  19  25  ar  
 41  19  43  1   
 42  20  26  ar  
 43  20  44  1   
 44  21  23  1   
 45  22  45  1   
 46  22  46  1   
 47  22  47  1   
 48  24  48  1   
 49  24  49  1   
 50  24  50  1   
 51  25  27  ar  
 52  25  51  1   
 53  26  27  ar  
 54  26  52  1   
 55  27  53  1   
@<TRIPOS>SUBSTRUCTURE
  1 ****   2 GROUP 4 **** **** 0

# MOE 2024.06 (io_trps.svl 2023.06)
