@<TRIPOS>MOLECULE
NONAME
57 60 1 0 0 
SMALL
USER_CHARGES


@<TRIPOS>ATOM
  1 O       -0.0670    -0.5860     0.1120 O.2   1 <1>  -0.5700 
  2 C        1.0160    -1.0230    -0.2290 C.2   1 <1>   0.5440 
  3 N        2.1020    -0.1790    -0.2310 N.am  1 <1>  -0.6600 
  4 C        1.1300    -2.4170    -0.6080 C.ar  1 <1>   0.0860 
  5 C        3.5160    -0.6170    -0.1960 C.3   1 <1>   0.1400 
  6 C        1.9850     1.2490     0.1410 C.3   1 <1>   0.1400 
  7 C        0.5690    -3.4270     0.1490 C.ar  1 <1>  -0.1500 
  8 C        1.7890    -2.8420    -1.7540 C.ar  1 <1>  -0.1500 
  9 C        4.2550     0.5150     0.5070 C.3   1 <1>  -0.1600 
 10 C        3.4200     1.7580     0.2120 C.3   1 <1>  -0.1600 
 11 C        0.6890    -4.7570    -0.2280 C.ar  1 <1>   0.4100 
 12 C        1.8620    -4.1870    -2.0530 C.ar  1 <1>   0.1600 
 13 N        1.3330    -5.1500    -1.3190 N.ar  1 <1>  -0.6200 
 14 N        0.1080    -5.7300     0.5550 N.pl3 1 <1>  -0.8690 
 15 C        0.0470    -7.1430     0.1600 C.3   1 <1>   0.2890 
 16 C       -1.1590    -7.3600    -0.7480 C.3   1 <1>  -0.1600 
 17 C       -0.0550    -8.0050     1.4120 C.3   1 <1>  -0.1600 
 18 C       -1.2730    -8.8320    -1.1230 C.3   1 <1>   0.3430 
 19 C       -0.1790    -9.4760     1.0260 C.3   1 <1>   0.3430 
 20 N       -1.3420    -9.6630     0.1130 N.4   1 <1>  -0.9590 
 21 C       -1.6060   -11.1030    -0.1870 C.3   1 <1>   0.3430 
 22 C       -3.1090   -11.3120    -0.4640 C.3   1 <1>   0.2000 
 23 O       -3.8500   -10.4160     0.3100 O.3   1 <1>  -0.5600 
 24 C       -3.6400   -12.6820    -0.0720 C.3   1 <1>  -0.1600 
 25 C       -5.1500   -10.8950     0.4960 C.3   1 <1>   0.1200 
 26 C       -5.1040   -12.3970     0.2230 C.3   1 <1>  -0.1600 
 27 H        3.8770    -0.7240    -1.2050 H     1 <1>   0.0800 
 28 H        3.6270    -1.5470     0.3350 H     1 <1>   0.0800 
 29 H        1.5080     1.3230     1.1040 H     1 <1>   0.0800 
 30 H        1.4040     1.7860    -0.5890 H     1 <1>   0.0800 
 31 H        0.0310    -3.1750     1.0430 H     1 <1>   0.1500 
 32 H        2.2370    -2.1170    -2.4090 H     1 <1>   0.1500 
 33 H        5.2690     0.6090     0.1600 H     1 <1>   0.0800 
 34 H        4.2620     0.3230     1.5660 H     1 <1>   0.0800 
 35 H        3.5360     2.5190     0.9630 H     1 <1>   0.0800 
 36 H        3.6930     2.1660    -0.7460 H     1 <1>   0.0800 
 37 H        2.3820    -4.4890    -2.9460 H     1 <1>   0.1500 
 38 H       -0.6310    -5.4100     1.1830 H     1 <1>   0.4000 
 39 H        0.9500    -7.4070    -0.3690 H     1 <1>   0.0800 
 40 H       -1.0350    -6.7810    -1.6460 H     1 <1>   0.0800 
 41 H       -2.0630    -7.0390    -0.2610 H     1 <1>   0.0800 
 42 H       -0.9050    -7.7150     2.0030 H     1 <1>   0.0800 
 43 H        0.8330    -7.8720     2.0050 H     1 <1>   0.0800 
 44 H       -0.4150    -9.1190    -1.7110 H     1 <1>   0.0800 
 45 H       -2.1600    -8.9800    -1.7180 H     1 <1>   0.0800 
 46 H       -0.3100   -10.0700     1.9170 H     1 <1>   0.0800 
 47 H        0.7250    -9.7960     0.5340 H     1 <1>   0.0800 
 48 H       -2.2090    -9.3780     0.6100 H     1 <1>   0.4500 
 49 H       -1.3440   -11.6990     0.6710 H     1 <1>   0.0800 
 50 H       -1.0160   -11.4440    -1.0210 H     1 <1>   0.0800 
 51 H       -3.3360   -11.1100    -1.4980 H     1 <1>   0.0800 
 52 H       -3.1510   -13.0330     0.8200 H     1 <1>   0.0800 
 53 H       -3.5150   -13.4090    -0.8560 H     1 <1>   0.0800 
 54 H       -5.8040   -10.3900    -0.1960 H     1 <1>   0.0800 
 55 H       -5.4510   -10.6800     1.5070 H     1 <1>   0.0800 
 56 H       -5.4630   -12.9610     1.0660 H     1 <1>   0.0800 
 57 H       -5.7200   -12.6240    -0.6310 H     1 <1>   0.0800 
@<TRIPOS>BOND
  1   1   2  2   
  2   2   3  am  
  3   2   4  1   
  4   3   5  1   
  5   3   6  1   
  6   4   7  ar  
  7   4   8  ar  
  8   5   9  1   
  9   5  27  1   
 10   5  28  1   
 11   6  10  1   
 12   6  29  1   
 13   6  30  1   
 14   7  11  ar  
 15   7  31  1   
 16   8  12  ar  
 17   8  32  1   
 18   9  10  1   
 19   9  33  1   
 20   9  34  1   
 21  10  35  1   
 22  10  36  1   
 23  11  13  ar  
 24  11  14  1   
 25  12  13  ar  
 26  12  37  1   
 27  14  15  1   
 28  14  38  1   
 29  15  16  1   
 30  15  17  1   
 31  15  39  1   
 32  16  18  1   
 33  16  40  1   
 34  16  41  1   
 35  17  19  1   
 36  17  42  1   
 37  17  43  1   
 38  18  20  1   
 39  18  44  1   
 40  18  45  1   
 41  19  20  1   
 42  19  46  1   
 43  19  47  1   
 44  20  21  1   
 45  20  48  1   
 46  21  22  1   
 47  21  49  1   
 48  21  50  1   
 49  22  23  1   
 50  22  24  1   
 51  22  51  1   
 52  23  25  1   
 53  24  26  1   
 54  24  52  1   
 55  24  53  1   
 56  25  26  1   
 57  25  54  1   
 58  25  55  1   
 59  26  56  1   
 60  26  57  1   
@<TRIPOS>SUBSTRUCTURE
  1 ****  14 GROUP 4 **** **** 0

# MOE 2024.06 (io_trps.svl 2023.06)
