@<TRIPOS>MOLECULE
NONAME
42 43 1 0 0 
SMALL
USER_CHARGES


@<TRIPOS>ATOM
  1 S       -1.2730    -0.3670     0.6880 S.3   1 <1>  -0.3310 
  2 C       -0.7500    -2.0640     0.3890 C.ar  1 <1>   0.1020 
  3 C        0.2040     0.5590     1.2990 C.3   1 <1>  -0.0100 
  4 C       -1.6840    -2.9480    -0.0730 C.ar  1 <1>  -0.1500 
  5 C        0.5670    -2.4750     0.6190 C.ar  1 <1>  -0.1500 
  6 C       -1.3570    -4.2870    -0.3290 C.ar  1 <1>   0.3100 
  7 C        0.9150    -3.7770     0.3770 C.ar  1 <1>  -0.1500 
  8 N       -2.3400    -5.1010    -0.7790 N.ar  1 <1>  -0.6200 
  9 C       -0.0250    -4.7170    -0.1010 C.ar  1 <1>   0.0000 
 10 C       -2.0240    -6.3370    -1.0040 C.ar  1 <1>   0.4100 
 11 C        0.2810    -6.0710    -0.3720 C.ar  1 <1>  -0.1430 
 12 N       -3.0490    -7.1210    -1.4370 N.pl3 1 <1>  -0.8690 
 13 C       -0.7310    -6.8610    -0.8240 C.ar  1 <1>  -0.1500 
 14 C        1.6820    -6.6320    -0.1770 C.3   1 <1>  -0.0970 
 15 C       -3.3220    -8.4350    -0.8320 C.3   1 <1>   0.2090 
 16 C       -4.8320    -8.6460    -0.7690 C.3   1 <1>  -0.1600 
 17 C       -5.1640   -10.0000    -0.1470 C.3   1 <1>   0.1200 
 18 O       -6.5450   -10.1250    -0.1250 O.3   1 <1>  -0.5600 
 19 C       -6.9980   -11.3170     0.4230 C.3   1 <1>   0.1200 
 20 C       -8.5200   -11.2950     0.3720 C.3   1 <1>  -0.2400 
 21 H       -0.1020     1.5730     1.4800 H     1 <1>   0.0800 
 22 H        0.9600     0.5190     0.5360 H     1 <1>   0.0800 
 23 H        0.5340     0.0930     2.2100 H     1 <1>   0.0800 
 24 H       -2.6950    -2.6320    -0.2490 H     1 <1>   0.1500 
 25 H        1.3000    -1.7820     0.9820 H     1 <1>   0.1500 
 26 H        1.9270    -4.0920     0.5530 H     1 <1>   0.1500 
 27 H       -3.8930    -6.5540    -1.5510 H     1 <1>   0.4000 
 28 H       -0.5760    -7.8940    -1.0640 H     1 <1>   0.1500 
 29 H        2.3810    -6.1030    -0.8000 H     1 <1>   0.0800 
 30 H        1.7170    -7.6740    -0.4400 H     1 <1>   0.0800 
 31 H        1.9800    -6.5330     0.8520 H     1 <1>   0.0800 
 32 H       -2.9030    -8.4720     0.1600 H     1 <1>   0.0800 
 33 H       -2.8650    -9.2020    -1.4340 H     1 <1>   0.0800 
 34 H       -5.2380    -8.6090    -1.7640 H     1 <1>   0.0800 
 35 H       -5.2750    -7.8700    -0.1700 H     1 <1>   0.0800 
 36 H       -4.7950   -10.0570     0.8630 H     1 <1>   0.0800 
 37 H       -4.7540   -10.8020    -0.7380 H     1 <1>   0.0800 
 38 H       -6.6540   -11.3860     1.4410 H     1 <1>   0.0800 
 39 H       -6.6100   -12.1370    -0.1570 H     1 <1>   0.0800 
 40 H       -8.8950   -10.4630     0.9400 H     1 <1>   0.0800 
 41 H       -8.9140   -12.2030     0.7900 H     1 <1>   0.0800 
 42 H       -8.8530   -11.2110    -0.6470 H     1 <1>   0.0800 
@<TRIPOS>BOND
  1   1   2  1   
  2   1   3  1   
  3   2   4  ar  
  4   2   5  ar  
  5   3  21  1   
  6   3  22  1   
  7   3  23  1   
  8   4   6  ar  
  9   4  24  1   
 10   5   7  ar  
 11   5  25  1   
 12   6   8  ar  
 13   6   9  ar  
 14   7   9  ar  
 15   7  26  1   
 16   8  10  ar  
 17   9  11  ar  
 18  10  12  1   
 19  10  13  ar  
 20  11  13  ar  
 21  11  14  1   
 22  12  15  1   
 23  12  27  1   
 24  13  28  1   
 25  14  29  1   
 26  14  30  1   
 27  14  31  1   
 28  15  16  1   
 29  15  32  1   
 30  15  33  1   
 31  16  17  1   
 32  16  34  1   
 33  16  35  1   
 34  17  18  1   
 35  17  36  1   
 36  17  37  1   
 37  18  19  1   
 38  19  20  1   
 39  19  38  1   
 40  19  39  1   
 41  20  40  1   
 42  20  41  1   
 43  20  42  1   
@<TRIPOS>SUBSTRUCTURE
  1 ****  10 GROUP 4 **** **** 0

# MOE 2024.06 (io_trps.svl 2023.06)
