@<TRIPOS>MOLECULE
NONAME
45 46 1 0 0 
SMALL
USER_CHARGES


@<TRIPOS>ATOM
  1 O        5.2400    -1.0540     0.6660 O.co2 1 <1>  -0.9000 
  2 C        4.4490    -0.9450    -0.2780 C.2   1 <1>   0.9060 
  3 O        4.3520    -1.8260    -1.1470 O.co2 1 <1>  -0.9000 
  4 C        3.5970     0.3270    -0.4460 C.3   1 <1>  -0.1060 
  5 C        4.0970     0.9030    -1.7980 C.3   1 <1>   0.2000 
  6 C        3.8580     1.3630     0.6960 C.3   1 <1>  -0.1600 
  7 C        2.0890    -0.0880    -0.4050 C.3   1 <1>  -0.1600 
  8 O        3.4990     0.2380    -2.8550 O.3   1 <1>  -0.6800 
  9 C        3.9430     2.4250    -1.9340 C.3   1 <1>   0.1400 
 10 C        5.0120     2.3140     0.3740 C.3   1 <1>   0.1400 
 11 C        1.0540     0.9680    -0.8410 C.3   1 <1>  -0.1600 
 12 N        4.6380     3.1510    -0.8140 N.am  1 <1>  -0.6600 
 13 C       -0.3720     0.4440    -0.6460 C.3   1 <1>  -0.2400 
 14 C        4.9010     4.4930    -0.9380 C.2   1 <1>   0.5690 
 15 O        4.5880     5.1090    -1.9310 O.2   1 <1>  -0.5700 
 16 C        5.5810     5.2830     0.1740 C.3   1 <1>   0.0440 
 17 C        7.0480     4.9140     0.3750 C.ar  1 <1>  -0.1430 
 18 C        7.5310     4.5960     1.6370 C.ar  1 <1>  -0.1500 
 19 C        7.9140     4.9000    -0.7100 C.ar  1 <1>  -0.1500 
 20 C        8.8640     4.2680     1.8120 C.ar  1 <1>  -0.1500 
 21 C        9.2480     4.5730    -0.5390 C.ar  1 <1>  -0.1500 
 22 C        9.7190     4.2600     0.7250 C.ar  1 <1>   0.0830 
 23 O       11.0100     3.9470     0.9080 O.3   1 <1>  -0.5330 
 24 H        5.1520     0.7000    -1.8900 H     1 <1>   0.0800 
 25 H        4.0670     0.8490     1.6180 H     1 <1>   0.0800 
 26 H        2.9920     1.9670     0.8830 H     1 <1>   0.0800 
 27 H        1.9530    -0.9520    -1.0350 H     1 <1>   0.0800 
 28 H        1.8630    -0.4100     0.5970 H     1 <1>   0.0800 
 29 H        3.6250    -0.7260    -2.6520 H     1 <1>   0.4000 
 30 H        2.9030     2.6910    -1.9240 H     1 <1>   0.0800 
 31 H        4.3670     2.7340    -2.8730 H     1 <1>   0.0800 
 32 H        5.9030     1.7480     0.1560 H     1 <1>   0.0800 
 33 H        5.2090     2.9260     1.2330 H     1 <1>   0.0800 
 34 H        1.1680     1.8770    -0.2820 H     1 <1>   0.0800 
 35 H        1.1940     1.1960    -1.8830 H     1 <1>   0.0800 
 36 H       -0.5520     0.2240     0.3910 H     1 <1>   0.0800 
 37 H       -0.5200    -0.4520    -1.2220 H     1 <1>   0.0800 
 38 H       -1.0830     1.1830    -0.9710 H     1 <1>   0.0800 
 39 H        5.5290     6.3270    -0.0730 H     1 <1>   0.0800 
 40 H        5.0250     5.1480     1.0810 H     1 <1>   0.0800 
 41 H        6.8760     4.6010     2.4900 H     1 <1>   0.1500 
 42 H        7.5480     5.1430    -1.6940 H     1 <1>   0.1500 
 43 H        9.2450     4.0180     2.7850 H     1 <1>   0.1500 
 44 H        9.9070     4.5640    -1.3870 H     1 <1>   0.1500 
 45 H       11.5260     3.9660     0.0840 H     1 <1>   0.4500 
@<TRIPOS>BOND
  1   1   2  ar  
  2   2   3  ar  
  3   2   4  1   
  4   4   5  1   
  5   4   6  1   
  6   4   7  1   
  7   5   8  1   
  8   5   9  1   
  9   5  24  1   
 10   6  10  1   
 11   6  25  1   
 12   6  26  1   
 13   7  11  1   
 14   7  27  1   
 15   7  28  1   
 16   8  29  1   
 17   9  12  1   
 18   9  30  1   
 19   9  31  1   
 20  10  12  1   
 21  10  32  1   
 22  10  33  1   
 23  11  13  1   
 24  11  34  1   
 25  11  35  1   
 26  12  14  am  
 27  13  36  1   
 28  13  37  1   
 29  13  38  1   
 30  14  15  2   
 31  14  16  1   
 32  16  17  1   
 33  16  39  1   
 34  16  40  1   
 35  17  18  ar  
 36  17  19  ar  
 37  18  20  ar  
 38  18  41  1   
 39  19  21  ar  
 40  19  42  1   
 41  20  22  ar  
 42  20  43  1   
 43  21  22  ar  
 44  21  44  1   
 45  22  23  1   
 46  23  45  1   
@<TRIPOS>SUBSTRUCTURE
  1 ****  10 GROUP 4 **** **** 0

# MOE 2024.06 (io_trps.svl 2023.06)
