@<TRIPOS>MOLECULE
NONAME
50 52 1 0 0 
SMALL
USER_CHARGES


@<TRIPOS>ATOM
  1 F       -2.0560    -0.2280     1.6930 F     1 <1>  -0.1900 
  2 C       -2.3800     0.5130     0.6620 C.ar  1 <1>   0.1900 
  3 C       -2.3140     1.8930     0.7560 C.ar  1 <1>   0.1900 
  4 C       -2.7970    -0.1080    -0.5030 C.ar  1 <1>  -0.1440 
  5 F       -1.9220     2.4450     1.8770 F     1 <1>  -0.1900 
  6 C       -2.6630     2.7000    -0.3170 C.ar  1 <1>  -0.1440 
  7 C       -3.1450     0.6950    -1.5830 C.ar  1 <1>  -0.1500 
  8 C       -2.8610    -1.6190    -0.5890 C.3   1 <1>   0.4870 
  9 C       -3.0790     2.0800    -1.4890 C.ar  1 <1>  -0.1500 
 10 C       -2.5920     4.2180    -0.2220 C.3   1 <1>  -0.0970 
 11 N       -4.2620    -2.0650    -0.3690 N.4   1 <1>  -0.9590 
 12 C       -4.3980    -3.4840    -0.8540 C.3   1 <1>   0.3430 
 13 C       -4.6910    -1.8620     1.0480 C.3   1 <1>   0.3430 
 14 C       -4.8820    -4.4880     0.1980 C.3   1 <1>  -0.1060 
 15 C       -6.0750    -2.4670     1.2820 C.3   1 <1>  -0.1600 
 16 C       -5.2410    -5.7350    -0.5860 C.2   1 <1>   0.9060 
 17 C       -6.1860    -3.9200     0.7880 C.3   1 <1>   0.2000 
 18 C       -3.8220    -4.8730     1.2810 C.3   1 <1>  -0.0170 
 19 O       -4.8210    -5.8480    -1.7410 O.co2 1 <1>  -0.9000 
 20 O       -5.9680    -6.5760    -0.0490 O.co2 1 <1>  -0.9000 
 21 O       -6.5940    -4.7160     1.8340 O.3   1 <1>  -0.6800 
 22 C       -2.3720    -4.5670     0.9140 C.ar  1 <1>  -0.1440 
 23 C       -1.6170    -3.7120     1.7050 C.ar  1 <1>  -0.1500 
 24 C       -1.7900    -5.1440    -0.2050 C.ar  1 <1>  -0.1500 
 25 C       -0.3120    -3.4070     1.3580 C.ar  1 <1>  -0.1500 
 26 C       -0.4860    -4.8390    -0.5530 C.ar  1 <1>  -0.1500 
 27 C        0.2520    -3.9650     0.2260 C.ar  1 <1>  -0.1500 
 28 H       -3.4650     0.2550    -2.5140 H     1 <1>   0.1500 
 29 H       -2.2070    -2.0610     0.1410 H     1 <1>   0.0800 
 30 H       -2.5250    -1.9330    -1.5640 H     1 <1>   0.0800 
 31 H       -3.3520     2.6790    -2.3420 H     1 <1>   0.1500 
 32 H       -2.9000     4.6810    -1.1430 H     1 <1>   0.0800 
 33 H       -1.5830     4.5250    -0.0080 H     1 <1>   0.0800 
 34 H       -3.2320     4.5690     0.5670 H     1 <1>   0.0800 
 35 H       -4.8600    -1.4820    -0.9640 H     1 <1>   0.4500 
 36 H       -5.1110    -3.5010    -1.6630 H     1 <1>   0.0800 
 37 H       -3.4700    -3.8350    -1.2720 H     1 <1>   0.0800 
 38 H       -3.9830    -2.3350     1.7070 H     1 <1>   0.0800 
 39 H       -4.7110    -0.8110     1.2840 H     1 <1>   0.0800 
 40 H       -6.8050    -1.8690     0.7680 H     1 <1>   0.0800 
 41 H       -6.3000    -2.4130     2.3330 H     1 <1>   0.0800 
 42 H       -6.9640    -3.9740     0.0420 H     1 <1>   0.0800 
 43 H       -4.0510    -4.3800     2.2080 H     1 <1>   0.0800 
 44 H       -3.8980    -5.9260     1.4970 H     1 <1>   0.0800 
 45 H       -6.6150    -5.6490     1.4770 H     1 <1>   0.4000 
 46 H       -2.0340    -3.2810     2.5980 H     1 <1>   0.1500 
 47 H       -2.3520    -5.8390    -0.8130 H     1 <1>   0.1500 
 48 H        0.2680    -2.7410     1.9760 H     1 <1>   0.1500 
 49 H       -0.0470    -5.2910    -1.4250 H     1 <1>   0.1500 
 50 H        1.2680    -3.7320    -0.0430 H     1 <1>   0.1500 
@<TRIPOS>BOND
  1   1   2  1   
  2   2   3  ar  
  3   2   4  ar  
  4   3   5  1   
  5   3   6  ar  
  6   4   7  ar  
  7   4   8  1   
  8   6   9  ar  
  9   6  10  1   
 10   7   9  ar  
 11   7  28  1   
 12   8  11  1   
 13   8  29  1   
 14   8  30  1   
 15   9  31  1   
 16  10  32  1   
 17  10  33  1   
 18  10  34  1   
 19  11  12  1   
 20  11  13  1   
 21  11  35  1   
 22  12  14  1   
 23  12  36  1   
 24  12  37  1   
 25  13  15  1   
 26  13  38  1   
 27  13  39  1   
 28  14  16  1   
 29  14  17  1   
 30  14  18  1   
 31  15  17  1   
 32  15  40  1   
 33  15  41  1   
 34  16  19  ar  
 35  16  20  ar  
 36  17  21  1   
 37  17  42  1   
 38  18  22  1   
 39  18  43  1   
 40  18  44  1   
 41  21  45  1   
 42  22  23  ar  
 43  22  24  ar  
 44  23  25  ar  
 45  23  46  1   
 46  24  26  ar  
 47  24  47  1   
 48  25  27  ar  
 49  25  48  1   
 50  26  27  ar  
 51  26  49  1   
 52  27  50  1   
@<TRIPOS>SUBSTRUCTURE
  1 ****   8 GROUP 4 **** **** 0

# MOE 2024.06 (io_trps.svl 2023.06)
