@<TRIPOS>MOLECULE
NONAME
54 56 1 0 0 
SMALL
USER_CHARGES


@<TRIPOS>ATOM
  1 O        4.5240    -1.6890    -0.0450 O.2   1 <1>  -0.5700 
  2 C        3.3540    -1.6100    -0.3740 C.2   1 <1>   0.5440 
  3 N        2.9690    -0.4420    -0.9880 N.am  1 <1>  -0.6600 
  4 C        2.4080    -2.6630    -0.0500 C.ar  1 <1>   0.0860 
  5 C        3.8520     0.2210    -2.0040 C.3   1 <1>   0.1400 
  6 C        1.9550     0.4360    -0.3530 C.3   1 <1>   0.1400 
  7 C        1.2190    -2.8510    -0.7410 C.ar  1 <1>  -0.1500 
  8 C        2.6300    -3.5640     0.9810 C.ar  1 <1>  -0.1500 
  9 C        5.0670     0.9500    -1.3880 C.3   1 <1>   0.3430 
 10 C        2.5720     1.1800     0.8390 C.3   1 <1>  -0.1600 
 11 C        0.3460    -3.8580    -0.3760 C.ar  1 <1>   0.1670 
 12 C        1.6980    -4.5420     1.2740 C.ar  1 <1>   0.1660 
 13 N        4.9440     1.1120     0.0960 N.4   1 <1>  -0.9590 
 14 C        3.8260     2.0000     0.5160 C.3   1 <1>   0.3430 
 15 N        0.5640    -4.6970     0.6180 N.ar  1 <1>  -0.6200 
 16 C       -0.9520    -4.0590    -1.1300 C.3   1 <1>  -0.0970 
 17 C        1.9440    -5.5210     2.4020 C.3   1 <1>  -0.0970 
 18 C        6.2450     1.3780     0.7870 C.3   1 <1>   0.3430 
 19 C        7.0700     2.5390     0.2000 C.3   1 <1>  -0.0800 
 20 C        8.4080     2.6130     0.9540 C.3   1 <1>   0.1200 
 21 C        6.3710     3.9140     0.2570 C.3   1 <1>  -0.1600 
 22 O        9.1880     3.6230     0.4020 O.3   1 <1>  -0.5600 
 23 C        7.3430     5.0190    -0.1800 C.3   1 <1>  -0.1600 
 24 C        8.6800     4.9120     0.5610 C.3   1 <1>   0.1200 
 25 H        3.2730     0.9210    -2.5810 H     1 <1>   0.0800 
 26 H        4.2140    -0.5250    -2.6910 H     1 <1>   0.0800 
 27 H        1.1230    -0.1580    -0.0100 H     1 <1>   0.0800 
 28 H        1.5750     1.1380    -1.0780 H     1 <1>   0.0800 
 29 H        0.9790    -2.2100    -1.5690 H     1 <1>   0.1500 
 30 H        3.5370    -3.4980     1.5540 H     1 <1>   0.1500 
 31 H        5.2010     1.9070    -1.8630 H     1 <1>   0.0800 
 32 H        5.9420     0.3570    -1.5990 H     1 <1>   0.0800 
 33 H        2.7900     0.4820     1.6280 H     1 <1>   0.0800 
 34 H        1.8260     1.8540     1.2240 H     1 <1>   0.0800 
 35 H        4.6610     0.1480     0.3790 H     1 <1>   0.4500 
 36 H        4.1140     2.5450     1.4010 H     1 <1>   0.0800 
 37 H        3.6100     2.7170    -0.2590 H     1 <1>   0.0800 
 38 H       -1.0580    -3.3460    -1.9260 H     1 <1>   0.0800 
 39 H       -1.7790    -3.9530    -0.4530 H     1 <1>   0.0800 
 40 H       -0.9730    -5.0500    -1.5460 H     1 <1>   0.0800 
 41 H        2.8820    -5.3300     2.8890 H     1 <1>   0.0800 
 42 H        1.9540    -6.5220     2.0100 H     1 <1>   0.0800 
 43 H        1.1530    -5.4420     3.1240 H     1 <1>   0.0800 
 44 H        6.8460     0.4840     0.7300 H     1 <1>   0.0800 
 45 H        6.0600     1.5690     1.8320 H     1 <1>   0.0800 
 46 H        7.3170     2.3090    -0.8210 H     1 <1>   0.0800 
 47 H        8.9590     1.6940     0.8510 H     1 <1>   0.0800 
 48 H        8.2690     2.8230     2.0020 H     1 <1>   0.0800 
 49 H        6.0470     4.1160     1.2640 H     1 <1>   0.0800 
 50 H        5.5160     3.9380    -0.3920 H     1 <1>   0.0800 
 51 H        6.9100     5.9860     0.0030 H     1 <1>   0.0800 
 52 H        7.5350     4.9430    -1.2370 H     1 <1>   0.0800 
 53 H        9.3980     5.6010     0.1500 H     1 <1>   0.0800 
 54 H        8.5670     5.1120     1.6130 H     1 <1>   0.0800 
@<TRIPOS>BOND
  1   1   2  2   
  2   2   3  am  
  3   2   4  1   
  4   3   5  1   
  5   3   6  1   
  6   4   7  ar  
  7   4   8  ar  
  8   5   9  1   
  9   5  25  1   
 10   5  26  1   
 11   6  10  1   
 12   6  27  1   
 13   6  28  1   
 14   7  11  ar  
 15   7  29  1   
 16   8  12  ar  
 17   8  30  1   
 18   9  13  1   
 19   9  31  1   
 20   9  32  1   
 21  10  14  1   
 22  10  33  1   
 23  10  34  1   
 24  11  15  ar  
 25  11  16  1   
 26  12  15  ar  
 27  12  17  1   
 28  13  14  1   
 29  13  18  1   
 30  13  35  1   
 31  14  36  1   
 32  14  37  1   
 33  16  38  1   
 34  16  39  1   
 35  16  40  1   
 36  17  41  1   
 37  17  42  1   
 38  17  43  1   
 39  18  19  1   
 40  18  44  1   
 41  18  45  1   
 42  19  20  1   
 43  19  21  1   
 44  19  46  1   
 45  20  22  1   
 46  20  47  1   
 47  20  48  1   
 48  21  23  1   
 49  21  49  1   
 50  21  50  1   
 51  22  24  1   
 52  23  24  1   
 53  23  51  1   
 54  23  52  1   
 55  24  53  1   
 56  24  54  1   
@<TRIPOS>SUBSTRUCTURE
  1 ****   3 GROUP 4 **** **** 0

# MOE 2024.06 (io_trps.svl 2023.06)
