@<TRIPOS>MOLECULE
NONAME
49 51 1 0 0 
SMALL
USER_CHARGES


@<TRIPOS>ATOM
  1 O        0.3610     1.3110     1.5830 O.2   1 <1>  -0.5700 
  2 C        0.2980     2.3190     0.9170 C.2   1 <1>   0.5690 
  3 N       -0.8700     3.0330     0.8070 N.am  1 <1>  -0.6600 
  4 C        1.5520     2.7870     0.1840 C.3   1 <1>  -0.0990 
  5 C       -2.1240     2.5670     1.4710 C.3   1 <1>   0.1400 
  6 C       -1.0750     4.2440    -0.0330 C.3   1 <1>   0.1400 
  7 C        2.7880     1.8860     0.3790 C.3   1 <1>  -0.1600 
  8 C       -3.1720     2.1710     0.4120 C.3   1 <1>   0.0000 
  9 C       -2.0970     3.9330    -1.1320 C.3   1 <1>  -0.1600 
 10 C        4.0040     2.4180    -0.3880 C.3   1 <1>  -0.0160 
 11 C       -4.4600     1.6700     1.0940 C.3   1 <1>   0.2000 
 12 C       -3.4090     3.3690    -0.5530 C.3   1 <1>  -0.1600 
 13 C       -2.7460     0.9140    -0.3680 C.3   1 <1>  -0.1600 
 14 C        5.2080     1.5120    -0.1850 C.ar  1 <1>  -0.1440 
 15 O       -5.3120     2.6950     1.4650 O.3   1 <1>  -0.6800 
 16 C       -5.1490     0.7460     0.0910 C.3   1 <1>  -0.1600 
 17 C       -4.0450     0.2690    -0.8630 C.3   1 <1>  -0.1600 
 18 C        6.0910     1.7430     0.8580 C.ar  1 <1>  -0.1500 
 19 C        5.4330     0.4460    -1.0420 C.ar  1 <1>  -0.1500 
 20 C        7.1900     0.9210     1.0410 C.ar  1 <1>  -0.1500 
 21 C        6.5310    -0.3780    -0.8610 C.ar  1 <1>  -0.1500 
 22 C        7.4110    -0.1400     0.1810 C.ar  1 <1>  -0.1500 
 23 H        1.3230     2.8340    -0.8640 H     1 <1>   0.0800 
 24 H        1.7870     3.7760     0.5290 H     1 <1>   0.0800 
 25 H       -1.9230     1.7320     2.1190 H     1 <1>   0.0800 
 26 H       -2.5140     3.3630     2.0820 H     1 <1>   0.0800 
 27 H       -1.4470     5.0390     0.5920 H     1 <1>   0.0800 
 28 H       -0.1550     4.5790    -0.4770 H     1 <1>   0.0800 
 29 H        3.0250     1.8270     1.4280 H     1 <1>   0.0800 
 30 H        2.5610     0.8890     0.0410 H     1 <1>   0.0800 
 31 H       -2.3080     4.8350    -1.6790 H     1 <1>   0.0800 
 32 H       -1.6620     3.2360    -1.8260 H     1 <1>   0.0800 
 33 H        4.2440     3.4110    -0.0490 H     1 <1>   0.0800 
 34 H        3.7760     2.4780    -1.4380 H     1 <1>   0.0800 
 35 H       -4.2110     1.1100     1.9810 H     1 <1>   0.0800 
 36 H       -4.0630     3.0840    -1.3580 H     1 <1>   0.0800 
 37 H       -3.8840     4.1700    -0.0140 H     1 <1>   0.0800 
 38 H       -2.0670     1.1190    -1.1750 H     1 <1>   0.0800 
 39 H       -2.2570     0.2290     0.3040 H     1 <1>   0.0800 
 40 H       -5.6020     3.1780     0.6700 H     1 <1>   0.4000 
 41 H       -5.5960    -0.0870     0.6050 H     1 <1>   0.0800 
 42 H       -5.9050     1.2700    -0.4660 H     1 <1>   0.0800 
 43 H       -3.9630    -0.8040    -0.8680 H     1 <1>   0.0800 
 44 H       -4.2620     0.6040    -1.8630 H     1 <1>   0.0800 
 45 H        5.9260     2.5640     1.5340 H     1 <1>   0.1500 
 46 H        4.7530     0.2510    -1.8520 H     1 <1>   0.1500 
 47 H        7.8710     1.1070     1.8520 H     1 <1>   0.1500 
 48 H        6.6990    -1.2040    -1.5290 H     1 <1>   0.1500 
 49 H        8.2640    -0.7800     0.3220 H     1 <1>   0.1500 
@<TRIPOS>BOND
  1   1   2  2   
  2   2   3  am  
  3   2   4  1   
  4   3   5  1   
  5   3   6  1   
  6   4   7  1   
  7   4  23  1   
  8   4  24  1   
  9   5   8  1   
 10   5  25  1   
 11   5  26  1   
 12   6   9  1   
 13   6  27  1   
 14   6  28  1   
 15   7  10  1   
 16   7  29  1   
 17   7  30  1   
 18   8  11  1   
 19   8  12  1   
 20   8  13  1   
 21   9  12  1   
 22   9  31  1   
 23   9  32  1   
 24  10  14  1   
 25  10  33  1   
 26  10  34  1   
 27  11  15  1   
 28  11  16  1   
 29  11  35  1   
 30  12  36  1   
 31  12  37  1   
 32  13  17  1   
 33  13  38  1   
 34  13  39  1   
 35  14  18  ar  
 36  14  19  ar  
 37  15  40  1   
 38  16  17  1   
 39  16  41  1   
 40  16  42  1   
 41  17  43  1   
 42  17  44  1   
 43  18  20  ar  
 44  18  45  1   
 45  19  21  ar  
 46  19  46  1   
 47  20  22  ar  
 48  20  47  1   
 49  21  22  ar  
 50  21  48  1   
 51  22  49  1   
@<TRIPOS>SUBSTRUCTURE
  1 ****   2 GROUP 4 **** **** 0

# MOE 2024.06 (io_trps.svl 2023.06)
