@<TRIPOS>MOLECULE
NONAME
40 43 1 0 0 
SMALL
USER_CHARGES


@<TRIPOS>ATOM
  1 O       -1.0170    -0.5100     0.6210 O.3   1 <1>  -0.5600 
  2 C       -1.5020     0.7100     1.0870 C.3   1 <1>   0.1200 
  3 C       -1.0880    -0.7490    -0.7460 C.3   1 <1>   0.1200 
  4 C       -3.0350     0.8480     0.9520 C.3   1 <1>   0.4230 
  5 C       -2.5200    -1.1090    -1.1720 C.3   1 <1>  -0.0800 
  6 N       -3.4290     1.2190    -0.4710 N.4   1 <1>  -0.9590 
  7 C       -3.7770    -0.3710     1.5780 C.3   1 <1>   0.2090 
  8 C       -3.2240    -2.0850    -0.2060 C.3   1 <1>   0.2090 
  9 C       -3.3910     0.1150    -1.5000 C.3   1 <1>   0.3430 
 10 C       -4.8000     1.8190    -0.4720 C.3   1 <1>   0.2630 
 11 N       -4.2700    -1.3790     0.5870 N.pl3 1 <1>  -0.8220 
 12 C       -5.6180    -1.5470     0.3550 C.2   1 <1>   0.5620 
 13 O       -6.0260    -2.5080    -0.4630 O.3   1 <1>  -0.2800 
 14 N       -6.5540    -0.8020     0.8340 N.2   1 <1>  -0.5650 
 15 C       -7.3400    -2.3980    -0.5000 C.ar  1 <1>   0.1400 
 16 C       -7.6820    -1.3420     0.3060 C.ar  1 <1>   0.2270 
 17 C       -8.2800    -3.1460    -1.1900 C.ar  1 <1>  -0.1500 
 18 C       -9.0200    -0.9940     0.4540 C.ar  1 <1>  -0.1500 
 19 C       -9.6110    -2.7970    -1.0440 C.ar  1 <1>  -0.1500 
 20 C       -9.9780    -1.7260    -0.2250 C.ar  1 <1>  -0.1500 
 21 H       -1.2410     0.7570     2.1300 H     1 <1>   0.0800 
 22 H       -0.9870     1.5090     0.5830 H     1 <1>   0.0800 
 23 H       -0.7000     0.1000    -1.2820 H     1 <1>   0.0800 
 24 H       -0.4400    -1.5890    -0.9390 H     1 <1>   0.0800 
 25 H       -3.2850     1.6900     1.5750 H     1 <1>   0.0800 
 26 H       -2.4150    -1.6430    -2.0990 H     1 <1>   0.0800 
 27 H       -2.7670     1.9390    -0.7800 H     1 <1>   0.4500 
 28 H       -4.6050     0.0030     2.1540 H     1 <1>   0.0800 
 29 H       -3.1280    -0.8660     2.2800 H     1 <1>   0.0800 
 30 H       -2.5150    -2.5450     0.4610 H     1 <1>   0.0800 
 31 H       -3.6750    -2.8800    -0.7760 H     1 <1>   0.0800 
 32 H       -4.3950    -0.2470    -1.6580 H     1 <1>   0.0800 
 33 H       -3.0590     0.5310    -2.4360 H     1 <1>   0.0800 
 34 H       -5.5270     1.0890    -0.1600 H     1 <1>   0.0800 
 35 H       -5.0610     2.1580    -1.4620 H     1 <1>   0.0800 
 36 H       -4.8460     2.6580     0.2020 H     1 <1>   0.0800 
 37 H       -7.9720    -3.9680    -1.8110 H     1 <1>   0.1500 
 38 H       -9.2850    -0.1700     1.0910 H     1 <1>   0.1500 
 39 H      -10.3740    -3.3530    -1.5620 H     1 <1>   0.1500 
 40 H      -11.0200    -1.4730    -0.1230 H     1 <1>   0.1500 
@<TRIPOS>BOND
  1   1   2  1   
  2   1   3  1   
  3   2   4  1   
  4   2  21  1   
  5   2  22  1   
  6   3   5  1   
  7   3  23  1   
  8   3  24  1   
  9   4   6  1   
 10   4   7  1   
 11   4  25  1   
 12   5   8  1   
 13   5   9  1   
 14   5  26  1   
 15   6   9  1   
 16   6  10  1   
 17   6  27  1   
 18   7  11  1   
 19   7  28  1   
 20   7  29  1   
 21   8  11  1   
 22   8  30  1   
 23   8  31  1   
 24   9  32  1   
 25   9  33  1   
 26  10  34  1   
 27  10  35  1   
 28  10  36  1   
 29  11  12  1   
 30  12  13  1   
 31  12  14  2   
 32  13  15  1   
 33  14  16  1   
 34  15  16  ar  
 35  15  17  ar  
 36  16  18  ar  
 37  17  19  ar  
 38  17  37  1   
 39  18  20  ar  
 40  18  38  1   
 41  19  20  ar  
 42  19  39  1   
 43  20  40  1   
@<TRIPOS>SUBSTRUCTURE
  1 ****  12 GROUP 4 **** **** 0

# MOE 2024.06 (io_trps.svl 2023.06)
