@<TRIPOS>MOLECULE
NONAME
22 21 1 0 0 
SMALL
USER_CHARGES


@<TRIPOS>ATOM
  1 O       -0.1210     0.2480     0.0160 O.2   1 <1>  -0.5700 
  2 C       -0.0880     1.4670     0.0220 C.2   1 <1>   0.7200 
  3 O        1.1120     2.0650     0.0280 O.3   1 <1>  -0.4300 
  4 C       -1.3030     2.3020     0.0220 C.2   1 <1>   0.6300 
  5 C        2.3160     1.3320     0.0280 C.3   1 <1>   0.1200 
  6 O       -1.2590     3.5230     0.0280 O.2   1 <1>  -0.5700 
  7 N       -2.5500     1.7370     0.0170 N.am  1 <1>  -0.7300 
  8 C        3.4730     2.3270     0.0360 C.3   1 <1>  -0.2400 
  9 C       -3.7980     2.4670     0.0140 C.3   1 <1>   0.4200 
 10 O       -4.7630     1.4810    -0.0010 O.3   1 <1>  -0.5600 
 11 C       -6.0630     1.9750    -0.0070 C.3   1 <1>   0.0400 
 12 H        2.3430     0.7170    -0.8550 H     1 <1>   0.0800 
 13 H        2.3380     0.7080     0.9060 H     1 <1>   0.0800 
 14 H       -2.6730     0.7220     0.0100 H     1 <1>   0.3700 
 15 H        3.4310     2.9500    -0.8390 H     1 <1>   0.0800 
 16 H        4.4080     1.7970     0.0360 H     1 <1>   0.0800 
 17 H        3.4260     2.9410     0.9170 H     1 <1>   0.0800 
 18 H       -3.8870     3.0770    -0.8710 H     1 <1>   0.0800 
 19 H       -3.8990     3.0630     0.9070 H     1 <1>   0.0800 
 20 H       -6.7380     1.1370    -0.0180 H     1 <1>   0.0800 
 21 H       -6.2140     2.5730    -0.8890 H     1 <1>   0.0800 
 22 H       -6.2270     2.5590     0.8830 H     1 <1>   0.0800 
@<TRIPOS>BOND
  1   1   2  2   
  2   2   3  1   
  3   2   4  1   
  4   3   5  1   
  5   4   6  2   
  6   4   7  am  
  7   5   8  1   
  8   5  12  1   
  9   5  13  1   
 10   7   9  1   
 11   7  14  1   
 12   8  15  1   
 13   8  16  1   
 14   8  17  1   
 15   9  10  1   
 16   9  18  1   
 17   9  19  1   
 18  10  11  1   
 19  11  20  1   
 20  11  21  1   
 21  11  22  1   
@<TRIPOS>SUBSTRUCTURE
  1 ****   4 GROUP 4 **** **** 0

# MOE 2024.06 (io_trps.svl 2023.06)
