@<TRIPOS>MOLECULE
NONAME
50 52 1 0 0 
SMALL
USER_CHARGES


@<TRIPOS>ATOM
  1 O        1.5030     0.3690     1.0960 O.2   1 <1>  -0.5700 
  2 C        2.0510    -0.4070     0.3190 C.2   1 <1>   0.6160 
  3 N        1.9870    -1.7820     0.5640 N.am  1 <1>  -0.4690 
  4 C        2.7750     0.0640    -0.8210 C.2   1 <1>   0.0290 
  5 C        2.6020    -2.6740    -0.2960 C.2   1 <1>  -0.0290 
  6 C        1.2270    -2.2820     1.7530 C.3   1 <1>   0.0600 
  7 C        2.8540     1.4760    -1.0690 C.2   1 <1>   0.6160 
  8 C        3.3620    -0.8450    -1.6600 C.2   1 <1>  -0.1500 
  9 C        3.2760    -2.2220    -1.3900 C.2   1 <1>  -0.1500 
 10 C        2.5170    -4.1690    -0.0170 C.3   1 <1>  -0.1020 
 11 O        2.3950     1.9050    -2.1130 O.2   1 <1>  -0.5700 
 12 N        3.5170     2.3530    -0.2270 N.am  1 <1>  -0.6600 
 13 C        4.4200     1.8930     0.8710 C.3   1 <1>   0.1400 
 14 C        3.4670     3.8270    -0.4390 C.3   1 <1>   0.1400 
 15 C        5.8060     1.5290     0.3200 C.3   1 <1>   0.1400 
 16 C        4.8550     4.4490    -0.6560 C.3   1 <1>  -0.1600 
 17 N        6.5700     2.7250    -0.1670 N.am  1 <1>  -0.6600 
 18 C        5.9040     3.5030    -1.2570 C.3   1 <1>   0.1400 
 19 C        7.7900     3.0410     0.3900 C.2   1 <1>   0.5690 
 20 O        8.2330     2.4050     1.3190 O.2   1 <1>  -0.5700 
 21 C        8.6280     4.2080    -0.1390 C.3   1 <1>  -0.0190 
 22 C       10.0630     4.2310     0.3690 C.3   1 <1>   0.1200 
 23 C        8.1310     5.5890     0.2790 C.3   1 <1>  -0.1600 
 24 O       10.4670     5.5490     0.1980 O.3   1 <1>  -0.5600 
 25 C        9.4070     6.4070     0.4710 C.3   1 <1>   0.1200 
 26 H        0.8210    -1.4750     2.3370 H     1 <1>   0.0800 
 27 H        1.8790    -2.8570     2.3840 H     1 <1>   0.0800 
 28 H        0.4100    -2.8990     1.4230 H     1 <1>   0.0800 
 29 H        3.8910    -0.5190    -2.5400 H     1 <1>   0.1500 
 30 H        3.7560    -2.9010    -2.0730 H     1 <1>   0.1500 
 31 H        2.9630    -4.3970     0.9340 H     1 <1>   0.0800 
 32 H        3.0390    -4.7270    -0.7730 H     1 <1>   0.0800 
 33 H        1.4910    -4.4900    -0.0160 H     1 <1>   0.0800 
 34 H        3.9990     1.0330     1.3580 H     1 <1>   0.0800 
 35 H        4.5190     2.6610     1.6180 H     1 <1>   0.0800 
 36 H        2.9930     4.2860     0.4120 H     1 <1>   0.0800 
 37 H        2.8540     4.0510    -1.2950 H     1 <1>   0.0800 
 38 H        5.7010     0.8240    -0.4850 H     1 <1>   0.0800 
 39 H        6.3520     1.0330     1.1030 H     1 <1>   0.0800 
 40 H        5.2170     4.8450     0.2750 H     1 <1>   0.0800 
 41 H        4.7290     5.2850    -1.3200 H     1 <1>   0.0800 
 42 H        6.6270     4.0810    -1.8000 H     1 <1>   0.0800 
 43 H        5.4460     2.8320    -1.9640 H     1 <1>   0.0800 
 44 H        8.6870     4.1440    -1.2090 H     1 <1>   0.0800 
 45 H       10.7120     3.5800    -0.1900 H     1 <1>   0.0800 
 46 H       10.1220     4.0020     1.4200 H     1 <1>   0.0800 
 47 H        7.5990     5.5400     1.2130 H     1 <1>   0.0800 
 48 H        7.4950     6.0320    -0.4660 H     1 <1>   0.0800 
 49 H        9.5050     6.7510     1.4870 H     1 <1>   0.0800 
 50 H        9.4640     7.2410    -0.2080 H     1 <1>   0.0800 
@<TRIPOS>BOND
  1   1   2  2   
  2   2   3  am  
  3   2   4  1   
  4   3   5  1   
  5   3   6  1   
  6   4   7  1   
  7   4   8  2   
  8   5   9  2   
  9   5  10  1   
 10   6  26  1   
 11   6  27  1   
 12   6  28  1   
 13   7  11  2   
 14   7  12  am  
 15   8   9  1   
 16   8  29  1   
 17   9  30  1   
 18  10  31  1   
 19  10  32  1   
 20  10  33  1   
 21  12  13  1   
 22  12  14  1   
 23  13  15  1   
 24  13  34  1   
 25  13  35  1   
 26  14  16  1   
 27  14  36  1   
 28  14  37  1   
 29  15  17  1   
 30  15  38  1   
 31  15  39  1   
 32  16  18  1   
 33  16  40  1   
 34  16  41  1   
 35  17  18  1   
 36  17  19  am  
 37  18  42  1   
 38  18  43  1   
 39  19  20  2   
 40  19  21  1   
 41  21  22  1   
 42  21  23  1   
 43  21  44  1   
 44  22  24  1   
 45  22  45  1   
 46  22  46  1   
 47  23  25  1   
 48  23  47  1   
 49  23  48  1   
 50  24  25  1   
 51  25  49  1   
 52  25  50  1   
@<TRIPOS>SUBSTRUCTURE
  1 ****  15 GROUP 4 **** **** 0

# MOE 2024.06 (io_trps.svl 2023.06)
