@<TRIPOS>MOLECULE
NONAME
36 37 1 0 0 
SMALL
USER_CHARGES


@<TRIPOS>ATOM
  1 F       -0.9120     1.9120     2.2680 F     1 <1>  -0.1900 
  2 C       -1.5940     1.8430     1.1470 C.ar  1 <1>   0.1900 
  3 C       -1.1030     2.4530    -0.0050 C.ar  1 <1>   0.1000 
  4 C       -2.7930     1.1580     1.1430 C.ar  1 <1>   0.1600 
  5 N        0.0900     3.1640    -0.1090 N.pl3 1 <1>  -0.8380 
  6 C       -1.9150     2.3040    -1.1150 C.ar  1 <1>  -0.1500 
  7 N       -3.5690     1.0190     0.0730 N.ar  1 <1>  -0.6200 
  8 C        0.1620     4.4640     0.6080 C.3   1 <1>   0.2090 
  9 C        1.3460     2.3790    -0.0120 C.3   1 <1>   0.2090 
 10 C       -3.1030     1.5990    -1.0280 C.ar  1 <1>   0.1600 
 11 C        1.2840     5.3330     0.0120 C.3   1 <1>  -0.0800 
 12 C        2.4910     3.1920    -0.6200 C.3   1 <1>  -0.1600 
 13 C        2.6270     4.5730     0.0420 C.3   1 <1>  -0.1600 
 14 C        1.3590     6.6780     0.7620 C.3   1 <1>  -0.1600 
 15 C        2.3460     7.6800     0.1360 C.3   1 <1>  -0.0990 
 16 C        2.2950     9.0250     0.8320 C.2   1 <1>   0.5690 
 17 O        2.9870     9.2300     1.7930 O.2   1 <1>  -0.5700 
 18 N        1.4690     9.9800     0.3720 N.am  1 <1>  -0.8000 
 19 H       -3.1280     0.7040     2.0590 H     1 <1>   0.1500 
 20 H       -1.6070     2.7450    -2.0440 H     1 <1>   0.1500 
 21 H        0.3510     4.2840     1.6530 H     1 <1>   0.0800 
 22 H       -0.7830     4.9720     0.5170 H     1 <1>   0.0800 
 23 H        1.2330     1.4500    -0.5440 H     1 <1>   0.0800 
 24 H        1.5540     2.1600     1.0210 H     1 <1>   0.0800 
 25 H       -3.7090     1.5060    -1.9140 H     1 <1>   0.1500 
 26 H        1.0220     5.5290    -1.0130 H     1 <1>   0.0800 
 27 H        2.3040     3.3120    -1.6720 H     1 <1>   0.0800 
 28 H        3.4110     2.6460    -0.5090 H     1 <1>   0.0800 
 29 H        2.9450     4.4450     1.0630 H     1 <1>   0.0800 
 30 H        3.3860     5.1290    -0.4780 H     1 <1>   0.0800 
 31 H        1.6400     6.5070     1.7880 H     1 <1>   0.0800 
 32 H        0.3800     7.1260     0.7670 H     1 <1>   0.0800 
 33 H        2.1260     7.8140    -0.9070 H     1 <1>   0.0800 
 34 H        3.3520     7.3100     0.2180 H     1 <1>   0.0800 
 35 H        1.4420    10.8820     0.8490 H     1 <1>   0.3700 
 36 H        0.8550     9.8670    -0.4330 H     1 <1>   0.3700 
@<TRIPOS>BOND
  1   1   2  1   
  2   2   3  ar  
  3   2   4  ar  
  4   3   5  1   
  5   3   6  ar  
  6   4   7  ar  
  7   4  19  1   
  8   5   8  1   
  9   5   9  1   
 10   6  10  ar  
 11   6  20  1   
 12   7  10  ar  
 13   8  11  1   
 14   8  21  1   
 15   8  22  1   
 16   9  12  1   
 17   9  23  1   
 18   9  24  1   
 19  10  25  1   
 20  11  13  1   
 21  11  14  1   
 22  11  26  1   
 23  12  13  1   
 24  12  27  1   
 25  12  28  1   
 26  13  29  1   
 27  13  30  1   
 28  14  15  1   
 29  14  31  1   
 30  14  32  1   
 31  15  16  1   
 32  15  33  1   
 33  15  34  1   
 34  16  17  2   
 35  16  18  am  
 36  18  35  1   
 37  18  36  1   
@<TRIPOS>SUBSTRUCTURE
  1 ****   8 GROUP 4 **** **** 0

# MOE 2024.06 (io_trps.svl 2023.06)
