@<TRIPOS>MOLECULE
NONAME
35 37 1 0 0 
SMALL
USER_CHARGES


@<TRIPOS>ATOM
  1 O        0.5160    -0.5250    -1.4920 O.3   1 <1>  -0.6800 
  2 C        1.8760    -0.4340    -1.2250 C.3   1 <1>   0.2000 
  3 C        2.3130    -1.5490    -0.2830 C.3   1 <1>  -0.0800 
  4 C        2.2140     0.8430    -0.4640 C.3   1 <1>   0.2090 
  5 C        3.5590    -0.9770     0.4000 C.3   1 <1>   0.2090 
  6 C        2.5570    -2.8930    -0.9900 C.3   1 <1>  -0.0170 
  7 N        3.4320     0.5050     0.3340 N.pl3 1 <1>  -0.8380 
  8 C        3.0130    -3.9660    -0.0130 C.ar  1 <1>   0.1660 
  9 C        4.6000     1.2170     0.1030 C.ar  1 <1>   0.4100 
 10 N        4.3100    -4.0190     0.2430 N.ar  1 <1>  -0.6200 
 11 C        2.0790    -4.8260     0.5620 C.ar  1 <1>   0.1600 
 12 N        4.9400     1.3290    -1.1790 N.ar  1 <1>  -0.6200 
 13 C        5.3760     1.7580     1.1570 C.ar  1 <1>   0.3830 
 14 C        4.6080    -4.9810     1.1020 C.ar  1 <1>   0.1600 
 15 N        2.3750    -5.7870     1.4220 N.ar  1 <1>  -0.6200 
 16 C        6.0610     1.9990    -1.3580 C.ar  1 <1>   0.1600 
 17 N        6.5100     2.4330     0.9520 N.ar  1 <1>  -0.6200 
 18 C        4.9270     1.5650     2.5070 C.1   1 <1>   0.4840 
 19 C        3.6720    -5.8350     1.6710 C.ar  1 <1>   0.1600 
 20 C        6.8210     2.5340    -0.3290 C.ar  1 <1>   0.1600 
 21 N        4.5860     1.4060     3.5880 N.1   1 <1>  -0.5570 
 22 H        0.3320    -1.2620    -2.1050 H     1 <1>   0.4000 
 23 H        2.4230    -0.4530    -2.1530 H     1 <1>   0.0800 
 24 H        1.5640    -1.6730     0.4800 H     1 <1>   0.0800 
 25 H        1.4150     1.0950     0.2120 H     1 <1>   0.0800 
 26 H        2.3910     1.6610    -1.1400 H     1 <1>   0.0800 
 27 H        4.4500    -1.2850    -0.1230 H     1 <1>   0.0800 
 28 H        3.6230    -1.3070     1.4240 H     1 <1>   0.0800 
 29 H        3.3070    -2.7750    -1.7540 H     1 <1>   0.0800 
 30 H        1.6510    -3.2130    -1.4720 H     1 <1>   0.0800 
 31 H        1.0410    -4.7150     0.3030 H     1 <1>   0.1500 
 32 H        5.6430    -5.0990     1.3680 H     1 <1>   0.1500 
 33 H        6.3980     2.1330    -2.3710 H     1 <1>   0.1500 
 34 H        4.0120    -6.5880     2.3610 H     1 <1>   0.1500 
 35 H        7.7230     3.0680    -0.5750 H     1 <1>   0.1500 
@<TRIPOS>BOND
  1   1   2  1   
  2   1  22  1   
  3   2   3  1   
  4   2   4  1   
  5   2  23  1   
  6   3   5  1   
  7   3   6  1   
  8   3  24  1   
  9   4   7  1   
 10   4  25  1   
 11   4  26  1   
 12   5   7  1   
 13   5  27  1   
 14   5  28  1   
 15   6   8  1   
 16   6  29  1   
 17   6  30  1   
 18   7   9  1   
 19   8  10  ar  
 20   8  11  ar  
 21   9  12  ar  
 22   9  13  ar  
 23  10  14  ar  
 24  11  15  ar  
 25  11  31  1   
 26  12  16  ar  
 27  13  17  ar  
 28  13  18  1   
 29  14  19  ar  
 30  14  32  1   
 31  15  19  ar  
 32  16  20  ar  
 33  16  33  1   
 34  17  20  ar  
 35  18  21  3   
 36  19  34  1   
 37  20  35  1   
@<TRIPOS>SUBSTRUCTURE
  1 ****   5 GROUP 4 **** **** 0

# MOE 2024.06 (io_trps.svl 2023.06)
