@<TRIPOS>MOLECULE
NONAME
41 44 1 0 0 
SMALL
USER_CHARGES


@<TRIPOS>ATOM
  1 O        1.0940     0.4630    -0.7880 O.2   1 <1>  -0.5700 
  2 C        1.9030    -0.3900    -0.4320 C.2   1 <1>   0.4690 
  3 C        3.2670    -0.0670    -0.0760 C.2   1 <1>   0.0290 
  4 C        1.4690    -1.7640    -0.3700 C.ar  1 <1>   0.0860 
  5 C        3.7570     1.2920    -0.1170 C.2   1 <1>   0.6160 
  6 C        4.1080    -1.0880     0.3090 C.2   1 <1>  -0.0500 
  7 C        2.4040    -2.7070     0.0340 C.ar  1 <1>   0.1000 
  8 C        0.1940    -2.2590    -0.6750 C.ar  1 <1>  -0.1500 
  9 O        4.9210     1.5350     0.1480 O.2   1 <1>  -0.5700 
 10 N        2.9650     2.3580    -0.4350 N.am  1 <1>  -0.7300 
 11 N        3.6880    -2.3810     0.3650 N.pl3 1 <1>  -0.5690 
 12 C        2.1370    -4.0490     0.1400 C.ar  1 <1>  -0.1430 
 13 C       -0.0940    -3.6110    -0.5740 C.ar  1 <1>  -0.1500 
 14 C        3.4110     3.7350    -0.7120 C.3   1 <1>   0.2200 
 15 C        4.4280    -3.6100     0.7480 C.3   1 <1>   0.2090 
 16 C        0.8800    -4.5210    -0.1630 C.ar  1 <1>  -0.1500 
 17 C        3.3950    -4.7550     0.6050 C.3   1 <1>  -0.0170 
 18 C        3.7940     4.4200     0.6090 C.3   1 <1>   0.0960 
 19 C        2.2620     4.4260    -1.4520 C.3   1 <1>  -0.2400 
 20 N        4.0930     5.8500     0.4160 N.pl3 1 <1>   0.3140 
 21 N        5.0720     6.2980    -0.3600 N.2   1 <1>  -0.7070 
 22 C        3.4600     6.9000     0.9480 C.2   1 <1>   0.0370 
 23 C        4.9590     7.5800    -0.2380 C.2   1 <1>   0.3660 
 24 N        3.9740     8.0110     0.5590 N.2   1 <1>  -0.5650 
 25 H        5.1330    -0.8890     0.5790 H     1 <1>   0.1500 
 26 H       -0.5660    -1.5670    -0.9940 H     1 <1>   0.1500 
 27 H        2.0010     2.1290    -0.7210 H     1 <1>   0.3700 
 28 H       -1.0810    -3.9690    -0.8130 H     1 <1>   0.1500 
 29 H        4.2810     3.6960    -1.3490 H     1 <1>   0.0800 
 30 H        4.7740    -3.5250     1.7630 H     1 <1>   0.0800 
 31 H        5.2620    -3.7550     0.0830 H     1 <1>   0.0800 
 32 H        0.6480    -5.5690    -0.0870 H     1 <1>   0.1500 
 33 H        3.7240    -5.4740    -0.1230 H     1 <1>   0.0800 
 34 H        3.2350    -5.2420     1.5500 H     1 <1>   0.0800 
 35 H        4.6720     3.9510     1.0150 H     1 <1>   0.0800 
 36 H        2.9890     4.3280     1.3130 H     1 <1>   0.0800 
 37 H        1.3950     4.5070    -0.8220 H     1 <1>   0.0800 
 38 H        2.0090     3.8710    -2.3380 H     1 <1>   0.0800 
 39 H        2.5570     5.4130    -1.7610 H     1 <1>   0.0800 
 40 H        2.6240     6.8060     1.6160 H     1 <1>   0.1500 
 41 H        5.6080     8.2800    -0.7400 H     1 <1>   0.1500 
@<TRIPOS>BOND
  1   1   2  2   
  2   2   3  1   
  3   2   4  1   
  4   3   5  1   
  5   3   6  2   
  6   4   7  ar  
  7   4   8  ar  
  8   5   9  2   
  9   5  10  am  
 10   6  11  1   
 11   6  25  1   
 12   7  11  1   
 13   7  12  ar  
 14   8  13  ar  
 15   8  26  1   
 16  10  14  1   
 17  10  27  1   
 18  11  15  1   
 19  12  16  ar  
 20  12  17  1   
 21  13  16  ar  
 22  13  28  1   
 23  14  18  1   
 24  14  19  1   
 25  14  29  1   
 26  15  17  1   
 27  15  30  1   
 28  15  31  1   
 29  16  32  1   
 30  17  33  1   
 31  17  34  1   
 32  18  20  1   
 33  18  35  1   
 34  18  36  1   
 35  19  37  1   
 36  19  38  1   
 37  19  39  1   
 38  20  21  1   
 39  20  22  1   
 40  21  23  2   
 41  22  24  2   
 42  22  40  1   
 43  23  24  1   
 44  23  41  1   
@<TRIPOS>SUBSTRUCTURE
  1 ****   5 GROUP 4 **** **** 0

# MOE 2024.06 (io_trps.svl 2023.06)
