@<TRIPOS>MOLECULE
NONAME
46 48 1 0 0 
SMALL
USER_CHARGES


@<TRIPOS>ATOM
  1 S       -0.4930    -0.8470     2.8180 S.3   1 <1>  -0.0800 
  2 C       -1.3210    -0.7040     1.2840 C.2   1 <1>   0.1980 
  3 C       -0.1300    -2.5060     2.4450 C.2   1 <1>  -0.1100 
  4 N       -1.3290    -1.7730     0.5900 N.2   1 <1>  -0.5650 
  5 C       -1.9260     0.6410     0.9500 C.3   1 <1>  -0.0600 
  6 C       -0.6450    -2.8000     1.2410 C.2   1 <1>   0.0460 
  7 C       -0.5720    -4.1390     0.5220 C.3   1 <1>   0.5240 
  8 N       -1.9000    -4.3800    -0.1070 N.4   1 <1>  -0.9590 
  9 C       -2.9530    -4.7080     0.9140 C.3   1 <1>   0.3430 
 10 C       -1.8400    -5.3590    -1.2260 C.3   1 <1>   0.3430 
 11 C       -4.4020    -4.5160     0.4110 C.3   1 <1>   0.1400 
 12 C       -2.6640    -4.8720    -2.4180 C.3   1 <1>  -0.1600 
 13 N       -4.6380    -5.1470    -0.9280 N.am  1 <1>  -0.6600 
 14 C       -4.0760    -4.3840    -2.0770 C.3   1 <1>   0.1400 
 15 C       -5.3310    -6.3090    -1.1580 C.2   1 <1>   0.5690 
 16 O       -5.2500    -6.8760    -2.2200 O.2   1 <1>  -0.5700 
 17 C       -6.2030    -6.9300    -0.0810 C.3   1 <1>  -0.0990 
 18 C       -7.1320    -8.0180    -0.6420 C.3   1 <1>   0.0960 
 19 N       -7.9800    -8.5680     0.4310 N.pl3 1 <1>   0.0480 
 20 C       -9.1290    -8.0910     0.9120 C.2   1 <1>   0.0360 
 21 C       -7.7750    -9.6480     1.1860 C.2   1 <1>   0.0360 
 22 N       -9.5790    -8.8110     1.8800 N.2   1 <1>  -0.3380 
 23 N       -8.7110    -9.8100     2.0560 N.2   1 <1>  -0.3380 
 24 H        0.4310    -3.0650     3.1740 H     1 <1>   0.1500 
 25 H       -2.6550     0.9100     1.6920 H     1 <1>   0.0800 
 26 H       -2.4040     0.6020    -0.0120 H     1 <1>   0.0800 
 27 H       -1.1560     1.3900     0.9260 H     1 <1>   0.0800 
 28 H       -0.3120    -4.9310     1.2040 H     1 <1>   0.0800 
 29 H        0.1840    -4.0710    -0.2430 H     1 <1>   0.0800 
 30 H       -2.1250    -3.4420    -0.4840 H     1 <1>   0.4500 
 31 H       -2.8210    -4.0790     1.7790 H     1 <1>   0.0800 
 32 H       -2.8320    -5.7290     1.2360 H     1 <1>   0.0800 
 33 H       -2.2260    -6.3110    -0.8960 H     1 <1>   0.0800 
 34 H       -0.8210    -5.5040    -1.5470 H     1 <1>   0.0800 
 35 H       -4.6140    -3.4620     0.3470 H     1 <1>   0.0800 
 36 H       -5.0730    -4.9220     1.1450 H     1 <1>   0.0800 
 37 H       -2.7550    -5.6920    -3.1090 H     1 <1>   0.0800 
 38 H       -2.1350    -4.0920    -2.9360 H     1 <1>   0.0800 
 39 H       -4.7130    -4.5000    -2.9400 H     1 <1>   0.0800 
 40 H       -4.0550    -3.3340    -1.8380 H     1 <1>   0.0800 
 41 H       -6.8070    -6.1570     0.3580 H     1 <1>   0.0800 
 42 H       -5.5670    -7.3570     0.6720 H     1 <1>   0.0800 
 43 H       -6.5540    -8.8170    -1.0740 H     1 <1>   0.0800 
 44 H       -7.7650    -7.6080    -1.4100 H     1 <1>   0.0800 
 45 H       -9.6110    -7.2090     0.5310 H     1 <1>   0.1500 
 46 H       -6.9260   -10.2980     1.0750 H     1 <1>   0.1500 
@<TRIPOS>BOND
  1   1   2  1   
  2   1   3  1   
  3   2   4  2   
  4   2   5  1   
  5   3   6  2   
  6   3  24  1   
  7   4   6  1   
  8   5  25  1   
  9   5  26  1   
 10   5  27  1   
 11   6   7  1   
 12   7   8  1   
 13   7  28  1   
 14   7  29  1   
 15   8   9  1   
 16   8  10  1   
 17   8  30  1   
 18   9  11  1   
 19   9  31  1   
 20   9  32  1   
 21  10  12  1   
 22  10  33  1   
 23  10  34  1   
 24  11  13  1   
 25  11  35  1   
 26  11  36  1   
 27  12  14  1   
 28  12  37  1   
 29  12  38  1   
 30  13  14  1   
 31  13  15  am  
 32  14  39  1   
 33  14  40  1   
 34  15  16  2   
 35  15  17  1   
 36  17  18  1   
 37  17  41  1   
 38  17  42  1   
 39  18  19  1   
 40  18  43  1   
 41  18  44  1   
 42  19  20  1   
 43  19  21  1   
 44  20  22  2   
 45  20  45  1   
 46  21  23  2   
 47  21  46  1   
 48  22  23  1   
@<TRIPOS>SUBSTRUCTURE
  1 ****  11 GROUP 4 **** **** 0

# MOE 2024.06 (io_trps.svl 2023.06)
