@<TRIPOS>MOLECULE
NONAME
55 57 1 0 0 
SMALL
USER_CHARGES


@<TRIPOS>ATOM
  1 S        0.5260    -0.8380     0.1930 S.o2  1 <1>   1.5760 
  2 O        1.4880    -1.8780    -0.0820 O.2   1 <1>  -0.6500 
  3 O       -0.1230    -0.8130     1.4840 O.2   1 <1>  -0.6500 
  4 N       -0.6900    -0.9570    -0.9790 N.am  1 <1>  -0.8490 
  5 N        1.2060     0.6580    -0.1590 N.am  1 <1>  -0.8490 
  6 C       -1.3190    -2.2780    -0.9900 C.3   1 <1>   0.1960 
  7 C       -1.6710     0.1420    -1.0150 C.3   1 <1>   0.1960 
  8 C        2.0840     1.0580     0.9410 C.3   1 <1>   0.3390 
  9 C        1.9330     0.6510    -1.4380 C.3   1 <1>   0.1160 
 10 C       -2.3430    -2.4540     0.1650 C.3   1 <1>   0.4230 
 11 C       -2.7460     0.0220     0.0780 C.3   1 <1>  -0.1600 
 12 C        2.6420     2.4590     0.7270 C.ar  1 <1>  -0.1440 
 13 N       -2.8780    -3.8750     0.3120 N.4   1 <1>  -0.9590 
 14 C       -3.4520    -1.3630     0.1210 C.3   1 <1>   0.0000 
 15 C        1.7840     3.5450     0.6340 C.ar  1 <1>  -0.1500 
 16 C        4.0100     2.6660     0.6240 C.ar  1 <1>  -0.1500 
 17 C       -4.1460    -3.9710     1.1080 C.3   1 <1>   0.3430 
 18 C       -3.0140    -4.6570    -0.9610 C.3   1 <1>   0.2630 
 19 C       -4.3100    -1.4500     1.4190 C.3   1 <1>  -0.1600 
 20 C       -4.3460    -1.5500    -1.1380 C.3   1 <1>   0.1200 
 21 C        2.2840     4.8210     0.4400 C.ar  1 <1>  -0.1500 
 22 C        4.5120     3.9420     0.4290 C.ar  1 <1>  -0.1500 
 23 C       -4.2500    -2.8250     2.1120 C.3   1 <1>  -0.1600 
 24 O       -5.2250    -0.4940    -1.3070 O.3   1 <1>  -0.6800 
 25 C        3.6490     5.0190     0.3370 C.ar  1 <1>  -0.1500 
 26 H       -1.8010    -2.4070    -1.9420 H     1 <1>   0.0800 
 27 H       -0.5540    -3.0320    -0.9120 H     1 <1>   0.0800 
 28 H       -1.1700     1.0910    -0.9240 H     1 <1>   0.0800 
 29 H       -2.1530     0.1390    -1.9790 H     1 <1>   0.0800 
 30 H        1.5280     1.0610     1.8650 H     1 <1>   0.0800 
 31 H        2.8900     0.3490     1.0430 H     1 <1>   0.0800 
 32 H        2.2670     1.6440    -1.6860 H     1 <1>   0.0800 
 33 H        1.2870     0.3140    -2.2300 H     1 <1>   0.0800 
 34 H        2.7870    -0.0040    -1.3880 H     1 <1>   0.0800 
 35 H       -1.7950    -2.2560     1.0700 H     1 <1>   0.0800 
 36 H       -2.2850     0.2370     1.0250 H     1 <1>   0.0800 
 37 H       -3.4660     0.8060    -0.0720 H     1 <1>   0.0800 
 38 H       -2.1620    -4.3550     0.8790 H     1 <1>   0.4500 
 39 H        0.7210     3.3940     0.7090 H     1 <1>   0.1500 
 40 H        4.6940     1.8380     0.6930 H     1 <1>   0.1500 
 41 H       -4.9960    -3.9230     0.4470 H     1 <1>   0.0800 
 42 H       -4.1820    -4.9160     1.6270 H     1 <1>   0.0800 
 43 H       -3.7230    -4.1860    -1.6210 H     1 <1>   0.0800 
 44 H       -3.3570    -5.6580    -0.7490 H     1 <1>   0.0800 
 45 H       -2.0640    -4.7280    -1.4660 H     1 <1>   0.0800 
 46 H       -3.9840    -0.7170     2.1390 H     1 <1>   0.0800 
 47 H       -5.3370    -1.2140     1.2010 H     1 <1>   0.0800 
 48 H       -4.9340    -2.4480    -1.0760 H     1 <1>   0.0800 
 49 H       -3.7560    -1.5930    -2.0370 H     1 <1>   0.0800 
 50 H        1.6110     5.6570     0.3680 H     1 <1>   0.1500 
 51 H        5.5740     4.0960     0.3490 H     1 <1>   0.1500 
 52 H       -5.1350    -2.9560     2.7110 H     1 <1>   0.0800 
 53 H       -3.4080    -2.8650     2.7830 H     1 <1>   0.0800 
 54 H       -5.8480    -0.4050    -0.5590 H     1 <1>   0.4000 
 55 H        4.0390     6.0110     0.1860 H     1 <1>   0.1500 
@<TRIPOS>BOND
  1   1   2  2   
  2   1   3  2   
  3   1   4  am  
  4   1   5  am  
  5   4   6  1   
  6   4   7  1   
  7   5   8  1   
  8   5   9  1   
  9   6  10  1   
 10   6  26  1   
 11   6  27  1   
 12   7  11  1   
 13   7  28  1   
 14   7  29  1   
 15   8  12  1   
 16   8  30  1   
 17   8  31  1   
 18   9  32  1   
 19   9  33  1   
 20   9  34  1   
 21  10  13  1   
 22  10  14  1   
 23  10  35  1   
 24  11  14  1   
 25  11  36  1   
 26  11  37  1   
 27  12  15  ar  
 28  12  16  ar  
 29  13  17  1   
 30  13  18  1   
 31  13  38  1   
 32  14  19  1   
 33  14  20  1   
 34  15  21  ar  
 35  15  39  1   
 36  16  22  ar  
 37  16  40  1   
 38  17  23  1   
 39  17  41  1   
 40  17  42  1   
 41  18  43  1   
 42  18  44  1   
 43  18  45  1   
 44  19  23  1   
 45  19  46  1   
 46  19  47  1   
 47  20  24  1   
 48  20  48  1   
 49  20  49  1   
 50  21  25  ar  
 51  21  50  1   
 52  22  25  ar  
 53  22  51  1   
 54  23  52  1   
 55  23  53  1   
 56  24  54  1   
 57  25  55  1   
@<TRIPOS>SUBSTRUCTURE
  1 ****   1 GROUP 4 **** **** 0

# MOE 2024.06 (io_trps.svl 2023.06)
