@<TRIPOS>MOLECULE
NONAME
48 50 1 0 0 
SMALL
USER_CHARGES


@<TRIPOS>ATOM
  1 O       -1.2560     0.5510    -1.4540 O.2   1 <1>  -0.5700 
  2 C       -1.2040     0.4890    -0.2390 C.2   1 <1>   0.7150 
  3 N       -1.4900    -0.7100     0.3470 N.am  1 <1>  -0.7300 
  4 C       -0.8770     1.6320     0.5860 C.2   1 <1>   0.0550 
  5 C       -1.8300    -1.9620    -0.3680 C.3   1 <1>   0.2200 
  6 O       -0.7070     2.8400     0.0560 O.3   1 <1>  -0.2800 
  7 C       -0.6930     1.7310     1.9330 C.2   1 <1>  -0.1500 
  8 C       -3.3290    -2.2330    -0.3260 C.3   1 <1>  -0.0800 
  9 C       -1.3150    -3.1390     0.4480 C.3   1 <1>   0.1200 
 10 C       -0.4230     3.7050     1.0080 C.2   1 <1>   0.1600 
 11 C       -0.4010     3.0660     2.2000 C.2   1 <1>  -0.1500 
 12 C       -3.5180    -2.9280     1.0280 C.3   1 <1>   0.1200 
 13 C       -4.2440    -1.0140    -0.5480 C.3   1 <1>  -0.0160 
 14 O       -2.2430    -3.2880     1.4780 O.3   1 <1>  -0.5600 
 15 C       -0.1960     5.0770     0.6840 C.1   1 <1>  -0.0200 
 16 C       -5.7070    -1.4300    -0.5650 C.ar  1 <1>  -0.1440 
 17 C       -0.0050     6.2220     0.4150 C.1   1 <1>  -0.2000 
 18 C       -6.2910    -1.9800    -1.6880 C.ar  1 <1>  -0.1500 
 19 C       -6.5250    -1.2810     0.5370 C.ar  1 <1>  -0.1500 
 20 C        0.2320     7.6470     0.0610 C.3   1 <1>   0.4800 
 21 C       -7.6250    -2.3500    -1.6540 C.ar  1 <1>   0.1600 
 22 C       -7.8480    -1.6840     0.4660 C.ar  1 <1>   0.1600 
 23 O        0.4880     8.3270     1.2220 O.3   1 <1>  -0.6800 
 24 C        1.4590     7.7940    -0.8310 C.3   1 <1>  -0.2400 
 25 C       -1.0090     8.2710    -0.5660 C.3   1 <1>  -0.2400 
 26 N       -8.4170    -2.2180    -0.6020 N.ar  1 <1>  -0.6200 
 27 H       -1.5200    -0.7920     1.3640 H     1 <1>   0.3700 
 28 H       -1.4340    -1.9520    -1.3700 H     1 <1>   0.0800 
 29 H       -0.7500     0.9530     2.6740 H     1 <1>   0.1500 
 30 H       -3.5510    -2.9580    -1.0900 H     1 <1>   0.0800 
 31 H       -0.3360    -2.9690     0.8590 H     1 <1>   0.0800 
 32 H       -1.3180    -4.0430    -0.1360 H     1 <1>   0.0800 
 33 H       -0.1990     3.4940     3.1660 H     1 <1>   0.1500 
 34 H       -4.1220    -3.8150     0.9390 H     1 <1>   0.0800 
 35 H       -3.9480    -2.2680     1.7610 H     1 <1>   0.0800 
 36 H       -3.9960    -0.5470    -1.4860 H     1 <1>   0.0800 
 37 H       -4.0940    -0.2820     0.2250 H     1 <1>   0.0800 
 38 H       -5.7220    -2.1220    -2.5880 H     1 <1>   0.1500 
 39 H       -6.1490    -0.8550     1.4490 H     1 <1>   0.1500 
 40 H       -8.0640    -2.7770    -2.5390 H     1 <1>   0.1500 
 41 H       -8.4720    -1.5610     1.3350 H     1 <1>   0.1500 
 42 H        0.6460     9.2620     1.0110 H     1 <1>   0.4000 
 43 H        1.3060     7.2530    -1.7470 H     1 <1>   0.0800 
 44 H        2.3230     7.3820    -0.3390 H     1 <1>   0.0800 
 45 H        1.6390     8.8250    -1.0700 H     1 <1>   0.0800 
 46 H       -1.2560     7.7480    -1.4730 H     1 <1>   0.0800 
 47 H       -0.8410     9.3050    -0.8040 H     1 <1>   0.0800 
 48 H       -1.8430     8.1870     0.1070 H     1 <1>   0.0800 
@<TRIPOS>BOND
  1   1   2  2   
  2   2   3  am  
  3   2   4  1   
  4   3   5  1   
  5   3  27  1   
  6   4   6  1   
  7   4   7  2   
  8   5   8  1   
  9   5   9  1   
 10   5  28  1   
 11   6  10  1   
 12   7  11  1   
 13   7  29  1   
 14   8  12  1   
 15   8  13  1   
 16   8  30  1   
 17   9  14  1   
 18   9  31  1   
 19   9  32  1   
 20  10  11  2   
 21  10  15  1   
 22  11  33  1   
 23  12  14  1   
 24  12  34  1   
 25  12  35  1   
 26  13  16  1   
 27  13  36  1   
 28  13  37  1   
 29  15  17  3   
 30  16  18  ar  
 31  16  19  ar  
 32  17  20  1   
 33  18  21  ar  
 34  18  38  1   
 35  19  22  ar  
 36  19  39  1   
 37  20  23  1   
 38  20  24  1   
 39  20  25  1   
 40  21  26  ar  
 41  21  40  1   
 42  22  26  ar  
 43  22  41  1   
 44  23  42  1   
 45  24  43  1   
 46  24  44  1   
 47  24  45  1   
 48  25  46  1   
 49  25  47  1   
 50  25  48  1   
@<TRIPOS>SUBSTRUCTURE
  1 ****   2 GROUP 4 **** **** 0

# MOE 2024.06 (io_trps.svl 2023.06)
