@<TRIPOS>MOLECULE
NONAME
56 59 1 0 0 
SMALL
USER_CHARGES


@<TRIPOS>ATOM
  1 O       -2.7500     0.3550    -2.6260 O.2   1 <1>  -0.5700 
  2 C       -2.2770     0.8080    -1.6000 C.2   1 <1>   0.5440 
  3 N       -2.2630    -0.0270    -0.5040 N.am  1 <1>  -0.6600 
  4 C       -1.8400     2.1890    -1.5170 C.ar  1 <1>   0.0860 
  5 C       -2.9410     0.3930     0.7580 C.3   1 <1>   0.1400 
  6 C       -2.2650    -1.5030    -0.7130 C.3   1 <1>   0.1400 
  7 C       -0.8570     2.5900    -0.6240 C.ar  1 <1>  -0.1500 
  8 C       -2.4260     3.1720    -2.3430 C.ar  1 <1>  -0.1500 
  9 C       -4.3870    -0.1590     0.8270 C.3   1 <1>   0.4230 
 10 C       -3.7120    -2.0250    -0.7100 C.3   1 <1>   0.3430 
 11 C       -0.4800     3.9290    -0.5250 C.ar  1 <1>   0.0000 
 12 C       -2.0660     4.4960    -2.2630 C.ar  1 <1>  -0.1500 
 13 N       -4.4470    -1.6580     0.5640 N.4   1 <1>  -0.9590 
 14 C       -5.3190     0.6100    -0.1400 C.3   1 <1>   0.1200 
 15 C       -1.0900     4.8740    -1.3410 C.ar  1 <1>  -0.1520 
 16 C        0.4550     4.6310     0.2710 C.2   1 <1>  -0.1810 
 17 C       -5.8850    -2.1060     0.5710 C.3   1 <1>   0.4230 
 18 O       -6.6230     0.1130    -0.0480 O.3   1 <1>  -0.5600 
 19 N       -0.5540     6.0990    -1.0540 N.pl3 1 <1>   0.0330 
 20 C        0.3840     5.9420    -0.0710 C.2   1 <1>  -0.3320 
 21 C        1.3420     3.9510     1.2970 C.3   1 <1>  -0.0590 
 22 C       -6.7560    -1.2420    -0.3730 C.3   1 <1>   0.1200 
 23 C       -5.9870    -3.6110     0.2680 C.3   1 <1>  -0.1600 
 24 C        1.1570     7.1380     0.4590 C.3   1 <1>  -0.0600 
 25 C       -7.3610    -4.1920     0.6380 C.3   1 <1>  -0.1600 
 26 C       -7.3940    -5.7040     0.4000 C.3   1 <1>  -0.2400 
 27 H       -2.3750     0.0310     1.5980 H     1 <1>   0.0800 
 28 H       -2.9650     1.4680     0.8280 H     1 <1>   0.0800 
 29 H       -1.8020    -1.7370    -1.6580 H     1 <1>   0.0800 
 30 H       -1.6900    -1.9810     0.0600 H     1 <1>   0.0800 
 31 H       -0.3620     1.8740     0.0050 H     1 <1>   0.1500 
 32 H       -3.1730     2.8650    -3.0550 H     1 <1>   0.1500 
 33 H       -4.7560     0.0340     1.8210 H     1 <1>   0.0800 
 34 H       -3.6940    -3.0940    -0.8320 H     1 <1>   0.0800 
 35 H       -4.2190    -1.6020    -1.5620 H     1 <1>   0.0800 
 36 H       -2.5200     5.2370    -2.8980 H     1 <1>   0.1500 
 37 H       -3.9740    -2.1280     1.3430 H     1 <1>   0.4500 
 38 H       -4.9910     0.5280    -1.1620 H     1 <1>   0.0800 
 39 H       -5.3510     1.6530     0.1230 H     1 <1>   0.0800 
 40 H       -6.2740    -1.9590     1.5660 H     1 <1>   0.0800 
 41 H       -0.8090     6.9790    -1.5100 H     1 <1>   0.2700 
 42 H        1.9450     3.2040     0.8150 H     1 <1>   0.0800 
 43 H        0.7350     3.4810     2.0480 H     1 <1>   0.0800 
 44 H        1.9930     4.6580     1.7750 H     1 <1>   0.0800 
 45 H       -7.7950    -1.4940    -0.2620 H     1 <1>   0.0800 
 46 H       -6.4810    -1.3810    -1.4050 H     1 <1>   0.0800 
 47 H       -5.8110    -3.7930    -0.7780 H     1 <1>   0.0800 
 48 H       -5.2420    -4.1360     0.8390 H     1 <1>   0.0800 
 49 H        1.8470     6.8440     1.2270 H     1 <1>   0.0800 
 50 H        0.4770     7.8610     0.8730 H     1 <1>   0.0800 
 51 H        1.7130     7.5980    -0.3380 H     1 <1>   0.0800 
 52 H       -7.5760    -4.0000     1.6760 H     1 <1>   0.0800 
 53 H       -8.1380    -3.7370     0.0470 H     1 <1>   0.0800 
 54 H       -6.6560    -6.2040     1.0020 H     1 <1>   0.0800 
 55 H       -7.2100    -5.9320    -0.6360 H     1 <1>   0.0800 
 56 H       -8.3620    -6.0950     0.6630 H     1 <1>   0.0800 
@<TRIPOS>BOND
  1   1   2  2   
  2   2   3  am  
  3   2   4  1   
  4   3   5  1   
  5   3   6  1   
  6   4   7  ar  
  7   4   8  ar  
  8   5   9  1   
  9   5  27  1   
 10   5  28  1   
 11   6  10  1   
 12   6  29  1   
 13   6  30  1   
 14   7  11  ar  
 15   7  31  1   
 16   8  12  ar  
 17   8  32  1   
 18   9  13  1   
 19   9  14  1   
 20   9  33  1   
 21  10  13  1   
 22  10  34  1   
 23  10  35  1   
 24  11  15  ar  
 25  11  16  1   
 26  12  15  ar  
 27  12  36  1   
 28  13  17  1   
 29  13  37  1   
 30  14  18  1   
 31  14  38  1   
 32  14  39  1   
 33  15  19  1   
 34  16  20  2   
 35  16  21  1   
 36  17  22  1   
 37  17  23  1   
 38  17  40  1   
 39  18  22  1   
 40  19  20  1   
 41  19  41  1   
 42  20  24  1   
 43  21  42  1   
 44  21  43  1   
 45  21  44  1   
 46  22  45  1   
 47  22  46  1   
 48  23  25  1   
 49  23  47  1   
 50  23  48  1   
 51  24  49  1   
 52  24  50  1   
 53  24  51  1   
 54  25  26  1   
 55  25  52  1   
 56  25  53  1   
 57  26  54  1   
 58  26  55  1   
 59  26  56  1   
@<TRIPOS>SUBSTRUCTURE
  1 ****   3 GROUP 4 **** **** 0

# MOE 2024.06 (io_trps.svl 2023.06)
