@<TRIPOS>MOLECULE
NONAME
53 55 1 0 0 
SMALL
USER_CHARGES


@<TRIPOS>ATOM
  1 O       -0.6900     0.1160     0.6730 O.2   1 <1>  -0.5700 
  2 C       -1.5960     0.6930     0.1200 C.2   1 <1>   0.5690 
  3 N       -2.6640     0.0040    -0.3820 N.am  1 <1>  -0.6600 
  4 C       -1.5550     2.2120    -0.0130 C.3   1 <1>  -0.0990 
  5 C       -3.8820     0.5710    -1.0110 C.3   1 <1>   0.1400 
  6 C       -2.7770    -1.4720    -0.2770 C.3   1 <1>   0.1400 
  7 C       -0.2050     2.8470     0.3660 C.3   1 <1>  -0.1600 
  8 C       -4.9290    -0.5290    -0.8510 C.3   1 <1>   0.2000 
  9 C       -4.1120    -1.8240    -0.9500 C.3   1 <1>  -0.0800 
 10 C       -0.2340     4.3730     0.1870 C.3   1 <1>  -0.1600 
 11 O       -5.4750    -0.4150     0.4190 O.3   1 <1>  -0.6800 
 12 C       -4.8100    -3.0680    -0.3580 C.3   1 <1>  -0.0170 
 13 C        1.0500     5.0680     0.6760 C.3   1 <1>  -0.0800 
 14 C       -4.1120    -4.4180    -0.5680 C.ar  1 <1>  -0.1440 
 15 C        0.8720     6.5890     0.6090 C.3   1 <1>  -0.2400 
 16 C        2.2790     4.6620    -0.1480 C.3   1 <1>  -0.2400 
 17 C       -4.6040    -5.5700     0.0960 C.ar  1 <1>   0.0000 
 18 C       -3.0270    -4.5920    -1.3820 C.ar  1 <1>  -0.1500 
 19 C       -3.9290    -6.7980    -0.1110 C.ar  1 <1>   0.3100 
 20 C       -5.7330    -5.5780     0.9510 C.ar  1 <1>  -0.1500 
 21 C       -2.4360    -5.8530    -1.5200 C.ar  1 <1>   0.1600 
 22 N       -2.8480    -6.9230    -0.9190 N.ar  1 <1>  -0.6200 
 23 C       -4.3930    -7.9520     0.5420 C.ar  1 <1>  -0.1500 
 24 C       -6.1610    -6.7200     1.5710 C.ar  1 <1>  -0.1500 
 25 C       -5.4830    -7.9240     1.3680 C.ar  1 <1>  -0.1500 
 26 H       -1.7820     2.4680    -1.0310 H     1 <1>   0.0800 
 27 H       -2.3240     2.6190     0.6180 H     1 <1>   0.0800 
 28 H       -4.1970     1.4880    -0.5430 H     1 <1>   0.0800 
 29 H       -3.6890     0.7440    -2.0560 H     1 <1>   0.0800 
 30 H       -1.9410    -1.9460    -0.7610 H     1 <1>   0.0800 
 31 H       -2.7830    -1.7500     0.7640 H     1 <1>   0.0800 
 32 H        0.0220     2.6080     1.3910 H     1 <1>   0.0800 
 33 H        0.5630     2.4150    -0.2520 H     1 <1>   0.0800 
 34 H       -5.7250    -0.4660    -1.5730 H     1 <1>   0.0800 
 35 H       -3.9270    -1.9940    -1.9950 H     1 <1>   0.0800 
 36 H       -1.0670     4.7660     0.7450 H     1 <1>   0.0800 
 37 H       -0.3970     4.6100    -0.8510 H     1 <1>   0.0800 
 38 H       -4.7450    -0.3350     1.0670 H     1 <1>   0.4000 
 39 H       -5.7970    -3.1350    -0.7820 H     1 <1>   0.0800 
 40 H       -4.9240    -2.9140     0.7010 H     1 <1>   0.0800 
 41 H        1.2210     4.7950     1.7040 H     1 <1>   0.0800 
 42 H        0.7010     6.9070    -0.4040 H     1 <1>   0.0800 
 43 H        1.7520     7.0840     0.9800 H     1 <1>   0.0800 
 44 H        0.0360     6.8960     1.2120 H     1 <1>   0.0800 
 45 H        2.1190     4.8630    -1.1930 H     1 <1>   0.0800 
 46 H        2.4940     3.6160    -0.0260 H     1 <1>   0.0800 
 47 H        3.1430     5.2140     0.1770 H     1 <1>   0.0800 
 48 H       -2.5850    -3.7940    -1.9450 H     1 <1>   0.1500 
 49 H       -6.2770    -4.6680     1.1210 H     1 <1>   0.1500 
 50 H       -1.5810    -5.9380    -2.1690 H     1 <1>   0.1500 
 51 H       -3.8560    -8.8660     0.3680 H     1 <1>   0.1500 
 52 H       -7.0200    -6.7080     2.2190 H     1 <1>   0.1500 
 53 H       -5.8280    -8.8160     1.8620 H     1 <1>   0.1500 
@<TRIPOS>BOND
  1   1   2  2   
  2   2   3  am  
  3   2   4  1   
  4   3   5  1   
  5   3   6  1   
  6   4   7  1   
  7   4  26  1   
  8   4  27  1   
  9   5   8  1   
 10   5  28  1   
 11   5  29  1   
 12   6   9  1   
 13   6  30  1   
 14   6  31  1   
 15   7  10  1   
 16   7  32  1   
 17   7  33  1   
 18   8   9  1   
 19   8  11  1   
 20   8  34  1   
 21   9  12  1   
 22   9  35  1   
 23  10  13  1   
 24  10  36  1   
 25  10  37  1   
 26  11  38  1   
 27  12  14  1   
 28  12  39  1   
 29  12  40  1   
 30  13  15  1   
 31  13  16  1   
 32  13  41  1   
 33  14  17  ar  
 34  14  18  ar  
 35  15  42  1   
 36  15  43  1   
 37  15  44  1   
 38  16  45  1   
 39  16  46  1   
 40  16  47  1   
 41  17  19  ar  
 42  17  20  ar  
 43  18  21  ar  
 44  18  48  1   
 45  19  22  ar  
 46  19  23  ar  
 47  20  24  ar  
 48  20  49  1   
 49  21  22  ar  
 50  21  50  1   
 51  23  25  ar  
 52  23  51  1   
 53  24  25  ar  
 54  24  52  1   
 55  25  53  1   
@<TRIPOS>SUBSTRUCTURE
  1 ****   6 GROUP 4 **** **** 0

# MOE 2024.06 (io_trps.svl 2023.06)
