@<TRIPOS>MOLECULE
Untitled Document
49 51 1 0 0 
SMALL
USER_CHARGES


@<TRIPOS>ATOM
  1 F        1.8160    -0.5900     1.8200 F     1 <1>  -0.3400 
  2 C        1.3420    -0.6990     0.5790 C.3   1 <1>   0.2600 
  3 C        1.3360    -2.1930     0.1990 C.3   1 <1>  -0.0800 
  4 C        2.2520     0.1240    -0.3490 C.3   1 <1>   0.1400 
  5 C        2.7750    -2.7430     0.0990 C.3   1 <1>  -0.1600 
  6 C        0.4910    -3.0240     1.1710 C.3   1 <1>   0.2090 
  7 N        3.6140    -0.4840    -0.4690 N.am  1 <1>  -0.6600 
  8 C        3.6340    -1.9180    -0.8680 C.3   1 <1>   0.1400 
  9 N       -0.9090    -2.5440     1.1520 N.pl3 1 <1>  -0.8690 
 10 C        4.7380     0.2200    -0.1310 C.2   1 <1>   0.7800 
 11 C       -1.9020    -3.1000     0.4230 C.ar  1 <1>   0.7200 
 12 O        4.7190     1.4050     0.1440 O.2   1 <1>  -0.5700 
 13 O        5.8960    -0.4350    -0.1150 O.3   1 <1>  -0.4300 
 14 N       -1.5760    -3.8200    -0.6460 N.ar  1 <1>  -0.6200 
 15 N       -3.1160    -2.8440     0.8840 N.ar  1 <1>  -0.6200 
 16 C        7.0830     0.2290     0.2480 C.3   1 <1>   0.2630 
 17 C       -2.5860    -4.3320    -1.3090 C.ar  1 <1>   0.1600 
 18 C       -4.1030    -3.3690     0.1990 C.ar  1 <1>   0.1600 
 19 C        8.2270    -0.7700     0.2000 C.ar  1 <1>  -0.1440 
 20 C       -3.8900    -4.1340    -0.9230 C.ar  1 <1>  -0.1500 
 21 C        9.1800    -0.7070    -0.8050 C.ar  1 <1>  -0.1500 
 22 C        8.3290    -1.7570     1.1680 C.ar  1 <1>  -0.1500 
 23 C       10.2230    -1.6170    -0.8380 C.ar  1 <1>  -0.1500 
 24 C        9.3730    -2.6660     1.1340 C.ar  1 <1>  -0.1500 
 25 C       10.3270    -2.5990     0.1320 C.ar  1 <1>  -0.1440 
 26 C       11.4700    -3.5970     0.0950 C.3   1 <1>  -0.0970 
 27 H        0.3480    -0.2900     0.5990 H     1 <1>   0.0800 
 28 H        0.8870    -2.2840    -0.7740 H     1 <1>   0.0800 
 29 H        2.3090     1.1330     0.0200 H     1 <1>   0.0800 
 30 H        1.8090     0.1590    -1.3280 H     1 <1>   0.0800 
 31 H        2.7500    -3.7620    -0.2430 H     1 <1>   0.0800 
 32 H        3.2430    -2.7330     1.0680 H     1 <1>   0.0800 
 33 H        0.8830    -2.9430     2.1710 H     1 <1>   0.0800 
 34 H        0.5200    -4.0620     0.8840 H     1 <1>   0.0800 
 35 H        3.2440    -2.0050    -1.8680 H     1 <1>   0.0800 
 36 H        4.6390    -2.3040    -0.8730 H     1 <1>   0.0800 
 37 H       -1.2550    -2.1390     2.0210 H     1 <1>   0.4000 
 38 H        7.2430     1.0400    -0.4410 H     1 <1>   0.0800 
 39 H        6.9630     0.6220     1.2430 H     1 <1>   0.0800 
 40 H       -2.3680    -4.9240    -2.1820 H     1 <1>   0.1500 
 41 H       -5.1080    -3.1850     0.5410 H     1 <1>   0.1500 
 42 H       -4.7070    -4.5580    -1.4740 H     1 <1>   0.1500 
 43 H        9.1130     0.0480    -1.5680 H     1 <1>   0.1500 
 44 H        7.5920    -1.8210     1.9490 H     1 <1>   0.1500 
 45 H       10.9530    -1.5560    -1.6260 H     1 <1>   0.1500 
 46 H        9.4380    -3.4260     1.8920 H     1 <1>   0.1500 
 47 H       12.3390    -3.1580    -0.3620 H     1 <1>   0.0800 
 48 H       11.1780    -4.4620    -0.4730 H     1 <1>   0.0800 
 49 H       11.7310    -3.9070     1.0910 H     1 <1>   0.0800 
@<TRIPOS>BOND
  1   1   2  1   
  2   2   3  1   
  3   2   4  1   
  4   2  27  1   
  5   3   5  1   
  6   3   6  1   
  7   3  28  1   
  8   4   7  1   
  9   4  29  1   
 10   4  30  1   
 11   5   8  1   
 12   5  31  1   
 13   5  32  1   
 14   6   9  1   
 15   6  33  1   
 16   6  34  1   
 17   7   8  1   
 18   7  10  am  
 19   8  35  1   
 20   8  36  1   
 21   9  11  1   
 22   9  37  1   
 23  10  12  2   
 24  10  13  1   
 25  11  14  ar  
 26  11  15  ar  
 27  13  16  1   
 28  14  17  ar  
 29  15  18  ar  
 30  16  19  1   
 31  16  38  1   
 32  16  39  1   
 33  17  20  ar  
 34  17  40  1   
 35  18  20  ar  
 36  18  41  1   
 37  19  21  ar  
 38  19  22  ar  
 39  20  42  1   
 40  21  23  ar  
 41  21  43  1   
 42  22  24  ar  
 43  22  44  1   
 44  23  25  ar  
 45  23  45  1   
 46  24  25  ar  
 47  24  46  1   
 48  25  26  1   
 49  26  47  1   
 50  26  48  1   
 51  26  49  1   
@<TRIPOS>SUBSTRUCTURE
  1 ****   8 GROUP 4 **** **** 0

# MOE 2024.06 (io_trps.svl 2023.06)
