@<TRIPOS>MOLECULE
NONAME
33 34 1 0 0 
SMALL
USER_CHARGES


@<TRIPOS>ATOM
  1 CL      -0.1640    -0.0410     0.2620 Cl    1 <1>  -0.1770 
  2 C        1.1810    -1.1630     0.3720 C.ar  1 <1>   0.1770 
  3 C        1.1480    -2.3910    -0.2780 C.ar  1 <1>   0.4100 
  4 C        2.2900    -0.8460     1.1060 C.ar  1 <1>   0.1600 
  5 N        2.1690    -3.2240    -0.1780 N.ar  1 <1>  -0.6200 
  6 N        0.0640    -2.7800    -1.0360 N.pl3 1 <1>  -0.8690 
  7 N        3.3170    -1.6730     1.2100 N.ar  1 <1>  -0.6200 
  8 C        3.1890    -2.8160     0.5550 C.ar  1 <1>   0.4770 
  9 C       -0.1350    -4.1150    -1.6410 C.3   1 <1>   0.2090 
 10 C        4.3500    -3.7760     0.6630 C.3   1 <1>  -0.0970 
 11 C       -1.1490    -4.8860    -0.8010 C.3   1 <1>  -0.1600 
 12 C       -1.3520    -6.3100    -1.3380 C.3   1 <1>  -0.0170 
 13 C       -2.4050    -7.0520    -0.5320 C.ar  1 <1>   0.1670 
 14 N       -3.6670    -6.8050    -0.8480 N.ar  1 <1>  -0.6200 
 15 C       -2.0130    -7.9270     0.4710 C.ar  1 <1>  -0.1500 
 16 C       -4.5740    -7.4560    -0.1380 C.ar  1 <1>   0.1600 
 17 C       -2.9690    -8.5990     1.2020 C.ar  1 <1>  -0.1500 
 18 C       -4.2850    -8.3490     0.8800 C.ar  1 <1>  -0.1500 
 19 H        2.3430     0.0980     1.6190 H     1 <1>   0.1500 
 20 H       -0.7620    -2.1740    -1.0250 H     1 <1>   0.4000 
 21 H        0.7980    -4.6530    -1.6810 H     1 <1>   0.0800 
 22 H       -0.4970    -3.9970    -2.6480 H     1 <1>   0.0800 
 23 H        4.4620    -4.3220    -0.2550 H     1 <1>   0.0800 
 24 H        4.1640    -4.4660     1.4640 H     1 <1>   0.0800 
 25 H        5.2590    -3.2400     0.8620 H     1 <1>   0.0800 
 26 H       -2.0920    -4.3680    -0.8140 H     1 <1>   0.0800 
 27 H       -0.8000    -4.9410     0.2150 H     1 <1>   0.0800 
 28 H       -0.4220    -6.8470    -1.3020 H     1 <1>   0.0800 
 29 H       -1.6720    -6.2710    -2.3650 H     1 <1>   0.0800 
 30 H       -0.9700    -8.0810     0.6800 H     1 <1>   0.1500 
 31 H       -5.6050    -7.2680    -0.3810 H     1 <1>   0.1500 
 32 H       -2.7000    -9.2860     1.9860 H     1 <1>   0.1500 
 33 H       -5.0810    -8.8390     1.4100 H     1 <1>   0.1500 
@<TRIPOS>BOND
  1   1   2  1   
  2   2   3  ar  
  3   2   4  ar  
  4   3   5  ar  
  5   3   6  1   
  6   4   7  ar  
  7   4  19  1   
  8   5   8  ar  
  9   6   9  1   
 10   6  20  1   
 11   7   8  ar  
 12   8  10  1   
 13   9  11  1   
 14   9  21  1   
 15   9  22  1   
 16  10  23  1   
 17  10  24  1   
 18  10  25  1   
 19  11  12  1   
 20  11  26  1   
 21  11  27  1   
 22  12  13  1   
 23  12  28  1   
 24  12  29  1   
 25  13  14  ar  
 26  13  15  ar  
 27  14  16  ar  
 28  15  17  ar  
 29  15  30  1   
 30  16  18  ar  
 31  16  31  1   
 32  17  18  ar  
 33  17  32  1   
 34  18  33  1   
@<TRIPOS>SUBSTRUCTURE
  1 ****  11 GROUP 4 **** **** 0

# MOE 2024.06 (io_trps.svl 2023.06)
