@<TRIPOS>MOLECULE
NONAME
55 57 1 0 0 
SMALL
USER_CHARGES


@<TRIPOS>ATOM
  1 O       -0.9870     4.0310     3.9590 O.2   1 <1>  -0.5700 
  2 C       -1.3690     4.1000     2.8130 C.2   1 <1>   0.5690 
  3 N       -2.5700     3.5420     2.4230 N.am  1 <1>  -0.6600 
  4 C       -0.4580     4.8490     1.8430 C.3   1 <1>   0.0440 
  5 C       -3.0830     3.6080     1.0190 C.3   1 <1>   0.2200 
  6 C       -3.3960     2.8140     3.4380 C.3   1 <1>   0.0600 
  7 C        0.1130     3.9700     0.7330 C.ar  1 <1>  -0.1440 
  8 C       -4.5620     3.9610     0.8920 C.3   1 <1>  -0.1600 
  9 C       -2.9630     2.2790     0.2840 C.3   1 <1>  -0.1600 
 10 C        0.7070     2.7570     1.0410 C.ar  1 <1>  -0.1500 
 11 C        0.0480     4.3740    -0.5920 C.ar  1 <1>  -0.1500 
 12 C       -4.9370     3.5040    -0.5260 C.3   1 <1>  -0.0800 
 13 C       -3.9200     2.4140    -0.9090 C.3   1 <1>  -0.0800 
 14 C        1.2220     1.9530     0.0390 C.ar  1 <1>  -0.1500 
 15 C        0.5620     3.5700    -1.5940 C.ar  1 <1>  -0.1500 
 16 C       -6.3260     2.8610    -0.6240 C.3   1 <1>  -0.1600 
 17 C       -4.7270     1.1440    -1.2060 C.3   1 <1>  -0.1600 
 18 C        1.1520     2.3540    -1.2860 C.ar  1 <1>  -0.1440 
 19 C       -6.0610     1.3600    -0.4970 C.3   1 <1>   0.4230 
 20 C        1.7230     1.4800    -2.3890 C.3   1 <1>   0.2630 
 21 N       -7.1540     0.4850    -1.0260 N.4   1 <1>  -0.9590 
 22 O        2.8170     2.1330    -2.9160 O.3   1 <1>  -0.6800 
 23 C       -7.5280     0.7160    -2.4610 C.3   1 <1>   0.2630 
 24 C       -8.3700     0.5780    -0.1600 C.3   1 <1>   0.2630 
 25 H       -1.0030     5.6780     1.4330 H     1 <1>   0.0800 
 26 H        0.3650     5.2600     2.4000 H     1 <1>   0.0800 
 27 H       -2.5380     4.3450     0.4580 H     1 <1>   0.0800 
 28 H       -3.8560     1.9460     3.0060 H     1 <1>   0.0800 
 29 H       -4.1580     3.4710     3.8190 H     1 <1>   0.0800 
 30 H       -2.7870     2.4890     4.2640 H     1 <1>   0.0800 
 31 H       -5.1460     3.4230     1.6150 H     1 <1>   0.0800 
 32 H       -4.7200     5.0170     1.0220 H     1 <1>   0.0800 
 33 H       -1.9530     2.1060    -0.0450 H     1 <1>   0.0800 
 34 H       -3.2650     1.4730     0.9260 H     1 <1>   0.0800 
 35 H        0.7710     2.4320     2.0670 H     1 <1>   0.1500 
 36 H       -0.3980     5.3170    -0.8540 H     1 <1>   0.1500 
 37 H       -4.8550     4.3400    -1.2030 H     1 <1>   0.0800 
 38 H       -3.3600     2.7210    -1.7790 H     1 <1>   0.0800 
 39 H        1.6800     1.0150     0.3020 H     1 <1>   0.1500 
 40 H        0.5110     3.8940    -2.6190 H     1 <1>   0.1500 
 41 H       -6.7320     3.1020    -1.5890 H     1 <1>   0.0800 
 42 H       -6.9890     3.2220     0.1410 H     1 <1>   0.0800 
 43 H       -4.2250     0.2590    -0.8560 H     1 <1>   0.0800 
 44 H       -4.8580     1.0790    -2.2700 H     1 <1>   0.0800 
 45 H       -5.9070     1.1440     0.5480 H     1 <1>   0.0800 
 46 H        1.0080     1.3220    -3.1780 H     1 <1>   0.0800 
 47 H        2.0510     0.5290    -2.0050 H     1 <1>   0.0800 
 48 H       -6.7980    -0.4810    -0.9560 H     1 <1>   0.4500 
 49 H        3.2550     2.6290    -2.1970 H     1 <1>   0.4000 
 50 H       -7.9290     1.7080    -2.5920 H     1 <1>   0.0800 
 51 H       -8.2750     0.0040    -2.7700 H     1 <1>   0.0800 
 52 H       -6.6690     0.6040    -3.1020 H     1 <1>   0.0800 
 53 H       -8.7860     1.5710    -0.2040 H     1 <1>   0.0800 
 54 H       -8.1200     0.3540     0.8640 H     1 <1>   0.0800 
 55 H       -9.1200    -0.1230    -0.4910 H     1 <1>   0.0800 
@<TRIPOS>BOND
  1   1   2  2   
  2   2   3  am  
  3   2   4  1   
  4   3   5  1   
  5   3   6  1   
  6   4   7  1   
  7   4  25  1   
  8   4  26  1   
  9   5   8  1   
 10   5   9  1   
 11   5  27  1   
 12   6  28  1   
 13   6  29  1   
 14   6  30  1   
 15   7  10  ar  
 16   7  11  ar  
 17   8  12  1   
 18   8  31  1   
 19   8  32  1   
 20   9  13  1   
 21   9  33  1   
 22   9  34  1   
 23  10  14  ar  
 24  10  35  1   
 25  11  15  ar  
 26  11  36  1   
 27  12  13  1   
 28  12  16  1   
 29  12  37  1   
 30  13  17  1   
 31  13  38  1   
 32  14  18  ar  
 33  14  39  1   
 34  15  18  ar  
 35  15  40  1   
 36  16  19  1   
 37  16  41  1   
 38  16  42  1   
 39  17  19  1   
 40  17  43  1   
 41  17  44  1   
 42  18  20  1   
 43  19  21  1   
 44  19  45  1   
 45  20  22  1   
 46  20  46  1   
 47  20  47  1   
 48  21  23  1   
 49  21  24  1   
 50  21  48  1   
 51  22  49  1   
 52  23  50  1   
 53  23  51  1   
 54  23  52  1   
 55  24  53  1   
 56  24  54  1   
 57  24  55  1   
@<TRIPOS>SUBSTRUCTURE
  1 ****   9 GROUP 4 **** **** 0

# MOE 2024.06 (io_trps.svl 2023.06)
