@<TRIPOS>MOLECULE
NONAME
55 58 1 0 0 
SMALL
USER_CHARGES


@<TRIPOS>ATOM
  1 O        0.3620     1.1400     2.4560 O.2   1 <1>  -0.5700 
  2 C        0.2320     2.1260     1.7660 C.2   1 <1>   0.5690 
  3 N       -1.0120     2.5780     1.3950 N.am  1 <1>  -0.6600 
  4 C        1.5010     2.8550     1.3270 C.3   1 <1>  -0.0190 
  5 C       -2.2250     1.7560     1.6960 C.3   1 <1>   0.1400 
  6 C       -1.2390     3.8670     0.6720 C.3   1 <1>   0.1400 
  7 C        2.5940     1.8460     0.9550 C.3   1 <1>   0.2090 
  8 C        2.0090     3.8200     2.4180 C.3   1 <1>  -0.1600 
  9 C       -3.2130     1.8170     0.5290 C.3   1 <1>  -0.1600 
 10 C       -2.6990     4.3040     0.7800 C.3   1 <1>  -0.1600 
 11 N        3.8080     2.5800     0.5000 N.pl3 1 <1>  -0.8380 
 12 C        3.3210     4.4930     1.9790 C.3   1 <1>  -0.1600 
 13 C       -3.6260     3.2530     0.1510 C.3   1 <1>   0.4180 
 14 C        4.6790     1.8990    -0.3300 C.ar  1 <1>   0.4100 
 15 C        4.3760     3.4670     1.5500 C.3   1 <1>   0.2090 
 16 O       -3.4940     3.3250    -1.2480 O.3   1 <1>  -0.5600 
 17 C       -5.0740     3.5070     0.5680 C.2   1 <1>  -0.2880 
 18 N        5.8680     1.5710     0.1640 N.ar  1 <1>  -0.6200 
 19 C        4.2800     1.5810    -1.6260 C.ar  1 <1>  -0.1500 
 20 C       -4.2320     4.3000    -1.9320 C.3   1 <1>   0.1200 
 21 C       -6.0480     3.8650    -0.2720 C.2   1 <1>  -0.2760 
 22 C        6.6710     0.9080    -0.6520 C.ar  1 <1>   0.1600 
 23 C        5.1240     0.8910    -2.4650 C.ar  1 <1>  -0.1500 
 24 C       -5.7370     4.0780    -1.7410 C.3   1 <1>  -0.0220 
 25 C       -7.4970     4.0770     0.1280 C.3   1 <1>  -0.1020 
 26 C        6.3580     0.5470    -1.9510 C.ar  1 <1>  -0.1500 
 27 H        1.2970     3.4120     0.4330 H     1 <1>   0.0800 
 28 H       -2.6870     2.1280     2.5940 H     1 <1>   0.0800 
 29 H       -1.9460     0.7300     1.8670 H     1 <1>   0.0800 
 30 H       -0.9820     3.7380    -0.3660 H     1 <1>   0.0800 
 31 H       -0.6110     4.6340     1.0900 H     1 <1>   0.0800 
 32 H        2.2390     1.1950     0.1740 H     1 <1>   0.0800 
 33 H        2.8470     1.2390     1.8080 H     1 <1>   0.0800 
 34 H        2.1810     3.2650     3.3250 H     1 <1>   0.0800 
 35 H        1.2660     4.5690     2.6240 H     1 <1>   0.0800 
 36 H       -4.0850     1.2410     0.7820 H     1 <1>   0.0800 
 37 H       -2.7500     1.3350    -0.3140 H     1 <1>   0.0800 
 38 H       -2.8370     5.2570     0.3100 H     1 <1>   0.0800 
 39 H       -2.9430     4.4300     1.8190 H     1 <1>   0.0800 
 40 H        3.7130     5.0860     2.7850 H     1 <1>   0.0800 
 41 H        3.1320     5.1510     1.1490 H     1 <1>   0.0800 
 42 H        5.2450     3.9730     1.1640 H     1 <1>   0.0800 
 43 H        4.6800     2.8680     2.3930 H     1 <1>   0.0800 
 44 H       -5.2350     3.3540     1.6200 H     1 <1>   0.1500 
 45 H        3.3070     1.8900    -1.9550 H     1 <1>   0.1500 
 46 H       -3.9740     4.2350    -2.9750 H     1 <1>   0.0800 
 47 H       -3.9470     5.2700    -1.5670 H     1 <1>   0.0800 
 48 H        7.6360     0.6360    -0.2610 H     1 <1>   0.1500 
 49 H        4.8390     0.6350    -3.4700 H     1 <1>   0.1500 
 50 H       -6.0550     3.2230    -2.3100 H     1 <1>   0.0800 
 51 H       -6.2590     4.9420    -2.1120 H     1 <1>   0.0800 
 52 H       -8.1330     3.4060    -0.4210 H     1 <1>   0.0800 
 53 H       -7.7960     5.0890    -0.0780 H     1 <1>   0.0800 
 54 H       -7.6290     3.8900     1.1780 H     1 <1>   0.0800 
 55 H        7.0680     0.0080    -2.5500 H     1 <1>   0.1500 
@<TRIPOS>BOND
  1   1   2  2   
  2   2   3  am  
  3   2   4  1   
  4   3   5  1   
  5   3   6  1   
  6   4   7  1   
  7   4   8  1   
  8   4  27  1   
  9   5   9  1   
 10   5  28  1   
 11   5  29  1   
 12   6  10  1   
 13   6  30  1   
 14   6  31  1   
 15   7  11  1   
 16   7  32  1   
 17   7  33  1   
 18   8  12  1   
 19   8  34  1   
 20   8  35  1   
 21   9  13  1   
 22   9  36  1   
 23   9  37  1   
 24  10  13  1   
 25  10  38  1   
 26  10  39  1   
 27  11  14  1   
 28  11  15  1   
 29  12  15  1   
 30  12  40  1   
 31  12  41  1   
 32  13  16  1   
 33  13  17  1   
 34  14  18  ar  
 35  14  19  ar  
 36  15  42  1   
 37  15  43  1   
 38  16  20  1   
 39  17  21  2   
 40  17  44  1   
 41  18  22  ar  
 42  19  23  ar  
 43  19  45  1   
 44  20  24  1   
 45  20  46  1   
 46  20  47  1   
 47  21  24  1   
 48  21  25  1   
 49  22  26  ar  
 50  22  48  1   
 51  23  26  ar  
 52  23  49  1   
 53  24  50  1   
 54  24  51  1   
 55  25  52  1   
 56  25  53  1   
 57  25  54  1   
 58  26  55  1   
@<TRIPOS>SUBSTRUCTURE
  1 ****   2 GROUP 4 **** **** 0

# MOE 2024.06 (io_trps.svl 2023.06)
