@<TRIPOS>MOLECULE
NONAME
48 51 1 0 0 
SMALL
USER_CHARGES


@<TRIPOS>ATOM
  1 O       -2.3340     1.8280    -0.1080 O.co2 1 <1>  -0.9000 
  2 C       -2.2160     0.6950     0.3650 C.2   1 <1>   0.9060 
  3 O       -1.7660     0.4580     1.4890 O.co2 1 <1>  -0.9000 
  4 C       -2.8140    -0.4730    -0.4240 C.3   1 <1>   0.2370 
  5 N       -4.2750    -0.7610    -0.1100 N.4   1 <1>  -0.9590 
  6 C       -4.3880    -1.1400     1.3410 C.3   1 <1>   0.3430 
  7 C       -5.0880     0.4580    -0.4140 C.3   1 <1>   0.3430 
  8 C       -5.7670    -1.7530     1.6760 C.3   1 <1>   0.2200 
  9 C       -6.6120     0.2600    -0.2710 C.3   1 <1>  -0.0800 
 10 N       -6.4880    -2.2140     0.4250 N.am  1 <1>  -0.6600 
 11 C       -6.6210    -0.8030     2.5300 C.3   1 <1>   0.1200 
 12 C       -7.1660     0.9190     1.0010 C.3   1 <1>   0.1200 
 13 C       -7.1380    -1.1780    -0.4450 C.3   1 <1>   0.1400 
 14 C       -6.5340    -3.5570     0.1320 C.2   1 <1>   0.5690 
 15 O       -6.4660     0.5240     2.1310 O.3   1 <1>  -0.5600 
 16 O       -5.8410    -4.3420     0.7360 O.2   1 <1>  -0.5700 
 17 C       -7.4180    -4.1200    -0.9690 C.3   1 <1>   0.0820 
 18 C       -8.8700    -3.7410    -0.7670 C.2   1 <1>   0.1080 
 19 N       -9.5480    -3.0600    -1.6310 N.2   1 <1>  -0.7070 
 20 C       -9.6170    -4.0770     0.3760 C.ar  1 <1>   0.0000 
 21 N      -10.7850    -2.9480    -1.0890 N.pl3 1 <1>   0.3000 
 22 C      -10.8630    -3.5400     0.1360 C.ar  1 <1>  -0.1520 
 23 C       -9.3760    -4.7630     1.5760 C.ar  1 <1>  -0.1500 
 24 C      -11.9000    -3.6630     1.0680 C.ar  1 <1>  -0.1500 
 25 C      -10.3900    -4.8860     2.4950 C.ar  1 <1>  -0.1500 
 26 C      -11.6550    -4.3350     2.2410 C.ar  1 <1>  -0.1500 
 27 H       -2.2170    -1.3390    -0.2060 H     1 <1>   0.0800 
 28 H       -2.7040    -0.2370    -1.4660 H     1 <1>   0.0800 
 29 H       -4.6310    -1.5590    -0.6450 H     1 <1>   0.4500 
 30 H       -3.6300    -1.8680     1.5740 H     1 <1>   0.0800 
 31 H       -4.2020    -0.2800     1.9660 H     1 <1>   0.0800 
 32 H       -4.7720     1.2690     0.2260 H     1 <1>   0.0800 
 33 H       -4.8770     0.7600    -1.4270 H     1 <1>   0.0800 
 34 H       -5.5850    -2.6070     2.3040 H     1 <1>   0.0800 
 35 H       -7.0530     0.8250    -1.0720 H     1 <1>   0.0800 
 36 H       -6.2790    -0.8520     3.5490 H     1 <1>   0.0800 
 37 H       -7.6630    -1.0780     2.5110 H     1 <1>   0.0800 
 38 H       -8.2110     0.7010     1.1440 H     1 <1>   0.0800 
 39 H       -7.0540     1.9890     0.9320 H     1 <1>   0.0800 
 40 H       -7.0130    -1.4610    -1.4760 H     1 <1>   0.0800 
 41 H       -8.1960    -1.1800    -0.2430 H     1 <1>   0.0800 
 42 H       -7.0750    -3.7660    -1.9220 H     1 <1>   0.0800 
 43 H       -7.3430    -5.1910    -0.9710 H     1 <1>   0.0800 
 44 H      -11.5650    -2.4840    -1.5690 H     1 <1>   0.2700 
 45 H       -8.4040    -5.1850     1.7600 H     1 <1>   0.1500 
 46 H      -12.8680    -3.2400     0.8630 H     1 <1>   0.1500 
 47 H      -10.2250    -5.4100     3.4210 H     1 <1>   0.1500 
 48 H      -12.4310    -4.4490     2.9790 H     1 <1>   0.1500 
@<TRIPOS>BOND
  1   1   2  ar  
  2   2   3  ar  
  3   2   4  1   
  4   4   5  1   
  5   4  27  1   
  6   4  28  1   
  7   5   6  1   
  8   5   7  1   
  9   5  29  1   
 10   6   8  1   
 11   6  30  1   
 12   6  31  1   
 13   7   9  1   
 14   7  32  1   
 15   7  33  1   
 16   8  10  1   
 17   8  11  1   
 18   8  34  1   
 19   9  12  1   
 20   9  13  1   
 21   9  35  1   
 22  10  13  1   
 23  10  14  am  
 24  11  15  1   
 25  11  36  1   
 26  11  37  1   
 27  12  15  1   
 28  12  38  1   
 29  12  39  1   
 30  13  40  1   
 31  13  41  1   
 32  14  16  2   
 33  14  17  1   
 34  17  18  1   
 35  17  42  1   
 36  17  43  1   
 37  18  19  2   
 38  18  20  1   
 39  19  21  1   
 40  20  22  ar  
 41  20  23  ar  
 42  21  22  1   
 43  21  44  1   
 44  22  24  ar  
 45  23  25  ar  
 46  23  45  1   
 47  24  26  ar  
 48  24  46  1   
 49  25  26  ar  
 50  25  47  1   
 51  26  48  1   
@<TRIPOS>SUBSTRUCTURE
  1 ****  10 GROUP 4 **** **** 0

# MOE 2024.06 (io_trps.svl 2023.06)
