@<TRIPOS>MOLECULE
NONAME
44 45 1 0 0 
SMALL
USER_CHARGES


@<TRIPOS>ATOM
  1 O       -2.4330     0.5770    -1.9260 O.2   1 <1>  -0.5700 
  2 C       -2.4040     0.9110    -0.7650 C.2   1 <1>   0.5690 
  3 N       -3.1360     0.2580     0.1760 N.am  1 <1>  -0.6600 
  4 C       -1.5750     2.1050    -0.3530 C.3   1 <1>  -0.0990 
  5 C       -2.7770    -1.1430     0.5550 C.3   1 <1>   0.3640 
  6 C       -4.6120     0.4590     0.1490 C.3   1 <1>   0.1400 
  7 C       -0.0900     1.7670    -0.4060 C.3   1 <1>   0.1200 
  8 C       -1.2600    -1.3650     0.5650 C.ar  1 <1>  -0.1440 
  9 C       -3.5520    -2.1600    -0.3180 C.3   1 <1>   0.2000 
 10 C       -5.3000    -0.6310    -0.6950 C.3   1 <1>   0.1200 
 11 O        0.6240     2.9020    -0.0430 O.3   1 <1>  -0.5600 
 12 C       -0.5740    -1.2860     1.7700 C.ar  1 <1>  -0.1500 
 13 C       -0.5440    -1.6410    -0.5950 C.ar  1 <1>  -0.1500 
 14 O       -4.9390    -1.9050    -0.2400 O.3   1 <1>  -0.5600 
 15 C       -3.2950    -3.6090     0.1240 C.3   1 <1>   0.1200 
 16 C        1.9970     2.7090    -0.0230 C.3   1 <1>   0.1200 
 17 C        0.7950    -1.4850     1.8180 C.ar  1 <1>  -0.1500 
 18 C        0.8240    -1.8410    -0.5480 C.ar  1 <1>  -0.1500 
 19 O       -4.2060    -4.4470    -0.4990 O.3   1 <1>  -0.6800 
 20 C        2.6400     4.0220     0.4040 C.3   1 <1>  -0.2400 
 21 C        1.4960    -1.7640     0.6580 C.ar  1 <1>  -0.1500 
 22 H       -1.7810     2.9140    -1.0290 H     1 <1>   0.0800 
 23 H       -1.8400     2.4010     0.6440 H     1 <1>   0.0800 
 24 H       -3.1190    -1.2920     1.5650 H     1 <1>   0.0800 
 25 H       -4.9970     0.4340     1.1530 H     1 <1>   0.0800 
 26 H       -4.8380     1.4250    -0.2700 H     1 <1>   0.0800 
 27 H        0.1960     1.4750    -1.4020 H     1 <1>   0.0800 
 28 H        0.1430     0.9790     0.2880 H     1 <1>   0.0800 
 29 H       -3.2520    -2.0550    -1.3470 H     1 <1>   0.0800 
 30 H       -5.0190    -0.5390    -1.7310 H     1 <1>   0.0800 
 31 H       -6.3690    -0.5430    -0.6180 H     1 <1>   0.0800 
 32 H       -1.1000    -1.0650     2.6820 H     1 <1>   0.1500 
 33 H       -1.0420    -1.6930    -1.5490 H     1 <1>   0.1500 
 34 H       -3.4280    -3.7060     1.1880 H     1 <1>   0.0800 
 35 H       -2.3020    -3.9300    -0.1370 H     1 <1>   0.0800 
 36 H        2.2290     1.9260     0.6800 H     1 <1>   0.0800 
 37 H        2.3240     2.4270    -1.0100 H     1 <1>   0.0800 
 38 H        1.3160    -1.4220     2.7580 H     1 <1>   0.1500 
 39 H        1.3660    -2.0550    -1.4540 H     1 <1>   0.1500 
 40 H       -5.0640    -3.9690    -0.5370 H     1 <1>   0.4000 
 41 H        2.2950     4.2990     1.3830 H     1 <1>   0.0800 
 42 H        2.3890     4.7980    -0.2980 H     1 <1>   0.0800 
 43 H        3.7080     3.9140     0.4320 H     1 <1>   0.0800 
 44 H        2.5600    -1.9210     0.6950 H     1 <1>   0.1500 
@<TRIPOS>BOND
  1   1   2  2   
  2   2   3  am  
  3   2   4  1   
  4   3   5  1   
  5   3   6  1   
  6   4   7  1   
  7   4  22  1   
  8   4  23  1   
  9   5   8  1   
 10   5   9  1   
 11   5  24  1   
 12   6  10  1   
 13   6  25  1   
 14   6  26  1   
 15   7  11  1   
 16   7  27  1   
 17   7  28  1   
 18   8  12  ar  
 19   8  13  ar  
 20   9  14  1   
 21   9  15  1   
 22   9  29  1   
 23  10  14  1   
 24  10  30  1   
 25  10  31  1   
 26  11  16  1   
 27  12  17  ar  
 28  12  32  1   
 29  13  18  ar  
 30  13  33  1   
 31  15  19  1   
 32  15  34  1   
 33  15  35  1   
 34  16  20  1   
 35  16  36  1   
 36  16  37  1   
 37  17  21  ar  
 38  17  38  1   
 39  18  21  ar  
 40  18  39  1   
 41  19  40  1   
 42  20  41  1   
 43  20  42  1   
 44  20  43  1   
 45  21  44  1   
@<TRIPOS>SUBSTRUCTURE
  1 ****   8 GROUP 4 **** **** 0

# MOE 2024.06 (io_trps.svl 2023.06)
