@<TRIPOS>MOLECULE
NONAME
51 53 1 0 0 
SMALL
USER_CHARGES


@<TRIPOS>ATOM
  1 O        0.4440    -0.4200     1.1050 O.2   1 <1>  -0.5700 
  2 C        1.2900    -0.9440     0.4060 C.2   1 <1>   0.7150 
  3 N        2.2150    -0.1690    -0.2430 N.am  1 <1>  -0.4940 
  4 C        1.3680    -2.3680     0.2440 C.2   1 <1>  -0.2370 
  5 C        2.3160     1.2410    -0.3170 C.2   1 <1>  -0.0880 
  6 N        0.4140    -3.2650     0.6210 N.pl3 1 <1>   0.3140 
  7 C        2.3650    -3.1230    -0.3020 C.2   1 <1>  -0.1500 
  8 N        3.4580     1.9520    -0.1040 N.pl3 1 <1>   0.3140 
  9 C        1.3520     2.1460    -0.6150 C.2   1 <1>  -0.1810 
 10 N        0.7710    -4.5270     0.3340 N.2   1 <1>  -0.7070 
 11 C       -0.9070    -3.0170     1.2510 C.3   1 <1>   0.0960 
 12 C        1.9410    -4.4350    -0.2180 C.2   1 <1>   0.1080 
 13 N        3.2480     3.2810    -0.2800 N.2   1 <1>  -0.7070 
 14 C        4.7790     1.3930     0.3070 C.3   1 <1>   0.1760 
 15 C        1.9900     3.3800    -0.5740 C.2   1 <1>   0.1390 
 16 C       -0.1140     1.9200    -0.9340 C.3   1 <1>  -0.0590 
 17 C       -1.9410    -2.5470     0.2190 C.3   1 <1>  -0.2400 
 18 C        2.7170    -5.6560    -0.7000 C.3   1 <1>   0.1010 
 19 C        5.3940     2.0920     1.5200 C.3   1 <1>  -0.1600 
 20 C        5.8480     1.5280    -0.7800 C.3   1 <1>  -0.1600 
 21 C        4.0570    -5.7810     0.0360 C.3   1 <1>  -0.2400 
 22 C        2.9350    -5.6020    -2.2160 C.3   1 <1>  -0.2400 
 23 C        6.8770     1.7320     1.4480 C.3   1 <1>  -0.1600 
 24 C        7.1930     1.5390    -0.0410 C.3   1 <1>  -0.1600 
 25 H        2.8880    -0.7030    -0.7870 H     1 <1>   0.3700 
 26 H        3.3030    -2.8090    -0.7200 H     1 <1>   0.1500 
 27 H       -0.7950    -2.2930     2.0370 H     1 <1>   0.0800 
 28 H       -1.2390    -3.9370     1.6960 H     1 <1>   0.0800 
 29 H        4.6580     0.3540     0.5490 H     1 <1>   0.0800 
 30 H        1.5030     4.3210    -0.7650 H     1 <1>   0.1500 
 31 H       -0.2710     0.9140    -1.2780 H     1 <1>   0.0800 
 32 H       -0.4370     2.6010    -1.7000 H     1 <1>   0.0800 
 33 H       -0.7040     2.0780    -0.0490 H     1 <1>   0.0800 
 34 H       -1.6410    -1.6110    -0.2170 H     1 <1>   0.0800 
 35 H       -2.8930    -2.4090     0.6970 H     1 <1>   0.0800 
 36 H       -2.0490    -3.2860    -0.5560 H     1 <1>   0.0800 
 37 H        2.1260    -6.5290    -0.4750 H     1 <1>   0.0800 
 38 H        4.9430     1.7680     2.4410 H     1 <1>   0.0800 
 39 H        5.2880     3.1600     1.4220 H     1 <1>   0.0800 
 40 H        5.7240     2.4680    -1.2910 H     1 <1>   0.0800 
 41 H        5.7930     0.7240    -1.4920 H     1 <1>   0.0800 
 42 H        4.6900    -4.9400    -0.1790 H     1 <1>   0.0800 
 43 H        4.5620    -6.6820    -0.2620 H     1 <1>   0.0800 
 44 H        3.8830    -5.8210     1.0970 H     1 <1>   0.0800 
 45 H        3.5380    -4.7540    -2.4850 H     1 <1>   0.0800 
 46 H        1.9850    -5.5210    -2.7140 H     1 <1>   0.0800 
 47 H        3.4230    -6.4980    -2.5550 H     1 <1>   0.0800 
 48 H        7.0480     0.8080     1.9730 H     1 <1>   0.0800 
 49 H        7.4890     2.5010     1.8900 H     1 <1>   0.0800 
 50 H        7.8050     2.3470    -0.4050 H     1 <1>   0.0800 
 51 H        7.7200     0.6120    -0.1900 H     1 <1>   0.0800 
@<TRIPOS>BOND
  1   1   2  2   
  2   2   3  am  
  3   2   4  1   
  4   3   5  1   
  5   3  25  1   
  6   4   6  1   
  7   4   7  2   
  8   5   8  1   
  9   5   9  2   
 10   6  10  1   
 11   6  11  1   
 12   7  12  1   
 13   7  26  1   
 14   8  13  1   
 15   8  14  1   
 16   9  15  1   
 17   9  16  1   
 18  10  12  2   
 19  11  17  1   
 20  11  27  1   
 21  11  28  1   
 22  12  18  1   
 23  13  15  2   
 24  14  19  1   
 25  14  20  1   
 26  14  29  1   
 27  15  30  1   
 28  16  31  1   
 29  16  32  1   
 30  16  33  1   
 31  17  34  1   
 32  17  35  1   
 33  17  36  1   
 34  18  21  1   
 35  18  22  1   
 36  18  37  1   
 37  19  23  1   
 38  19  38  1   
 39  19  39  1   
 40  20  24  1   
 41  20  40  1   
 42  20  41  1   
 43  21  42  1   
 44  21  43  1   
 45  21  44  1   
 46  22  45  1   
 47  22  46  1   
 48  22  47  1   
 49  23  24  1   
 50  23  48  1   
 51  23  49  1   
 52  24  50  1   
 53  24  51  1   
@<TRIPOS>SUBSTRUCTURE
  1 ****   3 GROUP 4 **** **** 0

# MOE 2024.06 (io_trps.svl 2023.06)
