@<TRIPOS>MOLECULE
NONAME
52 55 1 0 0 
SMALL
USER_CHARGES


@<TRIPOS>ATOM
  1 O       -1.8330     1.9260    -2.2380 O.2   1 <1>  -0.5700 
  2 C       -1.8920     1.3580    -1.1600 C.2   1 <1>   0.7160 
  3 N       -2.2340     0.0210    -1.1220 N.am  1 <1>  -0.6600 
  4 C       -1.6140     2.0990     0.0270 C.2   1 <1>  -0.0860 
  5 C       -2.3900    -0.7460     0.1430 C.3   1 <1>   0.1400 
  6 C       -2.6940    -0.7130    -2.3290 C.3   1 <1>   0.1400 
  7 C       -2.5780     2.5910     0.9100 C.2   1 <1>   0.3720 
  8 C       -0.4380     2.4530     0.6070 C.2   1 <1>   0.0870 
  9 C       -3.8650    -1.1060     0.3390 C.3   1 <1>  -0.1600 
 10 C       -4.1800    -1.0510    -2.1670 C.3   1 <1>  -0.1600 
 11 N       -2.0280     3.1660     1.9210 N.2   1 <1>  -0.4100 
 12 N       -3.9600     2.4560     0.7380 N.pl3 1 <1>  -0.8210 
 13 O       -0.7400     3.0780     1.7170 O.3   1 <1>  -0.0190 
 14 C        0.9410     2.2420     0.2390 C.ar  1 <1>   0.0530 
 15 C       -4.4530    -1.8480    -0.8780 C.3   1 <1>  -0.0800 
 16 C       -4.8000     2.6130     1.9630 C.3   1 <1>   0.2090 
 17 C       -4.5370     3.2370    -0.3960 C.3   1 <1>   0.2090 
 18 C        1.3480     2.1570    -1.0930 C.ar  1 <1>  -0.1500 
 19 C        1.9260     2.1140     1.2190 C.ar  1 <1>  -0.1500 
 20 C       -5.9640    -2.0840    -0.7210 C.3   1 <1>   0.1200 
 21 C       -6.2720     2.2800     1.6560 C.3   1 <1>   0.1200 
 22 C       -6.0180     2.8730    -0.6020 C.3   1 <1>   0.1200 
 23 C        2.6710     1.9410    -1.4300 C.ar  1 <1>  -0.1500 
 24 C        3.2520     1.9000     0.8880 C.ar  1 <1>  -0.1500 
 25 O       -6.2080    -2.8460     0.4090 O.3   1 <1>  -0.6800 
 26 O       -6.7480     3.0470     0.5820 O.3   1 <1>  -0.5600 
 27 C        3.6270     1.8110    -0.4400 C.ar  1 <1>  -0.1500 
 28 H       -2.0400    -0.1830     0.9900 H     1 <1>   0.0800 
 29 H       -1.8010    -1.6450     0.0810 H     1 <1>   0.0800 
 30 H       -2.1170    -1.6160    -2.4330 H     1 <1>   0.0800 
 31 H       -2.5490    -0.1230    -3.2180 H     1 <1>   0.0800 
 32 H       -4.4200    -0.2010     0.5130 H     1 <1>   0.0800 
 33 H       -3.9590    -1.7130     1.2210 H     1 <1>   0.0800 
 34 H       -4.5030    -1.6170    -3.0220 H     1 <1>   0.0800 
 35 H       -4.7360    -0.1290    -2.1540 H     1 <1>   0.0800 
 36 H       -3.9650    -2.8030    -0.9720 H     1 <1>   0.0800 
 37 H       -4.7310     3.6240     2.3260 H     1 <1>   0.0800 
 38 H       -4.4360     1.9550     2.7330 H     1 <1>   0.0800 
 39 H       -3.9970     3.0310    -1.3030 H     1 <1>   0.0800 
 40 H       -4.4530     4.2900    -0.1900 H     1 <1>   0.0800 
 41 H        0.6260     2.2670    -1.8810 H     1 <1>   0.1500 
 42 H        1.6490     2.1810     2.2560 H     1 <1>   0.1500 
 43 H       -6.3650    -2.6090    -1.5720 H     1 <1>   0.0800 
 44 H       -6.4860    -1.1490    -0.6060 H     1 <1>   0.0800 
 45 H       -6.8870     2.4950     2.5110 H     1 <1>   0.0800 
 46 H       -6.3760     1.2380     1.4080 H     1 <1>   0.0800 
 47 H       -6.1090     1.8480    -0.9150 H     1 <1>   0.0800 
 48 H       -6.4550     3.5060    -1.3530 H     1 <1>   0.0800 
 49 H        2.9580     1.8770    -2.4660 H     1 <1>   0.1500 
 50 H        3.9920     1.8040     1.6640 H     1 <1>   0.1500 
 51 H       -5.7870    -3.7240     0.3300 H     1 <1>   0.4000 
 52 H        4.6580     1.6440    -0.7010 H     1 <1>   0.1500 
@<TRIPOS>BOND
  1   1   2  2   
  2   2   3  am  
  3   2   4  1   
  4   3   5  1   
  5   3   6  1   
  6   4   7  1   
  7   4   8  2   
  8   5   9  1   
  9   5  28  1   
 10   5  29  1   
 11   6  10  1   
 12   6  30  1   
 13   6  31  1   
 14   7  11  2   
 15   7  12  1   
 16   8  13  1   
 17   8  14  1   
 18   9  15  1   
 19   9  32  1   
 20   9  33  1   
 21  10  15  1   
 22  10  34  1   
 23  10  35  1   
 24  11  13  1   
 25  12  16  1   
 26  12  17  1   
 27  14  18  ar  
 28  14  19  ar  
 29  15  20  1   
 30  15  36  1   
 31  16  21  1   
 32  16  37  1   
 33  16  38  1   
 34  17  22  1   
 35  17  39  1   
 36  17  40  1   
 37  18  23  ar  
 38  18  41  1   
 39  19  24  ar  
 40  19  42  1   
 41  20  25  1   
 42  20  43  1   
 43  20  44  1   
 44  21  26  1   
 45  21  45  1   
 46  21  46  1   
 47  22  26  1   
 48  22  47  1   
 49  22  48  1   
 50  23  27  ar  
 51  23  49  1   
 52  24  27  ar  
 53  24  50  1   
 54  25  51  1   
 55  27  52  1   
@<TRIPOS>SUBSTRUCTURE
  1 ****   4 GROUP 4 **** **** 0

# MOE 2024.06 (io_trps.svl 2023.06)
