@<TRIPOS>MOLECULE
NONAME
54 57 1 0 0 
SMALL
USER_CHARGES


@<TRIPOS>ATOM
  1 O       -0.7570     0.3370     0.8160 O.2   1 <1>  -0.5700 
  2 C       -1.7070     0.9140     0.3180 C.2   1 <1>   0.7160 
  3 N       -2.8290     0.1770     0.0090 N.am  1 <1>  -0.6600 
  4 C       -1.6420     2.3320     0.0470 C.2   1 <1>  -0.0860 
  5 C       -3.8580     0.5980    -0.9770 C.3   1 <1>   0.1400 
  6 C       -2.9110    -1.2890     0.2400 C.3   1 <1>   0.1400 
  7 C       -0.5420     3.0350    -0.4610 C.2   1 <1>   0.1080 
  8 C       -2.5770     3.3110     0.2100 C.2   1 <1>  -0.3020 
  9 C       -4.8300    -0.5780    -1.0430 C.3   1 <1>   0.2000 
 10 C       -3.9430    -1.8000    -0.7750 C.3   1 <1>  -0.0800 
 11 N       -0.7760     4.2980    -0.6100 N.2   1 <1>  -0.7070 
 12 C        0.7990     2.4270    -0.8130 C.3   1 <1>  -0.0590 
 13 N       -2.0370     4.4720    -0.1870 N.pl3 1 <1>   0.3140 
 14 O       -5.7490    -0.4310    -0.0140 O.3   1 <1>  -0.6800 
 15 C       -4.7070    -3.0610    -0.3160 C.3   1 <1>  -0.0170 
 16 C       -2.6760     5.8020    -0.1740 C.3   1 <1>   0.0960 
 17 C       -3.8860    -4.3480    -0.1640 C.ar  1 <1>  -0.1430 
 18 C       -2.5560     6.4520     1.2110 C.3   1 <1>  -0.1600 
 19 C       -4.4700    -5.4820     0.4530 C.ar  1 <1>   0.0000 
 20 C       -2.5980    -4.4800    -0.6060 C.ar  1 <1>  -0.1500 
 21 C       -3.2180     7.8350     1.2380 C.3   1 <1>  -0.2400 
 22 C       -3.6760    -6.6480     0.5930 C.ar  1 <1>   0.3100 
 23 C       -5.8000    -5.5330     0.9360 C.ar  1 <1>  -0.1500 
 24 C       -1.9030    -5.6820    -0.4230 C.ar  1 <1>   0.1600 
 25 N       -2.3970    -6.7310     0.1510 N.ar  1 <1>  -0.6200 
 26 C       -4.2290    -7.7810     1.2110 C.ar  1 <1>  -0.1500 
 27 C       -6.3090    -6.6550     1.5310 C.ar  1 <1>  -0.1500 
 28 C       -5.5160    -7.7950     1.6740 C.ar  1 <1>  -0.1500 
 29 H       -4.3600     1.5010    -0.6810 H     1 <1>   0.0800 
 30 H       -3.3880     0.7440    -1.9340 H     1 <1>   0.0800 
 31 H       -1.9510    -1.7560     0.1010 H     1 <1>   0.0800 
 32 H       -3.2430    -1.4650     1.2490 H     1 <1>   0.0800 
 33 H       -3.5750     3.2330     0.5950 H     1 <1>   0.1500 
 34 H       -5.3660    -0.6330    -1.9750 H     1 <1>   0.0800 
 35 H       -3.4310    -2.0190    -1.6940 H     1 <1>   0.0800 
 36 H        0.6600     1.5590    -1.4300 H     1 <1>   0.0800 
 37 H        1.3120     2.1420     0.0870 H     1 <1>   0.0800 
 38 H        1.3980     3.1430    -1.3450 H     1 <1>   0.0800 
 39 H       -5.2660    -0.2270     0.8120 H     1 <1>   0.4000 
 40 H       -5.5000    -3.2530    -1.0190 H     1 <1>   0.0800 
 41 H       -5.1640    -2.8440     0.6330 H     1 <1>   0.0800 
 42 H       -2.1890     6.4130    -0.9120 H     1 <1>   0.0800 
 43 H       -3.7080     5.6870    -0.4470 H     1 <1>   0.0800 
 44 H       -3.0240     5.8220     1.9480 H     1 <1>   0.0800 
 45 H       -1.5140     6.5530     1.4630 H     1 <1>   0.0800 
 46 H       -2.0670    -3.6930    -1.1040 H     1 <1>   0.1500 
 47 H       -4.2660     7.7590     1.0070 H     1 <1>   0.0800 
 48 H       -2.7500     8.4900     0.5240 H     1 <1>   0.0800 
 49 H       -3.1150     8.2710     2.2170 H     1 <1>   0.0800 
 50 H       -6.4360    -4.6740     0.8330 H     1 <1>   0.1500 
 51 H       -0.8900    -5.7360    -0.7830 H     1 <1>   0.1500 
 52 H       -3.5990    -8.6470     1.3060 H     1 <1>   0.1500 
 53 H       -7.3230    -6.6750     1.8940 H     1 <1>   0.1500 
 54 H       -5.9260    -8.6710     2.1460 H     1 <1>   0.1500 
@<TRIPOS>BOND
  1   1   2  2   
  2   2   3  am  
  3   2   4  1   
  4   3   5  1   
  5   3   6  1   
  6   4   7  1   
  7   4   8  2   
  8   5   9  1   
  9   5  29  1   
 10   5  30  1   
 11   6  10  1   
 12   6  31  1   
 13   6  32  1   
 14   7  11  2   
 15   7  12  1   
 16   8  13  1   
 17   8  33  1   
 18   9  10  1   
 19   9  14  1   
 20   9  34  1   
 21  10  15  1   
 22  10  35  1   
 23  11  13  1   
 24  12  36  1   
 25  12  37  1   
 26  12  38  1   
 27  13  16  1   
 28  14  39  1   
 29  15  17  1   
 30  15  40  1   
 31  15  41  1   
 32  16  18  1   
 33  16  42  1   
 34  16  43  1   
 35  17  19  ar  
 36  17  20  ar  
 37  18  21  1   
 38  18  44  1   
 39  18  45  1   
 40  19  22  ar  
 41  19  23  ar  
 42  20  24  ar  
 43  20  46  1   
 44  21  47  1   
 45  21  48  1   
 46  21  49  1   
 47  22  25  ar  
 48  22  26  ar  
 49  23  27  ar  
 50  23  50  1   
 51  24  25  ar  
 52  24  51  1   
 53  26  28  ar  
 54  26  52  1   
 55  27  28  ar  
 56  27  53  1   
 57  28  54  1   
@<TRIPOS>SUBSTRUCTURE
  1 ****   6 GROUP 4 **** **** 0

# MOE 2024.06 (io_trps.svl 2023.06)
