@<TRIPOS>MOLECULE
NONAME
54 56 1 0 0 
SMALL
USER_CHARGES


@<TRIPOS>ATOM
  1 S       -0.9610     1.3900    -0.7420 S.o2  1 <1>   1.4470 
  2 O       -0.9100     1.0520    -2.1490 O.2   1 <1>  -0.6500 
  3 O       -1.7080     2.5760    -0.3760 O.2   1 <1>  -0.6500 
  4 N       -1.6570     0.0680     0.0600 N.am  1 <1>  -0.8490 
  5 C        0.7410     1.4480    -0.1140 C.ar  1 <1>  -0.0090 
  6 C       -0.7980    -1.1350     0.0140 C.3   1 <1>   0.1960 
  7 C       -2.9780    -0.2550    -0.4690 C.3   1 <1>   0.1960 
  8 C        1.0550     1.9440     1.1470 C.ar  1 <1>   0.0820 
  9 C        1.7800     0.9320    -0.8790 C.ar  1 <1>  -0.1500 
 10 C       -1.4680    -2.4350     0.5420 C.3   1 <1>  -0.1060 
 11 C       -3.7030    -1.2000     0.4990 C.3   1 <1>  -0.1600 
 12 O        0.0890     2.4150     1.9610 O.3   1 <1>  -0.3630 
 13 C        2.3590     1.9320     1.6190 C.ar  1 <1>  -0.1500 
 14 C        3.0910     0.9050    -0.4140 C.ar  1 <1>   0.0820 
 15 C       -1.8750    -3.3530    -0.6220 C.2   1 <1>   0.9060 
 16 C       -2.7230    -2.0230     1.3460 C.3   1 <1>   0.2000 
 17 C       -0.4790    -3.1980     1.4650 C.3   1 <1>  -0.0650 
 18 C       -0.0410     3.8170     2.0340 C.3   1 <1>   0.0400 
 19 C        3.3830     1.4180     0.8450 C.ar  1 <1>  -0.1440 
 20 O        4.1150     0.3790    -1.1390 O.3   1 <1>  -0.3630 
 21 O       -2.7040    -4.2530    -0.4130 O.co2 1 <1>  -0.9000 
 22 O       -1.3780    -3.2040    -1.7440 O.co2 1 <1>  -0.9000 
 23 O       -3.3890    -3.1350     1.8230 O.3   1 <1>  -0.6800 
 24 C        0.8880    -3.4910     0.8220 C.3   1 <1>  -0.1950 
 25 C        4.8090     1.4050     1.3780 C.3   1 <1>  -0.0970 
 26 C        3.8700    -0.3920    -2.2970 C.3   1 <1>   0.0400 
 27 C        2.0350    -3.9320     1.6730 C.3   1 <1>  -0.2000 
 28 C        2.0660    -2.5850     1.0130 C.3   1 <1>  -0.2000 
 29 H       -0.4130    -1.2740    -0.9830 H     1 <1>   0.0800 
 30 H        0.0480    -0.9260     0.6410 H     1 <1>   0.0800 
 31 H       -3.5600     0.6420    -0.5950 H     1 <1>   0.0800 
 32 H       -2.8710    -0.7270    -1.4350 H     1 <1>   0.0800 
 33 H        1.5400     0.5420    -1.8510 H     1 <1>   0.1500 
 34 H       -4.3360    -1.8500    -0.0790 H     1 <1>   0.0800 
 35 H       -4.3250    -0.6210     1.1570 H     1 <1>   0.0800 
 36 H        2.5580     2.3200     2.6020 H     1 <1>   0.1500 
 37 H       -2.4250    -1.4370     2.1990 H     1 <1>   0.0800 
 38 H       -0.3320    -2.6400     2.3730 H     1 <1>   0.0800 
 39 H       -0.9250    -4.1390     1.7400 H     1 <1>   0.0800 
 40 H       -0.8860     4.0410     2.6600 H     1 <1>   0.0800 
 41 H       -0.2080     4.2050     1.0450 H     1 <1>   0.0800 
 42 H        0.8560     4.2320     2.4570 H     1 <1>   0.0800 
 43 H       -3.3580    -3.8000     1.0690 H     1 <1>   0.4000 
 44 H        0.7900    -3.9830    -0.1340 H     1 <1>   0.1000 
 45 H        4.8670     1.8620     2.3490 H     1 <1>   0.0800 
 46 H        5.4530     1.9430     0.7060 H     1 <1>   0.0800 
 47 H        5.1590     0.3910     1.4530 H     1 <1>   0.0800 
 48 H        4.8070    -0.7960    -2.6340 H     1 <1>   0.0800 
 49 H        3.4510     0.2430    -3.0580 H     1 <1>   0.0800 
 50 H        3.1940    -1.1920    -2.0500 H     1 <1>   0.0800 
 51 H        1.8990    -3.9830     2.7400 H     1 <1>   0.1000 
 52 H        2.6750    -4.7120     1.3000 H     1 <1>   0.1000 
 53 H        2.7270    -2.4260     0.1790 H     1 <1>   0.1000 
 54 H        1.9780    -1.7120     1.6370 H     1 <1>   0.1000 
@<TRIPOS>BOND
  1   1   2  2   
  2   1   3  2   
  3   1   4  am  
  4   1   5  1   
  5   4   6  1   
  6   4   7  1   
  7   5   8  ar  
  8   5   9  ar  
  9   6  10  1   
 10   6  29  1   
 11   6  30  1   
 12   7  11  1   
 13   7  31  1   
 14   7  32  1   
 15   8  12  1   
 16   8  13  ar  
 17   9  14  ar  
 18   9  33  1   
 19  10  15  1   
 20  10  16  1   
 21  10  17  1   
 22  11  16  1   
 23  11  34  1   
 24  11  35  1   
 25  12  18  1   
 26  13  19  ar  
 27  13  36  1   
 28  14  19  ar  
 29  14  20  1   
 30  15  21  ar  
 31  15  22  ar  
 32  16  23  1   
 33  16  37  1   
 34  17  24  1   
 35  17  38  1   
 36  17  39  1   
 37  18  40  1   
 38  18  41  1   
 39  18  42  1   
 40  19  25  1   
 41  20  26  1   
 42  23  43  1   
 43  24  27  1   
 44  24  28  1   
 45  24  44  1   
 46  25  45  1   
 47  25  46  1   
 48  25  47  1   
 49  26  48  1   
 50  26  49  1   
 51  26  50  1   
 52  27  28  1   
 53  27  51  1   
 54  27  52  1   
 55  28  53  1   
 56  28  54  1   
@<TRIPOS>SUBSTRUCTURE
  1 ****   6 GROUP 4 **** **** 0

# MOE 2024.06 (io_trps.svl 2023.06)
