@<TRIPOS>MOLECULE
NONAME
51 55 1 0 0 
SMALL
USER_CHARGES


@<TRIPOS>ATOM
  1 O        0.1350     1.2080    -2.7190 O.2   1 <1>  -0.5700 
  2 C       -0.1180     1.7460    -1.6560 C.2   1 <1>   0.5440 
  3 N       -1.3400     1.4980    -1.0580 N.am  1 <1>  -0.6600 
  4 C        0.8450     2.6650    -1.0910 C.ar  1 <1>   0.0860 
  5 C       -1.9060     2.3290     0.0540 C.3   1 <1>   0.1400 
  6 C       -2.3020     0.5000    -1.6050 C.3   1 <1>   0.1400 
  7 C        1.3510     2.4930     0.2140 C.ar  1 <1>   0.0000 
  8 C        1.3040     3.7590    -1.8080 C.ar  1 <1>  -0.1500 
  9 C       -3.1620     3.0880    -0.4130 C.3   1 <1>   0.1440 
 10 C       -3.5670     1.2150    -2.0960 C.3   1 <1>  -0.1600 
 11 C        2.2400     3.4160     0.7620 C.ar  1 <1>  -0.1520 
 12 C        1.1480     1.5100     1.2040 C.2   1 <1>  -0.1500 
 13 C        2.2030     4.6790    -1.2630 C.ar  1 <1>  -0.1500 
 14 C       -3.7070     3.8740     0.7650 C.ar  1 <1>   0.1670 
 15 C       -4.1900     2.0940    -0.9960 C.3   1 <1>  -0.1600 
 16 C       -2.8020     4.2140    -1.4200 C.3   1 <1>  -0.1600 
 17 N        2.5520     3.0160     2.0400 N.pl3 1 <1>   0.0480 
 18 C        2.6710     4.5180     0.0210 C.ar  1 <1>  -0.1500 
 19 C        1.8800     1.8560     2.2890 C.2   1 <1>  -0.3020 
 20 N       -4.3620     3.3680     1.7870 N.ar  1 <1>  -0.6200 
 21 C       -3.4190     5.2020     0.6550 C.ar  1 <1>  -0.1430 
 22 C       -2.6450     5.5070    -0.6030 C.3   1 <1>  -0.0170 
 23 C        3.4620     3.7060     2.9680 C.3   1 <1>   0.0160 
 24 C       -4.7280     4.2590     2.6980 C.ar  1 <1>   0.4770 
 25 C       -3.8470     6.0360     1.6590 C.ar  1 <1>   0.1600 
 26 N       -4.5110     5.5680     2.6950 N.ar  1 <1>  -0.6200 
 27 C       -5.4910     3.7180     3.8830 C.3   1 <1>  -0.0970 
 28 H       -1.1860     3.0380     0.4190 H     1 <1>   0.0800 
 29 H       -2.1670     1.6810     0.8720 H     1 <1>   0.0800 
 30 H       -2.5550    -0.2000    -0.8280 H     1 <1>   0.0800 
 31 H       -1.8590    -0.0540    -2.4150 H     1 <1>   0.0800 
 32 H        0.9560     3.9020    -2.8160 H     1 <1>   0.1500 
 33 H       -4.2830     0.4800    -2.4170 H     1 <1>   0.0800 
 34 H       -3.3130     1.8150    -2.9520 H     1 <1>   0.0800 
 35 H        0.5140     0.6490     1.0780 H     1 <1>   0.1500 
 36 H        2.5290     5.5140    -1.8580 H     1 <1>   0.1500 
 37 H       -5.0430     2.6240    -1.3800 H     1 <1>   0.0800 
 38 H       -4.5400     1.4550    -0.2030 H     1 <1>   0.0800 
 39 H       -3.6200     4.3520    -2.1050 H     1 <1>   0.0800 
 40 H       -1.9200     3.9950    -1.9940 H     1 <1>   0.0800 
 41 H        3.3610     5.2220     0.4500 H     1 <1>   0.1500 
 42 H        1.9640     1.3370     3.2280 H     1 <1>   0.1500 
 43 H       -3.0460     6.3580    -1.1250 H     1 <1>   0.0800 
 44 H       -1.6100     5.6780    -0.3590 H     1 <1>   0.0800 
 45 H        3.1010     4.7030     3.1430 H     1 <1>   0.0800 
 46 H        4.4440     3.7480     2.5330 H     1 <1>   0.0800 
 47 H        3.5040     3.1710     3.8980 H     1 <1>   0.0800 
 48 H       -3.6440     7.0920     1.6160 H     1 <1>   0.1500 
 49 H       -5.2130     2.6980     4.0670 H     1 <1>   0.0800 
 50 H       -6.5430     3.7670     3.6770 H     1 <1>   0.0800 
 51 H       -5.2740     4.3020     4.7580 H     1 <1>   0.0800 
@<TRIPOS>BOND
  1   1   2  2   
  2   2   3  am  
  3   2   4  1   
  4   3   5  1   
  5   3   6  1   
  6   4   7  ar  
  7   4   8  ar  
  8   5   9  1   
  9   5  28  1   
 10   5  29  1   
 11   6  10  1   
 12   6  30  1   
 13   6  31  1   
 14   7  11  ar  
 15   7  12  1   
 16   8  13  ar  
 17   8  32  1   
 18   9  14  1   
 19   9  15  1   
 20   9  16  1   
 21  10  15  1   
 22  10  33  1   
 23  10  34  1   
 24  11  17  1   
 25  11  18  ar  
 26  12  19  2   
 27  12  35  1   
 28  13  18  ar  
 29  13  36  1   
 30  14  20  ar  
 31  14  21  ar  
 32  15  37  1   
 33  15  38  1   
 34  16  22  1   
 35  16  39  1   
 36  16  40  1   
 37  17  19  1   
 38  17  23  1   
 39  18  41  1   
 40  19  42  1   
 41  20  24  ar  
 42  21  22  1   
 43  21  25  ar  
 44  22  43  1   
 45  22  44  1   
 46  23  45  1   
 47  23  46  1   
 48  23  47  1   
 49  24  26  ar  
 50  24  27  1   
 51  25  26  ar  
 52  25  48  1   
 53  27  49  1   
 54  27  50  1   
 55  27  51  1   
@<TRIPOS>SUBSTRUCTURE
  1 ****   5 GROUP 4 **** **** 0

# MOE 2024.06 (io_trps.svl 2023.06)
