@<TRIPOS>MOLECULE
NONAME
51 54 1 0 0 
SMALL
USER_CHARGES


@<TRIPOS>ATOM
  1 O       -0.9780    -0.2710     1.4360 O.2   1 <1>  -0.5700 
  2 C       -1.5050     0.6490     0.8250 C.2   1 <1>   0.5440 
  3 N       -2.6550     0.3230     0.1170 N.am  1 <1>  -0.6600 
  4 C       -0.9390     2.0070     0.9040 C.ar  1 <1>   0.3960 
  5 C       -2.9620    -1.0870    -0.2260 C.3   1 <1>   0.1400 
  6 C       -3.8780     1.1780     0.2110 C.3   1 <1>   0.1400 
  7 N       -1.4680     3.0070     0.2260 N.ar  1 <1>  -0.6200 
  8 C        0.1930     2.2230     1.7280 C.ar  1 <1>  -0.1500 
  9 C       -4.2330    -1.4170     0.5790 C.3   1 <1>   0.4230 
 10 C       -5.1640     0.4520    -0.3080 C.3   1 <1>  -0.1600 
 11 C       -0.9170     4.2390     0.3240 C.ar  1 <1>   0.3100 
 12 C        0.7640     3.4510     1.8500 C.ar  1 <1>  -0.1500 
 13 N       -4.0480    -2.5670     1.5340 N.4   1 <1>  -0.9590 
 14 C       -5.5080    -1.1460    -0.3380 C.3   1 <1>   0.0000 
 15 C        0.2050     4.5170     1.1320 C.ar  1 <1>   0.0000 
 16 C       -1.4860     5.2950    -0.4080 C.ar  1 <1>  -0.1500 
 17 C       -4.0380    -3.8350     0.8320 C.3   1 <1>   0.3430 
 18 C       -2.8550    -2.3970     2.4290 C.3   1 <1>   0.2630 
 19 C       -5.8980    -2.7150    -0.4840 C.3   1 <1>  -0.1600 
 20 C       -6.8120    -0.7870    -1.2150 C.3   1 <1>   0.1200 
 21 C        0.7110     5.8300     1.1830 C.ar  1 <1>  -0.1500 
 22 C       -0.9800     6.5670    -0.3470 C.ar  1 <1>  -0.1500 
 23 C       -5.4560    -3.9300     0.3600 C.3   1 <1>  -0.1600 
 24 O       -7.8880    -0.6310    -0.3440 O.3   1 <1>  -0.6800 
 25 C        0.1310     6.8360     0.4590 C.ar  1 <1>  -0.1500 
 26 H       -3.1520    -1.1560    -1.2830 H     1 <1>   0.0800 
 27 H       -2.1390    -1.7390     0.0000 H     1 <1>   0.0800 
 28 H       -4.0170     1.4680     1.2400 H     1 <1>   0.0800 
 29 H       -3.7310     2.0810    -0.3590 H     1 <1>   0.0800 
 30 H        0.6050     1.3870     2.2660 H     1 <1>   0.1500 
 31 H       -4.3030    -0.6380     1.3150 H     1 <1>   0.0800 
 32 H       -5.9780     0.9930     0.1490 H     1 <1>   0.0800 
 33 H       -5.0920     0.7880    -1.3310 H     1 <1>   0.0800 
 34 H        1.6240     3.6210     2.4750 H     1 <1>   0.1500 
 35 H       -4.8900    -2.5640     2.1270 H     1 <1>   0.4500 
 36 H       -2.3370     5.0720    -1.0230 H     1 <1>   0.1500 
 37 H       -3.3430    -3.8220     0.0080 H     1 <1>   0.0800 
 38 H       -3.8040    -4.6500     1.5000 H     1 <1>   0.0800 
 39 H       -1.9390    -2.4710     1.8650 H     1 <1>   0.0800 
 40 H       -2.8470    -3.1550     3.1950 H     1 <1>   0.0800 
 41 H       -2.8760    -1.4280     2.9020 H     1 <1>   0.0800 
 42 H       -6.9660    -2.8830    -0.4440 H     1 <1>   0.0800 
 43 H       -5.5940    -2.9810    -1.4850 H     1 <1>   0.0800 
 44 H       -7.0940    -1.5260    -1.9510 H     1 <1>   0.0800 
 45 H       -6.8030     0.1060    -1.8170 H     1 <1>   0.0800 
 46 H        1.5660     6.0310     1.8030 H     1 <1>   0.1500 
 47 H       -1.4260     7.3670    -0.9130 H     1 <1>   0.1500 
 48 H       -5.5700    -4.8300    -0.2210 H     1 <1>   0.0800 
 49 H       -6.1040    -4.0330     1.2150 H     1 <1>   0.0800 
 50 H       -8.7110    -0.4170    -0.8300 H     1 <1>   0.4000 
 51 H        0.5190     7.8400     0.4980 H     1 <1>   0.1500 
@<TRIPOS>BOND
  1   1   2  2   
  2   2   3  am  
  3   2   4  1   
  4   3   5  1   
  5   3   6  1   
  6   4   7  ar  
  7   4   8  ar  
  8   5   9  1   
  9   5  26  1   
 10   5  27  1   
 11   6  10  1   
 12   6  28  1   
 13   6  29  1   
 14   7  11  ar  
 15   8  12  ar  
 16   8  30  1   
 17   9  13  1   
 18   9  14  1   
 19   9  31  1   
 20  10  14  1   
 21  10  32  1   
 22  10  33  1   
 23  11  15  ar  
 24  11  16  ar  
 25  12  15  ar  
 26  12  34  1   
 27  13  17  1   
 28  13  18  1   
 29  13  35  1   
 30  14  19  1   
 31  14  20  1   
 32  15  21  ar  
 33  16  22  ar  
 34  16  36  1   
 35  17  23  1   
 36  17  37  1   
 37  17  38  1   
 38  18  39  1   
 39  18  40  1   
 40  18  41  1   
 41  19  23  1   
 42  19  42  1   
 43  19  43  1   
 44  20  24  1   
 45  20  44  1   
 46  20  45  1   
 47  21  25  ar  
 48  21  46  1   
 49  22  25  ar  
 50  22  47  1   
 51  23  48  1   
 52  23  49  1   
 53  24  50  1   
 54  25  51  1   
@<TRIPOS>SUBSTRUCTURE
  1 ****   3 GROUP 4 **** **** 0

# MOE 2024.06 (io_trps.svl 2023.06)
