@<TRIPOS>MOLECULE
NONAME
50 52 1 0 0 
SMALL
USER_CHARGES


@<TRIPOS>ATOM
  1 CL      -0.9610    -1.0190    -0.5280 Cl    1 <1>  -0.1770 
  2 C       -2.6110    -1.4520    -0.1560 C.ar  1 <1>   0.1770 
  3 C       -3.3450    -0.6550     0.7020 C.ar  1 <1>  -0.1500 
  4 C       -3.1570    -2.5870    -0.7260 C.ar  1 <1>  -0.1500 
  5 C       -4.6560    -0.9930     1.0000 C.ar  1 <1>  -0.1440 
  6 C       -4.4650    -2.9290    -0.4320 C.ar  1 <1>  -0.1500 
  7 C       -5.2210    -2.1320     0.4280 C.ar  1 <1>   0.0830 
  8 C       -5.4650    -0.1180     1.9480 C.3   1 <1>  -0.0960 
  9 O       -6.5100    -2.4140     0.7450 O.3   1 <1>  -0.3630 
 10 C       -7.2490    -3.4090     0.0520 C.3   1 <1>   0.1810 
 11 C       -8.7200    -3.4000     0.4610 C.2   1 <1>   0.5690 
 12 O       -9.1590    -4.4270     0.9290 O.2   1 <1>  -0.5700 
 13 N       -9.5170    -2.2940     0.2690 N.am  1 <1>  -0.6600 
 14 C      -10.9510    -2.2830     0.6950 C.3   1 <1>   0.1400 
 15 C       -9.0790    -1.0160    -0.3560 C.3   1 <1>   0.1400 
 16 C      -11.8830    -2.0130    -0.5120 C.3   1 <1>   0.0000 
 17 C       -9.9580    -0.7110    -1.5740 C.3   1 <1>  -0.1600 
 18 C      -13.3590    -1.9620    -0.0790 C.3   1 <1>   0.2000 
 19 C      -11.4540    -0.7050    -1.2120 C.3   1 <1>  -0.1600 
 20 C      -11.8830    -3.2190    -1.4680 C.3   1 <1>  -0.1600 
 21 O      -13.5140    -1.2820     1.1310 O.3   1 <1>  -0.5600 
 22 C      -13.8090    -3.4220     0.0360 C.3   1 <1>  -0.1600 
 23 C      -12.8540    -4.2310    -0.8530 C.3   1 <1>  -0.1600 
 24 C      -14.8240    -0.9310     1.4450 C.3   1 <1>   0.0400 
 25 H       -2.8840     0.2180     1.1270 H     1 <1>   0.1500 
 26 H       -2.5610    -3.1900    -1.3870 H     1 <1>   0.1500 
 27 H       -4.8720    -3.8180    -0.8760 H     1 <1>   0.1500 
 28 H       -4.8790     0.7020     2.3190 H     1 <1>   0.0800 
 29 H       -5.8030    -0.7050     2.7840 H     1 <1>   0.0800 
 30 H       -6.3250     0.2760     1.4370 H     1 <1>   0.0800 
 31 H       -7.1740    -3.2210    -1.0030 H     1 <1>   0.0800 
 32 H       -6.8210    -4.3660     0.2860 H     1 <1>   0.0800 
 33 H      -11.2140    -3.2130     1.1670 H     1 <1>   0.0800 
 34 H      -11.0760    -1.5060     1.4300 H     1 <1>   0.0800 
 35 H       -9.1750    -0.2260     0.3700 H     1 <1>   0.0800 
 36 H       -8.0500    -1.0580    -0.6630 H     1 <1>   0.0800 
 37 H       -9.6840     0.2480    -1.9740 H     1 <1>   0.0800 
 38 H       -9.7680    -1.4470    -2.3350 H     1 <1>   0.0800 
 39 H      -13.9330    -1.4600    -0.8400 H     1 <1>   0.0800 
 40 H      -12.0400    -0.5460    -2.1000 H     1 <1>   0.0800 
 41 H      -11.6450     0.1180    -0.5450 H     1 <1>   0.0800 
 42 H      -12.2600    -2.9190    -2.4310 H     1 <1>   0.0800 
 43 H      -10.9040    -3.6450    -1.6030 H     1 <1>   0.0800 
 44 H      -13.7220    -3.7600     1.0550 H     1 <1>   0.0800 
 45 H      -14.8250    -3.5300    -0.2960 H     1 <1>   0.0800 
 46 H      -12.3060    -4.9330    -0.2460 H     1 <1>   0.0800 
 47 H      -13.3840    -4.7730    -1.6170 H     1 <1>   0.0800 
 48 H      -14.8110    -0.3980     2.3800 H     1 <1>   0.0800 
 49 H      -15.4210    -1.8200     1.5460 H     1 <1>   0.0800 
 50 H      -15.2170    -0.2940     0.6710 H     1 <1>   0.0800 
@<TRIPOS>BOND
  1   1   2  1   
  2   2   3  ar  
  3   2   4  ar  
  4   3   5  ar  
  5   3  25  1   
  6   4   6  ar  
  7   4  26  1   
  8   5   7  ar  
  9   5   8  1   
 10   6   7  ar  
 11   6  27  1   
 12   7   9  1   
 13   8  28  1   
 14   8  29  1   
 15   8  30  1   
 16   9  10  1   
 17  10  11  1   
 18  10  31  1   
 19  10  32  1   
 20  11  12  2   
 21  11  13  am  
 22  13  14  1   
 23  13  15  1   
 24  14  16  1   
 25  14  33  1   
 26  14  34  1   
 27  15  17  1   
 28  15  35  1   
 29  15  36  1   
 30  16  18  1   
 31  16  19  1   
 32  16  20  1   
 33  17  19  1   
 34  17  37  1   
 35  17  38  1   
 36  18  21  1   
 37  18  22  1   
 38  18  39  1   
 39  19  40  1   
 40  19  41  1   
 41  20  23  1   
 42  20  42  1   
 43  20  43  1   
 44  21  24  1   
 45  22  23  1   
 46  22  44  1   
 47  22  45  1   
 48  23  46  1   
 49  23  47  1   
 50  24  48  1   
 51  24  49  1   
 52  24  50  1   
@<TRIPOS>SUBSTRUCTURE
  1 ****  13 GROUP 4 **** **** 0

# MOE 2024.06 (io_trps.svl 2023.06)
