@<TRIPOS>MOLECULE
NONAME
51 55 1 0 0 
SMALL
USER_CHARGES


@<TRIPOS>ATOM
  1 O       -2.1930     0.8290    -2.1310 O.2   1 <1>  -0.5700 
  2 C       -2.0980     1.1290    -0.9570 C.2   1 <1>   0.5440 
  3 N       -2.1880     0.1290    -0.0320 N.am  1 <1>  -0.7300 
  4 C       -1.8930     2.5080    -0.5500 C.ar  1 <1>   0.0860 
  5 C       -2.4110    -1.3010    -0.3380 C.3   1 <1>   0.2200 
  6 C       -2.2270     2.9690     0.7250 C.ar  1 <1>  -0.1500 
  7 C       -1.3490     3.4440    -1.4300 C.ar  1 <1>  -0.1500 
  8 C       -3.8680    -1.6410    -0.0730 C.3   1 <1>  -0.0800 
  9 C       -1.7020    -2.1580     0.7030 C.3   1 <1>   0.1200 
 10 C       -2.0150     4.2830     1.0980 C.ar  1 <1>  -0.1500 
 11 C       -1.1390     4.7570    -1.0560 C.ar  1 <1>  -0.1500 
 12 C       -3.8720    -1.9410     1.4320 C.3   1 <1>   0.1200 
 13 C       -4.3270    -2.8480    -0.9130 C.3   1 <1>  -0.0160 
 14 O       -2.5450    -2.1700     1.8140 O.3   1 <1>  -0.5600 
 15 C       -1.4630     5.2170     0.2210 C.ar  1 <1>   0.0540 
 16 C       -5.7950    -3.1660    -0.6710 C.ar  1 <1>  -0.1430 
 17 C       -1.2420     6.5950     0.6220 C.2   1 <1>   0.4620 
 18 C       -6.2000    -4.2530     0.0770 C.ar  1 <1>  -0.1500 
 19 C       -6.8000    -2.3770    -1.1930 C.ar  1 <1>  -0.1500 
 20 N       -1.5160     7.0920     1.7780 N.2   1 <1>  -0.4100 
 21 N       -0.7150     7.5100    -0.1970 N.2   1 <1>  -0.5650 
 22 C       -7.5520    -4.4880     0.2660 C.ar  1 <1>   0.1600 
 23 C       -8.1240    -2.7000    -0.9440 C.ar  1 <1>   0.1600 
 24 O       -1.1810     8.3430     1.7610 O.3   1 <1>  -0.0190 
 25 C       -0.7090     8.5310     0.5560 C.2   1 <1>   0.3930 
 26 N       -8.5230    -3.7360    -0.2240 N.ar  1 <1>  -0.6200 
 27 C       -0.2140     9.9200     0.1840 C.3   1 <1>  -0.0150 
 28 C        0.8580    10.1250    -0.8440 C.3   1 <1>  -0.2000 
 29 C        1.1490    10.3780     0.6050 C.3   1 <1>  -0.2000 
 30 H       -2.0840     0.3280     0.9640 H     1 <1>   0.3700 
 31 H       -2.0930    -1.5280    -1.3420 H     1 <1>   0.0800 
 32 H       -2.6650     2.2950     1.4380 H     1 <1>   0.1500 
 33 H       -1.0870     3.1280    -2.4260 H     1 <1>   0.1500 
 34 H       -4.5060    -0.8050    -0.3000 H     1 <1>   0.0800 
 35 H       -0.7390    -1.7650     0.9800 H     1 <1>   0.0800 
 36 H       -1.5970    -3.1710     0.3580 H     1 <1>   0.0800 
 37 H       -2.2860     4.5960     2.0930 H     1 <1>   0.1500 
 38 H       -0.7140     5.4420    -1.7710 H     1 <1>   0.1500 
 39 H       -4.4590    -2.8060     1.6870 H     1 <1>   0.0800 
 40 H       -4.2290    -1.0930     1.9900 H     1 <1>   0.0800 
 41 H       -3.7270    -3.7120    -0.6860 H     1 <1>   0.0800 
 42 H       -4.1920    -2.6250    -1.9580 H     1 <1>   0.0800 
 43 H       -5.4800    -4.9200     0.5150 H     1 <1>   0.1500 
 44 H       -6.5670    -1.5150    -1.7910 H     1 <1>   0.1500 
 45 H       -7.8490    -5.3400     0.8530 H     1 <1>   0.1500 
 46 H       -8.8940    -2.0730    -1.3580 H     1 <1>   0.1500 
 47 H       -1.0100    10.6430     0.2120 H     1 <1>   0.1000 
 48 H        1.2900     9.2590    -1.3170 H     1 <1>   0.1000 
 49 H        0.7740    10.9620    -1.5150 H     1 <1>   0.1000 
 50 H        1.2710    11.3930     0.9420 H     1 <1>   0.1000 
 51 H        1.7890     9.6880     1.1280 H     1 <1>   0.1000 
@<TRIPOS>BOND
  1   1   2  2   
  2   2   3  am  
  3   2   4  1   
  4   3   5  1   
  5   3  30  1   
  6   4   6  ar  
  7   4   7  ar  
  8   5   8  1   
  9   5   9  1   
 10   5  31  1   
 11   6  10  ar  
 12   6  32  1   
 13   7  11  ar  
 14   7  33  1   
 15   8  12  1   
 16   8  13  1   
 17   8  34  1   
 18   9  14  1   
 19   9  35  1   
 20   9  36  1   
 21  10  15  ar  
 22  10  37  1   
 23  11  15  ar  
 24  11  38  1   
 25  12  14  1   
 26  12  39  1   
 27  12  40  1   
 28  13  16  1   
 29  13  41  1   
 30  13  42  1   
 31  15  17  1   
 32  16  18  ar  
 33  16  19  ar  
 34  17  20  2   
 35  17  21  1   
 36  18  22  ar  
 37  18  43  1   
 38  19  23  ar  
 39  19  44  1   
 40  20  24  1   
 41  21  25  2   
 42  22  26  ar  
 43  22  45  1   
 44  23  26  ar  
 45  23  46  1   
 46  24  25  1   
 47  25  27  1   
 48  27  28  1   
 49  27  29  1   
 50  27  47  1   
 51  28  29  1   
 52  28  48  1   
 53  28  49  1   
 54  29  50  1   
 55  29  51  1   
@<TRIPOS>SUBSTRUCTURE
  1 ****   4 GROUP 4 **** **** 0

# MOE 2024.06 (io_trps.svl 2023.06)
