@<TRIPOS>MOLECULE
NONAME
55 56 1 0 0 
SMALL
USER_CHARGES


@<TRIPOS>ATOM
  1 O       -0.8820    -0.0070    -1.8650 O.2   1 <1>  -0.5700 
  2 C       -0.1390    -0.9520    -1.7070 C.2   1 <1>   0.5690 
  3 N        1.1930    -0.7920    -1.4460 N.am  1 <1>  -0.4930 
  4 C       -0.7030    -2.3930    -1.8140 C.3   1 <1>   0.3410 
  5 C        1.9360     0.3980    -1.2640 C.2   1 <1>   0.0630 
  6 O        0.1770    -3.3490    -1.2250 O.3   1 <1>  -0.3630 
  7 C       -0.7650    -2.7920    -3.2950 C.3   1 <1>  -0.2400 
  8 C       -2.1090    -2.5780    -1.2080 C.3   1 <1>  -0.2400 
  9 C        1.5700     1.7180    -1.5280 C.2   1 <1>   0.1390 
 10 C        3.1890     0.4840    -0.7770 C.2   1 <1>  -0.3020 
 11 C        0.5920    -3.4300     0.0720 C.ar  1 <1>   0.0830 
 12 N        2.5150     2.5610    -1.2300 N.2   1 <1>  -0.7070 
 13 N        3.5220     1.7940    -0.7630 N.pl3 1 <1>   0.3140 
 14 C        1.3710    -4.5320     0.4310 C.ar  1 <1>  -0.1430 
 15 C        0.2930    -2.4590     1.0280 C.ar  1 <1>  -0.1500 
 16 C        4.7960     2.3740    -0.3110 C.3   1 <1>   0.1570 
 17 C        1.8320    -4.6300     1.7370 C.ar  1 <1>  -0.1500 
 18 C        1.7310    -5.6360    -0.5740 C.3   1 <1>   0.0630 
 19 C        0.7640    -2.5670     2.3240 C.ar  1 <1>  -0.1430 
 20 C        4.6350     2.9980     1.0580 C.2   1 <1>   0.5690 
 21 C        1.5340    -3.6590     2.6750 C.ar  1 <1>  -0.1500 
 22 C        1.1890    -6.9940    -0.1160 C.3   1 <1>  -0.2400 
 23 C        3.2470    -5.7020    -0.7900 C.3   1 <1>  -0.2400 
 24 C        0.4360    -1.4940     3.3470 C.3   1 <1>  -0.0970 
 25 O        5.5050     2.8140     1.8750 O.2   1 <1>  -0.5700 
 26 N        3.5390     3.7570     1.3280 N.am  1 <1>  -0.7300 
 27 C        3.2400     4.4420     2.6080 C.3   1 <1>   0.0600 
 28 H        1.6880    -1.6610    -1.2260 H     1 <1>   0.3700 
 29 H        0.2110    -2.7190    -3.7410 H     1 <1>   0.0800 
 30 H       -1.4270    -2.1320    -3.8260 H     1 <1>   0.0800 
 31 H       -1.1270    -3.7990    -3.4000 H     1 <1>   0.0800 
 32 H       -2.1430    -2.2790    -0.1800 H     1 <1>   0.0800 
 33 H       -2.4160    -3.6050    -1.2840 H     1 <1>   0.0800 
 34 H       -2.8170    -1.9700    -1.7430 H     1 <1>   0.0800 
 35 H        0.6140     2.0080    -1.9310 H     1 <1>   0.1500 
 36 H        3.8470    -0.2960    -0.4410 H     1 <1>   0.1500 
 37 H       -0.3010    -1.6000     0.7900 H     1 <1>   0.1500 
 38 H        5.0990     3.1270    -1.0110 H     1 <1>   0.0800 
 39 H        5.5420     1.6050    -0.2730 H     1 <1>   0.0800 
 40 H        2.4330    -5.4690     2.0380 H     1 <1>   0.1500 
 41 H        1.2850    -5.4300    -1.5300 H     1 <1>   0.0800 
 42 H        1.9050    -3.7610     3.6800 H     1 <1>   0.1500 
 43 H        1.6530    -7.3090     0.8010 H     1 <1>   0.0800 
 44 H        1.3740    -7.7410    -0.8680 H     1 <1>   0.0800 
 45 H        0.1270    -6.9260     0.0430 H     1 <1>   0.0800 
 46 H        3.7540    -5.9780     0.1170 H     1 <1>   0.0800 
 47 H        3.6120    -4.7430    -1.1090 H     1 <1>   0.0800 
 48 H        3.4830    -6.4270    -1.5480 H     1 <1>   0.0800 
 49 H        0.4160    -0.5250     2.8800 H     1 <1>   0.0800 
 50 H        1.1750    -1.4770     4.1280 H     1 <1>   0.0800 
 51 H       -0.5260    -1.6900     3.7840 H     1 <1>   0.0800 
 52 H        2.8030     3.7910     0.6020 H     1 <1>   0.3700 
 53 H        4.0600     4.3200     3.2970 H     1 <1>   0.0800 
 54 H        2.3520     4.0200     3.0460 H     1 <1>   0.0800 
 55 H        3.0860     5.4920     2.4320 H     1 <1>   0.0800 
@<TRIPOS>BOND
  1   1   2  2   
  2   2   3  am  
  3   2   4  1   
  4   3   5  1   
  5   3  28  1   
  6   4   6  1   
  7   4   7  1   
  8   4   8  1   
  9   5   9  1   
 10   5  10  2   
 11   6  11  1   
 12   7  29  1   
 13   7  30  1   
 14   7  31  1   
 15   8  32  1   
 16   8  33  1   
 17   8  34  1   
 18   9  12  2   
 19   9  35  1   
 20  10  13  1   
 21  10  36  1   
 22  11  14  ar  
 23  11  15  ar  
 24  12  13  1   
 25  13  16  1   
 26  14  17  ar  
 27  14  18  1   
 28  15  19  ar  
 29  15  37  1   
 30  16  20  1   
 31  16  38  1   
 32  16  39  1   
 33  17  21  ar  
 34  17  40  1   
 35  18  22  1   
 36  18  23  1   
 37  18  41  1   
 38  19  21  ar  
 39  19  24  1   
 40  20  25  2   
 41  20  26  am  
 42  21  42  1   
 43  22  43  1   
 44  22  44  1   
 45  22  45  1   
 46  23  46  1   
 47  23  47  1   
 48  23  48  1   
 49  24  49  1   
 50  24  50  1   
 51  24  51  1   
 52  26  27  1   
 53  26  52  1   
 54  27  53  1   
 55  27  54  1   
 56  27  55  1   
@<TRIPOS>SUBSTRUCTURE
  1 ****   3 GROUP 4 **** **** 0

# MOE 2024.06 (io_trps.svl 2023.06)
