@<TRIPOS>MOLECULE
NONAME
47 48 1 0 0 
SMALL
USER_CHARGES


@<TRIPOS>ATOM
  1 S       -1.7590    -0.2590    -1.0470 S.3   1 <1>  -0.0800 
  2 C       -1.7550    -1.4400     0.2670 C.2   1 <1>  -0.0450 
  3 C       -1.5950     1.0900     0.0570 C.2   1 <1>  -0.1400 
  4 C       -1.8710    -2.8470    -0.0260 C.2   1 <1>   0.7150 
  5 C       -1.6080    -0.7760     1.4410 C.2   1 <1>  -0.1500 
  6 C       -1.5280     0.6420     1.3250 C.2   1 <1>  -0.1500 
  7 C       -1.5330     2.4760    -0.5640 C.3   1 <1>   0.0200 
  8 O       -1.0450    -3.6140     0.4290 O.2   1 <1>  -0.5700 
  9 N       -2.9390    -3.3580    -0.7370 N.am  1 <1>  -0.6600 
 10 C       -1.4450     3.5810     0.4930 C.3   1 <1>  -0.2400 
 11 C       -3.0300    -4.8270    -1.0070 C.3   1 <1>   0.3210 
 12 C       -4.1980    -2.5980    -0.9850 C.3   1 <1>   0.1400 
 13 C       -3.9620    -5.5140    -0.0080 C.2   1 <1>   0.0460 
 14 C       -4.9350    -2.3320     0.3430 C.3   1 <1>   0.3430 
 15 N       -5.3070    -5.4080    -0.1100 N.2   1 <1>  -0.5650 
 16 C       -3.6230    -6.2920     1.0480 C.2   1 <1>  -0.3320 
 17 N       -5.8220    -1.1220     0.2950 N.4   1 <1>  -0.9590 
 18 C       -5.7500    -6.1390     0.8610 C.2   1 <1>   0.0360 
 19 N       -4.7760    -6.7020     1.6050 N.pl3 1 <1>   0.0330 
 20 C       -2.2620    -6.7020     1.5900 C.3   1 <1>  -0.0600 
 21 C       -5.0260     0.1470     0.2560 C.3   1 <1>   0.2630 
 22 C       -6.7370    -1.1270     1.4750 C.3   1 <1>   0.2630 
 23 H       -1.5380    -1.2570     2.4030 H     1 <1>   0.1500 
 24 H       -1.4090     1.2580     2.2010 H     1 <1>   0.1500 
 25 H       -2.4060     2.6330    -1.1710 H     1 <1>   0.0800 
 26 H       -0.6700     2.5310    -1.2060 H     1 <1>   0.0800 
 27 H       -2.3040     3.5540     1.1390 H     1 <1>   0.0800 
 28 H       -1.4050     4.5430     0.0150 H     1 <1>   0.0800 
 29 H       -0.5560     3.4580     1.0860 H     1 <1>   0.0800 
 30 H       -2.0550    -5.2790    -0.9590 H     1 <1>   0.0800 
 31 H       -3.4040    -4.9880    -2.0020 H     1 <1>   0.0800 
 32 H       -4.8410    -3.1670    -1.6340 H     1 <1>   0.0800 
 33 H       -3.9630    -1.6810    -1.4880 H     1 <1>   0.0800 
 34 H       -4.2070    -2.2010     1.1260 H     1 <1>   0.0800 
 35 H       -5.5230    -3.2000     0.5850 H     1 <1>   0.0800 
 36 H       -6.4020    -1.1870    -0.5570 H     1 <1>   0.4500 
 37 H       -6.7930    -6.3040     1.0730 H     1 <1>   0.1500 
 38 H       -4.8920    -7.3240     2.4110 H     1 <1>   0.2700 
 39 H       -1.4690    -6.2520     1.0200 H     1 <1>   0.0800 
 40 H       -2.1490    -7.7710     1.5430 H     1 <1>   0.0800 
 41 H       -2.1590    -6.3840     2.6120 H     1 <1>   0.0800 
 42 H       -4.3650     0.2030     1.1070 H     1 <1>   0.0800 
 43 H       -5.6820     1.0030     0.2710 H     1 <1>   0.0800 
 44 H       -4.4290     0.1930    -0.6400 H     1 <1>   0.0800 
 45 H       -6.1690    -1.0710     2.3900 H     1 <1>   0.0800 
 46 H       -7.3240    -2.0310     1.4890 H     1 <1>   0.0800 
 47 H       -7.4080    -0.2840     1.4340 H     1 <1>   0.0800 
@<TRIPOS>BOND
  1   1   2  1   
  2   1   3  1   
  3   2   4  1   
  4   2   5  2   
  5   3   6  2   
  6   3   7  1   
  7   4   8  2   
  8   4   9  am  
  9   5   6  1   
 10   5  23  1   
 11   6  24  1   
 12   7  10  1   
 13   7  25  1   
 14   7  26  1   
 15   9  11  1   
 16   9  12  1   
 17  10  27  1   
 18  10  28  1   
 19  10  29  1   
 20  11  13  1   
 21  11  30  1   
 22  11  31  1   
 23  12  14  1   
 24  12  32  1   
 25  12  33  1   
 26  13  15  1   
 27  13  16  2   
 28  14  17  1   
 29  14  34  1   
 30  14  35  1   
 31  15  18  2   
 32  16  19  1   
 33  16  20  1   
 34  17  21  1   
 35  17  22  1   
 36  17  36  1   
 37  18  19  1   
 38  18  37  1   
 39  19  38  1   
 40  20  39  1   
 41  20  40  1   
 42  20  41  1   
 43  21  42  1   
 44  21  43  1   
 45  21  44  1   
 46  22  45  1   
 47  22  46  1   
 48  22  47  1   
@<TRIPOS>SUBSTRUCTURE
  1 ****   9 GROUP 4 **** **** 0

# MOE 2024.06 (io_trps.svl 2023.06)
