@<TRIPOS>MOLECULE
NONAME
49 52 1 0 0 
SMALL
USER_CHARGES


@<TRIPOS>ATOM
  1 O       -0.6280     0.6790     0.6450 O.2   1 <1>  -0.5700 
  2 C       -1.6620     1.1660     0.2190 C.2   1 <1>   0.7150 
  3 N       -2.8640     0.6120     0.6220 N.am  1 <1>  -0.6600 
  4 C       -1.6150     2.3070    -0.6730 C.2   1 <1>   0.0550 
  5 C       -2.9550    -0.2940     1.8020 C.3   1 <1>   0.1400 
  6 C       -4.1190     0.7020    -0.1730 C.3   1 <1>   0.1400 
  7 O       -0.6990     2.3930    -1.6350 O.3   1 <1>  -0.2800 
  8 C       -2.3950     3.4250    -0.7290 C.2   1 <1>  -0.1500 
  9 C       -3.3510    -1.6980     1.3410 C.3   1 <1>  -0.1600 
 10 C       -4.5190    -0.6980    -0.6460 C.3   1 <1>  -0.1600 
 11 C       -0.8730     3.5160    -2.2930 C.2   1 <1>  -0.0100 
 12 C       -1.9140     4.2060    -1.7810 C.2   1 <1>  -0.1500 
 13 C       -4.6510    -1.6870     0.5250 C.3   1 <1>   0.4240 
 14 O       -5.6380    -1.1940     1.4010 O.3   1 <1>  -0.5600 
 15 C       -4.9880    -3.1080     0.0250 C.ar  1 <1>  -0.1430 
 16 C       -6.9680    -1.4880     1.1060 C.3   1 <1>   0.1200 
 17 C       -6.1840    -3.7280     0.3620 C.ar  1 <1>  -0.1430 
 18 C       -4.0960    -3.8000    -0.7850 C.ar  1 <1>  -0.1500 
 19 C       -7.1810    -2.9930     1.2360 C.3   1 <1>  -0.0170 
 20 C       -6.4730    -5.0030    -0.0950 C.ar  1 <1>  -0.1500 
 21 C       -4.3650    -5.0770    -1.2450 C.ar  1 <1>   0.0830 
 22 C       -5.5790    -5.6940    -0.9090 C.ar  1 <1>   0.0830 
 23 O       -3.3850    -5.6280    -2.0170 O.3   1 <1>  -0.3630 
 24 O       -5.8690    -6.9380    -1.3930 O.3   1 <1>  -0.3630 
 25 C       -3.1060    -7.0090    -1.9510 C.3   1 <1>   0.0400 
 26 C       -7.1410    -7.5280    -1.2330 C.3   1 <1>   0.0400 
 27 H       -3.6950     0.0910     2.4830 H     1 <1>   0.0800 
 28 H       -2.0150    -0.3350     2.3260 H     1 <1>   0.0800 
 29 H       -3.9880     1.3340    -1.0320 H     1 <1>   0.0800 
 30 H       -4.8970     1.1200     0.4430 H     1 <1>   0.0800 
 31 H       -3.2210     3.6790    -0.0900 H     1 <1>   0.1500 
 32 H       -3.4760    -2.3400     2.1930 H     1 <1>   0.0800 
 33 H       -2.5440    -2.0940     0.7540 H     1 <1>   0.0800 
 34 H       -3.7650    -1.0490    -1.3270 H     1 <1>   0.0800 
 35 H       -5.4390    -0.6530    -1.1960 H     1 <1>   0.0800 
 36 H       -0.2130     3.7500    -3.1100 H     1 <1>   0.1500 
 37 H       -2.3080     5.1570    -2.0930 H     1 <1>   0.1500 
 38 H       -7.1950    -1.1490     0.1110 H     1 <1>   0.0800 
 39 H       -7.5870    -0.9580     1.8090 H     1 <1>   0.0800 
 40 H       -3.1610    -3.3550    -1.0740 H     1 <1>   0.1500 
 41 H       -8.1860    -3.2340     0.9420 H     1 <1>   0.0800 
 42 H       -7.0480    -3.2850     2.2630 H     1 <1>   0.0800 
 43 H       -7.4060    -5.4440     0.1940 H     1 <1>   0.1500 
 44 H       -2.1030    -7.1650    -2.3030 H     1 <1>   0.0800 
 45 H       -3.7990    -7.5330    -2.5840 H     1 <1>   0.0800 
 46 H       -3.1960    -7.3390    -0.9310 H     1 <1>   0.0800 
 47 H       -7.1420    -8.4640    -1.7610 H     1 <1>   0.0800 
 48 H       -7.8840    -6.8720    -1.6500 H     1 <1>   0.0800 
 49 H       -7.3170    -7.6990    -0.1860 H     1 <1>   0.0800 
@<TRIPOS>BOND
  1   1   2  2   
  2   2   3  am  
  3   2   4  1   
  4   3   5  1   
  5   3   6  1   
  6   4   7  1   
  7   4   8  2   
  8   5   9  1   
  9   5  27  1   
 10   5  28  1   
 11   6  10  1   
 12   6  29  1   
 13   6  30  1   
 14   7  11  1   
 15   8  12  1   
 16   8  31  1   
 17   9  13  1   
 18   9  32  1   
 19   9  33  1   
 20  10  13  1   
 21  10  34  1   
 22  10  35  1   
 23  11  12  2   
 24  11  36  1   
 25  12  37  1   
 26  13  14  1   
 27  13  15  1   
 28  14  16  1   
 29  15  17  ar  
 30  15  18  ar  
 31  16  19  1   
 32  16  38  1   
 33  16  39  1   
 34  17  19  1   
 35  17  20  ar  
 36  18  21  ar  
 37  18  40  1   
 38  19  41  1   
 39  19  42  1   
 40  20  22  ar  
 41  20  43  1   
 42  21  22  ar  
 43  21  23  1   
 44  22  24  1   
 45  23  25  1   
 46  24  26  1   
 47  25  44  1   
 48  25  45  1   
 49  25  46  1   
 50  26  47  1   
 51  26  48  1   
 52  26  49  1   
@<TRIPOS>SUBSTRUCTURE
  1 ****  13 GROUP 4 **** **** 0

# MOE 2024.06 (io_trps.svl 2023.06)
