@<TRIPOS>MOLECULE
NONAME
34 35 1 0 0 
SMALL
USER_CHARGES


@<TRIPOS>ATOM
  1 S        0.3340    -0.2370     0.4420 S.3   1 <1>  -0.0800 
  2 C       -1.1490    -0.8200    -0.2400 C.2   1 <1>   0.4420 
  3 C       -0.0250     1.3070    -0.2590 C.2   1 <1>   0.1980 
  4 N       -1.7690     0.0910    -0.8950 N.2   1 <1>  -0.3380 
  5 N       -1.4540    -2.1420    -0.0070 N.am  1 <1>  -0.4940 
  6 N       -1.1240     1.2970    -0.9040 N.2   1 <1>  -0.3380 
  7 C        0.9930     2.4280    -0.0170 C.3   1 <1>   0.3800 
  8 C       -2.5810    -2.8520    -0.3210 C.2   1 <1>   0.7160 
  9 O        0.4360     3.7030    -0.1580 O.3   1 <1>  -0.5600 
 10 C        2.1480     2.3500    -1.0130 C.3   1 <1>  -0.2400 
 11 O       -3.5620    -2.2870    -0.7530 O.2   1 <1>  -0.5700 
 12 C       -2.5720    -4.2790    -0.0960 C.2   1 <1>  -0.0860 
 13 C       -0.5150     4.0580     0.7980 C.3   1 <1>   0.0400 
 14 C       -3.6070    -5.1510     0.0770 C.2   1 <1>  -0.0400 
 15 C       -1.4220    -5.0980    -0.0050 C.2   1 <1>  -0.1500 
 16 O       -3.1690    -6.3710     0.2640 O.3   1 <1>  -0.2800 
 17 C       -5.1080    -4.9400     0.0910 C.3   1 <1>  -0.0600 
 18 C       -1.8580    -6.3520     0.2160 C.2   1 <1>  -0.0400 
 19 C       -1.1100    -7.6550     0.3960 C.3   1 <1>  -0.0600 
 20 H       -0.7550    -2.6740     0.4960 H     1 <1>   0.3700 
 21 H        1.3810     2.3510     0.9840 H     1 <1>   0.0800 
 22 H        1.7690     2.4410    -2.0160 H     1 <1>   0.0800 
 23 H        2.6560     1.4080    -0.9200 H     1 <1>   0.0800 
 24 H        2.8490     3.1420    -0.8230 H     1 <1>   0.0800 
 25 H       -0.8080     5.0760     0.6120 H     1 <1>   0.0800 
 26 H       -0.0840     3.9800     1.7810 H     1 <1>   0.0800 
 27 H       -1.3770     3.4200     0.7070 H     1 <1>   0.0800 
 28 H       -0.4030    -4.7730    -0.1060 H     1 <1>   0.1500 
 29 H       -5.3600    -3.9030    -0.0280 H     1 <1>   0.0800 
 30 H       -5.5120    -5.2870     1.0240 H     1 <1>   0.0800 
 31 H       -5.5570    -5.4980    -0.7110 H     1 <1>   0.0800 
 32 H       -0.0510    -7.4910     0.3290 H     1 <1>   0.0800 
 33 H       -1.4070    -8.3500    -0.3680 H     1 <1>   0.0800 
 34 H       -1.3420    -8.0750     1.3580 H     1 <1>   0.0800 
@<TRIPOS>BOND
  1   1   2  1   
  2   1   3  1   
  3   2   4  2   
  4   2   5  1   
  5   3   6  2   
  6   3   7  1   
  7   4   6  1   
  8   5   8  am  
  9   5  20  1   
 10   7   9  1   
 11   7  10  1   
 12   7  21  1   
 13   8  11  2   
 14   8  12  1   
 15   9  13  1   
 16  10  22  1   
 17  10  23  1   
 18  10  24  1   
 19  12  14  2   
 20  12  15  1   
 21  13  25  1   
 22  13  26  1   
 23  13  27  1   
 24  14  16  1   
 25  14  17  1   
 26  15  18  2   
 27  15  28  1   
 28  16  18  1   
 29  17  29  1   
 30  17  30  1   
 31  17  31  1   
 32  18  19  1   
 33  19  32  1   
 34  19  33  1   
 35  19  34  1   
@<TRIPOS>SUBSTRUCTURE
  1 ****   5 GROUP 4 **** **** 0

# MOE 2024.06 (io_trps.svl 2023.06)
