@<TRIPOS>MOLECULE
NONAME
46 48 1 0 0 
SMALL
USER_CHARGES


@<TRIPOS>ATOM
  1 F       -0.2920    -0.7940    -1.0010 F     1 <1>  -0.1900 
  2 C       -0.8520    -1.9120    -0.6130 C.ar  1 <1>   0.1900 
  3 C       -0.3270    -3.1630    -0.9570 C.ar  1 <1>   0.0820 
  4 C       -1.9900    -1.7930     0.1620 C.ar  1 <1>  -0.1500 
  5 O        0.7820    -3.4080    -1.7130 O.3   1 <1>  -0.3630 
  6 C       -0.9880    -4.2870    -0.4890 C.ar  1 <1>  -0.1500 
  7 C       -2.6220    -2.9370     0.6120 C.ar  1 <1>  -0.1500 
  8 C        1.5090    -2.3880    -2.3620 C.3   1 <1>   0.0400 
  9 C       -2.1400    -4.2080     0.2970 C.ar  1 <1>   0.0530 
 10 C       -2.7800    -5.4100     0.7770 C.2   1 <1>   0.0870 
 11 O       -2.0230    -6.4180     1.1450 O.3   1 <1>  -0.0190 
 12 C       -4.0720    -5.7980     0.9660 C.2   1 <1>  -0.2330 
 13 N       -2.7090    -7.4400     1.5780 N.2   1 <1>  -0.4100 
 14 C       -3.9410    -7.0850     1.4860 C.2   1 <1>   0.3720 
 15 C       -5.3210    -5.1440     0.6960 C.2   1 <1>   1.0330 
 16 N       -5.0000    -7.8940     1.8640 N.pl3 1 <1>  -0.8520 
 17 O       -5.3550    -4.0330     0.1420 O.co2 1 <1>  -0.9000 
 18 O       -6.4050    -5.6750     1.0020 O.co2 1 <1>  -0.9000 
 19 C       -5.0200    -9.2450     1.3050 C.3   1 <1>   0.4270 
 20 C       -6.3250    -9.4920     0.5440 C.2   1 <1>  -0.2760 
 21 C       -4.8760   -10.2170     2.4680 C.3   1 <1>  -0.2400 
 22 C       -7.4630    -8.8020     0.7130 C.2   1 <1>  -0.2880 
 23 C       -6.2170   -10.6170    -0.4840 C.3   1 <1>  -0.0220 
 24 C       -8.7370    -9.0130    -0.0840 C.3   1 <1>  -0.0220 
 25 C       -7.5930   -11.0750    -0.9910 C.3   1 <1>  -0.1600 
 26 C       -8.4840    -9.8740    -1.3280 C.3   1 <1>  -0.1600 
 27 H       -2.3800    -0.8230     0.4080 H     1 <1>   0.1500 
 28 H       -0.5990    -5.2550    -0.7450 H     1 <1>   0.1500 
 29 H       -3.5110    -2.8500     1.2140 H     1 <1>   0.1500 
 30 H        2.2910    -2.8500    -2.9370 H     1 <1>   0.0800 
 31 H        1.9390    -1.7390    -1.6200 H     1 <1>   0.0800 
 32 H        0.8470    -1.8460    -3.0130 H     1 <1>   0.0800 
 33 H       -5.8660    -7.3990     1.5670 H     1 <1>   0.4000 
 34 H       -4.1900    -9.3630     0.6270 H     1 <1>   0.0800 
 35 H       -5.7140   -10.1100     3.1330 H     1 <1>   0.0800 
 36 H       -3.9670   -10.0060     3.0010 H     1 <1>   0.0800 
 37 H       -4.8410   -11.2280     2.1120 H     1 <1>   0.0800 
 38 H       -7.5750    -8.0080     1.4350 H     1 <1>   0.1500 
 39 H       -5.7120   -11.4660    -0.0600 H     1 <1>   0.0800 
 40 H       -5.6310   -10.2620    -1.3130 H     1 <1>   0.0800 
 41 H       -9.1240    -8.0560    -0.3890 H     1 <1>   0.0800 
 42 H       -9.4670    -9.4840     0.5500 H     1 <1>   0.0800 
 43 H       -8.0720   -11.6610    -0.2250 H     1 <1>   0.0800 
 44 H       -7.4680   -11.6970    -1.8590 H     1 <1>   0.0800 
 45 H       -7.9910    -9.2710    -2.0720 H     1 <1>   0.0800 
 46 H       -9.4220   -10.2070    -1.7340 H     1 <1>   0.0800 
@<TRIPOS>BOND
  1   1   2  1   
  2   2   3  ar  
  3   2   4  ar  
  4   3   5  1   
  5   3   6  ar  
  6   4   7  ar  
  7   4  27  1   
  8   5   8  1   
  9   6   9  ar  
 10   6  28  1   
 11   7   9  ar  
 12   7  29  1   
 13   8  30  1   
 14   8  31  1   
 15   8  32  1   
 16   9  10  1   
 17  10  11  1   
 18  10  12  2   
 19  11  13  1   
 20  12  14  1   
 21  12  15  1   
 22  13  14  2   
 23  14  16  1   
 24  15  17  ar  
 25  15  18  ar  
 26  16  19  1   
 27  16  33  1   
 28  19  20  1   
 29  19  21  1   
 30  19  34  1   
 31  20  22  2   
 32  20  23  1   
 33  21  35  1   
 34  21  36  1   
 35  21  37  1   
 36  22  24  1   
 37  22  38  1   
 38  23  25  1   
 39  23  39  1   
 40  23  40  1   
 41  24  26  1   
 42  24  41  1   
 43  24  42  1   
 44  25  26  1   
 45  25  43  1   
 46  25  44  1   
 47  26  45  1   
 48  26  46  1   
@<TRIPOS>SUBSTRUCTURE
  1 ****  12 GROUP 4 **** **** 0

# MOE 2024.06 (io_trps.svl 2023.06)
