@<TRIPOS>MOLECULE
NONAME
15 15 1 0 0 
SMALL
USER_CHARGES


@<TRIPOS>ATOM
  1 O        6.9560     7.4620    -0.0010 O.3   1 <1>  -0.6800 
  2 C        5.6890     6.8950     0.0000 C.3   1 <1>   0.2580 
  3 C        5.7910     5.3760     0.0000 C.2   1 <1>  -0.1380 
  4 C        6.8760     4.5920     0.0000 C.2   1 <1>  -0.2880 
  5 C        4.6240     4.5500     0.0000 C.2   1 <1>  -0.1500 
  6 C        6.4990     3.1180     0.0010 C.3   1 <1>   0.1160 
  7 C        4.9840     3.2620     0.0010 C.2   1 <1>  -0.2880 
  8 H        6.8930     8.4340    -0.0010 H     1 <1>   0.4000 
  9 H        5.1690     7.2300    -0.8810 H     1 <1>   0.0800 
 10 H        5.1690     7.2310     0.8800 H     1 <1>   0.0800 
 11 H        7.9120     4.8810     0.0000 H     1 <1>   0.1500 
 12 H        3.6270     4.9580     0.0000 H     1 <1>   0.1500 
 13 H        6.8510     2.6220     0.8880 H     1 <1>   0.0800 
 14 H        6.8510     2.6210    -0.8860 H     1 <1>   0.0800 
 15 H        4.3690     2.3800     0.0010 H     1 <1>   0.1500 
@<TRIPOS>BOND
  1   1   2  1   
  2   1   8  1   
  3   2   3  1   
  4   2   9  1   
  5   2  10  1   
  6   3   4  2   
  7   3   5  1   
  8   4   6  1   
  9   4  11  1   
 10   5   7  2   
 11   5  12  1   
 12   6   7  1   
 13   6  13  1   
 14   6  14  1   
 15   7  15  1   
@<TRIPOS>SUBSTRUCTURE
  1 ****   3 GROUP 4 **** **** 0

# MOE 2024.06 (io_trps.svl 2023.06)
