@<TRIPOS>MOLECULE
NONAME
61 63 1 0 0 
SMALL
USER_CHARGES


@<TRIPOS>ATOM
  1 O       -0.3680     0.5540     0.1480 O.2   1 <1>  -0.5700 
  2 C       -0.3890     1.7700     0.1480 C.2   1 <1>   0.6160 
  3 N       -1.5950     2.4140     0.3280 N.am  1 <1>  -0.6600 
  4 C        0.8480     2.5000    -0.0550 C.2   1 <1>   0.0140 
  5 C       -1.8270     3.8260    -0.0980 C.3   1 <1>   0.1400 
  6 C       -2.7880     1.6470     0.7910 C.3   1 <1>   0.1400 
  7 C        1.2200     3.5800     0.7010 C.2   1 <1>  -0.1360 
  8 C        1.7510     2.0860    -1.0810 C.2   1 <1>  -0.1500 
  9 C       -3.2730     3.9990    -0.5610 C.3   1 <1>  -0.1600 
 10 C       -3.7980     2.5720     1.4790 C.3   1 <1>  -0.1600 
 11 C        2.4270     4.2790     0.4630 C.2   1 <1>   0.6160 
 12 C        2.9150     2.7490    -1.3130 C.2   1 <1>  -0.0290 
 13 C       -4.2600     3.7630     0.6010 C.3   1 <1>   0.2800 
 14 O        2.7740     5.2570     1.1060 O.2   1 <1>  -0.5700 
 15 N        3.2350     3.8400    -0.5440 N.am  1 <1>  -0.5390 
 16 C        3.9070     2.3500    -2.3870 C.3   1 <1>  -0.1020 
 17 O       -4.1960     4.8800     1.4460 O.3   1 <1>  -0.5600 
 18 C       -5.7030     3.5630     0.0660 C.3   1 <1>  -0.1600 
 19 C       -4.9450     6.0220     1.1160 C.3   1 <1>   0.1200 
 20 C       -6.7890     4.2140     0.9400 C.3   1 <1>   0.3000 
 21 C       -6.4570     5.7340     1.0550 C.3   1 <1>   0.2000 
 22 N       -8.0770     4.0000     0.2390 N.am  1 <1>  -0.7300 
 23 C       -6.9100     3.4990     2.2980 C.3   1 <1>  -0.2400 
 24 O       -7.0880     6.3220     2.1480 O.3   1 <1>  -0.6800 
 25 C       -9.2990     4.5450     0.4800 C.2   1 <1>   0.5690 
 26 O       -9.4850     5.3910     1.3240 O.2   1 <1>  -0.5700 
 27 C      -10.4850     4.0580    -0.3510 C.3   1 <1>   0.1810 
 28 O      -10.0980     3.0660    -1.2760 O.3   1 <1>  -0.5600 
 29 C      -11.1430     2.5850    -2.0520 C.3   1 <1>   0.1200 
 30 C      -10.5680     1.5330    -2.9920 C.3   1 <1>  -0.2400 
 31 H       -1.6340     4.4860     0.7320 H     1 <1>   0.0800 
 32 H       -1.1590     4.0800    -0.9030 H     1 <1>   0.0800 
 33 H       -3.2440     1.1650    -0.0560 H     1 <1>   0.0800 
 34 H       -2.4780     0.8800     1.4820 H     1 <1>   0.0800 
 35 H        0.6140     3.9410     1.5100 H     1 <1>   0.1500 
 36 H        1.4720     1.2230    -1.6610 H     1 <1>   0.1500 
 37 H       -3.4570     3.2940    -1.3520 H     1 <1>   0.0800 
 38 H       -3.4020     4.9790    -0.9800 H     1 <1>   0.0800 
 39 H       -3.3310     2.9410     2.3760 H     1 <1>   0.0800 
 40 H       -4.6350     1.9760     1.7870 H     1 <1>   0.0800 
 41 H        4.0950     4.3730    -0.6710 H     1 <1>   0.3700 
 42 H        4.0380     3.1570    -3.0850 H     1 <1>   0.0800 
 43 H        3.5570     1.4860    -2.9230 H     1 <1>   0.0800 
 44 H        4.8560     2.1150    -1.9400 H     1 <1>   0.0800 
 45 H       -5.7650     4.0060    -0.9130 H     1 <1>   0.0800 
 46 H       -5.9000     2.5140    -0.0610 H     1 <1>   0.0800 
 47 H       -4.7400     6.7740     1.8570 H     1 <1>   0.0800 
 48 H       -4.6050     6.3850     0.1640 H     1 <1>   0.0800 
 49 H       -6.8410     6.2360     0.1850 H     1 <1>   0.0800 
 50 H       -8.0780     3.2550    -0.4650 H     1 <1>   0.3700 
 51 H       -6.0350     3.6760     2.8960 H     1 <1>   0.0800 
 52 H       -7.0330     2.4410     2.1640 H     1 <1>   0.0800 
 53 H       -7.7530     3.8740     2.8500 H     1 <1>   0.0800 
 54 H       -8.0540     6.1030     2.0850 H     1 <1>   0.4000 
 55 H      -10.9000     4.8900    -0.8900 H     1 <1>   0.0800 
 56 H      -11.2280     3.6460     0.3070 H     1 <1>   0.0800 
 57 H      -11.8880     2.1500    -1.4060 H     1 <1>   0.0800 
 58 H      -11.5690     3.4010    -2.6120 H     1 <1>   0.0800 
 59 H      -10.1350     0.7280    -2.4260 H     1 <1>   0.0800 
 60 H       -9.8180     1.9720    -3.6250 H     1 <1>   0.0800 
 61 H      -11.3500     1.1340    -3.6130 H     1 <1>   0.0800 
@<TRIPOS>BOND
  1   1   2  2   
  2   2   3  am  
  3   2   4  1   
  4   3   5  1   
  5   3   6  1   
  6   4   7  2   
  7   4   8  1   
  8   5   9  1   
  9   5  31  1   
 10   5  32  1   
 11   6  10  1   
 12   6  33  1   
 13   6  34  1   
 14   7  11  1   
 15   7  35  1   
 16   8  12  2   
 17   8  36  1   
 18   9  13  1   
 19   9  37  1   
 20   9  38  1   
 21  10  13  1   
 22  10  39  1   
 23  10  40  1   
 24  11  14  2   
 25  11  15  am  
 26  12  15  1   
 27  12  16  1   
 28  13  17  1   
 29  13  18  1   
 30  15  41  1   
 31  16  42  1   
 32  16  43  1   
 33  16  44  1   
 34  17  19  1   
 35  18  20  1   
 36  18  45  1   
 37  18  46  1   
 38  19  21  1   
 39  19  47  1   
 40  19  48  1   
 41  20  21  1   
 42  20  22  1   
 43  20  23  1   
 44  21  24  1   
 45  21  49  1   
 46  22  25  am  
 47  22  50  1   
 48  23  51  1   
 49  23  52  1   
 50  23  53  1   
 51  24  54  1   
 52  25  26  2   
 53  25  27  1   
 54  27  28  1   
 55  27  55  1   
 56  27  56  1   
 57  28  29  1   
 58  29  30  1   
 59  29  57  1   
 60  29  58  1   
 61  30  59  1   
 62  30  60  1   
 63  30  61  1   
@<TRIPOS>SUBSTRUCTURE
  1 ****  13 GROUP 4 **** **** 0

# MOE 2024.06 (io_trps.svl 2023.06)
