@<TRIPOS>MOLECULE
NONAME
54 57 1 0 0 
SMALL
USER_CHARGES


@<TRIPOS>ATOM
  1 O       -2.9790    -2.1410    -1.8170 O.2   1 <1>  -0.5700 
  2 C       -2.2440    -1.8790    -0.8950 C.2   1 <1>   0.5690 
  3 N       -1.3400    -2.8080    -0.4560 N.am  1 <1>  -0.6600 
  4 C       -2.3790    -0.5400    -0.1780 C.3   1 <1>  -0.0190 
  5 C       -1.4340    -3.3100     0.9520 C.3   1 <1>   0.2200 
  6 C       -0.6780    -3.6800    -1.4630 C.3   1 <1>   0.1400 
  7 C       -3.6540    -0.4200     0.6860 C.3   1 <1>  -0.0220 
  8 C       -2.3770     0.6820    -1.1240 C.3   1 <1>  -0.0220 
  9 C       -0.2220    -4.1760     1.3880 C.3   1 <1>   0.1200 
 10 C       -2.7970    -4.0330     1.1430 C.3   1 <1>   0.3430 
 11 C       -1.0630    -5.1520    -1.2960 C.3   1 <1>  -0.0800 
 12 C       -4.0270     1.0310     0.5250 C.2   1 <1>  -0.2880 
 13 C       -3.3420     1.6220    -0.4450 C.2   1 <1>  -0.2880 
 14 O       -0.3630    -5.5280     1.0320 O.3   1 <1>  -0.5600 
 15 N       -2.9300    -5.3400     0.4130 N.4   1 <1>  -0.9590 
 16 C       -0.1210    -5.8700    -0.3040 C.3   1 <1>   0.1200 
 17 C       -2.5770    -5.3250    -1.0450 C.3   1 <1>   0.3430 
 18 C       -4.2150    -6.0260     0.6730 C.3   1 <1>   0.5240 
 19 C       -4.0340    -7.4690     0.2690 C.2   1 <1>  -0.1810 
 20 C       -4.6570    -8.1200    -0.7910 C.2   1 <1>   0.1080 
 21 C       -3.2320    -8.4060     0.8230 C.2   1 <1>  -0.3020 
 22 N       -4.2660    -9.3470    -0.8950 N.2   1 <1>  -0.7070 
 23 C       -5.6750    -7.5370    -1.7480 C.3   1 <1>  -0.0590 
 24 N       -3.3940    -9.5350     0.1060 N.pl3 1 <1>   0.3140 
 25 C       -2.7490   -10.8350     0.3260 C.3   1 <1>   0.0160 
 26 H       -1.5350    -0.4110     0.4750 H     1 <1>   0.0800 
 27 H       -1.4340    -2.4470     1.5940 H     1 <1>   0.0800 
 28 H       -0.9590    -3.3570    -2.4530 H     1 <1>   0.0800 
 29 H        0.3900    -3.5600    -1.3910 H     1 <1>   0.0800 
 30 H       -4.4520    -1.0330     0.3040 H     1 <1>   0.0800 
 31 H       -3.4560    -0.6580     1.7150 H     1 <1>   0.0800 
 32 H       -1.3940     1.1120    -1.2020 H     1 <1>   0.0800 
 33 H       -2.7470     0.4370    -2.1050 H     1 <1>   0.0800 
 34 H       -0.1530    -4.1560     2.4610 H     1 <1>   0.0800 
 35 H        0.7040    -3.7910     0.9940 H     1 <1>   0.0800 
 36 H       -3.5820    -3.3670     0.8260 H     1 <1>   0.0800 
 37 H       -2.9290    -4.2150     2.1970 H     1 <1>   0.0800 
 38 H       -0.8670    -5.5990    -2.2550 H     1 <1>   0.0800 
 39 H       -4.7870     1.4520     1.1630 H     1 <1>   0.1500 
 40 H       -3.4060     2.6400    -0.7930 H     1 <1>   0.1500 
 41 H       -2.1920    -5.9420     0.8260 H     1 <1>   0.4500 
 42 H        0.9110    -5.6540    -0.5260 H     1 <1>   0.0800 
 43 H       -0.2580    -6.9360    -0.3830 H     1 <1>   0.0800 
 44 H       -2.8690    -6.2650    -1.4840 H     1 <1>   0.0800 
 45 H       -3.1230    -4.5450    -1.5530 H     1 <1>   0.0800 
 46 H       -4.4570    -5.9820     1.7220 H     1 <1>   0.0800 
 47 H       -5.0110    -5.5690     0.1090 H     1 <1>   0.0800 
 48 H       -2.5680    -8.3500     1.6680 H     1 <1>   0.1500 
 49 H       -5.4660    -6.5050    -1.9570 H     1 <1>   0.0800 
 50 H       -6.6590    -7.6270    -1.3270 H     1 <1>   0.0800 
 51 H       -5.6520    -8.0850    -2.6740 H     1 <1>   0.0800 
 52 H       -2.1200   -10.7880     1.1940 H     1 <1>   0.0800 
 53 H       -2.1640   -11.0840    -0.5390 H     1 <1>   0.0800 
 54 H       -3.5100   -11.5800     0.4670 H     1 <1>   0.0800 
@<TRIPOS>BOND
  1   1   2  2   
  2   2   3  am  
  3   2   4  1   
  4   3   5  1   
  5   3   6  1   
  6   4   7  1   
  7   4   8  1   
  8   4  26  1   
  9   5   9  1   
 10   5  10  1   
 11   5  27  1   
 12   6  11  1   
 13   6  28  1   
 14   6  29  1   
 15   7  12  1   
 16   7  30  1   
 17   7  31  1   
 18   8  13  1   
 19   8  32  1   
 20   8  33  1   
 21   9  14  1   
 22   9  34  1   
 23   9  35  1   
 24  10  15  1   
 25  10  36  1   
 26  10  37  1   
 27  11  16  1   
 28  11  17  1   
 29  11  38  1   
 30  12  13  2   
 31  12  39  1   
 32  13  40  1   
 33  14  16  1   
 34  15  17  1   
 35  15  18  1   
 36  15  41  1   
 37  16  42  1   
 38  16  43  1   
 39  17  44  1   
 40  17  45  1   
 41  18  19  1   
 42  18  46  1   
 43  18  47  1   
 44  19  20  1   
 45  19  21  2   
 46  20  22  2   
 47  20  23  1   
 48  21  24  1   
 49  21  48  1   
 50  22  24  1   
 51  23  49  1   
 52  23  50  1   
 53  23  51  1   
 54  24  25  1   
 55  25  52  1   
 56  25  53  1   
 57  25  54  1   
@<TRIPOS>SUBSTRUCTURE
  1 ****  15 GROUP 4 **** **** 0

# MOE 2024.06 (io_trps.svl 2023.06)
