@<TRIPOS>MOLECULE
NONAME
47 50 1 0 0 
SMALL
USER_CHARGES


@<TRIPOS>ATOM
  1 O       -1.8250     1.5140     0.3270 O.2   1 <1>  -0.5700 
  2 C       -0.8810     2.1450    -0.0950 C.2   1 <1>   0.9370 
  3 N        0.1350     1.4320    -0.7670 N.pl3 1 <1>  -0.5760 
  4 C       -0.7680     3.5520     0.0580 C.2   1 <1>   0.0290 
  5 C        1.2310     2.0880    -1.2280 C.cat 1 <1>   0.7390 
  6 C        0.0430     0.0700    -0.9520 C.2   1 <1>   0.1910 
  7 C       -1.7820     4.2760     0.7430 C.2   1 <1>   0.6160 
  8 C        0.3480     4.1610    -0.4060 C.2   1 <1>   0.1910 
  9 N        1.3170     3.4280    -1.0410 N.pl3 1 <1>  -0.6450 
 10 C        2.2470     1.3820    -1.8860 C.2   1 <1>  -0.1800 
 11 C        1.0260    -0.6320    -1.5920 C.2   1 <1>  -0.1500 
 12 O       -1.4270     4.9160     1.7120 O.2   1 <1>  -0.5700 
 13 N       -3.0930     4.3420     0.3250 N.am  1 <1>  -0.6600 
 14 C        2.1580     0.0290    -2.0750 C.2   1 <1>  -0.1500 
 15 C       -3.6020     3.8960    -1.0060 C.3   1 <1>   0.1400 
 16 C       -4.1470     4.9800     1.1690 C.3   1 <1>   0.1400 
 17 C       -4.7440     2.8960    -0.8080 C.3   1 <1>  -0.1600 
 18 C       -5.2950     3.9910     1.3820 C.3   1 <1>  -0.1600 
 19 C       -5.8640     3.4900     0.0480 C.3   1 <1>   0.4180 
 20 O       -6.3700     4.5800    -0.6840 O.3   1 <1>  -0.5600 
 21 C       -6.9510     2.4420     0.2700 C.2   1 <1>  -0.2880 
 22 C       -7.6540     5.0340    -0.3560 C.3   1 <1>   0.1200 
 23 C       -8.2370     2.6210    -0.0420 C.2   1 <1>  -0.2760 
 24 C       -8.6990     3.9430    -0.6260 C.3   1 <1>  -0.0220 
 25 C       -9.3190     1.5710     0.1370 C.3   1 <1>  -0.1020 
 26 H       -0.8280    -0.4530    -0.5790 H     1 <1>   0.1500 
 27 H        0.5010     5.2250    -0.2820 H     1 <1>   0.1500 
 28 H        2.1640     3.8990    -1.3800 H     1 <1>   0.4500 
 29 H        3.1080     1.9150    -2.2470 H     1 <1>   0.1500 
 30 H        0.9410    -1.6980    -1.7300 H     1 <1>   0.1500 
 31 H        2.9320    -0.5300    -2.5800 H     1 <1>   0.1500 
 32 H       -2.8250     3.4470    -1.5950 H     1 <1>   0.0800 
 33 H       -3.9690     4.7550    -1.5440 H     1 <1>   0.0800 
 34 H       -4.5120     5.8640     0.6730 H     1 <1>   0.0800 
 35 H       -3.7510     5.2750     2.1260 H     1 <1>   0.0800 
 36 H       -4.3640     2.0100    -0.3360 H     1 <1>   0.0800 
 37 H       -5.1490     2.6090    -1.7610 H     1 <1>   0.0800 
 38 H       -6.0700     4.4450     1.9680 H     1 <1>   0.0800 
 39 H       -4.9240     3.1530     1.9440 H     1 <1>   0.0800 
 40 H       -6.5720     1.5330     0.6990 H     1 <1>   0.1500 
 41 H       -7.8590     5.9040    -0.9540 H     1 <1>   0.0800 
 42 H       -7.6650     5.3170     0.6810 H     1 <1>   0.0800 
 43 H       -8.8530     3.8400    -1.6850 H     1 <1>   0.0800 
 44 H       -9.6290     4.2440    -0.1780 H     1 <1>   0.0800 
 45 H       -9.7760     1.3460    -0.8100 H     1 <1>   0.0800 
 46 H      -10.0760     1.9280     0.8130 H     1 <1>   0.0800 
 47 H       -8.9030     0.6650     0.5390 H     1 <1>   0.0800 
@<TRIPOS>BOND
  1   1   2  2   
  2   2   3  1   
  3   2   4  1   
  4   3   5  ar  
  5   3   6  1   
  6   4   7  1   
  7   4   8  2   
  8   5   9  ar  
  9   5  10  1   
 10   6  11  2   
 11   6  26  1   
 12   7  12  2   
 13   7  13  am  
 14   8   9  1   
 15   8  27  1   
 16   9  28  1   
 17  10  14  2   
 18  10  29  1   
 19  11  14  1   
 20  11  30  1   
 21  13  15  1   
 22  13  16  1   
 23  14  31  1   
 24  15  17  1   
 25  15  32  1   
 26  15  33  1   
 27  16  18  1   
 28  16  34  1   
 29  16  35  1   
 30  17  19  1   
 31  17  36  1   
 32  17  37  1   
 33  18  19  1   
 34  18  38  1   
 35  18  39  1   
 36  19  20  1   
 37  19  21  1   
 38  20  22  1   
 39  21  23  2   
 40  21  40  1   
 41  22  24  1   
 42  22  41  1   
 43  22  42  1   
 44  23  24  1   
 45  23  25  1   
 46  24  43  1   
 47  24  44  1   
 48  25  45  1   
 49  25  46  1   
 50  25  47  1   
@<TRIPOS>SUBSTRUCTURE
  1 ****  15 GROUP 4 **** **** 0

# MOE 2024.06 (io_trps.svl 2023.06)
