@<TRIPOS>MOLECULE
NONAME
50 52 1 0 0 
SMALL
USER_CHARGES


@<TRIPOS>ATOM
  1 O        0.0400    -0.1980    -1.1670 O.2   1 <1>  -0.5700 
  2 C        0.1010    -1.3830    -1.4180 C.2   1 <1>   0.5440 
  3 N       -0.4240    -1.7580    -2.6060 N.am  1 <1>  -0.8000 
  4 C        0.7180    -2.3200    -0.5040 C.ar  1 <1>   0.0860 
  5 C        0.3320    -3.6740    -0.3900 C.ar  1 <1>   0.4100 
  6 C        1.7590    -1.8860     0.3050 C.ar  1 <1>  -0.1500 
  7 N        0.9440    -4.5520     0.4110 N.ar  1 <1>  -0.6200 
  8 N       -0.7540    -4.2090    -1.0780 N.pl3 1 <1>  -0.8380 
  9 C        2.3710    -2.7890     1.1400 C.ar  1 <1>  -0.1500 
 10 C        1.9350    -4.1010     1.1520 C.ar  1 <1>   0.1670 
 11 C       -0.7000    -5.6360    -1.5100 C.3   1 <1>   0.2090 
 12 C       -2.1130    -3.7500    -0.6650 C.3   1 <1>   0.2090 
 13 C        2.6070    -5.1100     2.0600 C.3   1 <1>  -0.0970 
 14 C       -1.2320    -6.5650    -0.3880 C.3   1 <1>   0.4230 
 15 C       -2.6270    -4.6540     0.4600 C.3   1 <1>  -0.1600 
 16 N       -1.0720    -8.0550    -0.6790 N.4   1 <1>  -0.9590 
 17 C       -2.6610    -6.1630     0.0830 C.3   1 <1>   0.0000 
 18 C       -1.9230    -8.9420     0.1800 C.3   1 <1>   0.3430 
 19 C       -1.2070    -8.4530    -2.1180 C.3   1 <1>   0.2630 
 20 C       -3.0370    -6.9800     1.3540 C.3   1 <1>  -0.1600 
 21 C       -3.6910    -6.4180    -1.0530 C.3   1 <1>   0.1200 
 22 C       -2.2240    -8.2780     1.5220 C.3   1 <1>  -0.1600 
 23 O       -4.9240    -5.8610    -0.7610 O.3   1 <1>  -0.6800 
 24 H       -0.8710    -1.0610    -3.2020 H     1 <1>   0.3700 
 25 H       -0.5900    -2.7460    -2.8060 H     1 <1>   0.3700 
 26 H        2.0800    -0.8580     0.2710 H     1 <1>   0.1500 
 27 H        3.1810    -2.4730     1.7730 H     1 <1>   0.1500 
 28 H       -1.2770    -5.7400    -2.4100 H     1 <1>   0.0800 
 29 H        0.3220    -5.8910    -1.7320 H     1 <1>   0.0800 
 30 H       -2.0700    -2.7330    -0.3110 H     1 <1>   0.0800 
 31 H       -2.7820    -3.7740    -1.5100 H     1 <1>   0.0800 
 32 H        3.3950    -4.6540     2.6300 H     1 <1>   0.0800 
 33 H        3.0250    -5.9050     1.4700 H     1 <1>   0.0800 
 34 H        1.8840    -5.5220     2.7400 H     1 <1>   0.0800 
 35 H       -0.5990    -6.3600     0.4590 H     1 <1>   0.0800 
 36 H       -1.9810    -4.5040     1.3080 H     1 <1>   0.0800 
 37 H       -3.6040    -4.3130     0.7550 H     1 <1>   0.0800 
 38 H       -0.0970    -8.2520    -0.4050 H     1 <1>   0.4500 
 39 H       -2.8570    -9.1440    -0.3170 H     1 <1>   0.0800 
 40 H       -1.4230    -9.8840     0.3420 H     1 <1>   0.0800 
 41 H       -2.1960    -8.2270    -2.4810 H     1 <1>   0.0800 
 42 H       -1.0350    -9.5120    -2.2290 H     1 <1>   0.0800 
 43 H       -0.4860    -7.9300    -2.7250 H     1 <1>   0.0800 
 44 H       -2.8840    -6.3910     2.2430 H     1 <1>   0.0800 
 45 H       -4.0850    -7.2250     1.3390 H     1 <1>   0.0800 
 46 H       -3.8440    -7.4700    -1.2160 H     1 <1>   0.0800 
 47 H       -3.3740    -5.9740    -1.9790 H     1 <1>   0.0800 
 48 H       -2.7790    -8.9630     2.1410 H     1 <1>   0.0800 
 49 H       -1.2980    -8.0730     2.0310 H     1 <1>   0.0800 
 50 H       -5.3110    -6.2280     0.0590 H     1 <1>   0.4000 
@<TRIPOS>BOND
  1   1   2  2   
  2   2   3  am  
  3   2   4  1   
  4   3  24  1   
  5   3  25  1   
  6   4   5  ar  
  7   4   6  ar  
  8   5   7  ar  
  9   5   8  1   
 10   6   9  ar  
 11   6  26  1   
 12   7  10  ar  
 13   8  11  1   
 14   8  12  1   
 15   9  10  ar  
 16   9  27  1   
 17  10  13  1   
 18  11  14  1   
 19  11  28  1   
 20  11  29  1   
 21  12  15  1   
 22  12  30  1   
 23  12  31  1   
 24  13  32  1   
 25  13  33  1   
 26  13  34  1   
 27  14  16  1   
 28  14  17  1   
 29  14  35  1   
 30  15  17  1   
 31  15  36  1   
 32  15  37  1   
 33  16  18  1   
 34  16  19  1   
 35  16  38  1   
 36  17  20  1   
 37  17  21  1   
 38  18  22  1   
 39  18  39  1   
 40  18  40  1   
 41  19  41  1   
 42  19  42  1   
 43  19  43  1   
 44  20  22  1   
 45  20  44  1   
 46  20  45  1   
 47  21  23  1   
 48  21  46  1   
 49  21  47  1   
 50  22  48  1   
 51  22  49  1   
 52  23  50  1   
@<TRIPOS>SUBSTRUCTURE
  1 ****   8 GROUP 4 **** **** 0

# MOE 2024.06 (io_trps.svl 2023.06)
