@<TRIPOS>MOLECULE
NONAME
50 52 1 0 0 
SMALL
USER_CHARGES


@<TRIPOS>ATOM
  1 O       -1.6920    -1.1710     1.8430 O.2   1 <1>  -0.5700 
  2 C       -1.2970    -1.4920     0.7490 C.2   1 <1>   0.5690 
  3 N       -2.0760    -1.7220    -0.3400 N.am  1 <1>  -0.6600 
  4 C        0.1580    -1.6840     0.4270 C.3   1 <1>  -0.0990 
  5 C       -1.2780    -2.1070    -1.5220 C.3   1 <1>   0.1400 
  6 C       -3.5620    -1.6540    -0.4550 C.3   1 <1>   0.1400 
  7 C        0.1390    -2.3170    -0.9730 C.3   1 <1>  -0.1600 
  8 C       -4.2330    -1.0130     0.7750 C.3   1 <1>   0.3430 
  9 N       -5.7160    -0.8870     0.6360 N.4   1 <1>  -0.9590 
 10 C       -6.2820     0.0450     1.6510 C.3   1 <1>   0.3430 
 11 C       -6.4460    -2.1800     0.6330 C.3   1 <1>   0.3430 
 12 C       -7.8080     0.1410     1.5180 C.3   1 <1>  -0.1600 
 13 C       -7.8950    -1.9550     0.1840 C.3   1 <1>  -0.1600 
 14 C       -8.3500    -0.4820     0.2130 C.3   1 <1>   0.2800 
 15 O       -7.7310     0.1280    -0.8950 O.3   1 <1>  -0.5600 
 16 C       -9.8850    -0.4220     0.0600 C.3   1 <1>  -0.1600 
 17 C       -8.1110     1.4390    -1.2150 C.3   1 <1>   0.1200 
 18 C      -10.4320     0.9410    -0.3730 C.3   1 <1>   0.2800 
 19 C       -9.6060     1.4860    -1.5360 C.3   1 <1>  -0.1600 
 20 O      -10.3190     1.8110     0.6840 O.3   1 <1>  -0.6800 
 21 C      -11.9190     0.8710    -0.7150 C.3   1 <1>  -0.2400 
 22 H        0.6260    -2.3260     1.1520 H     1 <1>   0.0800 
 23 H        0.6440    -0.7260     0.4150 H     1 <1>   0.0800 
 24 H       -1.2930    -1.3070    -2.2440 H     1 <1>   0.0800 
 25 H       -1.6600    -3.0100    -1.9670 H     1 <1>   0.0800 
 26 H       -3.9310    -2.6550    -0.5890 H     1 <1>   0.0800 
 27 H       -3.8060    -1.0730    -1.3270 H     1 <1>   0.0800 
 28 H        0.3310    -3.3730    -0.8960 H     1 <1>   0.0800 
 29 H        0.8800    -1.8820    -1.6210 H     1 <1>   0.0800 
 30 H       -3.8030    -0.0340     0.9140 H     1 <1>   0.0800 
 31 H       -4.0010    -1.6010     1.6480 H     1 <1>   0.0800 
 32 H       -5.9620    -0.4420    -0.2710 H     1 <1>   0.4500 
 33 H       -5.8570     1.0250     1.5030 H     1 <1>   0.0800 
 34 H       -6.0250    -0.2850     2.6450 H     1 <1>   0.0800 
 35 H       -6.4340    -2.5990     1.6260 H     1 <1>   0.0800 
 36 H       -5.9730    -2.8810    -0.0350 H     1 <1>   0.0800 
 37 H       -8.0980     1.1690     1.6190 H     1 <1>   0.0800 
 38 H       -8.2510    -0.3710     2.3520 H     1 <1>   0.0800 
 39 H       -8.5260    -2.5380     0.8300 H     1 <1>   0.0800 
 40 H       -8.0260    -2.3460    -0.8100 H     1 <1>   0.0800 
 41 H      -10.3640    -0.7300     0.9720 H     1 <1>   0.0800 
 42 H      -10.1680    -1.1360    -0.6940 H     1 <1>   0.0800 
 43 H       -7.5410     1.7450    -2.0750 H     1 <1>   0.0800 
 44 H       -7.8710     2.0930    -0.3950 H     1 <1>   0.0800 
 45 H       -9.7820     0.8920    -2.4150 H     1 <1>   0.0800 
 46 H       -9.9020     2.4940    -1.7640 H     1 <1>   0.0800 
 47 H      -10.8610     2.6040     0.5070 H     1 <1>   0.4000 
 48 H      -12.0780     0.1900    -1.5320 H     1 <1>   0.0800 
 49 H      -12.2900     1.8350    -1.0100 H     1 <1>   0.0800 
 50 H      -12.4820     0.5160     0.1300 H     1 <1>   0.0800 
@<TRIPOS>BOND
  1   1   2  2   
  2   2   3  am  
  3   2   4  1   
  4   3   5  1   
  5   3   6  1   
  6   4   7  1   
  7   4  22  1   
  8   4  23  1   
  9   5   7  1   
 10   5  24  1   
 11   5  25  1   
 12   6   8  1   
 13   6  26  1   
 14   6  27  1   
 15   7  28  1   
 16   7  29  1   
 17   8   9  1   
 18   8  30  1   
 19   8  31  1   
 20   9  10  1   
 21   9  11  1   
 22   9  32  1   
 23  10  12  1   
 24  10  33  1   
 25  10  34  1   
 26  11  13  1   
 27  11  35  1   
 28  11  36  1   
 29  12  14  1   
 30  12  37  1   
 31  12  38  1   
 32  13  14  1   
 33  13  39  1   
 34  13  40  1   
 35  14  15  1   
 36  14  16  1   
 37  15  17  1   
 38  16  18  1   
 39  16  41  1   
 40  16  42  1   
 41  17  19  1   
 42  17  43  1   
 43  17  44  1   
 44  18  19  1   
 45  18  20  1   
 46  18  21  1   
 47  19  45  1   
 48  19  46  1   
 49  20  47  1   
 50  21  48  1   
 51  21  49  1   
 52  21  50  1   
@<TRIPOS>SUBSTRUCTURE
  1 ****   9 GROUP 4 **** **** 0

# MOE 2024.06 (io_trps.svl 2023.06)
