@<TRIPOS>MOLECULE
NONAME
51 53 1 0 0 
SMALL
USER_CHARGES


@<TRIPOS>ATOM
  1 S       -0.6590     0.0370     0.8020 S.o2  1 <1>   1.4470 
  2 O       -0.6870     1.2380     1.6090 O.2   1 <1>  -0.6500 
  3 O       -1.1790    -1.1830     1.3800 O.2   1 <1>  -0.6500 
  4 N       -1.5180     0.3640    -0.6220 N.am  1 <1>  -0.8490 
  5 C        1.0330    -0.2550     0.2090 C.ar  1 <1>  -0.0090 
  6 C       -2.7920    -0.3570    -0.7560 C.3   1 <1>   0.3370 
  7 C       -1.8060     1.7650    -0.8740 C.3   1 <1>   0.1960 
  8 C        2.1280     0.2790     0.8870 C.ar  1 <1>  -0.1500 
  9 C        1.2740    -1.0320    -0.9230 C.ar  1 <1>  -0.1500 
 10 C       -2.6770    -1.8880    -1.0230 C.2   1 <1>   0.5690 
 11 C       -3.5040     0.3760    -1.8990 C.3   1 <1>  -0.1600 
 12 C       -2.8240     1.7420    -2.0050 C.3   1 <1>  -0.1600 
 13 C        3.4250     0.0530     0.4520 C.ar  1 <1>  -0.1500 
 14 C        2.5620    -1.2700    -1.3740 C.ar  1 <1>  -0.1500 
 15 O       -1.9540    -2.2470    -1.9290 O.2   1 <1>  -0.5700 
 16 N       -3.3770    -2.8180    -0.2840 N.am  1 <1>  -0.6600 
 17 C        3.6170    -0.7200    -0.6750 C.ar  1 <1>   0.1900 
 18 C       -3.2060    -4.2670    -0.5850 C.3   1 <1>   0.3200 
 19 C       -4.1460    -2.4800     0.9550 C.3   1 <1>   0.1400 
 20 F        4.8350    -0.9370    -1.0920 F     1 <1>  -0.1900 
 21 C       -4.5250    -4.9980    -0.4390 C.2   1 <1>  -0.3320 
 22 C       -5.5730    -2.0400     0.6030 C.3   1 <1>   0.1200 
 23 N       -4.8320    -5.8190     0.5830 N.pl3 1 <1>   0.0330 
 24 C       -5.6060    -4.9800    -1.2480 C.2   1 <1>   0.0770 
 25 O       -6.1110    -1.3320     1.6680 O.3   1 <1>  -0.6800 
 26 C       -6.0920    -6.2370     0.3350 C.2   1 <1>   0.0060 
 27 N       -6.5910    -5.7510    -0.7530 N.2   1 <1>  -0.5650 
 28 C       -6.8370    -7.1870     1.2480 C.3   1 <1>  -0.0600 
 29 H       -3.3600    -0.1760     0.1380 H     1 <1>   0.0800 
 30 H       -0.9120     2.3040    -1.1430 H     1 <1>   0.0800 
 31 H       -2.2520     2.2180    -0.0030 H     1 <1>   0.0800 
 32 H        1.9620     0.8790     1.7670 H     1 <1>   0.1500 
 33 H        0.4410    -1.4570    -1.4600 H     1 <1>   0.1500 
 34 H       -4.5550     0.4660    -1.6890 H     1 <1>   0.0800 
 35 H       -3.3830    -0.1640    -2.8230 H     1 <1>   0.0800 
 36 H       -2.3120     1.8280    -2.9480 H     1 <1>   0.0800 
 37 H       -3.5230     2.5540    -1.9110 H     1 <1>   0.0800 
 38 H        4.2690     0.4660     0.9750 H     1 <1>   0.1500 
 39 H        2.7440    -1.8680    -2.2490 H     1 <1>   0.1500 
 40 H       -2.4660    -4.6810     0.0780 H     1 <1>   0.0800 
 41 H       -2.8550    -4.4020    -1.5950 H     1 <1>   0.0800 
 42 H       -3.6450    -1.6940     1.4900 H     1 <1>   0.0800 
 43 H       -4.1810    -3.3320     1.6100 H     1 <1>   0.0800 
 44 H       -6.2080    -2.8850     0.3970 H     1 <1>   0.0800 
 45 H       -5.5670    -1.3820    -0.2470 H     1 <1>   0.0800 
 46 H       -4.2450    -6.0840     1.3790 H     1 <1>   0.2700 
 47 H       -5.7300    -4.4390    -2.1720 H     1 <1>   0.1500 
 48 H       -6.3800    -1.9370     2.3870 H     1 <1>   0.4000 
 49 H       -6.9450    -6.7540     2.2250 H     1 <1>   0.0800 
 50 H       -6.3070    -8.1180     1.3240 H     1 <1>   0.0800 
 51 H       -7.8160    -7.3810     0.8470 H     1 <1>   0.0800 
@<TRIPOS>BOND
  1   1   2  2   
  2   1   3  2   
  3   1   4  am  
  4   1   5  1   
  5   4   6  1   
  6   4   7  1   
  7   5   8  ar  
  8   5   9  ar  
  9   6  10  1   
 10   6  11  1   
 11   6  29  1   
 12   7  12  1   
 13   7  30  1   
 14   7  31  1   
 15   8  13  ar  
 16   8  32  1   
 17   9  14  ar  
 18   9  33  1   
 19  10  15  2   
 20  10  16  am  
 21  11  12  1   
 22  11  34  1   
 23  11  35  1   
 24  12  36  1   
 25  12  37  1   
 26  13  17  ar  
 27  13  38  1   
 28  14  17  ar  
 29  14  39  1   
 30  16  18  1   
 31  16  19  1   
 32  17  20  1   
 33  18  21  1   
 34  18  40  1   
 35  18  41  1   
 36  19  22  1   
 37  19  42  1   
 38  19  43  1   
 39  21  23  1   
 40  21  24  2   
 41  22  25  1   
 42  22  44  1   
 43  22  45  1   
 44  23  26  1   
 45  23  46  1   
 46  24  27  1   
 47  24  47  1   
 48  25  48  1   
 49  26  27  2   
 50  26  28  1   
 51  28  49  1   
 52  28  50  1   
 53  28  51  1   
@<TRIPOS>SUBSTRUCTURE
  1 ****  10 GROUP 4 **** **** 0

# MOE 2024.06 (io_trps.svl 2023.06)
