@<TRIPOS>MOLECULE
NONAME
58 61 1 0 0 
SMALL
USER_CHARGES


@<TRIPOS>ATOM
  1 O       -1.4030     0.2720    -1.5360 O.2   1 <1>  -0.5700 
  2 C       -1.6960     0.6310    -0.4090 C.2   1 <1>   0.7160 
  3 N       -2.1540    -0.3090     0.4940 N.am  1 <1>  -0.6600 
  4 C       -1.5350     2.0060    -0.0630 C.2   1 <1>  -0.0860 
  5 C       -2.4150    -1.7230     0.1050 C.3   1 <1>   0.1400 
  6 C       -2.5260     0.0100     1.8990 C.3   1 <1>   0.1400 
  7 C       -2.5760     2.9120     0.1600 C.2   1 <1>   0.3720 
  8 C       -0.4120     2.7500     0.1240 C.2   1 <1>   0.0870 
  9 C       -3.9080    -2.0520     0.2810 C.3   1 <1>  -0.0800 
 10 C       -4.0100    -0.3000     2.1160 C.3   1 <1>  -0.1600 
 11 N       -2.1160     4.0730     0.4710 N.2   1 <1>  -0.4100 
 12 N       -3.9420     2.6120     0.0770 N.pl3 1 <1>  -0.8210 
 13 O       -0.8160     3.9560     0.4380 O.3   1 <1>  -0.0190 
 14 C        1.0020     2.4560     0.0510 C.ar  1 <1>   0.0530 
 15 C       -4.3620    -1.7430     1.7220 C.3   1 <1>  -0.1600 
 16 C       -4.1650    -3.5210    -0.1100 C.3   1 <1>  -0.1600 
 17 C       -4.4260     2.2350    -1.2870 C.3   1 <1>   0.2090 
 18 C       -4.8720     3.6050     0.6990 C.3   1 <1>   0.2090 
 19 C        1.4960     1.1500     0.0490 C.ar  1 <1>  -0.1500 
 20 C        1.9410     3.4880    -0.0160 C.ar  1 <1>  -0.1500 
 21 C       -5.6580    -3.8910    -0.1500 C.3   1 <1>  -0.1600 
 22 C       -5.8950     1.7800    -1.2360 C.3   1 <1>   0.1200 
 23 C       -6.3230     3.0940     0.6610 C.3   1 <1>   0.1200 
 24 C        2.8520     0.8880    -0.0170 C.ar  1 <1>  -0.1500 
 25 C        3.2980     3.2340    -0.0800 C.ar  1 <1>  -0.1500 
 26 C       -5.8530    -5.3140    -0.6740 C.3   1 <1>   0.1200 
 27 O       -6.7050     2.7590    -0.6450 O.3   1 <1>  -0.5600 
 28 C        3.7590     1.9300    -0.0820 C.ar  1 <1>  -0.1500 
 29 O       -7.2070    -5.5830    -0.7100 O.3   1 <1>  -0.6800 
 30 H       -1.8220    -2.3700     0.7280 H     1 <1>   0.0800 
 31 H       -2.1270    -1.8960    -0.9180 H     1 <1>   0.0800 
 32 H       -2.3380     1.0440     2.1310 H     1 <1>   0.0800 
 33 H       -1.9290    -0.5910     2.5630 H     1 <1>   0.0800 
 34 H       -4.4570    -1.4220    -0.3990 H     1 <1>   0.0800 
 35 H       -4.5950     0.3860     1.5300 H     1 <1>   0.0800 
 36 H       -4.2580    -0.1370     3.1490 H     1 <1>   0.0800 
 37 H       -3.8810    -2.4220     2.4040 H     1 <1>   0.0800 
 38 H       -5.4250    -1.8720     1.8160 H     1 <1>   0.0800 
 39 H       -3.6530    -4.1720     0.5780 H     1 <1>   0.0800 
 40 H       -3.7500    -3.6900    -1.0890 H     1 <1>   0.0800 
 41 H       -3.8290     1.4350    -1.6880 H     1 <1>   0.0800 
 42 H       -4.3370     3.0800    -1.9480 H     1 <1>   0.0800 
 43 H       -4.8100     4.5420     0.1720 H     1 <1>   0.0800 
 44 H       -4.5790     3.7760     1.7210 H     1 <1>   0.0800 
 45 H        0.8220     0.3170     0.1000 H     1 <1>   0.1500 
 46 H        1.6050     4.5100    -0.0190 H     1 <1>   0.1500 
 47 H       -6.1760    -3.2060    -0.8000 H     1 <1>   0.0800 
 48 H       -6.0770    -3.8220     0.8370 H     1 <1>   0.0800 
 49 H       -5.9840     0.8700    -0.6690 H     1 <1>   0.0800 
 50 H       -6.2630     1.6060    -2.2310 H     1 <1>   0.0800 
 51 H       -6.9930     3.8580     1.0120 H     1 <1>   0.0800 
 52 H       -6.4300     2.2240     1.2840 H     1 <1>   0.0800 
 53 H        3.2040    -0.1290    -0.0200 H     1 <1>   0.1500 
 54 H        3.9980     4.0500    -0.1310 H     1 <1>   0.1500 
 55 H       -5.3790    -6.0370    -0.0320 H     1 <1>   0.0800 
 56 H       -5.4690    -5.4150    -1.6750 H     1 <1>   0.0800 
 57 H        4.8140     1.7280    -0.1340 H     1 <1>   0.1500 
 58 H       -7.6000    -5.4830     0.1780 H     1 <1>   0.4000 
@<TRIPOS>BOND
  1   1   2  2   
  2   2   3  am  
  3   2   4  1   
  4   3   5  1   
  5   3   6  1   
  6   4   7  1   
  7   4   8  2   
  8   5   9  1   
  9   5  30  1   
 10   5  31  1   
 11   6  10  1   
 12   6  32  1   
 13   6  33  1   
 14   7  11  2   
 15   7  12  1   
 16   8  13  1   
 17   8  14  1   
 18   9  15  1   
 19   9  16  1   
 20   9  34  1   
 21  10  15  1   
 22  10  35  1   
 23  10  36  1   
 24  11  13  1   
 25  12  17  1   
 26  12  18  1   
 27  14  19  ar  
 28  14  20  ar  
 29  15  37  1   
 30  15  38  1   
 31  16  21  1   
 32  16  39  1   
 33  16  40  1   
 34  17  22  1   
 35  17  41  1   
 36  17  42  1   
 37  18  23  1   
 38  18  43  1   
 39  18  44  1   
 40  19  24  ar  
 41  19  45  1   
 42  20  25  ar  
 43  20  46  1   
 44  21  26  1   
 45  21  47  1   
 46  21  48  1   
 47  22  27  1   
 48  22  49  1   
 49  22  50  1   
 50  23  27  1   
 51  23  51  1   
 52  23  52  1   
 53  24  28  ar  
 54  24  53  1   
 55  25  28  ar  
 56  25  54  1   
 57  26  29  1   
 58  26  55  1   
 59  26  56  1   
 60  28  57  1   
 61  29  58  1   
@<TRIPOS>SUBSTRUCTURE
  1 ****   2 GROUP 4 **** **** 0

# MOE 2024.06 (io_trps.svl 2023.06)
