@<TRIPOS>MOLECULE
NONAME
46 48 1 0 0 
SMALL
USER_CHARGES


@<TRIPOS>ATOM
  1 O        2.7500    -0.1660     1.5880 O.2   1 <1>  -0.5700 
  2 C        2.3120    -0.7050     0.5960 C.2   1 <1>   0.5690 
  3 N        1.9960    -0.0260    -0.5510 N.am  1 <1>  -0.4940 
  4 C        2.1020    -2.2310     0.5960 C.3   1 <1>   0.3950 
  5 C        1.8820     1.3580    -0.8190 C.2   1 <1>  -0.0880 
  6 N        2.4580    -2.8700    -0.7120 N.3   1 <1>  -0.8100 
  7 C        0.6470    -2.5290     0.9560 C.ar  1 <1>  -0.1440 
  8 N        2.7250     2.3570    -0.4260 N.pl3 1 <1>   0.3140 
  9 C        0.8970     1.9470    -1.5380 C.2   1 <1>  -0.1810 
 10 C        3.8630    -2.6730    -1.0720 C.3   1 <1>   0.1100 
 11 C        2.2750    -4.3230    -0.7040 C.3   1 <1>   0.1100 
 12 C       -0.3530    -2.4940    -0.0070 C.ar  1 <1>   0.1600 
 13 C        0.2950    -2.8240     2.2600 C.ar  1 <1>  -0.1500 
 14 N        2.2910     3.5620    -0.8760 N.2   1 <1>  -0.7070 
 15 C        3.9850     2.2210     0.3500 C.3   1 <1>   0.0960 
 16 C        1.2060     3.3010    -1.5340 C.2   1 <1>   0.1390 
 17 C       -0.3120     1.3180    -2.2050 C.3   1 <1>  -0.0590 
 18 C        4.1420    -3.7330    -2.1290 C.3   1 <1>  -0.1600 
 19 C        3.1040    -4.8250    -1.8780 C.3   1 <1>  -0.1600 
 20 N       -1.6370    -2.7230     0.2170 N.ar  1 <1>  -0.6200 
 21 C       -1.0380    -3.0670     2.5120 C.ar  1 <1>  -0.1500 
 22 C        5.0780     3.2060    -0.0940 C.3   1 <1>  -0.2400 
 23 C       -1.9480    -3.0050     1.4720 C.ar  1 <1>   0.1600 
 24 H        1.6850    -0.6480    -1.3030 H     1 <1>   0.3700 
 25 H        2.7360    -2.6420     1.3610 H     1 <1>   0.0800 
 26 H        4.4940    -2.8470    -0.2150 H     1 <1>   0.0800 
 27 H        4.0400    -1.6820    -1.4550 H     1 <1>   0.0800 
 28 H        1.2370    -4.5920    -0.8140 H     1 <1>   0.0800 
 29 H        2.6570    -4.7400     0.2130 H     1 <1>   0.0800 
 30 H       -0.0820    -2.2690    -1.0240 H     1 <1>   0.1500 
 31 H        1.0240    -2.8580     3.0530 H     1 <1>   0.1500 
 32 H        4.3510     1.2200     0.2260 H     1 <1>   0.0800 
 33 H        3.7510     2.3710     1.3880 H     1 <1>   0.0800 
 34 H        0.6160     4.0610    -2.0180 H     1 <1>   0.1500 
 35 H       -0.4270     0.2940    -1.9000 H     1 <1>   0.0800 
 36 H       -0.2010     1.3540    -3.2740 H     1 <1>   0.0800 
 37 H       -1.2010     1.8550    -1.9280 H     1 <1>   0.0800 
 38 H        5.1480    -4.1030    -2.0450 H     1 <1>   0.0800 
 39 H        4.0050    -3.3100    -3.1090 H     1 <1>   0.0800 
 40 H        2.4730    -4.9440    -2.7420 H     1 <1>   0.0800 
 41 H        3.5600    -5.7720    -1.6460 H     1 <1>   0.0800 
 42 H       -1.3720    -3.3010     3.5070 H     1 <1>   0.1500 
 43 H        5.2910     3.0780    -1.1400 H     1 <1>   0.0800 
 44 H        5.9770     3.0310     0.4680 H     1 <1>   0.0800 
 45 H        4.7590     4.2190     0.0810 H     1 <1>   0.0800 
 46 H       -2.9870    -3.1950     1.6830 H     1 <1>   0.1500 
@<TRIPOS>BOND
  1   1   2  2   
  2   2   3  am  
  3   2   4  1   
  4   3   5  1   
  5   3  24  1   
  6   4   6  1   
  7   4   7  1   
  8   4  25  1   
  9   5   8  1   
 10   5   9  2   
 11   6  10  1   
 12   6  11  1   
 13   7  12  ar  
 14   7  13  ar  
 15   8  14  1   
 16   8  15  1   
 17   9  16  1   
 18   9  17  1   
 19  10  18  1   
 20  10  26  1   
 21  10  27  1   
 22  11  19  1   
 23  11  28  1   
 24  11  29  1   
 25  12  20  ar  
 26  12  30  1   
 27  13  21  ar  
 28  13  31  1   
 29  14  16  2   
 30  15  22  1   
 31  15  32  1   
 32  15  33  1   
 33  16  34  1   
 34  17  35  1   
 35  17  36  1   
 36  17  37  1   
 37  18  19  1   
 38  18  38  1   
 39  18  39  1   
 40  19  40  1   
 41  19  41  1   
 42  20  23  ar  
 43  21  23  ar  
 44  21  42  1   
 45  22  43  1   
 46  22  44  1   
 47  22  45  1   
 48  23  46  1   
@<TRIPOS>SUBSTRUCTURE
  1 ****   3 GROUP 4 **** **** 0

# MOE 2024.06 (io_trps.svl 2023.06)
