@<TRIPOS>MOLECULE
NONAME
47 49 1 0 0 
SMALL
USER_CHARGES


@<TRIPOS>ATOM
  1 O        0.0230     0.1580     0.3740 O.2   1 <1>  -0.5700 
  2 C       -0.9360     0.7470    -0.0630 C.2   1 <1>   0.5690 
  3 N       -2.1580     0.1450    -0.1750 N.am  1 <1>  -0.6600 
  4 C       -0.7460     2.1930    -0.4750 C.3   1 <1>  -0.0990 
  5 C       -3.4070     0.7270    -0.7280 C.3   1 <1>   0.1400 
  6 C       -2.4100    -1.2320     0.3030 C.3   1 <1>   0.1400 
  7 C       -0.9840     3.1310     0.7130 C.3   1 <1>  -0.0160 
  8 C       -4.5030    -0.3130    -0.4630 C.3   1 <1>   0.2000 
  9 C       -3.7360    -1.6350    -0.3430 C.3   1 <1>  -0.0800 
 10 C       -0.8140     4.5810     0.2890 C.ar  1 <1>  -0.1440 
 11 O       -5.1260    -0.0390     0.7600 O.3   1 <1>  -0.5600 
 12 C       -4.4840    -2.7410     0.4230 C.3   1 <1>   0.0200 
 13 C       -1.8910     5.3930     0.0000 C.ar  1 <1>  -0.1500 
 14 C        0.4340     5.1570     0.1710 C.ar  1 <1>  -0.1500 
 15 C       -6.2100     0.8330     0.6940 C.3   1 <1>   0.0400 
 16 C       -3.7800    -4.0870     0.3720 C.2   1 <1>  -0.0400 
 17 C       -1.6730     6.7060    -0.3860 C.ar  1 <1>   0.1600 
 18 C        0.5430     6.4800    -0.2230 C.ar  1 <1>   0.1600 
 19 O       -4.2860    -5.0850     1.0480 O.3   1 <1>  -0.0190 
 20 C       -2.6790    -4.5370    -0.2530 C.2   1 <1>  -0.1500 
 21 N       -0.4810     7.2690    -0.5060 N.ar  1 <1>  -0.6200 
 22 N       -3.5840    -6.1730     0.9120 N.2   1 <1>  -0.4100 
 23 C       -2.6080    -5.8720     0.1340 C.2   1 <1>   0.1080 
 24 C       -1.5320    -6.8430    -0.2970 C.3   1 <1>  -0.0590 
 25 H        0.2610     2.3140    -0.8280 H     1 <1>   0.0800 
 26 H       -1.4050     2.4430    -1.2840 H     1 <1>   0.0800 
 27 H       -3.6360     1.6700    -0.2640 H     1 <1>   0.0800 
 28 H       -3.2840     0.8620    -1.7890 H     1 <1>   0.0800 
 29 H       -1.6030    -1.8880     0.0240 H     1 <1>   0.0800 
 30 H       -2.5000    -1.2130     1.3760 H     1 <1>   0.0800 
 31 H       -0.2830     2.9010     1.4970 H     1 <1>   0.0800 
 32 H       -1.9730     2.9780     1.1080 H     1 <1>   0.0800 
 33 H       -5.2450    -0.3480    -1.2420 H     1 <1>   0.0800 
 34 H       -3.5270    -1.9830    -1.3390 H     1 <1>   0.0800 
 35 H       -5.4680    -2.8600     0.0060 H     1 <1>   0.0800 
 36 H       -4.6010    -2.4550     1.4550 H     1 <1>   0.0800 
 37 H       -2.8960     5.0220     0.0700 H     1 <1>   0.1500 
 38 H        1.3220     4.5890     0.3810 H     1 <1>   0.1500 
 39 H       -6.5820     0.9780     1.6940 H     1 <1>   0.0800 
 40 H       -6.9810     0.3960     0.0840 H     1 <1>   0.0800 
 41 H       -5.8920     1.7770     0.2880 H     1 <1>   0.0800 
 42 H       -2.5240     7.3270    -0.6080 H     1 <1>   0.1500 
 43 H        1.5250     6.9130    -0.3100 H     1 <1>   0.1500 
 44 H       -1.9900    -4.0320    -0.9030 H     1 <1>   0.1500 
 45 H       -0.5700    -6.4820     0.0150 H     1 <1>   0.0800 
 46 H       -1.5440    -6.9480    -1.3660 H     1 <1>   0.0800 
 47 H       -1.7060    -7.8050     0.1500 H     1 <1>   0.0800 
@<TRIPOS>BOND
  1   1   2  2   
  2   2   3  am  
  3   2   4  1   
  4   3   5  1   
  5   3   6  1   
  6   4   7  1   
  7   4  25  1   
  8   4  26  1   
  9   5   8  1   
 10   5  27  1   
 11   5  28  1   
 12   6   9  1   
 13   6  29  1   
 14   6  30  1   
 15   7  10  1   
 16   7  31  1   
 17   7  32  1   
 18   8   9  1   
 19   8  11  1   
 20   8  33  1   
 21   9  12  1   
 22   9  34  1   
 23  10  13  ar  
 24  10  14  ar  
 25  11  15  1   
 26  12  16  1   
 27  12  35  1   
 28  12  36  1   
 29  13  17  ar  
 30  13  37  1   
 31  14  18  ar  
 32  14  38  1   
 33  15  39  1   
 34  15  40  1   
 35  15  41  1   
 36  16  19  1   
 37  16  20  2   
 38  17  21  ar  
 39  17  42  1   
 40  18  21  ar  
 41  18  43  1   
 42  19  22  1   
 43  20  23  1   
 44  20  44  1   
 45  22  23  2   
 46  23  24  1   
 47  24  45  1   
 48  24  46  1   
 49  24  47  1   
@<TRIPOS>SUBSTRUCTURE
  1 ****   3 GROUP 4 **** **** 0

# MOE 2024.06 (io_trps.svl 2023.06)
