@<TRIPOS>MOLECULE
NONAME
50 52 1 0 0 
SMALL
USER_CHARGES


@<TRIPOS>ATOM
  1 CL      -1.8290     1.3940    -1.0690 Cl    1 <1>  -0.1770 
  2 C       -0.8810     2.4330    -0.0320 C.ar  1 <1>   0.1770 
  3 C       -1.4460     2.9600     1.1270 C.ar  1 <1>   0.0860 
  4 C        0.4200     2.7040    -0.4050 C.ar  1 <1>  -0.1500 
  5 C       -2.8080     2.6880     1.5130 C.2   1 <1>   0.5440 
  6 C       -0.6270     3.7670     1.9170 C.ar  1 <1>  -0.1500 
  7 C        1.2240     3.5220     0.3830 C.ar  1 <1>   0.1170 
  8 O       -3.0120     1.8990     2.4170 O.2   1 <1>  -0.5700 
  9 N       -3.8730     3.3310     0.9180 N.am  1 <1>  -0.6600 
 10 C        0.6780     4.0420     1.5530 C.ar  1 <1>  -0.1500 
 11 N        2.5490     3.8290     0.0590 N.am  1 <1>  -0.5470 
 12 C       -5.2850     2.9820     1.2550 C.3   1 <1>   0.1400 
 13 C       -3.7170     4.3420    -0.1730 C.3   1 <1>   0.1400 
 14 C        3.1840     3.8420    -1.1520 C.2   1 <1>   0.5690 
 15 C       -5.9960     2.3590     0.0340 C.3   1 <1>   0.0000 
 16 C       -4.9910     4.4750    -1.0240 C.3   1 <1>  -0.1600 
 17 O        2.6390     3.6090    -2.2000 O.2   1 <1>  -0.5700 
 18 C        4.6520     4.1860    -1.1620 C.3   1 <1>  -0.1790 
 19 C       -7.5140     2.3160     0.2880 C.3   1 <1>   0.2000 
 20 C       -5.6240     3.1000    -1.2900 C.3   1 <1>  -0.1600 
 21 C       -5.6800     0.8610    -0.1100 C.3   1 <1>  -0.1600 
 22 O       -8.1200     3.5440     0.0120 O.3   1 <1>  -0.5600 
 23 C       -8.0530     1.1990    -0.6140 C.3   1 <1>  -0.1600 
 24 C       -6.8600     0.2720    -0.8910 C.3   1 <1>  -0.1600 
 25 C       -9.4210     3.6790     0.4880 C.3   1 <1>   0.0400 
 26 H        0.8040     2.2690    -1.3090 H     1 <1>   0.1500 
 27 H       -1.0330     4.1750     2.8280 H     1 <1>   0.1500 
 28 H        1.2790     4.6710     2.1840 H     1 <1>   0.1500 
 29 H        3.1270     4.1270     0.8420 H     1 <1>   0.3700 
 30 H       -5.3280     2.3100     2.0940 H     1 <1>   0.0800 
 31 H       -5.7960     3.8840     1.5440 H     1 <1>   0.0800 
 32 H       -3.4670     5.2960     0.2570 H     1 <1>   0.0800 
 33 H       -2.9120     4.0440    -0.8210 H     1 <1>   0.0800 
 34 H       -5.7020     5.1040    -0.5160 H     1 <1>   0.0800 
 35 H       -4.7490     4.9530    -1.9550 H     1 <1>   0.0800 
 36 H        5.1930     3.5040    -0.5340 H     1 <1>   0.0800 
 37 H        4.7940     5.1910    -0.8130 H     1 <1>   0.0800 
 38 H        5.0340     4.1100    -2.1640 H     1 <1>   0.0800 
 39 H       -7.6900     2.0640     1.3210 H     1 <1>   0.0800 
 40 H       -4.9080     2.5220    -1.8470 H     1 <1>   0.0800 
 41 H       -6.4880     3.2180    -1.9210 H     1 <1>   0.0800 
 42 H       -4.7350     0.6760    -0.5910 H     1 <1>   0.0800 
 43 H       -5.6470     0.4040     0.8640 H     1 <1>   0.0800 
 44 H       -8.8450     0.6660    -0.1190 H     1 <1>   0.0800 
 45 H       -8.4130     1.6090    -1.5410 H     1 <1>   0.0800 
 46 H       -7.0600    -0.7400    -0.5830 H     1 <1>   0.0800 
 47 H       -6.6370     0.2790    -1.9440 H     1 <1>   0.0800 
 48 H       -9.7680     4.6650     0.2360 H     1 <1>   0.0800 
 49 H       -9.4230     3.5560     1.5570 H     1 <1>   0.0800 
 50 H      -10.0530     2.9440     0.0200 H     1 <1>   0.0800 
@<TRIPOS>BOND
  1   1   2  1   
  2   2   3  ar  
  3   2   4  ar  
  4   3   5  1   
  5   3   6  ar  
  6   4   7  ar  
  7   4  26  1   
  8   5   8  2   
  9   5   9  am  
 10   6  10  ar  
 11   6  27  1   
 12   7  10  ar  
 13   7  11  1   
 14   9  12  1   
 15   9  13  1   
 16  10  28  1   
 17  11  14  am  
 18  11  29  1   
 19  12  15  1   
 20  12  30  1   
 21  12  31  1   
 22  13  16  1   
 23  13  32  1   
 24  13  33  1   
 25  14  17  2   
 26  14  18  1   
 27  15  19  1   
 28  15  20  1   
 29  15  21  1   
 30  16  20  1   
 31  16  34  1   
 32  16  35  1   
 33  18  36  1   
 34  18  37  1   
 35  18  38  1   
 36  19  22  1   
 37  19  23  1   
 38  19  39  1   
 39  20  40  1   
 40  20  41  1   
 41  21  24  1   
 42  21  42  1   
 43  21  43  1   
 44  22  25  1   
 45  23  24  1   
 46  23  44  1   
 47  23  45  1   
 48  24  46  1   
 49  24  47  1   
 50  25  48  1   
 51  25  49  1   
 52  25  50  1   
@<TRIPOS>SUBSTRUCTURE
  1 ****   9 GROUP 4 **** **** 0

# MOE 2024.06 (io_trps.svl 2023.06)
