@<TRIPOS>MOLECULE
NONAME
53 56 1 0 0 
SMALL
USER_CHARGES


@<TRIPOS>ATOM
  1 CL      -3.2640    -0.4660     3.5380 Cl    1 <1>  -0.1770 
  2 C       -3.9130    -1.6900     2.4760 C.ar  1 <1>   0.1770 
  3 C       -4.8720    -1.3440     1.5470 C.ar  1 <1>  -0.1500 
  4 C       -3.4510    -2.9860     2.5830 C.ar  1 <1>  -0.1500 
  5 C       -5.3960    -2.3110     0.6950 C.ar  1 <1>   0.1170 
  6 C       -3.9640    -3.9540     1.7380 C.ar  1 <1>  -0.1500 
  7 N       -6.3640    -2.0010    -0.2710 N.am  1 <1>  -0.5470 
  8 C       -4.9300    -3.6260     0.7970 C.ar  1 <1>  -0.1430 
  9 C       -7.2870    -0.9960    -0.3520 C.2   1 <1>   0.5690 
 10 C       -5.4730    -4.7250    -0.1120 C.3   1 <1>  -0.0960 
 11 O       -7.4200    -0.1230     0.4700 O.2   1 <1>  -0.5700 
 12 C       -8.2010    -0.9920    -1.5420 C.3   1 <1>  -0.0380 
 13 C       -8.9060    -2.3210    -1.5860 C.2   1 <1>   0.5690 
 14 O       -8.3510    -3.1990    -2.2060 O.2   1 <1>  -0.5700 
 15 N      -10.0930    -2.5370    -0.9350 N.am  1 <1>  -0.6600 
 16 C      -10.7190    -1.6120     0.0660 C.3   1 <1>   0.1400 
 17 C      -10.8160    -3.8340    -1.1160 C.3   1 <1>   0.1400 
 18 C      -12.1480    -1.2070    -0.3670 C.3   1 <1>   0.1430 
 19 C      -12.2930    -3.7400    -0.6930 C.3   1 <1>  -0.1600 
 20 C      -12.8730    -0.6990     0.8690 C.ar  1 <1>   0.1670 
 21 C      -12.8960    -2.3750    -1.0640 C.3   1 <1>  -0.1600 
 22 C      -12.1320     0.0560    -1.2670 C.3   1 <1>  -0.1600 
 23 N      -13.3660    -1.4460     1.8290 N.ar  1 <1>  -0.6200 
 24 C      -12.9480     0.6640     0.8790 C.ar  1 <1>  -0.1430 
 25 C      -12.2920     1.2700    -0.3360 C.3   1 <1>  -0.0170 
 26 C      -13.9410    -0.7600     2.8050 C.ar  1 <1>   0.7200 
 27 C      -13.5770     1.2640     1.9430 C.ar  1 <1>   0.1600 
 28 N      -14.0900     0.5520     2.9210 N.ar  1 <1>  -0.6200 
 29 N      -14.4640    -1.4880     3.7920 N.pl3 1 <1>  -0.9000 
 30 H       -5.2010    -0.3240     1.4920 H     1 <1>   0.1500 
 31 H       -2.7030    -3.2290     3.3150 H     1 <1>   0.1500 
 32 H       -3.6030    -4.9650     1.8200 H     1 <1>   0.1500 
 33 H       -6.4830    -2.7270    -0.9850 H     1 <1>   0.3700 
 34 H       -6.5440    -4.7840    -0.0240 H     1 <1>   0.0800 
 35 H       -5.0630    -5.6830     0.1520 H     1 <1>   0.0800 
 36 H       -5.2160    -4.5190    -1.1360 H     1 <1>   0.0800 
 37 H       -7.6160    -0.8670    -2.4330 H     1 <1>   0.0800 
 38 H       -8.8970    -0.1800    -1.4860 H     1 <1>   0.0800 
 39 H      -10.1190    -0.7380     0.2410 H     1 <1>   0.0800 
 40 H      -10.7770    -2.1370     1.0050 H     1 <1>   0.0800 
 41 H      -10.3200    -4.6020    -0.5470 H     1 <1>   0.0800 
 42 H      -10.7660    -4.1090    -2.1560 H     1 <1>   0.0800 
 43 H      -12.3720    -3.8910     0.3700 H     1 <1>   0.0800 
 44 H      -12.8470    -4.5300    -1.1690 H     1 <1>   0.0800 
 45 H      -12.8210    -2.2680    -2.1320 H     1 <1>   0.0800 
 46 H      -13.9410    -2.3500    -0.8060 H     1 <1>   0.0800 
 47 H      -12.9870     0.0360    -1.9210 H     1 <1>   0.0800 
 48 H      -11.2470     0.1200    -1.8730 H     1 <1>   0.0800 
 49 H      -12.9030     2.0360    -0.7820 H     1 <1>   0.0800 
 50 H      -11.3320     1.6750    -0.0650 H     1 <1>   0.0800 
 51 H      -13.6610     2.3360     1.9920 H     1 <1>   0.1500 
 52 H      -15.1550    -1.0080     4.3620 H     1 <1>   0.4000 
 53 H      -14.6480    -2.4600     3.5620 H     1 <1>   0.4000 
@<TRIPOS>BOND
  1   1   2  1   
  2   2   3  ar  
  3   2   4  ar  
  4   3   5  ar  
  5   3  30  1   
  6   4   6  ar  
  7   4  31  1   
  8   5   7  1   
  9   5   8  ar  
 10   6   8  ar  
 11   6  32  1   
 12   7   9  am  
 13   7  33  1   
 14   8  10  1   
 15   9  11  2   
 16   9  12  1   
 17  10  34  1   
 18  10  35  1   
 19  10  36  1   
 20  12  13  1   
 21  12  37  1   
 22  12  38  1   
 23  13  14  2   
 24  13  15  am  
 25  15  16  1   
 26  15  17  1   
 27  16  18  1   
 28  16  39  1   
 29  16  40  1   
 30  17  19  1   
 31  17  41  1   
 32  17  42  1   
 33  18  20  1   
 34  18  21  1   
 35  18  22  1   
 36  19  21  1   
 37  19  43  1   
 38  19  44  1   
 39  20  23  ar  
 40  20  24  ar  
 41  21  45  1   
 42  21  46  1   
 43  22  25  1   
 44  22  47  1   
 45  22  48  1   
 46  23  26  ar  
 47  24  25  1   
 48  24  27  ar  
 49  25  49  1   
 50  25  50  1   
 51  26  28  ar  
 52  26  29  1   
 53  27  28  ar  
 54  27  51  1   
 55  29  52  1   
 56  29  53  1   
@<TRIPOS>SUBSTRUCTURE
  1 ****  16 GROUP 4 **** **** 0

# MOE 2024.06 (io_trps.svl 2023.06)
