@<TRIPOS>MOLECULE
NONAME
27 28 1 0 0 
SMALL
USER_CHARGES


@<TRIPOS>ATOM
  1 O        0.9100    -0.3220     1.5580 O.2   1 <1>  -0.5700 
  2 C        2.0240    -0.4370     1.1060 C.2   1 <1>   0.5690 
  3 N        2.9250    -1.3170     1.5240 N.am  1 <1>  -0.7300 
  4 C        2.6290     0.3440    -0.0520 C.3   1 <1>   0.3410 
  5 C        4.1030    -1.2890     0.6760 C.3   1 <1>   0.6440 
  6 O        3.8270    -0.3330    -0.3150 O.3   1 <1>  -0.5600 
  7 C        1.7880     0.2950    -1.3310 C.3   1 <1>  -0.2400 
  8 C        2.9920     1.7840     0.3250 C.3   1 <1>  -0.2400 
  9 C        4.3560    -2.6520     0.0410 C.ar  1 <1>  -0.1440 
 10 C        3.3580    -3.3180    -0.6600 C.ar  1 <1>  -0.1500 
 11 C        5.6040    -3.2490     0.1630 C.ar  1 <1>  -0.1500 
 12 C        3.6020    -4.5580    -1.2240 C.ar  1 <1>  -0.1500 
 13 C        5.8490    -4.4890    -0.4010 C.ar  1 <1>  -0.1500 
 14 C        4.8470    -5.1450    -1.0940 C.ar  1 <1>  -0.1500 
 15 H        2.7090    -2.1230     2.1060 H     1 <1>   0.3700 
 16 H        4.9590    -0.9540     1.2380 H     1 <1>   0.0800 
 17 H        1.5860    -0.7240    -1.6040 H     1 <1>   0.0800 
 18 H        2.3040     0.7840    -2.1370 H     1 <1>   0.0800 
 19 H        0.8500     0.7930    -1.1670 H     1 <1>   0.0800 
 20 H        3.6200     1.7940     1.1980 H     1 <1>   0.0800 
 21 H        2.0960     2.3360     0.5470 H     1 <1>   0.0800 
 22 H        3.5020     2.2670    -0.4890 H     1 <1>   0.0800 
 23 H        2.3860    -2.8720    -0.7690 H     1 <1>   0.1500 
 24 H        6.3960    -2.7520     0.6960 H     1 <1>   0.1500 
 25 H        2.8220    -5.0650    -1.7650 H     1 <1>   0.1500 
 26 H        6.8190    -4.9440    -0.3020 H     1 <1>   0.1500 
 27 H        5.0370    -6.1090    -1.5330 H     1 <1>   0.1500 
@<TRIPOS>BOND
  1   1   2  2   
  2   2   3  am  
  3   2   4  1   
  4   3   5  1   
  5   3  15  1   
  6   4   6  1   
  7   4   7  1   
  8   4   8  1   
  9   5   6  1   
 10   5   9  1   
 11   5  16  1   
 12   7  17  1   
 13   7  18  1   
 14   7  19  1   
 15   8  20  1   
 16   8  21  1   
 17   8  22  1   
 18   9  10  ar  
 19   9  11  ar  
 20  10  12  ar  
 21  10  23  1   
 22  11  13  ar  
 23  11  24  1   
 24  12  14  ar  
 25  12  25  1   
 26  13  14  ar  
 27  13  26  1   
 28  14  27  1   
@<TRIPOS>SUBSTRUCTURE
  1 ****   5 GROUP 4 **** **** 0

# MOE 2024.06 (io_trps.svl 2023.06)
