@<TRIPOS>MOLECULE
NONAME
49 51 1 0 0 
SMALL
USER_CHARGES


@<TRIPOS>ATOM
  1 O       -0.8000     0.6470    -2.1430 O.2   1 <1>  -0.5700 
  2 C       -1.7300     1.2020    -1.5910 C.2   1 <1>   0.6160 
  3 N       -2.9840     0.6490    -1.7230 N.am  1 <1>  -0.6600 
  4 C       -1.4970     2.3620    -0.7870 C.2   1 <1>   0.0290 
  5 C       -3.1330    -0.8220    -1.6210 C.3   1 <1>   0.1400 
  6 C       -4.2510     1.4250    -1.6340 C.3   1 <1>   0.1400 
  7 C       -1.6640     2.2100     0.6250 C.2   1 <1>   0.6160 
  8 C       -1.1120     3.5800    -1.2870 C.2   1 <1>  -0.1500 
  9 C       -3.8170    -1.1620    -0.2770 C.3   1 <1>   0.4230 
 10 C       -4.9940     1.0690    -0.3390 C.3   1 <1>  -0.1600 
 11 O       -2.0010     1.1630     1.1710 O.2   1 <1>  -0.5700 
 12 N       -1.4530     3.3000     1.4250 N.am  1 <1>  -0.5390 
 13 C       -0.9060     4.6710    -0.4160 C.2   1 <1>  -0.1500 
 14 N       -3.8330    -2.6520     0.0380 N.4   1 <1>  -0.9590 
 15 C       -5.2010    -0.4590    -0.1230 C.3   1 <1>   0.0000 
 16 C       -1.0790     4.5190     0.9270 C.2   1 <1>  -0.0290 
 17 C       -4.8260    -3.0440     1.0900 C.3   1 <1>   0.3430 
 18 C       -3.9480    -3.5650    -1.1460 C.3   1 <1>   0.2630 
 19 C       -5.7370    -0.6850     1.3230 C.3   1 <1>  -0.1600 
 20 C       -6.2030    -1.0200    -1.1710 C.3   1 <1>   0.1200 
 21 C       -0.8730     5.6400     1.9260 C.3   1 <1>  -0.1020 
 22 C       -5.0960    -1.8850     2.0450 C.3   1 <1>  -0.1600 
 23 O       -7.3880    -0.3020    -1.1850 O.3   1 <1>  -0.6800 
 24 H       -3.7030    -1.1690    -2.4630 H     1 <1>   0.0800 
 25 H       -2.1620    -1.2850    -1.6500 H     1 <1>   0.0800 
 26 H       -4.0440     2.4820    -1.6580 H     1 <1>   0.0800 
 27 H       -4.8670     1.1960    -2.4880 H     1 <1>   0.0800 
 28 H       -0.9560     3.7200    -2.3440 H     1 <1>   0.1500 
 29 H       -3.1910    -0.7090     0.4740 H     1 <1>   0.0800 
 30 H       -4.4330     1.4800     0.4800 H     1 <1>   0.0800 
 31 H       -5.9400     1.5830    -0.3360 H     1 <1>   0.0800 
 32 H       -1.5670     3.1370     2.4260 H     1 <1>   0.3700 
 33 H       -0.6080     5.6150    -0.8400 H     1 <1>   0.1500 
 34 H       -2.9050    -2.8220     0.4560 H     1 <1>   0.4500 
 35 H       -5.7570    -3.3270     0.6250 H     1 <1>   0.0800 
 36 H       -4.4580    -3.8950     1.6420 H     1 <1>   0.0800 
 37 H       -4.8810    -3.4020    -1.6600 H     1 <1>   0.0800 
 38 H       -3.9060    -4.5950    -0.8290 H     1 <1>   0.0800 
 39 H       -3.1380    -3.3930    -1.8370 H     1 <1>   0.0800 
 40 H       -5.5590     0.1840     1.9350 H     1 <1>   0.0800 
 41 H       -6.8050    -0.8210     1.3060 H     1 <1>   0.0800 
 42 H       -6.4530    -2.0460    -0.9660 H     1 <1>   0.0800 
 43 H       -5.8050    -0.9600    -2.1680 H     1 <1>   0.0800 
 44 H       -0.1010     5.3730     2.6250 H     1 <1>   0.0800 
 45 H       -1.7840     5.8260     2.4650 H     1 <1>   0.0800 
 46 H       -0.5810     6.5460     1.4250 H     1 <1>   0.0800 
 47 H       -5.7540    -2.2160     2.8300 H     1 <1>   0.0800 
 48 H       -4.1720    -1.5870     2.5110 H     1 <1>   0.0800 
 49 H       -7.8460    -0.3270    -0.3220 H     1 <1>   0.4000 
@<TRIPOS>BOND
  1   1   2  2   
  2   2   3  am  
  3   2   4  1   
  4   3   5  1   
  5   3   6  1   
  6   4   7  1   
  7   4   8  2   
  8   5   9  1   
  9   5  24  1   
 10   5  25  1   
 11   6  10  1   
 12   6  26  1   
 13   6  27  1   
 14   7  11  2   
 15   7  12  am  
 16   8  13  1   
 17   8  28  1   
 18   9  14  1   
 19   9  15  1   
 20   9  29  1   
 21  10  15  1   
 22  10  30  1   
 23  10  31  1   
 24  12  16  1   
 25  12  32  1   
 26  13  16  2   
 27  13  33  1   
 28  14  17  1   
 29  14  18  1   
 30  14  34  1   
 31  15  19  1   
 32  15  20  1   
 33  16  21  1   
 34  17  22  1   
 35  17  35  1   
 36  17  36  1   
 37  18  37  1   
 38  18  38  1   
 39  18  39  1   
 40  19  22  1   
 41  19  40  1   
 42  19  41  1   
 43  20  23  1   
 44  20  42  1   
 45  20  43  1   
 46  21  44  1   
 47  21  45  1   
 48  21  46  1   
 49  22  47  1   
 50  22  48  1   
 51  23  49  1   
@<TRIPOS>SUBSTRUCTURE
  1 ****   3 GROUP 4 **** **** 0

# MOE 2024.06 (io_trps.svl 2023.06)
