@<TRIPOS>MOLECULE
NONAME
48 52 1 0 0 
SMALL
USER_CHARGES


@<TRIPOS>ATOM
  1 O       -0.2070     1.7770    -2.6550 O.2   1 <1>  -0.5700 
  2 C       -0.3680     2.2460    -1.5400 C.2   1 <1>   0.5440 
  3 N       -1.5720     1.9900    -0.9020 N.am  1 <1>  -0.6600 
  4 C        0.7020     3.0670    -0.9630 C.ar  1 <1>   0.3960 
  5 C       -2.1200     2.8010     0.2310 C.3   1 <1>   0.1400 
  6 C       -2.4890     0.9040    -1.3490 C.3   1 <1>   0.1400 
  7 N        1.0170     2.9580     0.3400 N.ar  1 <1>  -0.6200 
  8 C        1.3920     3.9460    -1.7960 C.ar  1 <1>  -0.1500 
  9 C       -3.4500     3.4660    -0.1750 C.3   1 <1>   0.1440 
 10 C       -3.8340     1.5000    -1.7790 C.3   1 <1>  -0.1600 
 11 C        2.0050     3.7080     0.8150 C.ar  1 <1>   0.2870 
 12 C        2.4140     4.7310    -1.3130 C.ar  1 <1>  -0.1500 
 13 C       -4.0650     4.2160     0.9930 C.ar  1 <1>   0.1660 
 14 C       -4.4440     2.3980    -0.6850 C.3   1 <1>  -0.1600 
 15 C       -3.2400     4.5990    -1.2160 C.3   1 <1>  -0.1600 
 16 N        2.3280     3.5680     2.1910 N.pl3 1 <1>   0.3260 
 17 C        2.7210     4.6000     0.0200 C.ar  1 <1>  -0.1500 
 18 N       -4.2060     3.7480     2.2110 N.ar  1 <1>  -0.6200 
 19 C       -4.4740     5.4650     0.6270 C.ar  1 <1>  -0.1440 
 20 C       -4.1910     5.7450    -0.8270 C.3   1 <1>  -0.0170 
 21 C        2.8940     4.4400     3.0410 C.2   1 <1>   0.0370 
 22 C        2.1600     2.5020     2.9870 C.2   1 <1>   0.0370 
 23 C       -4.7950     4.5890     3.0480 C.ar  1 <1>   0.7200 
 24 C       -5.0620     6.2540     1.5870 C.ar  1 <1>   0.1600 
 25 N        3.0610     3.9490     4.2190 N.2   1 <1>  -0.3380 
 26 N        2.5890     2.7020     4.1840 N.2   1 <1>  -0.3380 
 27 N       -5.2260     5.8220     2.8170 N.ar  1 <1>  -0.6200 
 28 N       -4.9510     4.1490     4.2970 N.pl3 1 <1>  -0.9000 
 29 H       -1.4280     3.5630     0.5410 H     1 <1>   0.0800 
 30 H       -2.2860     2.1510     1.0730 H     1 <1>   0.0800 
 31 H       -2.6390     0.2200    -0.5310 H     1 <1>   0.0800 
 32 H       -2.0580     0.3500    -2.1660 H     1 <1>   0.0800 
 33 H        1.1180     4.0000    -2.8360 H     1 <1>   0.1500 
 34 H       -4.5150     0.6990    -2.0050 H     1 <1>   0.0800 
 35 H       -3.6860     2.0580    -2.6870 H     1 <1>   0.0800 
 36 H        2.9500     5.4100    -1.9550 H     1 <1>   0.1500 
 37 H       -5.3370     2.8700    -1.0550 H     1 <1>   0.0800 
 38 H       -4.7310     1.7760     0.1460 H     1 <1>   0.0800 
 39 H       -3.4050     4.2760    -2.2280 H     1 <1>   0.0800 
 40 H       -2.2310     4.9640    -1.1450 H     1 <1>   0.0800 
 41 H        3.5210     5.1870     0.4350 H     1 <1>   0.1500 
 42 H       -5.1060     5.6880    -1.3910 H     1 <1>   0.0800 
 43 H       -3.7310     6.7080    -0.9680 H     1 <1>   0.0800 
 44 H        3.1680     5.4380     2.7550 H     1 <1>   0.1500 
 45 H        1.7110     1.5920     2.6310 H     1 <1>   0.1500 
 46 H       -5.4020     7.2460     1.3440 H     1 <1>   0.1500 
 47 H       -5.1190     4.8700     4.9920 H     1 <1>   0.4000 
 48 H       -4.3420     3.3820     4.5650 H     1 <1>   0.4000 
@<TRIPOS>BOND
  1   1   2  2   
  2   2   3  am  
  3   2   4  1   
  4   3   5  1   
  5   3   6  1   
  6   4   7  ar  
  7   4   8  ar  
  8   5   9  1   
  9   5  29  1   
 10   5  30  1   
 11   6  10  1   
 12   6  31  1   
 13   6  32  1   
 14   7  11  ar  
 15   8  12  ar  
 16   8  33  1   
 17   9  13  1   
 18   9  14  1   
 19   9  15  1   
 20  10  14  1   
 21  10  34  1   
 22  10  35  1   
 23  11  16  1   
 24  11  17  ar  
 25  12  17  ar  
 26  12  36  1   
 27  13  18  ar  
 28  13  19  ar  
 29  14  37  1   
 30  14  38  1   
 31  15  20  1   
 32  15  39  1   
 33  15  40  1   
 34  16  21  1   
 35  16  22  1   
 36  17  41  1   
 37  18  23  ar  
 38  19  20  1   
 39  19  24  ar  
 40  20  42  1   
 41  20  43  1   
 42  21  25  2   
 43  21  44  1   
 44  22  26  2   
 45  22  45  1   
 46  23  27  ar  
 47  23  28  1   
 48  24  27  ar  
 49  24  46  1   
 50  25  26  1   
 51  28  47  1   
 52  28  48  1   
@<TRIPOS>SUBSTRUCTURE
  1 ****   5 GROUP 4 **** **** 0

# MOE 2024.06 (io_trps.svl 2023.06)
