@<TRIPOS>MOLECULE
NONAME
49 50 1 0 0 
SMALL
USER_CHARGES


@<TRIPOS>ATOM
  1 O       -0.0010    -1.0570     0.8370 O.2   1 <1>  -0.5700 
  2 C        0.0670    -2.0640     1.5070 C.2   1 <1>   0.6900 
  3 N       -1.0000    -2.8560     1.7070 N.am  1 <1>  -0.7300 
  4 N        1.2270    -2.4030     2.0690 N.am  1 <1>  -0.8000 
  5 C       -2.2970    -2.6960     0.9910 C.3   1 <1>   0.2010 
  6 C       -2.9900    -4.0340     0.6940 C.2   1 <1>   0.5690 
  7 O       -2.6170    -5.0120     1.3090 O.2   1 <1>  -0.5700 
  8 N       -4.0030    -4.1230    -0.2340 N.am  1 <1>  -0.6600 
  9 C       -4.5630    -5.4650    -0.5830 C.3   1 <1>   0.1400 
 10 C       -4.5950    -2.9500    -0.9440 C.3   1 <1>   0.1400 
 11 C       -5.7280    -5.8430     0.3420 C.3   1 <1>   0.1400 
 12 C       -6.1280    -2.9830    -1.0250 C.3   1 <1>  -0.1600 
 13 N       -6.9630    -5.0480     0.0510 N.am  1 <1>  -0.6600 
 14 C       -6.8220    -3.5730     0.2080 C.3   1 <1>   0.1400 
 15 C       -8.1800    -5.6000    -0.2920 C.2   1 <1>   0.5690 
 16 O       -9.1210    -4.8980    -0.5890 O.2   1 <1>  -0.5700 
 17 C       -8.4010    -7.1150    -0.3730 C.3   1 <1>   0.1810 
 18 O       -8.1210    -7.7710     0.8450 O.3   1 <1>  -0.5600 
 19 C       -8.2570    -9.1610     0.8140 C.3   1 <1>   0.2630 
 20 C       -9.7010    -9.5640     0.5380 C.ar  1 <1>  -0.1430 
 21 C       -9.9970   -10.4660    -0.4740 C.ar  1 <1>  -0.1500 
 22 C      -10.7320    -9.0310     1.2950 C.ar  1 <1>  -0.1500 
 23 C      -11.3090   -10.8280    -0.7250 C.ar  1 <1>  -0.1500 
 24 C      -12.0450    -9.3920     1.0460 C.ar  1 <1>  -0.1500 
 25 C      -12.3340   -10.2920     0.0350 C.ar  1 <1>  -0.1500 
 26 H       -0.8590    -3.8030     2.0660 H     1 <1>   0.3700 
 27 H        2.0040    -1.7510     1.9840 H     1 <1>   0.3700 
 28 H        1.2880    -3.1100     2.7950 H     1 <1>   0.3700 
 29 H       -2.1210    -2.1810     0.0640 H     1 <1>   0.0800 
 30 H       -2.9520    -2.0960     1.5960 H     1 <1>   0.0800 
 31 H       -3.7890    -6.2060    -0.4780 H     1 <1>   0.0800 
 32 H       -4.8860    -5.4820    -1.6090 H     1 <1>   0.0800 
 33 H       -4.1870    -2.8990    -1.9400 H     1 <1>   0.0800 
 34 H       -4.3190    -2.0430    -0.4350 H     1 <1>   0.0800 
 35 H       -5.4360    -5.6940     1.3680 H     1 <1>   0.0800 
 36 H       -5.9180    -6.8910     0.2160 H     1 <1>   0.0800 
 37 H       -6.4430    -3.5190    -1.9030 H     1 <1>   0.0800 
 38 H       -6.4670    -1.9710    -1.1490 H     1 <1>   0.0800 
 39 H       -7.7980    -3.1280     0.3100 H     1 <1>   0.0800 
 40 H       -6.2720    -3.3480     1.1060 H     1 <1>   0.0800 
 41 H       -7.7720    -7.5240    -1.1410 H     1 <1>   0.0800 
 42 H       -9.4300    -7.2940    -0.6300 H     1 <1>   0.0800 
 43 H       -7.9580    -9.5340     1.7780 H     1 <1>   0.0800 
 44 H       -7.5890    -9.5550     0.0690 H     1 <1>   0.0800 
 45 H       -9.2110   -10.8910    -1.0720 H     1 <1>   0.1500 
 46 H      -10.5110    -8.3260     2.0790 H     1 <1>   0.1500 
 47 H      -11.5340   -11.5280    -1.5110 H     1 <1>   0.1500 
 48 H      -12.8390    -8.9710     1.6370 H     1 <1>   0.1500 
 49 H      -13.3540   -10.5720    -0.1600 H     1 <1>   0.1500 
@<TRIPOS>BOND
  1   1   2  2   
  2   2   3  am  
  3   2   4  am  
  4   3   5  1   
  5   3  26  1   
  6   4  27  1   
  7   4  28  1   
  8   5   6  1   
  9   5  29  1   
 10   5  30  1   
 11   6   7  2   
 12   6   8  am  
 13   8   9  1   
 14   8  10  1   
 15   9  11  1   
 16   9  31  1   
 17   9  32  1   
 18  10  12  1   
 19  10  33  1   
 20  10  34  1   
 21  11  13  1   
 22  11  35  1   
 23  11  36  1   
 24  12  14  1   
 25  12  37  1   
 26  12  38  1   
 27  13  14  1   
 28  13  15  am  
 29  14  39  1   
 30  14  40  1   
 31  15  16  2   
 32  15  17  1   
 33  17  18  1   
 34  17  41  1   
 35  17  42  1   
 36  18  19  1   
 37  19  20  1   
 38  19  43  1   
 39  19  44  1   
 40  20  21  ar  
 41  20  22  ar  
 42  21  23  ar  
 43  21  45  1   
 44  22  24  ar  
 45  22  46  1   
 46  23  25  ar  
 47  23  47  1   
 48  24  25  ar  
 49  24  48  1   
 50  25  49  1   
@<TRIPOS>SUBSTRUCTURE
  1 ****  11 GROUP 4 **** **** 0

# MOE 2024.06 (io_trps.svl 2023.06)
