@<TRIPOS>MOLECULE
NONAME
46 48 1 0 0 
SMALL
USER_CHARGES


@<TRIPOS>ATOM
  1 O        4.9690    -1.5520    -0.2410 O.2   1 <1>  -0.5700 
  2 C        3.7650    -1.4050    -0.3340 C.2   1 <1>   0.5440 
  3 N        3.3260    -0.5210    -1.2930 N.am  1 <1>  -0.6600 
  4 C        2.8600    -2.0700     0.5860 C.ar  1 <1>   0.0860 
  5 C        4.0490    -0.3940    -2.6050 C.3   1 <1>   0.1400 
  6 C        2.4750     0.6410    -0.9230 C.3   1 <1>   0.1400 
  7 C        1.5350    -2.3400     0.2820 C.ar  1 <1>  -0.1500 
  8 C        3.2640    -2.4910     1.8460 C.ar  1 <1>  -0.1500 
  9 C        5.4120     0.3260    -2.4810 C.3   1 <1>   0.3430 
 10 C        3.3250     1.7360    -0.2610 C.3   1 <1>  -0.1600 
 11 C        0.7110    -2.9580     1.2030 C.ar  1 <1>   0.3920 
 12 C        2.3690    -3.1060     2.6990 C.ar  1 <1>   0.1600 
 13 N        5.5220     1.0840    -1.2000 N.4   1 <1>  -0.9590 
 14 C        4.5390     2.1980    -1.0750 C.3   1 <1>   0.3430 
 15 O       -0.5670    -3.1690     0.8290 O.3   1 <1>  -0.3630 
 16 N        1.1010    -3.3440     2.4130 N.ar  1 <1>  -0.6200 
 17 C        6.9320     1.4640    -0.8470 C.3   1 <1>   0.5240 
 18 C       -1.4820    -3.8130     1.6960 C.3   1 <1>   0.0400 
 19 C        7.0630     1.9370     0.6020 C.2   1 <1>   0.3350 
 20 N        7.4250     1.1970     1.5710 N.2   1 <1>  -0.4100 
 21 N        6.7850     3.1850     0.9640 N.2   1 <1>  -0.5650 
 22 O        7.4160     1.9340     2.6400 O.3   1 <1>  -0.0190 
 23 C        7.0290     3.1090     2.2120 C.2   1 <1>   0.2980 
 24 C        6.9090     4.2420     3.2070 C.3   1 <1>  -0.0600 
 25 H        3.4290     0.1330    -3.3080 H     1 <1>   0.0800 
 26 H        4.2150    -1.3780    -3.0100 H     1 <1>   0.0800 
 27 H        1.7040     0.3280    -0.2380 H     1 <1>   0.0800 
 28 H        1.9870     1.0270    -1.8030 H     1 <1>   0.0800 
 29 H        1.1270    -2.0770    -0.6750 H     1 <1>   0.1500 
 30 H        4.2810    -2.3390     2.1610 H     1 <1>   0.1500 
 31 H        5.5630     0.9760    -3.3270 H     1 <1>   0.0800 
 32 H        6.1800    -0.4310    -2.5050 H     1 <1>   0.0800 
 33 H        3.6480     1.4090     0.7110 H     1 <1>   0.0800 
 34 H        2.6900     2.5900    -0.1000 H     1 <1>   0.0800 
 35 H        2.7120    -3.4210     3.6710 H     1 <1>   0.1500 
 36 H        5.2490     0.3670    -0.4950 H     1 <1>   0.4500 
 37 H        4.9890     3.0370    -0.5710 H     1 <1>   0.0800 
 38 H        4.2250     2.5300    -2.0510 H     1 <1>   0.0800 
 39 H        7.2790     2.2460    -1.5000 H     1 <1>   0.0800 
 40 H        7.5730     0.6080    -0.9710 H     1 <1>   0.0800 
 41 H       -2.4310    -3.8800     1.1980 H     1 <1>   0.0800 
 42 H       -1.5760    -3.2310     2.5960 H     1 <1>   0.0800 
 43 H       -1.1120    -4.7970     1.9230 H     1 <1>   0.0800 
 44 H        6.5870     5.1390     2.7100 H     1 <1>   0.0800 
 45 H        7.8620     4.4210     3.6690 H     1 <1>   0.0800 
 46 H        6.1930     3.9850     3.9660 H     1 <1>   0.0800 
@<TRIPOS>BOND
  1   1   2  2   
  2   2   3  am  
  3   2   4  1   
  4   3   5  1   
  5   3   6  1   
  6   4   7  ar  
  7   4   8  ar  
  8   5   9  1   
  9   5  25  1   
 10   5  26  1   
 11   6  10  1   
 12   6  27  1   
 13   6  28  1   
 14   7  11  ar  
 15   7  29  1   
 16   8  12  ar  
 17   8  30  1   
 18   9  13  1   
 19   9  31  1   
 20   9  32  1   
 21  10  14  1   
 22  10  33  1   
 23  10  34  1   
 24  11  15  1   
 25  11  16  ar  
 26  12  16  ar  
 27  12  35  1   
 28  13  14  1   
 29  13  17  1   
 30  13  36  1   
 31  14  37  1   
 32  14  38  1   
 33  15  18  1   
 34  17  19  1   
 35  17  39  1   
 36  17  40  1   
 37  18  41  1   
 38  18  42  1   
 39  18  43  1   
 40  19  20  2   
 41  19  21  1   
 42  20  22  1   
 43  21  23  2   
 44  22  23  1   
 45  23  24  1   
 46  24  44  1   
 47  24  45  1   
 48  24  46  1   
@<TRIPOS>SUBSTRUCTURE
  1 ****   2 GROUP 4 **** **** 0

# MOE 2024.06 (io_trps.svl 2023.06)
