@<TRIPOS>MOLECULE
NONAME
57 59 1 0 0 
SMALL
USER_CHARGES


@<TRIPOS>ATOM
  1 O       -1.3340    -2.5750    -1.9130 O.co2 1 <1>  -0.9000 
  2 C       -1.1810    -2.2290    -0.7280 C.2   1 <1>   0.9790 
  3 O       -0.0420    -2.2670    -0.2360 O.co2 1 <1>  -0.9000 
  4 C       -2.3410    -1.9110     0.0720 C.ar  1 <1>  -0.1790 
  5 C       -2.8240    -0.6320     0.4040 C.ar  1 <1>   0.0830 
  6 C       -3.0820    -3.0050     0.5030 C.ar  1 <1>  -0.1500 
  7 O       -2.2420     0.5530     0.0910 O.3   1 <1>  -0.3630 
  8 C       -4.0150    -0.5110     1.1060 C.ar  1 <1>  -0.1500 
  9 C       -4.2920    -2.8810     1.1540 C.ar  1 <1>  -0.1430 
 10 C       -0.9390     0.6690    -0.4400 C.3   1 <1>   0.0400 
 11 C       -4.7570    -1.6170     1.4760 C.ar  1 <1>  -0.1500 
 12 C       -5.0770    -4.1400     1.4210 C.3   1 <1>   0.4870 
 13 N       -5.7550    -4.4360     0.1340 N.4   1 <1>  -0.9590 
 14 C       -5.6710    -5.8840    -0.2450 C.3   1 <1>   0.5660 
 15 C       -7.1420    -3.8820     0.0810 C.3   1 <1>   0.3430 
 16 C       -4.2120    -6.1570    -0.5740 C.ar  1 <1>  -0.1430 
 17 C       -6.5900    -6.2780    -1.4340 C.3   1 <1>   0.2000 
 18 C       -7.8740    -4.3070    -1.2030 C.3   1 <1>   0.1200 
 19 C       -3.4820    -7.0340     0.2130 C.ar  1 <1>  -0.1500 
 20 C       -3.5770    -5.5010    -1.6210 C.ar  1 <1>  -0.1500 
 21 O       -7.8680    -5.6990    -1.3130 O.3   1 <1>  -0.5600 
 22 C       -6.7410    -7.8060    -1.5020 C.3   1 <1>   0.1200 
 23 C       -2.1240    -7.2240     0.0180 C.ar  1 <1>   0.0830 
 24 C       -2.2230    -5.6730    -1.8240 C.ar  1 <1>  -0.1500 
 25 O       -7.0390    -8.3170    -0.2410 O.3   1 <1>  -0.6800 
 26 O       -1.5560    -8.1110     0.8850 O.3   1 <1>  -0.3630 
 27 C       -1.4760    -6.5010    -0.9990 C.ar  1 <1>   0.0830 
 28 C       -0.1890    -8.4540     0.8350 C.3   1 <1>   0.0400 
 29 O       -0.1340    -6.5560    -1.1990 O.3   1 <1>  -0.3630 
 30 C        0.5670    -5.3240    -1.1400 C.3   1 <1>   0.0400 
 31 H       -2.6720    -3.9770     0.2880 H     1 <1>   0.1500 
 32 H       -4.3590     0.4770     1.3540 H     1 <1>   0.1500 
 33 H       -0.6950     1.7120    -0.5070 H     1 <1>   0.0800 
 34 H       -0.9160     0.2290    -1.4220 H     1 <1>   0.0800 
 35 H       -0.2470     0.1750     0.2180 H     1 <1>   0.0800 
 36 H       -5.6840    -1.4770     2.0040 H     1 <1>   0.1500 
 37 H       -5.7870    -3.9990     2.2180 H     1 <1>   0.0800 
 38 H       -4.3940    -4.9310     1.6860 H     1 <1>   0.0800 
 39 H       -5.1690    -3.9410    -0.5550 H     1 <1>   0.4500 
 40 H       -5.9570    -6.4820     0.6040 H     1 <1>   0.0800 
 41 H       -7.7100    -4.2390     0.9240 H     1 <1>   0.0800 
 42 H       -7.1060    -2.8060     0.1330 H     1 <1>   0.0800 
 43 H       -6.1720    -5.9340    -2.3630 H     1 <1>   0.0800 
 44 H       -7.4120    -3.8810    -2.0780 H     1 <1>   0.0800 
 45 H       -8.9010    -3.9870    -1.1660 H     1 <1>   0.0800 
 46 H       -3.9550    -7.5820     1.0100 H     1 <1>   0.1500 
 47 H       -4.0940    -4.8220    -2.2770 H     1 <1>   0.1500 
 48 H       -5.8220    -8.2610    -1.8330 H     1 <1>   0.0800 
 49 H       -7.5320    -8.0710    -2.1830 H     1 <1>   0.0800 
 50 H       -1.7390    -5.1290    -2.6190 H     1 <1>   0.1500 
 51 H       -7.3320    -9.2510    -0.3080 H     1 <1>   0.4000 
 52 H       -0.0020    -9.2000     1.5850 H     1 <1>   0.0800 
 53 H        0.3980    -7.5750     1.0370 H     1 <1>   0.0800 
 54 H        0.0360    -8.8490    -0.1400 H     1 <1>   0.0800 
 55 H        1.6210    -5.5280    -1.1620 H     1 <1>   0.0800 
 56 H        0.3130    -4.8160    -0.2260 H     1 <1>   0.0800 
 57 H        0.3020    -4.7070    -1.9800 H     1 <1>   0.0800 
@<TRIPOS>BOND
  1   1   2  ar  
  2   2   3  ar  
  3   2   4  1   
  4   4   5  ar  
  5   4   6  ar  
  6   5   7  1   
  7   5   8  ar  
  8   6   9  ar  
  9   6  31  1   
 10   7  10  1   
 11   8  11  ar  
 12   8  32  1   
 13   9  11  ar  
 14   9  12  1   
 15  10  33  1   
 16  10  34  1   
 17  10  35  1   
 18  11  36  1   
 19  12  13  1   
 20  12  37  1   
 21  12  38  1   
 22  13  14  1   
 23  13  15  1   
 24  13  39  1   
 25  14  16  1   
 26  14  17  1   
 27  14  40  1   
 28  15  18  1   
 29  15  41  1   
 30  15  42  1   
 31  16  19  ar  
 32  16  20  ar  
 33  17  21  1   
 34  17  22  1   
 35  17  43  1   
 36  18  21  1   
 37  18  44  1   
 38  18  45  1   
 39  19  23  ar  
 40  19  46  1   
 41  20  24  ar  
 42  20  47  1   
 43  22  25  1   
 44  22  48  1   
 45  22  49  1   
 46  23  26  1   
 47  23  27  ar  
 48  24  27  ar  
 49  24  50  1   
 50  25  51  1   
 51  26  28  1   
 52  27  29  1   
 53  28  52  1   
 54  28  53  1   
 55  28  54  1   
 56  29  30  1   
 57  30  55  1   
 58  30  56  1   
 59  30  57  1   
@<TRIPOS>SUBSTRUCTURE
  1 ****   6 GROUP 4 **** **** 0

# MOE 2024.06 (io_trps.svl 2023.06)
