@<TRIPOS>MOLECULE
NONAME
45 46 1 0 0 
SMALL
USER_CHARGES


@<TRIPOS>ATOM
  1 O        2.1180    -0.6320    -0.2660 O.co2 1 <1>  -0.9000 
  2 C        1.3810    -1.2450     0.5280 C.2   1 <1>   0.9790 
  3 O        0.7040    -0.5960     1.3440 O.co2 1 <1>  -0.9000 
  4 C        1.3020    -2.7010     0.4930 C.ar  1 <1>  -0.1790 
  5 C        0.5280    -3.4120     1.4120 C.ar  1 <1>  -0.1500 
  6 C        1.9910    -3.4440    -0.4650 C.ar  1 <1>  -0.1500 
  7 C        0.4340    -4.7900     1.3720 C.ar  1 <1>  -0.1500 
  8 C        1.9030    -4.8230    -0.5150 C.ar  1 <1>  -0.1500 
  9 C        1.1180    -5.5060     0.4000 C.ar  1 <1>  -0.1430 
 10 C        0.9930    -7.0140     0.3140 C.3   1 <1>   0.4870 
 11 N       -0.4190    -7.4040     0.1110 N.4   1 <1>  -0.9590 
 12 C       -0.6170    -8.8850    -0.0800 C.3   1 <1>   0.3430 
 13 C       -1.1860    -6.5950    -0.8730 C.3   1 <1>   0.3430 
 14 C       -2.0440    -9.2390    -0.5770 C.3   1 <1>   0.2000 
 15 C       -2.6940    -6.8060    -0.6400 C.3   1 <1>  -0.1600 
 16 O       -2.0490    -9.2400    -1.9740 O.3   1 <1>  -0.6800 
 17 C       -3.0650    -8.2080    -0.0480 C.3   1 <1>  -0.1060 
 18 C       -2.8600    -8.2700     1.4780 C.2   1 <1>   0.9060 
 19 C       -4.5200    -8.5980    -0.4320 C.3   1 <1>  -0.1600 
 20 O       -2.2850    -7.3320     2.0500 O.co2 1 <1>  -0.9000 
 21 O       -3.0450    -9.3450     2.0470 O.co2 1 <1>  -0.9000 
 22 C       -5.5840    -7.6580     0.1580 C.3   1 <1>  -0.1600 
 23 C       -6.9930    -8.1070    -0.2410 C.3   1 <1>  -0.2400 
 24 H       -0.0100    -2.8580     2.1650 H     1 <1>   0.1500 
 25 H        2.6010    -2.9130    -1.1780 H     1 <1>   0.1500 
 26 H       -0.1850    -5.2930     2.0990 H     1 <1>   0.1500 
 27 H        2.4510    -5.3470    -1.2780 H     1 <1>   0.1500 
 28 H        1.3630    -7.4550     1.2250 H     1 <1>   0.0800 
 29 H        1.5880    -7.3720    -0.5080 H     1 <1>   0.0800 
 30 H       -0.9190    -7.1880     1.0130 H     1 <1>   0.4500 
 31 H        0.0980    -9.2800    -0.7790 H     1 <1>   0.0800 
 32 H       -0.4690    -9.3700     0.8720 H     1 <1>   0.0800 
 33 H       -0.9580    -5.5460    -0.7750 H     1 <1>   0.0800 
 34 H       -0.9270    -6.9120    -1.8700 H     1 <1>   0.0800 
 35 H       -2.2980   -10.2340    -0.2500 H     1 <1>   0.0800 
 36 H       -3.0550    -6.0300     0.0130 H     1 <1>   0.0800 
 37 H       -3.1840    -6.6630    -1.5860 H     1 <1>   0.0800 
 38 H       -2.9420    -9.4870    -2.2880 H     1 <1>   0.4000 
 39 H       -4.6270    -8.6120    -1.5020 H     1 <1>   0.0800 
 40 H       -4.7140    -9.5950    -0.0700 H     1 <1>   0.0800 
 41 H       -5.5110    -7.6560     1.2330 H     1 <1>   0.0800 
 42 H       -5.4280    -6.6510    -0.1870 H     1 <1>   0.0800 
 43 H       -7.1840    -9.1010     0.1230 H     1 <1>   0.0800 
 44 H       -7.1050    -8.0980    -1.3110 H     1 <1>   0.0800 
 45 H       -7.7230    -7.4420     0.1860 H     1 <1>   0.0800 
@<TRIPOS>BOND
  1   1   2  ar  
  2   2   3  ar  
  3   2   4  1   
  4   4   5  ar  
  5   4   6  ar  
  6   5   7  ar  
  7   5  24  1   
  8   6   8  ar  
  9   6  25  1   
 10   7   9  ar  
 11   7  26  1   
 12   8   9  ar  
 13   8  27  1   
 14   9  10  1   
 15  10  11  1   
 16  10  28  1   
 17  10  29  1   
 18  11  12  1   
 19  11  13  1   
 20  11  30  1   
 21  12  14  1   
 22  12  31  1   
 23  12  32  1   
 24  13  15  1   
 25  13  33  1   
 26  13  34  1   
 27  14  16  1   
 28  14  17  1   
 29  14  35  1   
 30  15  17  1   
 31  15  36  1   
 32  15  37  1   
 33  16  38  1   
 34  17  18  1   
 35  17  19  1   
 36  18  20  ar  
 37  18  21  ar  
 38  19  22  1   
 39  19  39  1   
 40  19  40  1   
 41  22  23  1   
 42  22  41  1   
 43  22  42  1   
 44  23  43  1   
 45  23  44  1   
 46  23  45  1   
@<TRIPOS>SUBSTRUCTURE
  1 ****  13 GROUP 4 **** **** 0

# MOE 2024.06 (io_trps.svl 2023.06)
