@<TRIPOS>MOLECULE
NONAME
48 51 1 0 0 
SMALL
USER_CHARGES


@<TRIPOS>ATOM
  1 S       -0.9650     0.3190     1.0480 S.o2  1 <1>   1.4470 
  2 O       -1.6140     1.4170     1.7250 O.2   1 <1>  -0.6500 
  3 O       -1.1960    -1.0120     1.5750 O.2   1 <1>  -0.6500 
  4 N       -1.6430     0.2770    -0.5150 N.am  1 <1>  -0.8490 
  5 C        0.8090     0.6210     0.7720 C.ar  1 <1>  -0.0090 
  6 C       -3.0550     0.7200    -0.5620 C.3   1 <1>   0.1960 
  7 C       -1.4780    -1.0130    -1.2300 C.3   1 <1>   0.1960 
  8 C        1.3150     1.8100     0.2300 C.ar  1 <1>  -0.1440 
  9 C        1.7160    -0.3830     1.0980 C.ar  1 <1>  -0.1500 
 10 C       -4.0460    -0.2810     0.1050 C.3   1 <1>   0.4230 
 11 C       -2.6310    -2.0330    -0.9900 C.3   1 <1>   0.3430 
 12 C        2.6800     1.9730     0.0200 C.ar  1 <1>  -0.1500 
 13 C        0.4000     2.9710    -0.1440 C.3   1 <1>  -0.0960 
 14 C        3.0650    -0.1980     0.8790 C.ar  1 <1>   0.1900 
 15 N       -3.4630    -1.6790     0.2120 N.4   1 <1>  -0.9590 
 16 C       -5.3860    -0.2800    -0.6690 C.3   1 <1>   0.1200 
 17 C        3.5690     0.9650     0.3430 C.ar  1 <1>  -0.1500 
 18 F        3.8880    -1.1610     1.1890 F     1 <1>  -0.1900 
 19 C       -4.4880    -2.6850     0.6370 C.3   1 <1>   0.5180 
 20 O       -6.2610    -1.2480    -0.1690 O.3   1 <1>  -0.5600 
 21 C       -3.8580    -4.0920     0.6460 C.3   1 <1>  -0.1950 
 22 C       -5.7740    -2.5610    -0.2110 C.3   1 <1>   0.1200 
 23 C       -3.8020    -5.0140    -0.5390 C.3   1 <1>  -0.2000 
 24 C       -4.6710    -5.3520     0.6390 C.3   1 <1>  -0.2000 
 25 H       -3.1630     1.6900    -0.1040 H     1 <1>   0.0800 
 26 H       -3.3260     0.8520    -1.5960 H     1 <1>   0.0800 
 27 H       -1.4190    -0.8180    -2.2870 H     1 <1>   0.0800 
 28 H       -0.5400    -1.4650    -0.9530 H     1 <1>   0.0800 
 29 H        1.3850    -1.3130     1.5260 H     1 <1>   0.1500 
 30 H       -4.2510     0.0800     1.1000 H     1 <1>   0.0800 
 31 H       -2.1970    -3.0120    -0.8690 H     1 <1>   0.0800 
 32 H       -3.2590    -2.0640    -1.8650 H     1 <1>   0.0800 
 33 H        3.0640     2.8900    -0.3960 H     1 <1>   0.1500 
 34 H        0.9610     3.7880    -0.5620 H     1 <1>   0.0800 
 35 H       -0.1130     3.3380     0.7270 H     1 <1>   0.0800 
 36 H       -0.3250     2.6630    -0.8760 H     1 <1>   0.0800 
 37 H       -2.7730    -1.6320     0.9880 H     1 <1>   0.4500 
 38 H       -5.2330    -0.4730    -1.7160 H     1 <1>   0.0800 
 39 H       -5.8700     0.6760    -0.5670 H     1 <1>   0.0800 
 40 H        4.6270     1.0770     0.1850 H     1 <1>   0.1500 
 41 H       -4.7750    -2.4640     1.6520 H     1 <1>   0.0800 
 42 H       -3.0200    -4.1170     1.3230 H     1 <1>   0.1000 
 43 H       -6.5430    -3.1980     0.1890 H     1 <1>   0.0800 
 44 H       -5.6010    -2.8350    -1.2360 H     1 <1>   0.0800 
 45 H       -4.3030    -4.7820    -1.4640 H     1 <1>   0.1000 
 46 H       -2.9230    -5.6170    -0.6980 H     1 <1>   0.1000 
 47 H       -4.3690    -6.1670     1.2760 H     1 <1>   0.1000 
 48 H       -5.7380    -5.3340     0.4960 H     1 <1>   0.1000 
@<TRIPOS>BOND
  1   1   2  2   
  2   1   3  2   
  3   1   4  am  
  4   1   5  1   
  5   4   6  1   
  6   4   7  1   
  7   5   8  ar  
  8   5   9  ar  
  9   6  10  1   
 10   6  25  1   
 11   6  26  1   
 12   7  11  1   
 13   7  27  1   
 14   7  28  1   
 15   8  12  ar  
 16   8  13  1   
 17   9  14  ar  
 18   9  29  1   
 19  10  15  1   
 20  10  16  1   
 21  10  30  1   
 22  11  15  1   
 23  11  31  1   
 24  11  32  1   
 25  12  17  ar  
 26  12  33  1   
 27  13  34  1   
 28  13  35  1   
 29  13  36  1   
 30  14  17  ar  
 31  14  18  1   
 32  15  19  1   
 33  15  37  1   
 34  16  20  1   
 35  16  38  1   
 36  16  39  1   
 37  17  40  1   
 38  19  21  1   
 39  19  22  1   
 40  19  41  1   
 41  20  22  1   
 42  21  23  1   
 43  21  24  1   
 44  21  42  1   
 45  22  43  1   
 46  22  44  1   
 47  23  24  1   
 48  23  45  1   
 49  23  46  1   
 50  24  47  1   
 51  24  48  1   
@<TRIPOS>SUBSTRUCTURE
  1 ****   4 GROUP 4 **** **** 0

# MOE 2024.06 (io_trps.svl 2023.06)
