@<TRIPOS>MOLECULE
NONAME
52 53 1 0 0 
SMALL
USER_CHARGES


@<TRIPOS>ATOM
  1 O        0.3250    -0.3410     1.0050 O.2   1 <1>  -0.5700 
  2 C        1.2810    -0.7140     0.3710 C.2   1 <1>   0.5690 
  3 N        2.2260     0.1280    -0.1430 N.am  1 <1>  -0.4940 
  4 C        1.4630    -2.2080     0.1420 C.3   1 <1>  -0.0990 
  5 C        2.2540     1.5440    -0.1230 C.2   1 <1>  -0.0880 
  6 C        0.1370    -2.9920     0.2680 C.3   1 <1>  -0.1600 
  7 N        3.3630     2.2890     0.1410 N.pl3 1 <1>   0.3140 
  8 C        1.2550     2.4310    -0.3570 C.2   1 <1>  -0.1810 
  9 C        0.2650    -4.4910    -0.0320 C.3   1 <1>   0.4230 
 10 N        3.1040     3.6120     0.0770 N.2   1 <1>  -0.7070 
 11 C        4.7030     1.7990     0.5250 C.3   1 <1>   0.0960 
 12 C        1.8430     3.6830    -0.2160 C.2   1 <1>   0.1390 
 13 C       -0.2000     2.1820    -0.7050 C.3   1 <1>  -0.0590 
 14 N       -1.0940    -5.0760    -0.1400 N.4   1 <1>  -0.9590 
 15 C        1.0850    -5.2310     1.0290 C.3   1 <1>  -0.2400 
 16 C        5.5470     1.4570    -0.7100 C.3   1 <1>  -0.2400 
 17 C       -1.9350    -5.0690     1.1080 C.3   1 <1>   0.3430 
 18 C       -1.1350    -6.4300    -0.7880 C.3   1 <1>   0.3430 
 19 C       -3.3860    -5.5130     0.7990 C.3   1 <1>   0.1100 
 20 C       -2.5940    -6.8730    -1.0610 C.3   1 <1>   0.1100 
 21 N       -3.5770    -5.8520    -0.6320 N.3   1 <1>  -0.8100 
 22 C       -4.9540    -6.2880    -0.8980 C.3   1 <1>   0.0300 
 23 H        3.0290    -0.3120    -0.5890 H     1 <1>   0.3700 
 24 H        2.1720    -2.5590     0.8690 H     1 <1>   0.0800 
 25 H        1.8770    -2.3580    -0.8390 H     1 <1>   0.0800 
 26 H       -0.5660    -2.5560    -0.4200 H     1 <1>   0.0800 
 27 H       -0.2430    -2.8510     1.2650 H     1 <1>   0.0800 
 28 H        0.7570    -4.6010    -0.9850 H     1 <1>   0.0800 
 29 H        4.5860     0.9380     1.1560 H     1 <1>   0.0800 
 30 H        5.1870     2.5720     1.0940 H     1 <1>   0.0800 
 31 H        1.3180     4.6160    -0.3350 H     1 <1>   0.1500 
 32 H       -0.3120     1.2260    -1.1820 H     1 <1>   0.0800 
 33 H       -0.5590     2.9440    -1.3720 H     1 <1>   0.0800 
 34 H       -0.7930     2.1920     0.1920 H     1 <1>   0.0800 
 35 H       -1.6580    -4.5030    -0.7870 H     1 <1>   0.4500 
 36 H        0.6950    -5.0610     2.0160 H     1 <1>   0.0800 
 37 H        2.1010    -4.8810     1.0140 H     1 <1>   0.0800 
 38 H        1.1120    -6.2870     0.8330 H     1 <1>   0.0800 
 39 H        5.0810     0.6820    -1.2900 H     1 <1>   0.0800 
 40 H        6.5210     1.1200    -0.4030 H     1 <1>   0.0800 
 41 H        5.6690     2.3340    -1.3220 H     1 <1>   0.0800 
 42 H       -1.9620    -4.0790     1.5320 H     1 <1>   0.0800 
 43 H       -1.5100    -5.7300     1.8440 H     1 <1>   0.0800 
 44 H       -0.6580    -7.1590    -0.1540 H     1 <1>   0.0800 
 45 H       -0.5990    -6.4060    -1.7220 H     1 <1>   0.0800 
 46 H       -4.0580    -4.7140     1.0670 H     1 <1>   0.0800 
 47 H       -3.6340    -6.3620     1.4140 H     1 <1>   0.0800 
 48 H       -2.7830    -7.8020    -0.5490 H     1 <1>   0.0800 
 49 H       -2.7100    -7.0570    -2.1160 H     1 <1>   0.0800 
 50 H       -5.6480    -5.5130    -0.6170 H     1 <1>   0.0800 
 51 H       -5.1870    -7.1820    -0.3440 H     1 <1>   0.0800 
 52 H       -5.0810    -6.4850    -1.9500 H     1 <1>   0.0800 
@<TRIPOS>BOND
  1   1   2  2   
  2   2   3  am  
  3   2   4  1   
  4   3   5  1   
  5   3  23  1   
  6   4   6  1   
  7   4  24  1   
  8   4  25  1   
  9   5   7  1   
 10   5   8  2   
 11   6   9  1   
 12   6  26  1   
 13   6  27  1   
 14   7  10  1   
 15   7  11  1   
 16   8  12  1   
 17   8  13  1   
 18   9  14  1   
 19   9  15  1   
 20   9  28  1   
 21  10  12  2   
 22  11  16  1   
 23  11  29  1   
 24  11  30  1   
 25  12  31  1   
 26  13  32  1   
 27  13  33  1   
 28  13  34  1   
 29  14  17  1   
 30  14  18  1   
 31  14  35  1   
 32  15  36  1   
 33  15  37  1   
 34  15  38  1   
 35  16  39  1   
 36  16  40  1   
 37  16  41  1   
 38  17  19  1   
 39  17  42  1   
 40  17  43  1   
 41  18  20  1   
 42  18  44  1   
 43  18  45  1   
 44  19  21  1   
 45  19  46  1   
 46  19  47  1   
 47  20  21  1   
 48  20  48  1   
 49  20  49  1   
 50  21  22  1   
 51  22  50  1   
 52  22  51  1   
 53  22  52  1   
@<TRIPOS>SUBSTRUCTURE
  1 ****   4 GROUP 4 **** **** 0

# MOE 2024.06 (io_trps.svl 2023.06)
