@<TRIPOS>MOLECULE
NONAME
46 47 1 0 0 
SMALL
USER_CHARGES


@<TRIPOS>ATOM
  1 O       -4.5040     1.1870     1.1920 O.2   1 <1>  -0.5700 
  2 C       -3.5270     1.8830     1.0600 C.2   1 <1>   0.5690 
  3 N       -2.4320     1.4680     0.3850 N.am  1 <1>  -0.7300 
  4 C       -3.5460     3.2650     1.6840 C.3   1 <1>  -0.0990 
  5 C       -2.2420     0.1800    -0.2850 C.3   1 <1>   0.2200 
  6 C       -2.1630     3.8790     1.9200 C.3   1 <1>   0.2090 
  7 C       -1.2090    -0.6340     0.5000 C.3   1 <1>  -0.1600 
  8 C       -1.7690     0.4430    -1.7180 C.3   1 <1>  -0.1600 
  9 N       -1.5670     4.3150     0.6310 N.pl3 1 <1>  -0.8690 
 10 C       -0.8660    -1.9470    -0.2210 C.3   1 <1>  -0.1600 
 11 C       -1.4290    -0.8660    -2.4440 C.3   1 <1>  -0.1600 
 12 C       -0.2380     4.0650     0.3140 C.ar  1 <1>   0.4100 
 13 C       -0.3940    -1.6830    -1.6580 C.3   1 <1>  -0.1600 
 14 N        0.2310     2.8760     0.6400 N.ar  1 <1>  -0.6200 
 15 C        0.5370     5.0710    -0.3490 C.ar  1 <1>   0.4100 
 16 C        1.5040     2.7290     0.2910 C.ar  1 <1>   0.1600 
 17 N        1.8040     4.9000    -0.6830 N.ar  1 <1>  -0.6200 
 18 N       -0.0410     6.3010    -0.6990 N.pl3 1 <1>  -0.8380 
 19 C        2.2580     3.7010    -0.3420 C.ar  1 <1>   0.1600 
 20 C       -0.7690     6.2940    -1.9940 C.3   1 <1>   0.1290 
 21 C        0.7970     7.5170    -0.5090 C.3   1 <1>   0.1290 
 22 H       -1.6330     2.1220     0.3250 H     1 <1>   0.3700 
 23 H       -4.0400     3.1770     2.6330 H     1 <1>   0.0800 
 24 H       -4.1350     3.9170     1.0680 H     1 <1>   0.0800 
 25 H       -3.1770    -0.3570    -0.3080 H     1 <1>   0.0800 
 26 H       -1.5270     3.1670     2.4200 H     1 <1>   0.0800 
 27 H       -2.2600     4.7390     2.5590 H     1 <1>   0.0800 
 28 H       -1.6020    -0.8540     1.4760 H     1 <1>   0.0800 
 29 H       -0.3120    -0.0520     0.6170 H     1 <1>   0.0800 
 30 H       -0.8950     1.0710    -1.6950 H     1 <1>   0.0800 
 31 H       -2.5450     0.9600    -2.2560 H     1 <1>   0.0800 
 32 H       -1.7680     5.2990     0.4060 H     1 <1>   0.4000 
 33 H       -1.7400    -2.5760    -0.2440 H     1 <1>   0.0800 
 34 H       -0.0980    -2.4670     0.3230 H     1 <1>   0.0800 
 35 H       -1.0460    -0.6450    -3.4250 H     1 <1>   0.0800 
 36 H       -2.3260    -1.4490    -2.5630 H     1 <1>   0.0800 
 37 H       -0.2180    -2.6200    -2.1580 H     1 <1>   0.0800 
 38 H        0.5380    -1.1430    -1.6320 H     1 <1>   0.0800 
 39 H        1.9630     1.7850     0.5240 H     1 <1>   0.1500 
 40 H        3.2840     3.4870    -0.5820 H     1 <1>   0.1500 
 41 H       -1.3430     5.3880    -2.0920 H     1 <1>   0.0800 
 42 H       -0.0660     6.3470    -2.8080 H     1 <1>   0.0800 
 43 H       -1.4370     7.1360    -2.0450 H     1 <1>   0.0800 
 44 H        1.3440     7.4420     0.4150 H     1 <1>   0.0800 
 45 H        0.1720     8.3930    -0.4720 H     1 <1>   0.0800 
 46 H        1.4990     7.6120    -1.3190 H     1 <1>   0.0800 
@<TRIPOS>BOND
  1   1   2  2   
  2   2   3  am  
  3   2   4  1   
  4   3   5  1   
  5   3  22  1   
  6   4   6  1   
  7   4  23  1   
  8   4  24  1   
  9   5   7  1   
 10   5   8  1   
 11   5  25  1   
 12   6   9  1   
 13   6  26  1   
 14   6  27  1   
 15   7  10  1   
 16   7  28  1   
 17   7  29  1   
 18   8  11  1   
 19   8  30  1   
 20   8  31  1   
 21   9  12  1   
 22   9  32  1   
 23  10  13  1   
 24  10  33  1   
 25  10  34  1   
 26  11  13  1   
 27  11  35  1   
 28  11  36  1   
 29  12  14  ar  
 30  12  15  ar  
 31  13  37  1   
 32  13  38  1   
 33  14  16  ar  
 34  15  17  ar  
 35  15  18  1   
 36  16  19  ar  
 37  16  39  1   
 38  17  19  ar  
 39  18  20  1   
 40  18  21  1   
 41  19  40  1   
 42  20  41  1   
 43  20  42  1   
 44  20  43  1   
 45  21  44  1   
 46  21  45  1   
 47  21  46  1   
@<TRIPOS>SUBSTRUCTURE
  1 ****  14 GROUP 4 **** **** 0

# MOE 2024.06 (io_trps.svl 2023.06)
