@<TRIPOS>MOLECULE
NONAME
41 42 1 0 0 
SMALL
USER_CHARGES


@<TRIPOS>ATOM
  1 F       -1.3210    -1.8110     0.7400 F     1 <1>  -0.1900 
  2 C       -1.6810    -0.6860     0.1850 C.ar  1 <1>   0.1900 
  3 C       -2.8750    -0.0810     0.5810 C.ar  1 <1>   0.0860 
  4 C       -0.8410    -0.1550    -0.7810 C.ar  1 <1>  -0.1500 
  5 C       -3.7410    -0.6560     1.5830 C.2   1 <1>   0.5440 
  6 C       -3.2060     1.1240    -0.0380 C.ar  1 <1>  -0.1500 
  7 C       -1.1890     1.0390    -1.3890 C.ar  1 <1>  -0.1500 
  8 O       -3.7990    -0.1210     2.6740 O.2   1 <1>  -0.5700 
  9 N       -4.5330    -1.7510     1.3140 N.am  1 <1>  -0.6600 
 10 C       -2.3680     1.6520    -1.0010 C.ar  1 <1>   0.1900 
 11 C       -4.6690    -2.3820    -0.0340 C.3   1 <1>   0.1400 
 12 C       -5.4530    -2.3470     2.3230 C.3   1 <1>   0.1400 
 13 F       -2.7010     2.7790    -1.5700 F     1 <1>  -0.1900 
 14 C       -6.1130    -2.2160    -0.5280 C.3   1 <1>   0.2000 
 15 C       -6.9050    -2.2160     1.8390 C.3   1 <1>  -0.1600 
 16 O       -6.2100    -2.7730    -1.7920 O.3   1 <1>  -0.6800 
 17 C       -7.1400    -2.8630     0.4400 C.3   1 <1>  -0.1060 
 18 C       -6.9080    -4.3920     0.4850 C.2   1 <1>   0.9060 
 19 C       -8.5800    -2.5440    -0.0570 C.3   1 <1>  -0.1600 
 20 O       -6.6570    -4.9940    -0.5720 O.co2 1 <1>  -0.9000 
 21 O       -6.9640    -4.9970     1.5630 O.co2 1 <1>  -0.9000 
 22 C       -9.7100    -3.0860     0.8360 C.3   1 <1>  -0.1600 
 23 C      -11.0820    -2.8090     0.2150 C.3   1 <1>  -0.2400 
 24 H        0.0660    -0.6700    -1.0460 H     1 <1>   0.1500 
 25 H       -4.1110     1.6370     0.2360 H     1 <1>   0.1500 
 26 H       -0.5680     1.4880    -2.1430 H     1 <1>   0.1500 
 27 H       -4.0030    -1.9300    -0.7450 H     1 <1>   0.0800 
 28 H       -4.4260    -3.4290     0.0440 H     1 <1>   0.0800 
 29 H       -5.2030    -3.3860     2.4580 H     1 <1>   0.0800 
 30 H       -5.3440    -1.8580     3.2750 H     1 <1>   0.0800 
 31 H       -6.3180    -1.1660    -0.6360 H     1 <1>   0.0800 
 32 H       -7.5330    -2.6920     2.5700 H     1 <1>   0.0800 
 33 H       -7.1650    -1.1730     1.8140 H     1 <1>   0.0800 
 34 H       -6.3610    -3.7560    -1.6290 H     1 <1>   0.4000 
 35 H       -8.6940    -1.4790    -0.1580 H     1 <1>   0.0800 
 36 H       -8.7000    -2.9730    -1.0380 H     1 <1>   0.0800 
 37 H       -9.5890    -4.1490     0.9660 H     1 <1>   0.0800 
 38 H       -9.6700    -2.6280     1.8080 H     1 <1>   0.0800 
 39 H      -11.1570    -3.2890    -0.7460 H     1 <1>   0.0800 
 40 H      -11.2310    -1.7520     0.0900 H     1 <1>   0.0800 
 41 H      -11.8560    -3.1960     0.8520 H     1 <1>   0.0800 
@<TRIPOS>BOND
  1   1   2  1   
  2   2   3  ar  
  3   2   4  ar  
  4   3   5  1   
  5   3   6  ar  
  6   4   7  ar  
  7   4  24  1   
  8   5   8  2   
  9   5   9  am  
 10   6  10  ar  
 11   6  25  1   
 12   7  10  ar  
 13   7  26  1   
 14   9  11  1   
 15   9  12  1   
 16  10  13  1   
 17  11  14  1   
 18  11  27  1   
 19  11  28  1   
 20  12  15  1   
 21  12  29  1   
 22  12  30  1   
 23  14  16  1   
 24  14  17  1   
 25  14  31  1   
 26  15  17  1   
 27  15  32  1   
 28  15  33  1   
 29  16  34  1   
 30  17  18  1   
 31  17  19  1   
 32  18  20  ar  
 33  18  21  ar  
 34  19  22  1   
 35  19  35  1   
 36  19  36  1   
 37  22  23  1   
 38  22  37  1   
 39  22  38  1   
 40  23  39  1   
 41  23  40  1   
 42  23  41  1   
@<TRIPOS>SUBSTRUCTURE
  1 ****  11 GROUP 4 **** **** 0

# MOE 2024.06 (io_trps.svl 2023.06)
