@<TRIPOS>MOLECULE
NONAME
55 57 1 0 0 
SMALL
USER_CHARGES


@<TRIPOS>ATOM
  1 O       -0.2830     1.5410     2.5340 O.2   1 <1>  -0.5700 
  2 C       -0.2220     2.6480     2.0640 C.2   1 <1>   0.5690 
  3 N       -1.3170     3.4380     2.0170 N.am  1 <1>  -0.7300 
  4 C        1.0990     3.1590     1.4780 C.3   1 <1>   0.1810 
  5 C       -1.3060     4.8180     1.4750 C.3   1 <1>   0.3640 
  6 O        1.1260     4.5590     1.2960 O.3   1 <1>  -0.5600 
  7 C       -2.5450     5.0200     0.6060 C.ar  1 <1>  -0.1440 
  8 C       -0.0210     5.0940     0.6530 C.3   1 <1>   0.2610 
  9 C       -3.2770     6.1940     0.7220 C.ar  1 <1>  -0.1500 
 10 C       -2.9480     4.0640    -0.3190 C.ar  1 <1>  -0.1500 
 11 C        0.1620     6.5960     0.3790 C.2   1 <1>   0.5690 
 12 C       -4.3890     6.4190    -0.0710 C.ar  1 <1>   0.0820 
 13 C       -4.0670     4.2750    -1.1070 C.ar  1 <1>  -0.1500 
 14 O       -0.3020     7.3920     1.1680 O.2   1 <1>  -0.5700 
 15 N        0.8430     7.0310    -0.7340 N.am  1 <1>  -0.6600 
 16 O       -5.0290     7.6040     0.0730 O.3   1 <1>  -0.3620 
 17 C       -4.8010     5.4410    -0.9820 C.ar  1 <1>   0.0820 
 18 C        0.9080     8.4870    -1.0730 C.3   1 <1>   0.3200 
 19 C        1.5620     6.1390    -1.6920 C.3   1 <1>   0.0600 
 20 C       -4.9240     8.5000    -1.0120 C.3   1 <1>   0.0400 
 21 O       -5.8990     5.5760    -1.7660 O.3   1 <1>  -0.3630 
 22 C        2.3400     9.0090    -1.0690 C.2   1 <1>   0.0060 
 23 C       -7.1420     5.6480    -1.1030 C.3   1 <1>   0.0400 
 24 N        2.9490     9.3850    -2.1510 N.2   1 <1>  -0.5650 
 25 N        3.0990     9.1280     0.0520 N.pl3 1 <1>   0.0480 
 26 C        4.1630     9.7720    -1.7210 C.2   1 <1>   0.0770 
 27 C        4.2720     9.6230    -0.3850 C.2   1 <1>  -0.3020 
 28 C        2.7810     8.7940     1.4590 C.3   1 <1>   0.0960 
 29 C        1.9710     9.9120     2.1200 C.3   1 <1>  -0.2400 
 30 H       -2.1930     3.0980     2.4170 H     1 <1>   0.3700 
 31 H        1.2720     2.6900     0.5270 H     1 <1>   0.0800 
 32 H        1.9040     2.9010     2.1420 H     1 <1>   0.0800 
 33 H       -1.3430     5.4960     2.3100 H     1 <1>   0.0800 
 34 H       -0.1210     4.5960    -0.2920 H     1 <1>   0.0800 
 35 H       -2.9860     6.9570     1.4230 H     1 <1>   0.1500 
 36 H       -2.3970     3.1450    -0.4320 H     1 <1>   0.1500 
 37 H       -4.3810     3.5330    -1.8190 H     1 <1>   0.1500 
 38 H        0.4940     8.6300    -2.0550 H     1 <1>   0.0800 
 39 H        0.3180     9.0720    -0.3910 H     1 <1>   0.0800 
 40 H        2.4610     6.6140    -2.0460 H     1 <1>   0.0800 
 41 H        0.9300     5.9300    -2.5380 H     1 <1>   0.0800 
 42 H        1.8460     5.2150    -1.2210 H     1 <1>   0.0800 
 43 H       -5.4130     9.4170    -0.7390 H     1 <1>   0.0800 
 44 H       -5.4020     8.0710    -1.8750 H     1 <1>   0.0800 
 45 H       -3.8830     8.6810    -1.2110 H     1 <1>   0.0800 
 46 H       -7.9210     5.6020    -1.8430 H     1 <1>   0.0800 
 47 H       -7.2060     6.5750    -0.5620 H     1 <1>   0.0800 
 48 H       -7.2250     4.8150    -0.4280 H     1 <1>   0.0800 
 49 H        4.9050    10.1440    -2.4070 H     1 <1>   0.1500 
 50 H        5.1020     9.8380     0.2620 H     1 <1>   0.1500 
 51 H        2.2390     7.8680     1.4890 H     1 <1>   0.0800 
 52 H        3.7040     8.6530     1.9910 H     1 <1>   0.0800 
 53 H        1.0210    10.0300     1.6290 H     1 <1>   0.0800 
 54 H        2.5120    10.8410     2.0830 H     1 <1>   0.0800 
 55 H        1.7850     9.6620     3.1490 H     1 <1>   0.0800 
@<TRIPOS>BOND
  1   1   2  2   
  2   2   3  am  
  3   2   4  1   
  4   3   5  1   
  5   3  30  1   
  6   4   6  1   
  7   4  31  1   
  8   4  32  1   
  9   5   7  1   
 10   5   8  1   
 11   5  33  1   
 12   6   8  1   
 13   7   9  ar  
 14   7  10  ar  
 15   8  11  1   
 16   8  34  1   
 17   9  12  ar  
 18   9  35  1   
 19  10  13  ar  
 20  10  36  1   
 21  11  14  2   
 22  11  15  am  
 23  12  16  1   
 24  12  17  ar  
 25  13  17  ar  
 26  13  37  1   
 27  15  18  1   
 28  15  19  1   
 29  16  20  1   
 30  17  21  1   
 31  18  22  1   
 32  18  38  1   
 33  18  39  1   
 34  19  40  1   
 35  19  41  1   
 36  19  42  1   
 37  20  43  1   
 38  20  44  1   
 39  20  45  1   
 40  21  23  1   
 41  22  24  2   
 42  22  25  1   
 43  23  46  1   
 44  23  47  1   
 45  23  48  1   
 46  24  26  1   
 47  25  27  1   
 48  25  28  1   
 49  26  27  2   
 50  26  49  1   
 51  27  50  1   
 52  28  29  1   
 53  28  51  1   
 54  28  52  1   
 55  29  53  1   
 56  29  54  1   
 57  29  55  1   
@<TRIPOS>SUBSTRUCTURE
  1 ****  11 GROUP 4 **** **** 0

# MOE 2024.06 (io_trps.svl 2023.06)
