@<TRIPOS>MOLECULE
NONAME
57 59 1 0 0 
SMALL
USER_CHARGES


@<TRIPOS>ATOM
  1 O        3.5320     2.3240     1.7450 O.co2 1 <1>  -0.9000 
  2 C        2.8230     1.3380     1.4900 C.2   1 <1>   0.9060 
  3 O        2.7160     0.4080     2.2870 O.co2 1 <1>  -0.9000 
  4 C        2.3320     1.1210     0.0450 C.3   1 <1>  -0.1060 
  5 C        3.1560    -0.0980    -0.4280 C.3   1 <1>   0.2000 
  6 C        2.6810     2.3320    -0.8850 C.3   1 <1>  -0.1600 
  7 C        0.8070     0.8240     0.0140 C.3   1 <1>  -0.1600 
  8 O        2.8800    -0.3680    -1.7700 O.3   1 <1>  -0.6800 
  9 C        4.6750     0.1860    -0.2750 C.3   1 <1>   0.3430 
 10 C        4.1360     2.3430    -1.3920 C.3   1 <1>   0.3430 
 11 C       -0.0540     1.9720     0.5660 C.3   1 <1>  -0.1600 
 12 N        5.0060     1.6500    -0.4080 N.4   1 <1>  -0.9590 
 13 C       -1.5410     1.6070     0.5280 C.3   1 <1>  -0.2400 
 14 C        6.4480     1.9390    -0.5040 C.3   1 <1>   0.4860 
 15 C        6.6750     3.4410    -0.4730 C.ar  1 <1>  -0.1430 
 16 C        7.3280     4.0690    -1.5240 C.ar  1 <1>  -0.1500 
 17 C        6.2260     4.2010     0.6000 C.ar  1 <1>  -0.1500 
 18 C        7.5260     5.4380    -1.5010 C.ar  1 <1>  -0.1500 
 19 C        6.4230     5.5700     0.6210 C.ar  1 <1>  -0.1500 
 20 C        7.0760     6.1980    -0.4340 C.ar  1 <1>   0.0830 
 21 O        7.3120     7.5330    -0.5000 O.3   1 <1>  -0.3630 
 22 C        6.9400     8.4260     0.5320 C.3   1 <1>   0.2000 
 23 C        7.0830     9.8440    -0.0100 C.3   1 <1>  -0.1600 
 24 C        7.9770     8.3700     1.6530 C.3   1 <1>  -0.1600 
 25 C        8.5710    10.1880     0.1160 C.3   1 <1>  -0.1600 
 26 C        9.1470     9.2330     1.1690 C.3   1 <1>  -0.1600 
 27 H        2.9010    -0.9790     0.1400 H     1 <1>   0.0800 
 28 H        2.4880     3.2550    -0.3660 H     1 <1>   0.0800 
 29 H        2.0430     2.3270    -1.7500 H     1 <1>   0.0800 
 30 H        0.4940     0.6100    -0.9920 H     1 <1>   0.0800 
 31 H        0.6190    -0.0550     0.6090 H     1 <1>   0.0800 
 32 H        1.9300    -0.5830    -1.8620 H     1 <1>   0.4000 
 33 H        5.2100    -0.3960    -1.0060 H     1 <1>   0.0800 
 34 H        4.9740    -0.1400     0.7080 H     1 <1>   0.0800 
 35 H        4.4560     3.3630    -1.5330 H     1 <1>   0.0800 
 36 H        4.1910     1.8280    -2.3370 H     1 <1>   0.0800 
 37 H        0.2270     2.1800     1.5850 H     1 <1>   0.0800 
 38 H        0.1000     2.8670    -0.0100 H     1 <1>   0.0800 
 39 H        4.6870     2.0700     0.5050 H     1 <1>   0.4500 
 40 H       -1.7250     0.7320     1.1260 H     1 <1>   0.0800 
 41 H       -1.8580     1.4150    -0.4810 H     1 <1>   0.0800 
 42 H       -2.1260     2.4180     0.9240 H     1 <1>   0.0800 
 43 H        6.9640     1.4880     0.3280 H     1 <1>   0.0800 
 44 H        6.8420     1.5290    -1.4180 H     1 <1>   0.0800 
 45 H        7.6890     3.5050    -2.3660 H     1 <1>   0.1500 
 46 H        5.7110     3.7370     1.4290 H     1 <1>   0.1500 
 47 H        8.0320     5.9310    -2.3110 H     1 <1>   0.1500 
 48 H        6.0600     6.1240     1.4660 H     1 <1>   0.1500 
 49 H        5.9330     8.2150     0.8460 H     1 <1>   0.0800 
 50 H        6.7230     9.9250    -1.0210 H     1 <1>   0.0800 
 51 H        6.5160    10.5100     0.6160 H     1 <1>   0.0800 
 52 H        7.5540     8.8190     2.5340 H     1 <1>   0.0800 
 53 H        8.2810     7.3650     1.8870 H     1 <1>   0.0800 
 54 H        9.0630    10.0170    -0.8270 H     1 <1>   0.0800 
 55 H        8.7060    11.2170     0.3990 H     1 <1>   0.0800 
 56 H        9.6000     9.7670     1.9860 H     1 <1>   0.0800 
 57 H        9.8900     8.6030     0.7090 H     1 <1>   0.0800 
@<TRIPOS>BOND
  1   1   2  ar  
  2   2   3  ar  
  3   2   4  1   
  4   4   5  1   
  5   4   6  1   
  6   4   7  1   
  7   5   8  1   
  8   5   9  1   
  9   5  27  1   
 10   6  10  1   
 11   6  28  1   
 12   6  29  1   
 13   7  11  1   
 14   7  30  1   
 15   7  31  1   
 16   8  32  1   
 17   9  12  1   
 18   9  33  1   
 19   9  34  1   
 20  10  12  1   
 21  10  35  1   
 22  10  36  1   
 23  11  13  1   
 24  11  37  1   
 25  11  38  1   
 26  12  14  1   
 27  12  39  1   
 28  13  40  1   
 29  13  41  1   
 30  13  42  1   
 31  14  15  1   
 32  14  43  1   
 33  14  44  1   
 34  15  16  ar  
 35  15  17  ar  
 36  16  18  ar  
 37  16  45  1   
 38  17  19  ar  
 39  17  46  1   
 40  18  20  ar  
 41  18  47  1   
 42  19  20  ar  
 43  19  48  1   
 44  20  21  1   
 45  21  22  1   
 46  22  23  1   
 47  22  24  1   
 48  22  49  1   
 49  23  25  1   
 50  23  50  1   
 51  23  51  1   
 52  24  26  1   
 53  24  52  1   
 54  24  53  1   
 55  25  26  1   
 56  25  54  1   
 57  25  55  1   
 58  26  56  1   
 59  26  57  1   
@<TRIPOS>SUBSTRUCTURE
  1 ****  17 GROUP 4 **** **** 0

# MOE 2024.06 (io_trps.svl 2023.06)
