@<TRIPOS>MOLECULE
NONAME
52 55 1 0 0 
SMALL
USER_CHARGES


@<TRIPOS>ATOM
  1 O       -2.5710     1.2430    -2.1650 O.2   1 <1>  -0.5700 
  2 C       -2.1390     1.0980    -1.0390 C.2   1 <1>   0.7160 
  3 N       -1.9120    -0.1610    -0.5840 N.am  1 <1>  -0.7300 
  4 C       -1.9500     2.2180    -0.1560 C.2   1 <1>  -0.0860 
  5 C       -2.1080    -1.4180    -1.3390 C.3   1 <1>   0.2200 
  6 C       -0.9130     2.7110     0.5940 C.2   1 <1>  -0.3320 
  7 C       -2.9930     3.1080     0.1080 C.2   1 <1>   0.1390 
  8 C       -3.3400    -2.1620    -0.8420 C.3   1 <1>  -0.0800 
  9 C       -1.0130    -2.3960    -0.9400 C.3   1 <1>   0.1200 
 10 N       -1.3870     3.7940     1.2380 N.pl3 1 <1>   0.3000 
 11 C        0.5530     2.3140     0.7710 C.3   1 <1>   0.1000 
 12 N       -2.6730     4.0390     0.9460 N.2   1 <1>  -0.7070 
 13 C       -2.8110    -2.9300     0.3760 C.3   1 <1>   0.1200 
 14 C       -4.5800    -1.2930    -0.5570 C.3   1 <1>  -0.0160 
 15 O       -1.4140    -2.8960     0.2990 O.3   1 <1>  -0.5600 
 16 C        1.4390     3.2620    -0.0540 C.3   1 <1>  -0.1600 
 17 C        0.8640     0.8550     0.4050 C.3   1 <1>  -0.1600 
 18 C       -5.7540    -2.1470    -0.1070 C.ar  1 <1>  -0.1440 
 19 C        2.9320     2.9440     0.1160 C.3   1 <1>  -0.1600 
 20 C        2.3510     0.5270     0.5970 C.3   1 <1>  -0.1600 
 21 C       -6.1160    -2.2480     1.2210 C.ar  1 <1>  -0.1500 
 22 C       -6.5200    -2.8630    -1.0040 C.ar  1 <1>  -0.1500 
 23 C        3.2310     1.4780    -0.2230 C.3   1 <1>  -0.1600 
 24 C       -7.1920    -3.0430     1.5780 C.ar  1 <1>   0.1600 
 25 C       -7.5770    -3.6300    -0.5430 C.ar  1 <1>   0.1600 
 26 N       -7.9300    -3.7380     0.7280 N.ar  1 <1>  -0.6200 
 27 H       -1.5970    -0.2880     0.3790 H     1 <1>   0.3700 
 28 H       -2.1280    -1.2310    -2.4000 H     1 <1>   0.0800 
 29 H       -3.9700     3.0270    -0.3400 H     1 <1>   0.1500 
 30 H       -3.6060    -2.8910    -1.5880 H     1 <1>   0.0800 
 31 H       -0.0460    -1.9320    -0.8520 H     1 <1>   0.0800 
 32 H       -0.9640    -3.2200    -1.6300 H     1 <1>   0.0800 
 33 H       -0.8560     4.4010     1.8750 H     1 <1>   0.2700 
 34 H        0.8060     2.4400     1.8110 H     1 <1>   0.0800 
 35 H       -3.1380    -3.9550     0.3730 H     1 <1>   0.0800 
 36 H       -3.0970    -2.4590     1.3000 H     1 <1>   0.0800 
 37 H       -4.8510    -0.7540    -1.4490 H     1 <1>   0.0800 
 38 H       -4.3650    -0.5650     0.2050 H     1 <1>   0.0800 
 39 H        1.1720     3.1740    -1.0930 H     1 <1>   0.0800 
 40 H        1.2610     4.2810     0.2420 H     1 <1>   0.0800 
 41 H        0.2790     0.1970     1.0220 H     1 <1>   0.0800 
 42 H        0.6120     0.6850    -0.6260 H     1 <1>   0.0800 
 43 H        3.5120     3.5860    -0.5240 H     1 <1>   0.0800 
 44 H        3.2270     3.1400     1.1330 H     1 <1>   0.0800 
 45 H        2.6070     0.6110     1.6400 H     1 <1>   0.0800 
 46 H        2.5380    -0.4880     0.2930 H     1 <1>   0.0800 
 47 H       -5.5750    -1.7170     1.9820 H     1 <1>   0.1500 
 48 H       -6.3050    -2.8310    -2.0570 H     1 <1>   0.1500 
 49 H        4.2690     1.2670    -0.0300 H     1 <1>   0.0800 
 50 H        3.0520     1.3130    -1.2720 H     1 <1>   0.0800 
 51 H       -7.4610    -3.1100     2.6190 H     1 <1>   0.1500 
 52 H       -8.1630    -4.1830    -1.2560 H     1 <1>   0.1500 
@<TRIPOS>BOND
  1   1   2  2   
  2   2   3  am  
  3   2   4  1   
  4   3   5  1   
  5   3  27  1   
  6   4   6  2   
  7   4   7  1   
  8   5   8  1   
  9   5   9  1   
 10   5  28  1   
 11   6  10  1   
 12   6  11  1   
 13   7  12  2   
 14   7  29  1   
 15   8  13  1   
 16   8  14  1   
 17   8  30  1   
 18   9  15  1   
 19   9  31  1   
 20   9  32  1   
 21  10  12  1   
 22  10  33  1   
 23  11  16  1   
 24  11  17  1   
 25  11  34  1   
 26  13  15  1   
 27  13  35  1   
 28  13  36  1   
 29  14  18  1   
 30  14  37  1   
 31  14  38  1   
 32  16  19  1   
 33  16  39  1   
 34  16  40  1   
 35  17  20  1   
 36  17  41  1   
 37  17  42  1   
 38  18  21  ar  
 39  18  22  ar  
 40  19  23  1   
 41  19  43  1   
 42  19  44  1   
 43  20  23  1   
 44  20  45  1   
 45  20  46  1   
 46  21  24  ar  
 47  21  47  1   
 48  22  25  ar  
 49  22  48  1   
 50  23  49  1   
 51  23  50  1   
 52  24  26  ar  
 53  24  51  1   
 54  25  26  ar  
 55  25  52  1   
@<TRIPOS>SUBSTRUCTURE
  1 ****   3 GROUP 4 **** **** 0

# MOE 2024.06 (io_trps.svl 2023.06)
