@<TRIPOS>MOLECULE
NONAME
49 51 1 0 0 
SMALL
USER_CHARGES


@<TRIPOS>ATOM
  1 S       -0.7470     1.0860     0.5320 S.o2  1 <1>   1.4470 
  2 O       -0.8590     1.4930     1.9190 O.2   1 <1>  -0.6500 
  3 O       -1.5640     1.7750    -0.4450 O.2   1 <1>  -0.6500 
  4 N       -1.1700    -0.5540     0.4650 N.am  1 <1>  -0.8490 
  5 C        1.0030     1.1630     0.0460 C.ar  1 <1>  -0.0090 
  6 C       -1.1380    -1.0820    -0.9190 C.3   1 <1>   0.1960 
  7 C       -2.4790    -0.7710     1.0820 C.3   1 <1>   0.1960 
  8 C        1.3810     1.2400    -1.2900 C.ar  1 <1>  -0.1500 
  9 C        2.0130     1.1320     1.0000 C.ar  1 <1>  -0.1500 
 10 C       -1.4450    -2.5910    -1.0240 C.3   1 <1>  -0.1060 
 11 C       -2.8290    -2.2570     1.1320 C.3   1 <1>  -0.1600 
 12 C        2.7140     1.2790    -1.6600 C.ar  1 <1>  -0.1500 
 13 C        3.3490     1.1750     0.6380 C.ar  1 <1>  -0.1500 
 14 C       -1.7280    -2.9070    -2.4930 C.2   1 <1>   0.9060 
 15 C       -2.7650    -2.8540    -0.2680 C.3   1 <1>   0.2000 
 16 C       -0.2220    -3.4820    -0.6360 C.3   1 <1>  -0.0650 
 17 C        3.7080     1.2460    -0.6970 C.ar  1 <1>  -0.1440 
 18 O       -1.3630    -2.1180    -3.3720 O.co2 1 <1>  -0.9000 
 19 O       -2.3100    -3.9650    -2.7720 O.co2 1 <1>  -0.9000 
 20 O       -3.0250    -4.2070    -0.1950 O.3   1 <1>  -0.6800 
 21 C        0.5030    -3.2250     0.6950 C.3   1 <1>  -0.1950 
 22 C        5.1730     1.2900    -1.1000 C.3   1 <1>  -0.0170 
 23 C        1.6400    -2.2590     0.7970 C.3   1 <1>  -0.2000 
 24 C        1.8970    -3.7350     0.8790 C.3   1 <1>  -0.2000 
 25 C        5.6680     2.7360    -1.1670 C.3   1 <1>  -0.2400 
 26 H       -1.8560    -0.5380    -1.5130 H     1 <1>   0.0800 
 27 H       -0.1700    -0.9140    -1.3550 H     1 <1>   0.0800 
 28 H       -2.4730    -0.3890     2.0890 H     1 <1>   0.0800 
 29 H       -3.2320    -0.2380     0.5250 H     1 <1>   0.0800 
 30 H        0.6200     1.2660    -2.0540 H     1 <1>   0.1500 
 31 H        1.7490     1.0720     2.0420 H     1 <1>   0.1500 
 32 H       -3.8270    -2.3680     1.5140 H     1 <1>   0.0800 
 33 H       -2.1630    -2.7640     1.8000 H     1 <1>   0.0800 
 34 H        2.9710     1.3360    -2.7040 H     1 <1>   0.1500 
 35 H        4.1070     1.1510     1.4010 H     1 <1>   0.1500 
 36 H       -3.5680    -2.4230    -0.8450 H     1 <1>   0.0800 
 37 H       -0.5280    -4.5130    -0.6510 H     1 <1>   0.0800 
 38 H        0.5080    -3.3820    -1.4210 H     1 <1>   0.0800 
 39 H       -2.9020    -4.5390    -1.1290 H     1 <1>   0.4000 
 40 H       -0.1370    -3.3430     1.5470 H     1 <1>   0.1000 
 41 H        5.7620     0.7390    -0.3880 H     1 <1>   0.0800 
 42 H        5.2990     0.8200    -2.0600 H     1 <1>   0.0800 
 43 H        1.9480    -1.7260    -0.0860 H     1 <1>   0.1000 
 44 H        1.7060    -1.6590     1.6870 H     1 <1>   0.1000 
 45 H        2.1660    -4.1620     1.8290 H     1 <1>   0.1000 
 46 H        2.3890    -4.2180     0.0530 H     1 <1>   0.1000 
 47 H        5.5620     3.2090    -0.2070 H     1 <1>   0.0800 
 48 H        5.0950     3.2900    -1.8890 H     1 <1>   0.0800 
 49 H        6.7040     2.7610    -1.4540 H     1 <1>   0.0800 
@<TRIPOS>BOND
  1   1   2  2   
  2   1   3  2   
  3   1   4  am  
  4   1   5  1   
  5   4   6  1   
  6   4   7  1   
  7   5   8  ar  
  8   5   9  ar  
  9   6  10  1   
 10   6  26  1   
 11   6  27  1   
 12   7  11  1   
 13   7  28  1   
 14   7  29  1   
 15   8  12  ar  
 16   8  30  1   
 17   9  13  ar  
 18   9  31  1   
 19  10  14  1   
 20  10  15  1   
 21  10  16  1   
 22  11  15  1   
 23  11  32  1   
 24  11  33  1   
 25  12  17  ar  
 26  12  34  1   
 27  13  17  ar  
 28  13  35  1   
 29  14  18  ar  
 30  14  19  ar  
 31  15  20  1   
 32  15  36  1   
 33  16  21  1   
 34  16  37  1   
 35  16  38  1   
 36  17  22  1   
 37  20  39  1   
 38  21  23  1   
 39  21  24  1   
 40  21  40  1   
 41  22  25  1   
 42  22  41  1   
 43  22  42  1   
 44  23  24  1   
 45  23  43  1   
 46  23  44  1   
 47  24  45  1   
 48  24  46  1   
 49  25  47  1   
 50  25  48  1   
 51  25  49  1   
@<TRIPOS>SUBSTRUCTURE
  1 ****   6 GROUP 4 **** **** 0

# MOE 2024.06 (io_trps.svl 2023.06)
