@<TRIPOS>MOLECULE
NONAME
45 47 1 0 0 
SMALL
USER_CHARGES


@<TRIPOS>ATOM
  1 O       -0.0580     1.4580    -1.3930 O.2   1 <1>  -0.5700 
  2 C       -0.3830     2.6090    -1.2100 C.2   1 <1>   0.5690 
  3 N       -1.0430     3.0420    -0.0930 N.am  1 <1>  -0.5090 
  4 C       -0.0250     3.6530    -2.2610 C.3   1 <1>   0.1810 
  5 C       -1.3960     4.4910     0.0490 C.3   1 <1>   0.3640 
  6 C       -1.2660     2.1760     1.0890 C.3   1 <1>   0.0490 
  7 O        0.4470     4.8200    -1.6410 O.3   1 <1>  -0.5600 
  8 C       -2.8570     4.7510    -0.3400 C.ar  1 <1>  -0.1440 
  9 C       -0.4740     5.4510    -0.7570 C.3   1 <1>   0.2610 
 10 C       -2.1060     0.9490     0.9190 C.3   1 <1>  -0.2000 
 11 C       -2.6190     2.0960     1.7280 C.3   1 <1>  -0.2000 
 12 C       -3.4900     5.8680     0.1900 C.ar  1 <1>  -0.1500 
 13 C       -3.5710     3.9280    -1.2050 C.ar  1 <1>  -0.1500 
 14 C        0.2110     6.4020     0.2360 C.2   1 <1>   0.5690 
 15 C       -4.8040     6.1620    -0.1330 C.ar  1 <1>  -0.1500 
 16 C       -4.8840     4.2190    -1.5280 C.ar  1 <1>  -0.1500 
 17 O       -0.3650     7.4450     0.4500 O.2   1 <1>  -0.5700 
 18 N        1.3770     6.0860     0.9060 N.am  1 <1>  -0.6600 
 19 C       -5.5110     5.3340    -0.9990 C.ar  1 <1>   0.0830 
 20 C        2.1210     4.8040     0.7500 C.3   1 <1>   0.0600 
 21 C        2.0540     7.0730     1.7960 C.3   1 <1>   0.0600 
 22 O       -6.7980     5.5470    -1.3680 O.3   1 <1>  -0.3630 
 23 C       -7.5230     6.6580    -0.8880 C.3   1 <1>   0.0400 
 24 H       -0.8840     3.8960    -2.8600 H     1 <1>   0.0800 
 25 H        0.7560     3.2760    -2.8950 H     1 <1>   0.0800 
 26 H       -1.3030     4.7390     1.0930 H     1 <1>   0.0800 
 27 H       -0.3930     2.1030     1.7170 H     1 <1>   0.1000 
 28 H       -1.0970     6.0670    -1.3810 H     1 <1>   0.0800 
 29 H       -2.5330     0.7540    -0.0480 H     1 <1>   0.1000 
 30 H       -1.8090     0.0500     1.4290 H     1 <1>   0.1000 
 31 H       -2.6840     1.9690     2.7940 H     1 <1>   0.1000 
 32 H       -3.4490     2.6530     1.3300 H     1 <1>   0.1000 
 33 H       -2.9610     6.5270     0.8590 H     1 <1>   0.1500 
 34 H       -3.1250     3.0480    -1.6340 H     1 <1>   0.1500 
 35 H       -5.2550     7.0350     0.2970 H     1 <1>   0.1500 
 36 H       -5.4350     3.5800    -2.1950 H     1 <1>   0.1500 
 37 H        2.7220     4.6130     1.6220 H     1 <1>   0.0800 
 38 H        2.7620     4.8630    -0.1120 H     1 <1>   0.0800 
 39 H        1.4410     3.9820     0.6250 H     1 <1>   0.0800 
 40 H        2.0860     6.6930     2.8020 H     1 <1>   0.0800 
 41 H        1.5310     8.0140     1.8010 H     1 <1>   0.0800 
 42 H        3.0580     7.2450     1.4490 H     1 <1>   0.0800 
 43 H       -8.5100     6.6210    -1.3130 H     1 <1>   0.0800 
 44 H       -7.0250     7.5600    -1.1960 H     1 <1>   0.0800 
 45 H       -7.5850     6.5970     0.1840 H     1 <1>   0.0800 
@<TRIPOS>BOND
  1   1   2  2   
  2   2   3  am  
  3   2   4  1   
  4   3   5  1   
  5   3   6  1   
  6   4   7  1   
  7   4  24  1   
  8   4  25  1   
  9   5   8  1   
 10   5   9  1   
 11   5  26  1   
 12   6  10  1   
 13   6  11  1   
 14   6  27  1   
 15   7   9  1   
 16   8  12  ar  
 17   8  13  ar  
 18   9  14  1   
 19   9  28  1   
 20  10  11  1   
 21  10  29  1   
 22  10  30  1   
 23  11  31  1   
 24  11  32  1   
 25  12  15  ar  
 26  12  33  1   
 27  13  16  ar  
 28  13  34  1   
 29  14  17  2   
 30  14  18  am  
 31  15  19  ar  
 32  15  35  1   
 33  16  19  ar  
 34  16  36  1   
 35  18  20  1   
 36  18  21  1   
 37  19  22  1   
 38  20  37  1   
 39  20  38  1   
 40  20  39  1   
 41  21  40  1   
 42  21  41  1   
 43  21  42  1   
 44  22  23  1   
 45  23  43  1   
 46  23  44  1   
 47  23  45  1   
@<TRIPOS>SUBSTRUCTURE
  1 ****   5 GROUP 4 **** **** 0

# MOE 2024.06 (io_trps.svl 2023.06)
