@<TRIPOS>MOLECULE
NONAME
48 50 1 0 0 
SMALL
USER_CHARGES


@<TRIPOS>ATOM
  1 O        0.3840     0.2300     0.9620 O.2   1 <1>  -0.5700 
  2 C        0.3910     1.3590     0.5450 C.2   1 <1>   0.4230 
  3 C        1.5860     2.1660     0.4930 C.ar  1 <1>   0.0860 
  4 C       -0.9400     1.9090     0.0680 C.3   1 <1>  -0.1790 
  5 C        1.6120     3.4690    -0.0130 C.ar  1 <1>   0.1600 
  6 C        2.8030     1.6710     0.9580 C.ar  1 <1>  -0.1500 
  7 N        2.6670     4.2590    -0.0920 N.ar  1 <1>  -0.6200 
  8 C        3.9120     2.4760     0.8860 C.ar  1 <1>  -0.1500 
  9 C        3.8130     3.7590     0.3530 C.ar  1 <1>   0.4100 
 10 N        4.9210     4.5710     0.2570 N.pl3 1 <1>  -0.8380 
 11 C        4.7200     6.0520     0.3190 C.3   1 <1>   0.2090 
 12 C        6.0560     4.1200    -0.6010 C.3   1 <1>   0.2090 
 13 C        6.0370     6.7880     0.6340 C.3   1 <1>   0.3430 
 14 C        7.3500     4.8960    -0.2730 C.3   1 <1>   0.3430 
 15 N        7.1600     6.3940    -0.3000 N.4   1 <1>  -0.9590 
 16 C        8.4500     7.0860     0.0310 C.3   1 <1>   0.3430 
 17 C        8.4000     8.5970    -0.2190 C.3   1 <1>   0.1200 
 18 O        9.6670     9.1100     0.1040 O.3   1 <1>  -0.3630 
 19 C        9.9390    10.4350     0.0020 C.ar  1 <1>   0.0830 
 20 C        9.0280    11.3820    -0.4620 C.ar  1 <1>  -0.1500 
 21 C       11.2060    10.8410     0.3910 C.ar  1 <1>  -0.1500 
 22 C        9.3930    12.7160    -0.5290 C.ar  1 <1>  -0.1500 
 23 C       11.5670    12.1740     0.3220 C.ar  1 <1>  -0.1500 
 24 C       10.6600    13.1120    -0.1380 C.ar  1 <1>  -0.1500 
 25 H       -1.2040     2.7840     0.6330 H     1 <1>   0.0800 
 26 H       -1.7090     1.1700     0.2070 H     1 <1>   0.0800 
 27 H       -0.8870     2.1500    -0.9780 H     1 <1>   0.0800 
 28 H        0.6940     3.8910    -0.3810 H     1 <1>   0.1500 
 29 H        2.8600     0.6760     1.3680 H     1 <1>   0.1500 
 30 H        4.8600     2.1270     1.2470 H     1 <1>   0.1500 
 31 H        3.9970     6.2800     1.0840 H     1 <1>   0.0800 
 32 H        4.3210     6.3980    -0.6190 H     1 <1>   0.0800 
 33 H        5.7950     4.2670    -1.6350 H     1 <1>   0.0800 
 34 H        6.2290     3.0680    -0.4550 H     1 <1>   0.0800 
 35 H        6.3140     6.5550     1.6490 H     1 <1>   0.0800 
 36 H        5.8610     7.8490     0.5760 H     1 <1>   0.0800 
 37 H        8.1140     4.6100    -0.9770 H     1 <1>   0.0800 
 38 H        7.6790     4.5940     0.7080 H     1 <1>   0.0800 
 39 H        6.8770     6.6450    -1.2580 H     1 <1>   0.4500 
 40 H        9.2400     6.6770    -0.5770 H     1 <1>   0.0800 
 41 H        8.6970     6.9140     1.0660 H     1 <1>   0.0800 
 42 H        7.6790     9.0780     0.4180 H     1 <1>   0.0800 
 43 H        8.2080     8.8110    -1.2560 H     1 <1>   0.0800 
 44 H        8.0390    11.1120    -0.7750 H     1 <1>   0.1500 
 45 H       11.9100    10.1110     0.7480 H     1 <1>   0.1500 
 46 H        8.6920    13.4510    -0.8870 H     1 <1>   0.1500 
 47 H       12.5530    12.4820     0.6260 H     1 <1>   0.1500 
 48 H       10.9400    14.1500    -0.1920 H     1 <1>   0.1500 
@<TRIPOS>BOND
  1   1   2  2   
  2   2   3  1   
  3   2   4  1   
  4   3   5  ar  
  5   3   6  ar  
  6   4  25  1   
  7   4  26  1   
  8   4  27  1   
  9   5   7  ar  
 10   5  28  1   
 11   6   8  ar  
 12   6  29  1   
 13   7   9  ar  
 14   8   9  ar  
 15   8  30  1   
 16   9  10  1   
 17  10  11  1   
 18  10  12  1   
 19  11  13  1   
 20  11  31  1   
 21  11  32  1   
 22  12  14  1   
 23  12  33  1   
 24  12  34  1   
 25  13  15  1   
 26  13  35  1   
 27  13  36  1   
 28  14  15  1   
 29  14  37  1   
 30  14  38  1   
 31  15  16  1   
 32  15  39  1   
 33  16  17  1   
 34  16  40  1   
 35  16  41  1   
 36  17  18  1   
 37  17  42  1   
 38  17  43  1   
 39  18  19  1   
 40  19  20  ar  
 41  19  21  ar  
 42  20  22  ar  
 43  20  44  1   
 44  21  23  ar  
 45  21  45  1   
 46  22  24  ar  
 47  22  46  1   
 48  23  24  ar  
 49  23  47  1   
 50  24  48  1   
@<TRIPOS>SUBSTRUCTURE
  1 ****  13 GROUP 4 **** **** 0

# MOE 2024.06 (io_trps.svl 2023.06)
