@<TRIPOS>MOLECULE
NONAME
47 50 1 0 0 
SMALL
USER_CHARGES


@<TRIPOS>ATOM
  1 O        0.5120    -0.3760     0.6540 O.3   1 <1>  -0.0190 
  2 N        1.0630     0.7510     0.3610 N.2   1 <1>  -0.4100 
  3 C        1.1540    -1.3540     0.0760 C.2   1 <1>   0.4250 
  4 C        2.0410     0.4130    -0.3960 C.2   1 <1>   0.5990 
  5 N        2.1440    -0.9040    -0.6070 N.2   1 <1>  -0.5650 
  6 C        0.7320    -2.7290     0.2450 C.ar  1 <1>   0.0530 
  7 N        2.9340     1.3040    -0.9890 N.pl3 1 <1>  -0.8210 
  8 C       -0.3540    -3.0730     1.0530 C.ar  1 <1>  -0.1500 
  9 C        1.4040    -3.7690    -0.3990 C.ar  1 <1>  -0.1500 
 10 C        3.0060     2.6850    -0.4370 C.3   1 <1>   0.2090 
 11 C        4.3040     0.8390    -1.3230 C.3   1 <1>   0.2090 
 12 C       -0.7490    -4.3890     1.2100 C.ar  1 <1>  -0.1500 
 13 C        1.0140    -5.0870    -0.2470 C.ar  1 <1>  -0.1500 
 14 C        4.4220     3.1690    -0.7280 C.3   1 <1>   0.0630 
 15 C        5.2380     1.8760    -0.7120 C.3   1 <1>  -0.1600 
 16 C       -0.0640    -5.4000     0.5600 C.ar  1 <1>  -0.1500 
 17 C        4.8610     4.3160     0.1960 C.ar  1 <1>  -0.1430 
 18 C        4.3540     5.5970    -0.0270 C.ar  1 <1>   0.0820 
 19 C        5.7420     4.1250     1.2570 C.ar  1 <1>  -0.1500 
 20 O        3.4530     5.7710    -1.0310 O.3   1 <1>  -0.3630 
 21 C        4.7680     6.6700     0.7740 C.ar  1 <1>   0.0820 
 22 C        6.1180     5.1800     2.0710 C.ar  1 <1>  -0.1500 
 23 C        2.1640     6.2200    -0.6660 C.3   1 <1>   0.0400 
 24 O        4.3640     7.9460     0.5610 O.3   1 <1>  -0.3630 
 25 C        5.6330     6.4510     1.8300 C.ar  1 <1>  -0.1500 
 26 C        4.8700     8.5660    -0.6000 C.3   1 <1>   0.0400 
 27 H       -0.9010    -2.3030     1.5690 H     1 <1>   0.1500 
 28 H        2.2450    -3.5380    -1.0310 H     1 <1>   0.1500 
 29 H        2.8380     2.6680     0.6270 H     1 <1>   0.0800 
 30 H        2.2730     3.3160    -0.9070 H     1 <1>   0.0800 
 31 H        4.4100     0.8210    -2.3950 H     1 <1>   0.0800 
 32 H        4.5120    -0.1420    -0.9300 H     1 <1>   0.0800 
 33 H       -1.5890    -4.6300     1.8380 H     1 <1>   0.1500 
 34 H        1.5500    -5.8700    -0.7550 H     1 <1>   0.1500 
 35 H        4.4310     3.5350    -1.7410 H     1 <1>   0.0800 
 36 H        6.1580     1.9640    -1.2600 H     1 <1>   0.0800 
 37 H        5.4470     1.5550     0.2910 H     1 <1>   0.0800 
 38 H       -0.3700    -6.4250     0.6800 H     1 <1>   0.1500 
 39 H        6.1530     3.1600     1.4780 H     1 <1>   0.1500 
 40 H        6.7940     5.0110     2.8910 H     1 <1>   0.1500 
 41 H        1.5060     6.0660    -1.5010 H     1 <1>   0.0800 
 42 H        2.2060     7.2660    -0.4240 H     1 <1>   0.0800 
 43 H        1.8230     5.6540     0.1830 H     1 <1>   0.0800 
 44 H        5.9270     7.2760     2.4520 H     1 <1>   0.1500 
 45 H        4.5200     9.5820    -0.6190 H     1 <1>   0.0800 
 46 H        4.5170     8.0400    -1.4680 H     1 <1>   0.0800 
 47 H        5.9450     8.5460    -0.5630 H     1 <1>   0.0800 
@<TRIPOS>BOND
  1   1   2  1   
  2   1   3  1   
  3   2   4  2   
  4   3   5  2   
  5   3   6  1   
  6   4   5  1   
  7   4   7  1   
  8   6   8  ar  
  9   6   9  ar  
 10   7  10  1   
 11   7  11  1   
 12   8  12  ar  
 13   8  27  1   
 14   9  13  ar  
 15   9  28  1   
 16  10  14  1   
 17  10  29  1   
 18  10  30  1   
 19  11  15  1   
 20  11  31  1   
 21  11  32  1   
 22  12  16  ar  
 23  12  33  1   
 24  13  16  ar  
 25  13  34  1   
 26  14  15  1   
 27  14  17  1   
 28  14  35  1   
 29  15  36  1   
 30  15  37  1   
 31  16  38  1   
 32  17  18  ar  
 33  17  19  ar  
 34  18  20  1   
 35  18  21  ar  
 36  19  22  ar  
 37  19  39  1   
 38  20  23  1   
 39  21  24  1   
 40  21  25  ar  
 41  22  25  ar  
 42  22  40  1   
 43  23  41  1   
 44  23  42  1   
 45  23  43  1   
 46  24  26  1   
 47  25  44  1   
 48  26  45  1   
 49  26  46  1   
 50  26  47  1   
@<TRIPOS>SUBSTRUCTURE
  1 ****  10 GROUP 4 **** **** 0

# MOE 2024.06 (io_trps.svl 2023.06)
