@<TRIPOS>MOLECULE
NONAME
39 40 1 0 0 
SMALL
USER_CHARGES


@<TRIPOS>ATOM
  1 O        3.3770    -0.4800    -1.4460 O.3   1 <1>  -0.0190 
  2 N        4.0390     0.1320    -0.5080 N.2   1 <1>  -0.4100 
  3 C        2.0900    -0.4540    -1.2290 C.2   1 <1>  -0.0400 
  4 C        3.1590     0.5600     0.3300 C.2   1 <1>   0.1080 
  5 C        1.8760     0.2130    -0.0850 C.2   1 <1>  -0.1500 
  6 C        1.1420    -1.1180    -2.2070 C.3   1 <1>  -0.0600 
  7 C        3.5030     1.3570     1.5820 C.3   1 <1>   0.3900 
  8 N        3.4790     2.8390     1.3280 N.pl3 1 <1>  -0.8380 
  9 C        4.2770     3.5080     0.4440 C.ar  1 <1>   0.7710 
 10 C        2.5870     3.5790     2.2840 C.3   1 <1>   0.1290 
 11 N        4.3880     4.8240     0.5600 N.ar  1 <1>  -0.6200 
 12 N        4.9360     2.8390    -0.5220 N.ar  1 <1>  -0.1790 
 13 C        5.1620     5.4850    -0.2830 C.ar  1 <1>   0.4100 
 14 C        5.7460     3.4650    -1.4040 C.ar  1 <1>   0.2110 
 15 N        5.2460     6.8380    -0.1400 N.pl3 1 <1>  -0.8380 
 16 C        5.8750     4.8060    -1.2920 C.ar  1 <1>  -0.1500 
 17 C        5.6740     7.7730    -1.2160 C.3   1 <1>   0.2090 
 18 C        4.7450     7.5340     1.0870 C.3   1 <1>   0.1290 
 19 C        7.1420     8.1380    -1.0140 C.3   1 <1>  -0.2400 
 20 H        0.9490     0.4380     0.4120 H     1 <1>   0.1500 
 21 H        1.3710    -2.1660    -2.2820 H     1 <1>   0.0800 
 22 H        1.2430    -0.6700    -3.1790 H     1 <1>   0.0800 
 23 H        0.1250    -1.0080    -1.8760 H     1 <1>   0.0800 
 24 H        4.4820     1.0710     1.9290 H     1 <1>   0.0800 
 25 H        2.8010     1.0980     2.3570 H     1 <1>   0.0800 
 26 H        1.6500     3.0620     2.3990 H     1 <1>   0.0800 
 27 H        2.3660     4.5720     1.9300 H     1 <1>   0.0800 
 28 H        3.0650     3.6580     3.2460 H     1 <1>   0.0800 
 29 H        4.7480     1.8350    -0.5880 H     1 <1>   0.4570 
 30 H        6.2540     2.8820    -2.1560 H     1 <1>   0.1500 
 31 H        6.5140     5.3580    -1.9530 H     1 <1>   0.1500 
 32 H        5.0680     8.6630    -1.1830 H     1 <1>   0.0800 
 33 H        5.5310     7.3240    -2.1830 H     1 <1>   0.0800 
 34 H        4.8030     6.8860     1.9440 H     1 <1>   0.0800 
 35 H        3.7200     7.8300     0.9420 H     1 <1>   0.0800 
 36 H        5.3370     8.4090     1.2910 H     1 <1>   0.0800 
 37 H        7.2760     8.6450    -0.0760 H     1 <1>   0.0800 
 38 H        7.4620     8.7960    -1.8020 H     1 <1>   0.0800 
 39 H        7.7570     7.2580    -1.0300 H     1 <1>   0.0800 
@<TRIPOS>BOND
  1   1   2  1   
  2   1   3  1   
  3   2   4  2   
  4   3   5  2   
  5   3   6  1   
  6   4   5  1   
  7   4   7  1   
  8   5  20  1   
  9   6  21  1   
 10   6  22  1   
 11   6  23  1   
 12   7   8  1   
 13   7  24  1   
 14   7  25  1   
 15   8   9  1   
 16   8  10  1   
 17   9  11  ar  
 18   9  12  ar  
 19  10  26  1   
 20  10  27  1   
 21  10  28  1   
 22  11  13  ar  
 23  12  14  ar  
 24  12  29  1   
 25  13  15  1   
 26  13  16  ar  
 27  14  16  ar  
 28  14  30  1   
 29  15  17  1   
 30  15  18  1   
 31  16  31  1   
 32  17  19  1   
 33  17  32  1   
 34  17  33  1   
 35  18  34  1   
 36  18  35  1   
 37  18  36  1   
 38  19  37  1   
 39  19  38  1   
 40  19  39  1   
@<TRIPOS>SUBSTRUCTURE
  1 ****   9 GROUP 4 **** **** 0

# MOE 2024.06 (io_trps.svl 2023.06)
