@<TRIPOS>MOLECULE
NONAME
51 53 1 0 0 
SMALL
USER_CHARGES


@<TRIPOS>ATOM
  1 F        0.5610     1.2650     2.1430 F     1 <1>  -0.3400 
  2 C        0.3000     2.5100     1.7540 C.3   1 <1>   1.1640 
  3 F        0.2810     3.2240     2.8750 F     1 <1>  -0.3400 
  4 F       -0.9460     2.4730     1.2930 F     1 <1>  -0.3400 
  5 C        1.3210     3.0150     0.7260 C.ar  1 <1>  -0.1440 
  6 C        1.1800     4.3250     0.2160 C.ar  1 <1>   0.3100 
  7 C        2.3600     2.2140     0.3030 C.ar  1 <1>  -0.1500 
  8 N        0.1510     5.0950     0.6490 N.ar  1 <1>  -0.6200 
  9 C        2.1200     4.8010    -0.7340 C.ar  1 <1>   0.0000 
 10 C        3.2840     2.6800    -0.6310 C.ar  1 <1>  -0.1500 
 11 C        0.0310     6.2900     0.1560 C.ar  1 <1>   0.1600 
 12 C        1.9730     6.1220    -1.2340 C.ar  1 <1>   0.1000 
 13 C        3.1640     3.9430    -1.1360 C.ar  1 <1>  -0.1500 
 14 C        0.9010     6.8420    -0.7750 C.ar  1 <1>  -0.1500 
 15 N        2.8740     6.6510    -2.1480 N.pl3 1 <1>  -0.8690 
 16 C        3.2330     8.0810    -2.2800 C.3   1 <1>   0.2090 
 17 C        4.0050     8.5550    -1.0360 C.3   1 <1>  -0.0800 
 18 C        4.2550    10.0740    -1.1210 C.3   1 <1>   0.3430 
 19 C        5.3170     7.7740    -0.8150 C.3   1 <1>  -0.1600 
 20 N        5.5200    10.5020    -0.4320 N.4   1 <1>  -0.9590 
 21 C        6.0380     8.2610     0.4570 C.3   1 <1>  -0.1600 
 22 C        5.7460     9.7230     0.8200 C.3   1 <1>   0.3430 
 23 C        5.5100    11.9850    -0.2000 C.3   1 <1>   0.3430 
 24 C        6.8750    12.5390     0.2280 C.3   1 <1>   0.1200 
 25 O        6.7350    13.9140     0.3440 O.3   1 <1>  -0.5600 
 26 C        7.8980    14.5850     0.7180 C.3   1 <1>   0.0400 
 27 H        2.4910     1.2110     0.6750 H     1 <1>   0.1500 
 28 H        4.0850     2.0320    -0.9450 H     1 <1>   0.1500 
 29 H       -0.8010     6.8870     0.4930 H     1 <1>   0.1500 
 30 H        3.8830     4.2850    -1.8550 H     1 <1>   0.1500 
 31 H        0.7050     7.8340    -1.1280 H     1 <1>   0.1500 
 32 H        3.5270     5.9980    -2.5960 H     1 <1>   0.4000 
 33 H        2.3340     8.6590    -2.4090 H     1 <1>   0.0800 
 34 H        3.8350     8.2070    -3.1640 H     1 <1>   0.0800 
 35 H        3.3670     8.3860    -0.1850 H     1 <1>   0.0800 
 36 H        3.4100    10.5820    -0.6840 H     1 <1>   0.0800 
 37 H        4.3110    10.3660    -2.1570 H     1 <1>   0.0800 
 38 H        5.9600     7.9070    -1.6690 H     1 <1>   0.0800 
 39 H        5.1190     6.7180    -0.7210 H     1 <1>   0.0800 
 40 H        6.3000    10.2740    -1.0640 H     1 <1>   0.4500 
 41 H        7.0990     8.1230     0.3410 H     1 <1>   0.0800 
 42 H        5.7360     7.6510     1.2910 H     1 <1>   0.0800 
 43 H        4.8620     9.7720     1.4350 H     1 <1>   0.0800 
 44 H        6.5730    10.1240     1.3830 H     1 <1>   0.0800 
 45 H        4.7850    12.2290     0.5590 H     1 <1>   0.0800 
 46 H        5.2250    12.4860    -1.1100 H     1 <1>   0.0800 
 47 H        7.6230    12.3370    -0.5190 H     1 <1>   0.0800 
 48 H        7.1740    12.1500     1.1850 H     1 <1>   0.0800 
 49 H        7.6750    15.6360     0.7770 H     1 <1>   0.0800 
 50 H        8.6620    14.4220    -0.0230 H     1 <1>   0.0800 
 51 H        8.2230    14.2330     1.6830 H     1 <1>   0.0800 
@<TRIPOS>BOND
  1   1   2  1   
  2   2   3  1   
  3   2   4  1   
  4   2   5  1   
  5   5   6  ar  
  6   5   7  ar  
  7   6   8  ar  
  8   6   9  ar  
  9   7  10  ar  
 10   7  27  1   
 11   8  11  ar  
 12   9  12  ar  
 13   9  13  ar  
 14  10  13  ar  
 15  10  28  1   
 16  11  14  ar  
 17  11  29  1   
 18  12  14  ar  
 19  12  15  1   
 20  13  30  1   
 21  14  31  1   
 22  15  16  1   
 23  15  32  1   
 24  16  17  1   
 25  16  33  1   
 26  16  34  1   
 27  17  18  1   
 28  17  19  1   
 29  17  35  1   
 30  18  20  1   
 31  18  36  1   
 32  18  37  1   
 33  19  21  1   
 34  19  38  1   
 35  19  39  1   
 36  20  22  1   
 37  20  23  1   
 38  20  40  1   
 39  21  22  1   
 40  21  41  1   
 41  21  42  1   
 42  22  43  1   
 43  22  44  1   
 44  23  24  1   
 45  23  45  1   
 46  23  46  1   
 47  24  25  1   
 48  24  47  1   
 49  24  48  1   
 50  25  26  1   
 51  26  49  1   
 52  26  50  1   
 53  26  51  1   
@<TRIPOS>SUBSTRUCTURE
  1 ****  12 GROUP 4 **** **** 0

# MOE 2024.06 (io_trps.svl 2023.06)
