@<TRIPOS>MOLECULE
NONAME
48 50 1 0 0 
SMALL
USER_CHARGES


@<TRIPOS>ATOM
  1 S       -0.3430     0.1890    -0.0690 S.o2  1 <1>   1.3330 
  2 O       -0.9940     1.4530    -0.3260 O.2   1 <1>  -0.6500 
  3 O       -0.4290    -0.4010     1.2480 O.2   1 <1>  -0.6500 
  4 N       -0.9310    -0.9490    -1.1840 N.am  1 <1>  -0.8490 
  5 C        1.3760     0.3550    -0.5530 C.3   1 <1>  -0.0550 
  6 C       -2.3570    -0.7640    -1.4660 C.3   1 <1>   0.1160 
  7 C       -0.6770    -2.3380    -0.7860 C.3   1 <1>   0.1160 
  8 C        2.1490     1.4110     0.2640 C.3   1 <1>  -0.0800 
  9 C        3.5180     1.6740    -0.3390 C.3   1 <1>   0.2200 
 10 C        2.5190     0.8990     1.6590 C.3   1 <1>   0.1200 
 11 N        3.9920     3.0070     0.0970 N.am  1 <1>  -0.7300 
 12 C        4.3680     0.5870     0.3110 C.3   1 <1>   0.1200 
 13 O        3.7760     0.3010     1.5450 O.3   1 <1>  -0.5600 
 14 C        4.3350     4.0360    -0.7350 C.2   1 <1>   0.5440 
 15 O        4.2490     3.8550    -1.9340 O.2   1 <1>  -0.5700 
 16 C        4.7840     5.2950    -0.1790 C.ar  1 <1>   0.0860 
 17 C        5.8380     6.0260    -0.7670 C.ar  1 <1>   0.0000 
 18 C        4.2080     5.8320     0.9650 C.ar  1 <1>  -0.1500 
 19 C        6.2790     7.2220    -0.2020 C.ar  1 <1>  -0.1520 
 20 C        6.6460     5.8140    -1.9040 C.2   1 <1>  -0.1500 
 21 C        4.6480     7.0320     1.5260 C.ar  1 <1>  -0.1500 
 22 N        7.3130     7.7130    -0.9650 N.pl3 1 <1>   0.0480 
 23 C        5.6830     7.7320     0.9520 C.ar  1 <1>  -0.1500 
 24 C        7.5210     6.8430    -1.9930 C.2   1 <1>  -0.3020 
 25 C        8.0550     8.9600    -0.7230 C.3   1 <1>   0.0160 
 26 H        1.8660    -0.5950    -0.4690 H     1 <1>   0.0800 
 27 H        1.3980     0.6440    -1.5860 H     1 <1>   0.0800 
 28 H       -2.6930    -1.4900    -2.1860 H     1 <1>   0.0800 
 29 H       -2.5280     0.2180    -1.8760 H     1 <1>   0.0800 
 30 H       -2.9350    -0.8660    -0.5620 H     1 <1>   0.0800 
 31 H       -0.9860    -3.0090    -1.5700 H     1 <1>   0.0800 
 32 H       -1.2200    -2.5780     0.1140 H     1 <1>   0.0800 
 33 H        0.3730    -2.4880    -0.6050 H     1 <1>   0.0800 
 34 H        1.5650     2.3140     0.3120 H     1 <1>   0.0800 
 35 H        3.5280     1.6020    -1.4140 H     1 <1>   0.0800 
 36 H        1.8260     0.1790     2.0580 H     1 <1>   0.0800 
 37 H        2.6130     1.7190     2.3500 H     1 <1>   0.0800 
 38 H        4.2020     3.0810     1.0930 H     1 <1>   0.3700 
 39 H        5.3880     0.8960     0.4610 H     1 <1>   0.0800 
 40 H        4.3450    -0.3130    -0.2760 H     1 <1>   0.0800 
 41 H        3.3890     5.3190     1.4370 H     1 <1>   0.1500 
 42 H        6.5470     4.9680    -2.5640 H     1 <1>   0.1500 
 43 H        4.1690     7.4080     2.4140 H     1 <1>   0.1500 
 44 H        6.0300     8.6560     1.3780 H     1 <1>   0.1500 
 45 H        8.2810     7.0060    -2.7370 H     1 <1>   0.1500 
 46 H        8.8050     9.0860    -1.4820 H     1 <1>   0.0800 
 47 H        8.5250     8.9100     0.2420 H     1 <1>   0.0800 
 48 H        7.3720     9.7890    -0.7520 H     1 <1>   0.0800 
@<TRIPOS>BOND
  1   1   2  2   
  2   1   3  2   
  3   1   4  am  
  4   1   5  1   
  5   4   6  1   
  6   4   7  1   
  7   5   8  1   
  8   5  26  1   
  9   5  27  1   
 10   6  28  1   
 11   6  29  1   
 12   6  30  1   
 13   7  31  1   
 14   7  32  1   
 15   7  33  1   
 16   8   9  1   
 17   8  10  1   
 18   8  34  1   
 19   9  11  1   
 20   9  12  1   
 21   9  35  1   
 22  10  13  1   
 23  10  36  1   
 24  10  37  1   
 25  11  14  am  
 26  11  38  1   
 27  12  13  1   
 28  12  39  1   
 29  12  40  1   
 30  14  15  2   
 31  14  16  1   
 32  16  17  ar  
 33  16  18  ar  
 34  17  19  ar  
 35  17  20  1   
 36  18  21  ar  
 37  18  41  1   
 38  19  22  1   
 39  19  23  ar  
 40  20  24  2   
 41  20  42  1   
 42  21  23  ar  
 43  21  43  1   
 44  22  24  1   
 45  22  25  1   
 46  23  44  1   
 47  24  45  1   
 48  25  46  1   
 49  25  47  1   
 50  25  48  1   
@<TRIPOS>SUBSTRUCTURE
  1 ****  11 GROUP 4 **** **** 0

# MOE 2024.06 (io_trps.svl 2023.06)
