@<TRIPOS>MOLECULE
NONAME
52 54 1 0 0 
SMALL
USER_CHARGES


@<TRIPOS>ATOM
  1 F       -1.6800    -0.3870     2.5560 F     1 <1>  -0.3400 
  2 C       -1.8250     0.4380     1.5250 C.3   1 <1>   1.3000 
  3 F       -3.1250     0.5870     1.2950 F     1 <1>  -0.3400 
  4 F       -1.3360     1.6180     1.8750 F     1 <1>  -0.3400 
  5 O       -1.1550    -0.0500     0.3810 O.3   1 <1>  -0.3630 
  6 C       -1.5320    -1.2530    -0.0960 C.ar  1 <1>   0.0820 
  7 C       -0.9000    -2.4020     0.3500 C.ar  1 <1>  -0.1500 
  8 C       -2.5340    -1.3360    -1.0500 C.ar  1 <1>  -0.1500 
  9 C       -1.2820    -3.6370    -0.1430 C.ar  1 <1>  -0.1500 
 10 C       -2.9160    -2.5710    -1.5430 C.ar  1 <1>  -0.1500 
 11 C       -2.2990    -3.7290    -1.0860 C.ar  1 <1>  -0.1430 
 12 C       -2.7310    -5.0840    -1.6130 C.3   1 <1>   0.4870 
 13 N       -3.5430    -5.7580    -0.5570 N.4   1 <1>  -0.9590 
 14 C       -3.7490    -7.2210    -0.8700 C.3   1 <1>   0.3430 
 15 C       -4.8390    -5.0350    -0.3700 C.3   1 <1>   0.3430 
 16 C       -4.6540    -7.9680     0.1630 C.3   1 <1>   0.4230 
 17 C       -5.6600    -5.7160     0.7290 C.3   1 <1>  -0.1600 
 18 N       -4.8520    -9.4630    -0.0930 N.4   1 <1>  -0.9590 
 19 C       -5.9840    -7.2090     0.4470 C.3   1 <1>   0.0000 
 20 C       -5.9850   -10.0670     0.6910 C.3   1 <1>   0.3430 
 21 C       -5.0090    -9.8470    -1.5380 C.3   1 <1>   0.2630 
 22 C       -6.6310    -7.8140     1.7250 C.3   1 <1>  -0.1600 
 23 C       -7.0210    -7.3000    -0.7110 C.3   1 <1>   0.1200 
 24 C       -6.2460    -9.2870     1.9810 C.3   1 <1>  -0.1600 
 25 O       -6.4440    -7.0170    -1.9420 O.3   1 <1>  -0.6800 
 26 H       -0.1090    -2.3260     1.0760 H     1 <1>   0.1500 
 27 H       -3.0060    -0.4360    -1.4070 H     1 <1>   0.1500 
 28 H       -0.7680    -4.5130     0.2140 H     1 <1>   0.1500 
 29 H       -3.6940    -2.6100    -2.2870 H     1 <1>   0.1500 
 30 H       -1.8530    -5.6660    -1.8410 H     1 <1>   0.0800 
 31 H       -3.3080    -4.9660    -2.5160 H     1 <1>   0.0800 
 32 H       -3.0040    -5.6360     0.3130 H     1 <1>   0.4500 
 33 H       -4.2000    -7.3010    -1.8440 H     1 <1>   0.0800 
 34 H       -2.7900    -7.7110    -0.9060 H     1 <1>   0.0800 
 35 H       -4.6510    -4.0100    -0.0890 H     1 <1>   0.0800 
 36 H       -5.3960    -5.0300    -1.2930 H     1 <1>   0.0800 
 37 H       -4.1090    -7.9070     1.0900 H     1 <1>   0.0800 
 38 H       -5.1170    -5.6140     1.6540 H     1 <1>   0.0800 
 39 H       -6.5780    -5.1660     0.8530 H     1 <1>   0.0800 
 40 H       -4.0060    -9.9410     0.2530 H     1 <1>   0.4500 
 41 H       -6.8860   -10.0570     0.0990 H     1 <1>   0.0800 
 42 H       -5.7620   -11.0960     0.9270 H     1 <1>   0.0800 
 43 H       -5.8810    -9.3770    -1.9620 H     1 <1>   0.0800 
 44 H       -5.1230   -10.9160    -1.6290 H     1 <1>   0.0800 
 45 H       -4.1460    -9.5520    -2.1100 H     1 <1>   0.0800 
 46 H       -6.3480    -7.2580     2.6040 H     1 <1>   0.0800 
 47 H       -7.7050    -7.7350     1.6630 H     1 <1>   0.0800 
 48 H       -7.8230    -6.5970    -0.5510 H     1 <1>   0.0800 
 49 H       -7.4550    -8.2820    -0.7750 H     1 <1>   0.0800 
 50 H       -7.0410    -9.7670     2.5270 H     1 <1>   0.0800 
 51 H       -5.3690    -9.3390     2.6040 H     1 <1>   0.0800 
 52 H       -7.1450    -6.9210    -2.6290 H     1 <1>   0.4000 
@<TRIPOS>BOND
  1   1   2  1   
  2   2   3  1   
  3   2   4  1   
  4   2   5  1   
  5   5   6  1   
  6   6   7  ar  
  7   6   8  ar  
  8   7   9  ar  
  9   7  26  1   
 10   8  10  ar  
 11   8  27  1   
 12   9  11  ar  
 13   9  28  1   
 14  10  11  ar  
 15  10  29  1   
 16  11  12  1   
 17  12  13  1   
 18  12  30  1   
 19  12  31  1   
 20  13  14  1   
 21  13  15  1   
 22  13  32  1   
 23  14  16  1   
 24  14  33  1   
 25  14  34  1   
 26  15  17  1   
 27  15  35  1   
 28  15  36  1   
 29  16  18  1   
 30  16  19  1   
 31  16  37  1   
 32  17  19  1   
 33  17  38  1   
 34  17  39  1   
 35  18  20  1   
 36  18  21  1   
 37  18  40  1   
 38  19  22  1   
 39  19  23  1   
 40  20  24  1   
 41  20  41  1   
 42  20  42  1   
 43  21  43  1   
 44  21  44  1   
 45  21  45  1   
 46  22  24  1   
 47  22  46  1   
 48  22  47  1   
 49  23  25  1   
 50  23  48  1   
 51  23  49  1   
 52  24  50  1   
 53  24  51  1   
 54  25  52  1   
@<TRIPOS>SUBSTRUCTURE
  1 ****  15 GROUP 4 **** **** 0

# MOE 2024.06 (io_trps.svl 2023.06)
