@<TRIPOS>MOLECULE
NONAME
41 43 1 0 0 
SMALL
USER_CHARGES


@<TRIPOS>ATOM
  1 O        0.5770    -0.0600     1.4030 O.2   1 <1>  -0.5700 
  2 C        1.3000    -0.6410     0.6180 C.2   1 <1>   0.5440 
  3 N        2.1500     0.0600    -0.2030 N.am  1 <1>  -0.4940 
  4 C        1.2930    -2.0840     0.5400 C.ar  1 <1>   0.0860 
  5 C        2.3090     1.4610    -0.3420 C.2   1 <1>  -0.0880 
  6 C        0.1540    -2.8100     0.1700 C.ar  1 <1>   0.1670 
  7 C        2.4460    -2.8040     0.8250 C.ar  1 <1>  -0.1500 
  8 N        3.5090     2.1060    -0.3830 N.pl3 1 <1>   0.3140 
  9 C        1.3590     2.4190    -0.4740 C.2   1 <1>  -0.1810 
 10 N        0.1040    -4.1290     0.0600 N.ar  1 <1>  -0.6200 
 11 C       -1.1490    -2.0940    -0.1460 C.3   1 <1>  -0.0970 
 12 C        2.4010    -4.1760     0.7190 C.ar  1 <1>  -0.1500 
 13 N        3.3440     3.4420    -0.5560 N.2   1 <1>  -0.7070 
 14 C        4.8530     1.4790    -0.2240 C.3   1 <1>   0.1760 
 15 C        2.0610     3.6110    -0.5990 C.2   1 <1>   0.1390 
 16 C       -0.1520     2.2820    -0.4940 C.3   1 <1>  -0.0590 
 17 C        1.2190    -4.7830     0.3360 C.ar  1 <1>   0.1600 
 18 C        5.7130     2.1340     0.8570 C.3   1 <1>  -0.1600 
 19 C        5.7120     1.5740    -1.4860 C.3   1 <1>  -0.1600 
 20 C        7.1420     1.7100     0.5140 C.3   1 <1>  -0.1600 
 21 C        7.1640     1.4740    -1.0020 C.3   1 <1>  -0.1600 
 22 H        2.7120    -0.5130    -0.8320 H     1 <1>   0.3700 
 23 H        3.3470    -2.3020     1.1320 H     1 <1>   0.1500 
 24 H       -0.9800    -1.2880    -0.8350 H     1 <1>   0.0800 
 25 H       -1.5740    -1.7010     0.7600 H     1 <1>   0.0800 
 26 H       -1.8560    -2.7740    -0.5880 H     1 <1>   0.0800 
 27 H        3.2680    -4.7750     0.9330 H     1 <1>   0.1500 
 28 H        4.7270     0.4440     0.0320 H     1 <1>   0.0800 
 29 H        1.5990     4.5770    -0.7210 H     1 <1>   0.1500 
 30 H       -0.4330     1.2950    -0.8080 H     1 <1>   0.0800 
 31 H       -0.5830     2.9960    -1.1710 H     1 <1>   0.0800 
 32 H       -0.5410     2.4520     0.4940 H     1 <1>   0.0800 
 33 H        1.1870    -5.8570     0.2550 H     1 <1>   0.1500 
 34 H        5.4240     1.8200     1.8450 H     1 <1>   0.0800 
 35 H        5.6390     3.2060     0.7830 H     1 <1>   0.0800 
 36 H        5.5650     2.5370    -1.9480 H     1 <1>   0.0800 
 37 H        5.4720     0.8000    -2.1920 H     1 <1>   0.0800 
 38 H        7.3780     0.7910     1.0240 H     1 <1>   0.0800 
 39 H        7.8520     2.4630     0.8100 H     1 <1>   0.0800 
 40 H        7.7710     2.2160    -1.4950 H     1 <1>   0.0800 
 41 H        7.5690     0.5000    -1.2170 H     1 <1>   0.0800 
@<TRIPOS>BOND
  1   1   2  2   
  2   2   3  am  
  3   2   4  1   
  4   3   5  1   
  5   3  22  1   
  6   4   6  ar  
  7   4   7  ar  
  8   5   8  1   
  9   5   9  2   
 10   6  10  ar  
 11   6  11  1   
 12   7  12  ar  
 13   7  23  1   
 14   8  13  1   
 15   8  14  1   
 16   9  15  1   
 17   9  16  1   
 18  10  17  ar  
 19  11  24  1   
 20  11  25  1   
 21  11  26  1   
 22  12  17  ar  
 23  12  27  1   
 24  13  15  2   
 25  14  18  1   
 26  14  19  1   
 27  14  28  1   
 28  15  29  1   
 29  16  30  1   
 30  16  31  1   
 31  16  32  1   
 32  17  33  1   
 33  18  20  1   
 34  18  34  1   
 35  18  35  1   
 36  19  21  1   
 37  19  36  1   
 38  19  37  1   
 39  20  21  1   
 40  20  38  1   
 41  20  39  1   
 42  21  40  1   
 43  21  41  1   
@<TRIPOS>SUBSTRUCTURE
  1 ****   3 GROUP 4 **** **** 0

# MOE 2024.06 (io_trps.svl 2023.06)
