@<TRIPOS>MOLECULE
NONAME
43 44 1 0 0 
SMALL
USER_CHARGES


@<TRIPOS>ATOM
  1 S       -0.3660     1.6540    -0.3780 S.3   1 <1>  -0.4600 
  2 C        0.8270     2.0710     0.9210 C.3   1 <1>   0.0700 
  3 C       -1.9120     1.4040     0.5340 C.3   1 <1>  -0.0100 
  4 C        2.2030     2.2760     0.2690 C.3   1 <1>  -0.0800 
  5 C        3.2980     2.4030     1.3410 C.3   1 <1>  -0.1600 
  6 C        2.2290     3.5190    -0.6410 C.3   1 <1>  -0.1600 
  7 C        4.6730     2.6450     0.7180 C.3   1 <1>   0.3430 
  8 C        3.6120     3.7510    -1.2430 C.3   1 <1>   0.3430 
  9 N        4.6220     3.8490    -0.1530 N.4   1 <1>  -0.9590 
 10 C        5.9570     4.2540    -0.6680 C.3   1 <1>   0.5240 
 11 C        5.8880     5.7350    -0.9970 C.2   1 <1>   0.0460 
 12 N        5.2240     6.5840    -0.1770 N.2   1 <1>  -0.5650 
 13 C        6.3850     6.4210    -2.0360 C.2   1 <1>  -0.0100 
 14 C        5.3630     7.7250    -0.7610 C.2   1 <1>   0.2980 
 15 O        6.0490     7.6700    -1.8790 O.3   1 <1>  -0.2800 
 16 C        4.8300     9.0850    -0.3050 C.3   1 <1>   0.1000 
 17 C        4.3460     9.0680     1.1530 C.3   1 <1>  -0.2400 
 18 C        3.6950     9.5570    -1.2250 C.3   1 <1>  -0.2400 
 19 H        0.8350     1.2440     1.6100 H     1 <1>   0.0800 
 20 H        0.4740     2.9590     1.4150 H     1 <1>   0.0800 
 21 H       -2.6760     1.1530    -0.1800 H     1 <1>   0.0800 
 22 H       -2.1520     2.3190     1.0450 H     1 <1>   0.0800 
 23 H       -1.7630     0.5980     1.2310 H     1 <1>   0.0800 
 24 H        2.4150     1.4040    -0.3280 H     1 <1>   0.0800 
 25 H        3.3370     1.4970     1.9210 H     1 <1>   0.0800 
 26 H        3.0670     3.2100     2.0160 H     1 <1>   0.0800 
 27 H        1.9290     4.3930    -0.0900 H     1 <1>   0.0800 
 28 H        1.5290     3.3970    -1.4490 H     1 <1>   0.0800 
 29 H        4.9580     1.7850     0.1340 H     1 <1>   0.0800 
 30 H        5.4010     2.7840     1.5010 H     1 <1>   0.0800 
 31 H        3.6000     4.6630    -1.8200 H     1 <1>   0.0800 
 32 H        3.8580     2.9330    -1.9010 H     1 <1>   0.0800 
 33 H        4.3440     4.6690     0.4170 H     1 <1>   0.4500 
 34 H        6.2320     3.6780    -1.5360 H     1 <1>   0.0800 
 35 H        6.7010     4.1130     0.0990 H     1 <1>   0.0800 
 36 H        6.9620     6.1360    -2.9000 H     1 <1>   0.1500 
 37 H        5.6410     9.7880    -0.3780 H     1 <1>   0.0800 
 38 H        3.5220     8.3870     1.2700 H     1 <1>   0.0800 
 39 H        4.0290    10.0500     1.4540 H     1 <1>   0.0800 
 40 H        5.1450     8.7550     1.8020 H     1 <1>   0.0800 
 41 H        2.8690     8.8690    -1.1850 H     1 <1>   0.0800 
 42 H        4.0430     9.6170    -2.2410 H     1 <1>   0.0800 
 43 H        3.3510    10.5310    -0.9260 H     1 <1>   0.0800 
@<TRIPOS>BOND
  1   1   2  1   
  2   1   3  1   
  3   2   4  1   
  4   2  19  1   
  5   2  20  1   
  6   3  21  1   
  7   3  22  1   
  8   3  23  1   
  9   4   5  1   
 10   4   6  1   
 11   4  24  1   
 12   5   7  1   
 13   5  25  1   
 14   5  26  1   
 15   6   8  1   
 16   6  27  1   
 17   6  28  1   
 18   7   9  1   
 19   7  29  1   
 20   7  30  1   
 21   8   9  1   
 22   8  31  1   
 23   8  32  1   
 24   9  10  1   
 25   9  33  1   
 26  10  11  1   
 27  10  34  1   
 28  10  35  1   
 29  11  12  1   
 30  11  13  2   
 31  12  14  2   
 32  13  15  1   
 33  13  36  1   
 34  14  15  1   
 35  14  16  1   
 36  16  17  1   
 37  16  18  1   
 38  16  37  1   
 39  17  38  1   
 40  17  39  1   
 41  17  40  1   
 42  18  41  1   
 43  18  42  1   
 44  18  43  1   
@<TRIPOS>SUBSTRUCTURE
  1 ****   9 GROUP 4 **** **** 0

# MOE 2024.06 (io_trps.svl 2023.06)
