@<TRIPOS>MOLECULE
NONAME
52 54 1 0 0 
SMALL
USER_CHARGES


@<TRIPOS>ATOM
  1 F        0.2470    -0.4690     0.9000 F     1 <1>  -0.1900 
  2 C        0.0080    -1.6450     0.3760 C.ar  1 <1>   0.1900 
  3 C        0.7150    -2.7860     0.7710 C.ar  1 <1>   0.0820 
  4 C       -0.9850    -1.6990    -0.5830 C.ar  1 <1>  -0.1500 
  5 O        1.7100    -2.8620     1.6970 O.3   1 <1>  -0.3630 
  6 C        0.3840    -3.9890     0.1660 C.ar  1 <1>  -0.1500 
  7 C       -1.2990    -2.9140    -1.1700 C.ar  1 <1>  -0.1500 
  8 C        2.2770    -1.7220     2.3080 C.3   1 <1>   0.0400 
  9 C       -0.6200    -4.0660    -0.7910 C.ar  1 <1>  -0.1430 
 10 C       -0.9700    -5.4040    -1.4120 C.3   1 <1>   0.4870 
 11 N       -1.6920    -6.2160    -0.3880 N.4   1 <1>  -0.9590 
 12 C       -1.7960    -7.6640    -0.8050 C.3   1 <1>   0.3430 
 13 C       -3.0320    -5.6150    -0.1080 C.3   1 <1>   0.3430 
 14 C       -2.6000    -8.5540     0.1980 C.3   1 <1>   0.4230 
 15 C       -3.7570    -6.4370     0.9620 C.3   1 <1>  -0.1600 
 16 N       -2.6900   -10.0380    -0.1620 N.4   1 <1>  -0.9590 
 17 C       -3.9730    -7.9270     0.5810 C.3   1 <1>   0.0000 
 18 C       -3.7390   -10.7870     0.6140 C.3   1 <1>   0.3430 
 19 C       -2.8740   -10.3300    -1.6250 C.3   1 <1>   0.2630 
 20 C       -4.5200    -8.6730     1.8310 C.3   1 <1>  -0.1600 
 21 C       -5.0430    -8.0200    -0.5460 C.3   1 <1>   0.1200 
 22 C       -4.0100   -10.1230     1.9650 C.3   1 <1>  -0.1600 
 23 O       -4.5410    -7.6000    -1.7700 O.3   1 <1>  -0.6800 
 24 H       -1.5010    -0.7980    -0.8650 H     1 <1>   0.1500 
 25 H        0.9420    -4.8600     0.4640 H     1 <1>   0.1500 
 26 H       -2.0720    -2.9410    -1.9210 H     1 <1>   0.1500 
 27 H        3.0880    -2.0470     2.9350 H     1 <1>   0.0800 
 28 H        1.5290    -1.2350     2.9070 H     1 <1>   0.0800 
 29 H        2.6500    -1.0620     1.5450 H     1 <1>   0.0800 
 30 H       -0.0600    -5.8990    -1.7120 H     1 <1>   0.0800 
 31 H       -1.5860    -5.2610    -2.2860 H     1 <1>   0.0800 
 32 H       -1.1330    -6.1180     0.4720 H     1 <1>   0.4500 
 33 H       -2.2770    -7.7080    -1.7670 H     1 <1>   0.0800 
 34 H       -0.8040    -8.0710    -0.9090 H     1 <1>   0.0800 
 35 H       -2.9140    -4.6000     0.2420 H     1 <1>   0.0800 
 36 H       -3.6220    -5.5880    -1.0110 H     1 <1>   0.0800 
 37 H       -2.0260    -8.5160     1.1090 H     1 <1>   0.0800 
 38 H       -3.1900    -6.3580     1.8740 H     1 <1>   0.0800 
 39 H       -4.7100    -5.9730     1.1540 H     1 <1>   0.0800 
 40 H       -1.7950   -10.4680     0.1180 H     1 <1>   0.4500 
 41 H       -4.6610   -10.8100     0.0560 H     1 <1>   0.0800 
 42 H       -3.4250   -11.8080     0.7660 H     1 <1>   0.0800 
 43 H       -3.7970    -9.9050    -1.9840 H     1 <1>   0.0800 
 44 H       -2.9060   -11.3960    -1.7920 H     1 <1>   0.0800 
 45 H       -2.0610    -9.9250    -2.2040 H     1 <1>   0.0800 
 46 H       -4.2500    -8.1580     2.7390 H     1 <1>   0.0800 
 47 H       -5.5990    -8.6790     1.8090 H     1 <1>   0.0800 
 48 H       -5.8940    -7.4020    -0.3060 H     1 <1>   0.0800 
 49 H       -5.3980    -9.0280    -0.6710 H     1 <1>   0.0800 
 50 H       -4.7410   -10.7040     2.5020 H     1 <1>   0.0800 
 51 H       -3.1070   -10.1460     2.5520 H     1 <1>   0.0800 
 52 H       -5.2730    -7.5210    -2.4260 H     1 <1>   0.4000 
@<TRIPOS>BOND
  1   1   2  1   
  2   2   3  ar  
  3   2   4  ar  
  4   3   5  1   
  5   3   6  ar  
  6   4   7  ar  
  7   4  24  1   
  8   5   8  1   
  9   6   9  ar  
 10   6  25  1   
 11   7   9  ar  
 12   7  26  1   
 13   8  27  1   
 14   8  28  1   
 15   8  29  1   
 16   9  10  1   
 17  10  11  1   
 18  10  30  1   
 19  10  31  1   
 20  11  12  1   
 21  11  13  1   
 22  11  32  1   
 23  12  14  1   
 24  12  33  1   
 25  12  34  1   
 26  13  15  1   
 27  13  35  1   
 28  13  36  1   
 29  14  16  1   
 30  14  17  1   
 31  14  37  1   
 32  15  17  1   
 33  15  38  1   
 34  15  39  1   
 35  16  18  1   
 36  16  19  1   
 37  16  40  1   
 38  17  20  1   
 39  17  21  1   
 40  18  22  1   
 41  18  41  1   
 42  18  42  1   
 43  19  43  1   
 44  19  44  1   
 45  19  45  1   
 46  20  22  1   
 47  20  46  1   
 48  20  47  1   
 49  21  23  1   
 50  21  48  1   
 51  21  49  1   
 52  22  50  1   
 53  22  51  1   
 54  23  52  1   
@<TRIPOS>SUBSTRUCTURE
  1 ****  11 GROUP 4 **** **** 0

# MOE 2024.06 (io_trps.svl 2023.06)
