@<TRIPOS>MOLECULE
NONAME
44 46 1 0 0 
SMALL
USER_CHARGES


@<TRIPOS>ATOM
  1 F        2.0480     1.1570    -2.3830 F     1 <1>  -0.1900 
  2 C        2.9140     0.4970    -1.6570 C.ar  1 <1>   0.1900 
  3 C        3.6570    -0.5180    -2.2430 C.ar  1 <1>   0.0830 
  4 C        3.0750     0.8510    -0.3320 C.ar  1 <1>  -0.1500 
  5 O        3.5190    -0.8350    -3.5430 O.3   1 <1>  -0.5330 
  6 C        4.5670    -1.2130    -1.4670 C.ar  1 <1>  -0.1500 
  7 C        4.0230     0.1810     0.4320 C.ar  1 <1>  -0.1440 
  8 C        4.7460    -0.8620    -0.1380 C.ar  1 <1>  -0.1500 
  9 C        4.3100     0.5810     1.8780 C.3   1 <1>   0.0440 
 10 C        5.7670     1.0130     1.9870 C.2   1 <1>   0.5690 
 11 O        6.5430     0.2070     2.4400 O.2   1 <1>  -0.5700 
 12 N        6.2200     2.2050     1.4640 N.am  1 <1>  -0.6600 
 13 C        7.7050     2.3440     1.2220 C.3   1 <1>   0.2200 
 14 C        5.3330     3.2660     0.8880 C.3   1 <1>   0.1400 
 15 C        8.2330     3.7850     1.3350 C.3   1 <1>   0.1200 
 16 C        8.0660     1.7270    -0.1520 C.3   1 <1>   0.3430 
 17 C        5.8450     3.8850    -0.4290 C.3   1 <1>  -0.0800 
 18 O        8.1250     4.4490     0.1110 O.3   1 <1>  -0.5600 
 19 N        6.8760     1.6010    -1.0750 N.4   1 <1>  -0.9590 
 20 C        6.8820     4.9890    -0.1740 C.3   1 <1>   0.1200 
 21 C        6.3070     2.9080    -1.5380 C.3   1 <1>   0.3430 
 22 C        7.1790     0.7100    -2.2320 C.3   1 <1>   0.2630 
 23 H        2.4680     1.6380     0.0810 H     1 <1>   0.1500 
 24 H        2.7550    -0.3860    -3.9590 H     1 <1>   0.4500 
 25 H        5.1210    -2.0270    -1.9020 H     1 <1>   0.1500 
 26 H        5.4580    -1.4140     0.4580 H     1 <1>   0.1500 
 27 H        4.1470    -0.2670     2.5200 H     1 <1>   0.0800 
 28 H        3.6620     1.3680     2.2140 H     1 <1>   0.0800 
 29 H        8.2310     1.7900     1.9810 H     1 <1>   0.0800 
 30 H        4.3520     2.8740     0.7070 H     1 <1>   0.0800 
 31 H        5.2170     4.0440     1.6240 H     1 <1>   0.0800 
 32 H        9.2820     3.7540     1.5710 H     1 <1>   0.0800 
 33 H        7.7330     4.3390     2.1120 H     1 <1>   0.0800 
 34 H        8.4700     0.7450     0.0330 H     1 <1>   0.0800 
 35 H        8.8410     2.3120    -0.6180 H     1 <1>   0.0800 
 36 H        5.0040     4.4120    -0.8420 H     1 <1>   0.0800 
 37 H        6.1450     1.1520    -0.4970 H     1 <1>   0.4500 
 38 H        6.5880     5.6390     0.6340 H     1 <1>   0.0800 
 39 H        7.0010     5.5930    -1.0580 H     1 <1>   0.0800 
 40 H        7.0330     3.4120    -2.1550 H     1 <1>   0.0800 
 41 H        5.4530     2.6950    -2.1600 H     1 <1>   0.0800 
 42 H        7.9450     1.1470    -2.8510 H     1 <1>   0.0800 
 43 H        6.2930     0.5580    -2.8280 H     1 <1>   0.0800 
 44 H        7.5200    -0.2510    -1.8820 H     1 <1>   0.0800 
@<TRIPOS>BOND
  1   1   2  1   
  2   2   3  ar  
  3   2   4  ar  
  4   3   5  1   
  5   3   6  ar  
  6   4   7  ar  
  7   4  23  1   
  8   5  24  1   
  9   6   8  ar  
 10   6  25  1   
 11   7   8  ar  
 12   7   9  1   
 13   8  26  1   
 14   9  10  1   
 15   9  27  1   
 16   9  28  1   
 17  10  11  2   
 18  10  12  am  
 19  12  13  1   
 20  12  14  1   
 21  13  15  1   
 22  13  16  1   
 23  13  29  1   
 24  14  17  1   
 25  14  30  1   
 26  14  31  1   
 27  15  18  1   
 28  15  32  1   
 29  15  33  1   
 30  16  19  1   
 31  16  34  1   
 32  16  35  1   
 33  17  20  1   
 34  17  21  1   
 35  17  36  1   
 36  18  20  1   
 37  19  21  1   
 38  19  22  1   
 39  19  37  1   
 40  20  38  1   
 41  20  39  1   
 42  21  40  1   
 43  21  41  1   
 44  22  42  1   
 45  22  43  1   
 46  22  44  1   
@<TRIPOS>SUBSTRUCTURE
  1 ****  19 GROUP 4 **** **** 0

# MOE 2024.06 (io_trps.svl 2023.06)
