@<TRIPOS>MOLECULE
NONAME
53 55 1 0 0 
SMALL
USER_CHARGES


@<TRIPOS>ATOM
  1 O       -1.1630    -0.6280     1.1850 O.3   1 <1>  -0.3630 
  2 C       -2.0120    -1.1480     0.2660 C.ar  1 <1>   0.0830 
  3 C       -0.8430     0.7460     1.2010 C.3   1 <1>   0.0400 
  4 C       -2.6710    -0.3940    -0.7000 C.ar  1 <1>  -0.1500 
  5 C       -2.2130    -2.5170     0.3260 C.ar  1 <1>  -0.1500 
  6 C       -3.5270    -1.0210    -1.5990 C.ar  1 <1>   0.0830 
  7 C       -3.0710    -3.1460    -0.5620 C.ar  1 <1>  -0.1430 
  8 O       -4.2120    -0.3730    -2.5720 O.3   1 <1>  -0.3630 
  9 C       -3.7200    -2.3900    -1.5260 C.ar  1 <1>  -0.1500 
 10 C       -3.3070    -4.6390    -0.4730 C.3   1 <1>   0.4860 
 11 C       -4.0780     1.0180    -2.7690 C.3   1 <1>   0.0400 
 12 N       -4.1990    -4.8980     0.6850 N.4   1 <1>  -0.9590 
 13 C       -5.5490    -4.2760     0.5060 C.3   1 <1>   0.3430 
 14 C       -4.3950    -6.3510     0.9800 C.3   1 <1>   0.3430 
 15 C       -6.5260    -5.2680     1.1180 C.3   1 <1>  -0.0800 
 16 C       -5.8880    -6.6230     0.7910 C.3   1 <1>  -0.0800 
 17 C       -7.9810    -5.0830     0.6360 C.3   1 <1>   0.2800 
 18 C       -6.1640    -7.0890    -0.6540 C.3   1 <1>  -0.1600 
 19 O       -8.2280    -3.7300     0.6270 O.3   1 <1>  -0.6800 
 20 C       -8.1670    -5.5690    -0.8130 C.3   1 <1>  -0.1600 
 21 C       -9.0150    -5.7480     1.5770 C.3   1 <1>  -0.1600 
 22 C       -7.6480    -6.9990    -1.0190 C.3   1 <1>  -0.1600 
 23 C       -9.1310    -5.1550     2.9950 C.3   1 <1>  -0.2400 
 24 H       -0.1430     0.9170     1.9990 H     1 <1>   0.0800 
 25 H       -1.7400     1.3130     1.3750 H     1 <1>   0.0800 
 26 H       -0.3940     1.0120     0.2600 H     1 <1>   0.0800 
 27 H       -2.5200     0.6650    -0.7500 H     1 <1>   0.1500 
 28 H       -1.6800    -3.0690     1.0800 H     1 <1>   0.1500 
 29 H       -4.3870    -2.8430    -2.2390 H     1 <1>   0.1500 
 30 H       -2.3630    -5.1420    -0.3370 H     1 <1>   0.0800 
 31 H       -3.7610    -4.9960    -1.3830 H     1 <1>   0.0800 
 32 H       -4.7020     1.3000    -3.5980 H     1 <1>   0.0800 
 33 H       -3.0510     1.2430    -2.9930 H     1 <1>   0.0800 
 34 H       -4.4010     1.5300    -1.8800 H     1 <1>   0.0800 
 35 H       -3.7690    -4.4400     1.4990 H     1 <1>   0.4500 
 36 H       -5.6170    -3.3110     0.9820 H     1 <1>   0.0800 
 37 H       -5.7710    -4.1630    -0.5420 H     1 <1>   0.0800 
 38 H       -3.8020    -6.9760     0.3320 H     1 <1>   0.0800 
 39 H       -4.1230    -6.5490     2.0050 H     1 <1>   0.0800 
 40 H       -6.4910    -5.1180     2.1810 H     1 <1>   0.0800 
 41 H       -6.2270    -7.3790     1.4790 H     1 <1>   0.0800 
 42 H       -5.6120    -6.4890    -1.3570 H     1 <1>   0.0800 
 43 H       -5.8340    -8.1080    -0.7740 H     1 <1>   0.0800 
 44 H       -9.1840    -3.5750     0.4920 H     1 <1>   0.4000 
 45 H       -9.2090    -5.5340    -1.0820 H     1 <1>   0.0800 
 46 H       -7.6390    -4.9140    -1.4850 H     1 <1>   0.0800 
 47 H       -9.9870    -5.6970     1.1170 H     1 <1>   0.0800 
 48 H       -8.7800    -6.7930     1.6730 H     1 <1>   0.0800 
 49 H       -8.2160    -7.6920    -0.4220 H     1 <1>   0.0800 
 50 H       -7.7810    -7.2800    -2.0500 H     1 <1>   0.0800 
 51 H       -9.3610    -4.1050     2.9570 H     1 <1>   0.0800 
 52 H       -8.2250    -5.2900     3.5560 H     1 <1>   0.0800 
 53 H       -9.9250    -5.6490     3.5280 H     1 <1>   0.0800 
@<TRIPOS>BOND
  1   1   2  1   
  2   1   3  1   
  3   2   4  ar  
  4   2   5  ar  
  5   3  24  1   
  6   3  25  1   
  7   3  26  1   
  8   4   6  ar  
  9   4  27  1   
 10   5   7  ar  
 11   5  28  1   
 12   6   8  1   
 13   6   9  ar  
 14   7   9  ar  
 15   7  10  1   
 16   8  11  1   
 17   9  29  1   
 18  10  12  1   
 19  10  30  1   
 20  10  31  1   
 21  11  32  1   
 22  11  33  1   
 23  11  34  1   
 24  12  13  1   
 25  12  14  1   
 26  12  35  1   
 27  13  15  1   
 28  13  36  1   
 29  13  37  1   
 30  14  16  1   
 31  14  38  1   
 32  14  39  1   
 33  15  16  1   
 34  15  17  1   
 35  15  40  1   
 36  16  18  1   
 37  16  41  1   
 38  17  19  1   
 39  17  20  1   
 40  17  21  1   
 41  18  22  1   
 42  18  42  1   
 43  18  43  1   
 44  19  44  1   
 45  20  22  1   
 46  20  45  1   
 47  20  46  1   
 48  21  23  1   
 49  21  47  1   
 50  21  48  1   
 51  22  49  1   
 52  22  50  1   
 53  23  51  1   
 54  23  52  1   
 55  23  53  1   
@<TRIPOS>SUBSTRUCTURE
  1 ****  13 GROUP 4 **** **** 0

# MOE 2024.06 (io_trps.svl 2023.06)
