@<TRIPOS>MOLECULE
NONAME
47 49 1 0 0 
SMALL
USER_CHARGES


@<TRIPOS>ATOM
  1 F       -1.6400     3.3920     0.3590 F     1 <1>  -0.3400 
  2 C       -1.1740     2.8090     1.4570 C.3   1 <1>   1.0200 
  3 F       -0.4890     3.7210     2.1210 F     1 <1>  -0.3400 
  4 F       -0.3180     1.8870     1.0490 F     1 <1>  -0.3400 
  5 C       -2.2940     2.1990     2.2850 C.3   1 <1>  -0.1600 
  6 C       -2.9810     1.0440     1.5510 C.3   1 <1>   0.3430 
  7 N       -3.7160     1.4810     0.3250 N.4   1 <1>  -0.9590 
  8 C       -4.9020     2.3530     0.6470 C.3   1 <1>   0.3430 
  9 C       -4.1450     0.2950    -0.4780 C.3   1 <1>   0.3430 
 10 C       -5.6040     2.8730    -0.6180 C.3   1 <1>   0.1430 
 11 C       -4.8020     0.7530    -1.7850 C.3   1 <1>  -0.1600 
 12 C       -6.8280     3.6320    -0.1750 C.ar  1 <1>   0.1670 
 13 C       -5.9920     1.6970    -1.5360 C.3   1 <1>  -0.1600 
 14 C       -4.7930     3.9620    -1.3730 C.3   1 <1>  -0.1600 
 15 N       -7.6730     3.1970     0.7220 N.ar  1 <1>  -0.6200 
 16 C       -6.9300     4.8410    -0.7900 C.ar  1 <1>  -0.1430 
 17 C       -5.7950     5.0700    -1.7560 C.3   1 <1>  -0.0170 
 18 C       -8.6730     4.0380     1.0000 C.ar  1 <1>   0.7200 
 19 C       -7.9940     5.6350    -0.4440 C.ar  1 <1>   0.1600 
 20 N       -8.8670     5.2420     0.4540 N.ar  1 <1>  -0.6200 
 21 N       -9.5770     3.6260     1.9540 N.pl3 1 <1>  -0.8380 
 22 C       -9.9130     2.1910     2.1610 C.3   1 <1>   0.1290 
 23 C      -10.4830     4.5930     2.6330 C.3   1 <1>   0.1290 
 24 H       -2.9930     2.9610     2.5730 H     1 <1>   0.0800 
 25 H       -1.8540     1.8120     3.1850 H     1 <1>   0.0800 
 26 H       -3.6720     0.5620     2.2250 H     1 <1>   0.0800 
 27 H       -2.2330     0.3160     1.2780 H     1 <1>   0.0800 
 28 H       -3.0820     2.0360    -0.2730 H     1 <1>   0.4500 
 29 H       -4.6010     3.2000     1.2390 H     1 <1>   0.0800 
 30 H       -5.6190     1.7890     1.2230 H     1 <1>   0.0800 
 31 H       -4.8500    -0.2920     0.0880 H     1 <1>   0.0800 
 32 H       -3.2930    -0.3260    -0.7060 H     1 <1>   0.0800 
 33 H       -5.1500    -0.1150    -2.3190 H     1 <1>   0.0800 
 34 H       -4.0660     1.2300    -2.4070 H     1 <1>   0.0800 
 35 H       -6.3770     2.0660    -2.4710 H     1 <1>   0.0800 
 36 H       -6.7860     1.1380    -1.0660 H     1 <1>   0.0800 
 37 H       -4.2840     3.5860    -2.2430 H     1 <1>   0.0800 
 38 H       -4.0620     4.3950    -0.7120 H     1 <1>   0.0800 
 39 H       -6.1480     4.9380    -2.7640 H     1 <1>   0.0800 
 40 H       -5.3680     6.0520    -1.6450 H     1 <1>   0.0800 
 41 H       -8.1300     6.6010    -0.9010 H     1 <1>   0.1500 
 42 H       -9.5010     1.5820     1.3750 H     1 <1>   0.0800 
 43 H      -10.9820     2.0610     2.1610 H     1 <1>   0.0800 
 44 H       -9.5180     1.8610     3.1050 H     1 <1>   0.0800 
 45 H      -10.0040     5.5520     2.7290 H     1 <1>   0.0800 
 46 H      -10.7330     4.2370     3.6170 H     1 <1>   0.0800 
 47 H      -11.3840     4.7100     2.0560 H     1 <1>   0.0800 
@<TRIPOS>BOND
  1   1   2  1   
  2   2   3  1   
  3   2   4  1   
  4   2   5  1   
  5   5   6  1   
  6   5  24  1   
  7   5  25  1   
  8   6   7  1   
  9   6  26  1   
 10   6  27  1   
 11   7   8  1   
 12   7   9  1   
 13   7  28  1   
 14   8  10  1   
 15   8  29  1   
 16   8  30  1   
 17   9  11  1   
 18   9  31  1   
 19   9  32  1   
 20  10  12  1   
 21  10  13  1   
 22  10  14  1   
 23  11  13  1   
 24  11  33  1   
 25  11  34  1   
 26  12  15  ar  
 27  12  16  ar  
 28  13  35  1   
 29  13  36  1   
 30  14  17  1   
 31  14  37  1   
 32  14  38  1   
 33  15  18  ar  
 34  16  17  1   
 35  16  19  ar  
 36  17  39  1   
 37  17  40  1   
 38  18  20  ar  
 39  18  21  1   
 40  19  20  ar  
 41  19  41  1   
 42  21  22  1   
 43  21  23  1   
 44  22  42  1   
 45  22  43  1   
 46  22  44  1   
 47  23  45  1   
 48  23  46  1   
 49  23  47  1   
@<TRIPOS>SUBSTRUCTURE
  1 ****   8 GROUP 4 **** **** 0

# MOE 2024.06 (io_trps.svl 2023.06)
