@<TRIPOS>MOLECULE
NONAME
44 45 1 0 0 
SMALL
USER_CHARGES


@<TRIPOS>ATOM
  1 S        0.0390    -0.0110    -0.1860 S.o2  1 <1>   1.3330 
  2 O       -0.0720    -0.8380     0.9940 O.2   1 <1>  -0.6500 
  3 O       -0.5330     1.3160    -0.1850 O.2   1 <1>  -0.6500 
  4 N       -0.6170    -0.8760    -1.4910 N.am  1 <1>  -0.8490 
  5 C        1.7650     0.1400    -0.6520 C.3   1 <1>  -0.0550 
  6 C       -0.4720    -2.3290    -1.3600 C.3   1 <1>   0.1160 
  7 C       -2.0220    -0.5340    -1.7360 C.3   1 <1>   0.1160 
  8 C        2.5880     1.0270     0.3040 C.3   1 <1>  -0.0800 
  9 C        3.9840     1.2690    -0.2450 C.3   1 <1>   0.2200 
 10 C        2.8660     0.3390     1.6500 C.3   1 <1>   0.1200 
 11 N        4.4920     2.5560     0.2780 N.am  1 <1>  -0.7300 
 12 C        4.7670     0.1230     0.3790 C.3   1 <1>   0.1200 
 13 O        4.2050    -0.0620     1.6390 O.3   1 <1>  -0.5600 
 14 C        4.6260     3.7030    -0.4500 C.2   1 <1>   0.6160 
 15 O        4.3100     3.6750    -1.6260 O.2   1 <1>  -0.5700 
 16 C        5.1240     4.9380     0.1460 C.2   1 <1>   0.1140 
 17 N        5.1580     6.0780    -0.6470 N.pl3 1 <1>  -0.6000 
 18 C        5.5640     5.0640     1.4360 C.2   1 <1>  -0.1360 
 19 C        5.6030     7.2950    -0.2010 C.2   1 <1>  -0.0380 
 20 C        6.0340     6.2960     1.9490 C.2   1 <1>   0.5410 
 21 C        6.0380     7.4140     1.0790 C.2   1 <1>  -0.1360 
 22 C        5.5760     8.4400    -1.1910 C.3   1 <1>  -0.1020 
 23 O        6.4230     6.3880     3.1090 O.2   1 <1>  -0.5700 
 24 H        2.2060    -0.8350    -0.7130 H     1 <1>   0.0800 
 25 H        1.8010     0.5780    -1.6310 H     1 <1>   0.0800 
 26 H       -0.8200    -2.8180    -2.2540 H     1 <1>   0.0800 
 27 H       -1.0430    -2.6900    -0.5190 H     1 <1>   0.0800 
 28 H        0.5620    -2.5880    -1.2110 H     1 <1>   0.0800 
 29 H       -2.4010    -1.0880    -2.5780 H     1 <1>   0.0800 
 30 H       -2.1140     0.5160    -1.9570 H     1 <1>   0.0800 
 31 H       -2.6190    -0.7570    -0.8660 H     1 <1>   0.0800 
 32 H        2.0620     1.9560     0.4450 H     1 <1>   0.0800 
 33 H        4.0310     1.2530    -1.3220 H     1 <1>   0.0800 
 34 H        2.2550    -0.5310     1.8180 H     1 <1>   0.0800 
 35 H        2.7370     1.0260     2.4690 H     1 <1>   0.0800 
 36 H        4.7140     2.5380     1.2750 H     1 <1>   0.3700 
 37 H        5.8170     0.3380     0.4750 H     1 <1>   0.0800 
 38 H        4.6290    -0.7860    -0.1800 H     1 <1>   0.0800 
 39 H        4.8230     5.9560    -1.6160 H     1 <1>   0.4000 
 40 H        5.5780     4.2410     2.1210 H     1 <1>   0.1500 
 41 H        6.3980     8.3390     1.4870 H     1 <1>   0.1500 
 42 H        6.1940     8.2070    -2.0400 H     1 <1>   0.0800 
 43 H        5.9430     9.3430    -0.7380 H     1 <1>   0.0800 
 44 H        4.5690     8.6100    -1.5280 H     1 <1>   0.0800 
@<TRIPOS>BOND
  1   1   2  2   
  2   1   3  2   
  3   1   4  am  
  4   1   5  1   
  5   4   6  1   
  6   4   7  1   
  7   5   8  1   
  8   5  24  1   
  9   5  25  1   
 10   6  26  1   
 11   6  27  1   
 12   6  28  1   
 13   7  29  1   
 14   7  30  1   
 15   7  31  1   
 16   8   9  1   
 17   8  10  1   
 18   8  32  1   
 19   9  11  1   
 20   9  12  1   
 21   9  33  1   
 22  10  13  1   
 23  10  34  1   
 24  10  35  1   
 25  11  14  am  
 26  11  36  1   
 27  12  13  1   
 28  12  37  1   
 29  12  38  1   
 30  14  15  2   
 31  14  16  1   
 32  16  17  1   
 33  16  18  2   
 34  17  19  1   
 35  17  39  1   
 36  18  20  1   
 37  18  40  1   
 38  19  21  2   
 39  19  22  1   
 40  20  21  1   
 41  20  23  2   
 42  21  41  1   
 43  22  42  1   
 44  22  43  1   
 45  22  44  1   
@<TRIPOS>SUBSTRUCTURE
  1 ****  11 GROUP 4 **** **** 0

# MOE 2024.06 (io_trps.svl 2023.06)
