@<TRIPOS>MOLECULE
NONAME
48 50 1 0 0 
SMALL
USER_CHARGES


@<TRIPOS>ATOM
  1 O       -1.2110     1.1540     2.1090 O.2   1 <1>  -0.5700 
  2 C       -1.6460     2.0660     1.4510 C.2   1 <1>   0.5690 
  3 N       -2.6530     2.0160     0.5310 N.am  1 <1>  -0.4770 
  4 C       -1.0980     3.4590     1.5890 C.3   1 <1>  -0.0990 
  5 C       -3.4390     0.9090     0.1480 C.ar  1 <1>   0.1170 
  6 C       -2.8880     3.3530    -0.0510 C.3   1 <1>   0.1400 
  7 C       -2.1670     4.3190     0.9010 C.3   1 <1>  -0.0190 
  8 C       -3.8880     0.7720    -1.1630 C.ar  1 <1>  -0.1500 
  9 C       -3.7990    -0.0710     1.0680 C.ar  1 <1>  -0.1500 
 10 C       -1.5940     5.5560     0.2290 C.2   1 <1>   0.5690 
 11 C       -4.6750    -0.3020    -1.5360 C.ar  1 <1>  -0.1500 
 12 C       -4.5850    -1.1490     0.7000 C.ar  1 <1>  -0.1500 
 13 O       -1.5310     5.6230    -0.9760 O.2   1 <1>  -0.5700 
 14 N       -1.1250     6.5580     1.0100 N.am  1 <1>  -0.7300 
 15 C       -5.0320    -1.2700    -0.6120 C.ar  1 <1>   0.0830 
 16 C       -0.4630     7.7780     0.4890 C.3   1 <1>   0.3200 
 17 O       -5.8080    -2.2890    -1.0720 O.3   1 <1>  -0.3630 
 18 C        0.9440     7.4450     0.0350 C.2   1 <1>   0.0060 
 19 C       -6.2560    -3.3420    -0.2480 C.3   1 <1>   0.2000 
 20 N        2.0350     7.8950     0.5460 N.2   1 <1>  -0.3380 
 21 N        1.1910     6.6040    -0.9740 N.pl3 1 <1>   0.0330 
 22 C       -6.6040    -4.5100    -1.1670 C.3   1 <1>  -0.2400 
 23 C       -7.4870    -2.8720     0.5310 C.3   1 <1>  -0.2400 
 24 N        3.0480     7.3350    -0.1350 N.2   1 <1>  -0.3380 
 25 C        2.5210     6.5700    -1.0330 C.2   1 <1>   0.2700 
 26 N        3.2510     5.8180    -1.9260 N.pl3 1 <1>  -0.8840 
 27 H       -0.1560     3.5080     1.0720 H     1 <1>   0.0800 
 28 H       -0.9670     3.7200     2.6220 H     1 <1>   0.0800 
 29 H       -3.9410     3.5690    -0.1080 H     1 <1>   0.0800 
 30 H       -2.4580     3.3760    -1.0380 H     1 <1>   0.0800 
 31 H       -2.8830     4.6360     1.6380 H     1 <1>   0.0800 
 32 H       -3.6190     1.5000    -1.9040 H     1 <1>   0.1500 
 33 H       -3.4610     0.0090     2.0850 H     1 <1>   0.1500 
 34 H       -5.0180    -0.4010    -2.5500 H     1 <1>   0.1500 
 35 H       -4.8330    -1.8760     1.4480 H     1 <1>   0.1500 
 36 H       -1.0420     6.4320     2.0210 H     1 <1>   0.3700 
 37 H       -0.4260     8.5280     1.2600 H     1 <1>   0.0800 
 38 H       -1.0260     8.1700    -0.3420 H     1 <1>   0.0800 
 39 H       -5.4570    -3.6380     0.4090 H     1 <1>   0.0800 
 40 H        0.5090     6.0620    -1.5110 H     1 <1>   0.2700 
 41 H       -7.3770    -4.2260    -1.8590 H     1 <1>   0.0800 
 42 H       -6.9490    -5.3460    -0.5870 H     1 <1>   0.0800 
 43 H       -5.7300    -4.8140    -1.7160 H     1 <1>   0.0800 
 44 H       -8.2650    -2.5730    -0.1480 H     1 <1>   0.0800 
 45 H       -7.2400    -2.0430     1.1680 H     1 <1>   0.0800 
 46 H       -7.8580    -3.6710     1.1470 H     1 <1>   0.0800 
 47 H        4.2550     5.9250    -1.7510 H     1 <1>   0.4000 
 48 H        3.0520     6.0150    -2.9090 H     1 <1>   0.4000 
@<TRIPOS>BOND
  1   1   2  2   
  2   2   3  am  
  3   2   4  1   
  4   3   5  1   
  5   3   6  1   
  6   4   7  1   
  7   4  27  1   
  8   4  28  1   
  9   5   8  ar  
 10   5   9  ar  
 11   6   7  1   
 12   6  29  1   
 13   6  30  1   
 14   7  10  1   
 15   7  31  1   
 16   8  11  ar  
 17   8  32  1   
 18   9  12  ar  
 19   9  33  1   
 20  10  13  2   
 21  10  14  am  
 22  11  15  ar  
 23  11  34  1   
 24  12  15  ar  
 25  12  35  1   
 26  14  16  1   
 27  14  36  1   
 28  15  17  1   
 29  16  18  1   
 30  16  37  1   
 31  16  38  1   
 32  17  19  1   
 33  18  20  2   
 34  18  21  1   
 35  19  22  1   
 36  19  23  1   
 37  19  39  1   
 38  20  24  1   
 39  21  25  1   
 40  21  40  1   
 41  22  41  1   
 42  22  42  1   
 43  22  43  1   
 44  23  44  1   
 45  23  45  1   
 46  23  46  1   
 47  24  25  2   
 48  25  26  1   
 49  26  47  1   
 50  26  48  1   
@<TRIPOS>SUBSTRUCTURE
  1 ****   3 GROUP 4 **** **** 0

# MOE 2024.06 (io_trps.svl 2023.06)
