@<TRIPOS>MOLECULE
NONAME
43 45 1 0 0 
SMALL
USER_CHARGES


@<TRIPOS>ATOM
  1 O       -0.6820     0.1900     1.6750 O.2   1 <1>  -0.5700 
  2 C       -1.2480     0.6670     0.7060 C.2   1 <1>   0.7160 
  3 N       -2.4120     0.0620     0.2940 N.am  1 <1>  -0.6600 
  4 C       -0.7110     1.8450     0.0300 C.2   1 <1>   0.1410 
  5 C       -2.5010    -1.4340     0.3120 C.3   1 <1>   0.3640 
  6 C       -3.6880     0.8240     0.2960 C.3   1 <1>   0.1400 
  7 N       -1.2830     2.4220    -1.0790 N.2   1 <1>  -0.5650 
  8 C        0.4000     2.5700     0.3230 C.2   1 <1>  -0.0400 
  9 C       -1.3000    -1.9890    -0.4650 C.ar  1 <1>  -0.1440 
 10 C       -3.8160    -2.0050    -0.3090 C.3   1 <1>   0.2000 
 11 C       -4.7320     0.1450    -0.5880 C.3   1 <1>   0.1200 
 12 C       -0.5080     3.4040    -1.3510 C.2   1 <1>   0.3280 
 13 O        0.5090     3.5360    -0.5410 O.3   1 <1>  -0.2800 
 14 C        1.4670     2.4520     1.4010 C.3   1 <1>   0.0200 
 15 C       -1.0460    -1.5820    -1.7690 C.ar  1 <1>  -0.1500 
 16 C       -0.4440    -2.9040     0.1310 C.ar  1 <1>  -0.1500 
 17 O       -4.9260    -1.1590    -0.1400 O.3   1 <1>  -0.5600 
 18 C       -4.2310    -3.3630     0.2850 C.3   1 <1>   0.1200 
 19 C        1.3530     3.5970     2.4100 C.3   1 <1>  -0.2400 
 20 C        0.0350    -2.0910    -2.4680 C.ar  1 <1>  -0.1500 
 21 C        0.6370    -3.4150    -0.5670 C.ar  1 <1>  -0.1500 
 22 O       -3.1880    -4.2820     0.2930 O.3   1 <1>  -0.6800 
 23 C        0.8760    -3.0100    -1.8680 C.ar  1 <1>  -0.1500 
 24 H       -2.4430    -1.7580     1.3370 H     1 <1>   0.0800 
 25 H       -4.0640     0.8800     1.3030 H     1 <1>   0.0800 
 26 H       -3.5270     1.8280    -0.0530 H     1 <1>   0.0800 
 27 H       -3.6830    -2.1260    -1.3690 H     1 <1>   0.0800 
 28 H       -4.4180     0.1280    -1.6180 H     1 <1>   0.0800 
 29 H       -5.6730     0.6620    -0.5160 H     1 <1>   0.0800 
 30 H       -0.6160     4.1060    -2.1600 H     1 <1>   0.1500 
 31 H        1.3820     1.5140     1.9180 H     1 <1>   0.0800 
 32 H        2.4360     2.4760     0.9340 H     1 <1>   0.0800 
 33 H       -1.6850    -0.8560    -2.2420 H     1 <1>   0.1500 
 34 H       -0.6170    -3.2240     1.1450 H     1 <1>   0.1500 
 35 H       -5.0380    -3.7830    -0.2900 H     1 <1>   0.0800 
 36 H       -4.5530    -3.2350     1.3040 H     1 <1>   0.0800 
 37 H        0.3890     3.5710     2.8880 H     1 <1>   0.0800 
 38 H        1.4690     4.5440     1.9140 H     1 <1>   0.0800 
 39 H        2.1150     3.5040     3.1620 H     1 <1>   0.0800 
 40 H        0.2230    -1.7680    -3.4770 H     1 <1>   0.1500 
 41 H        1.2920    -4.1250    -0.0940 H     1 <1>   0.1500 
 42 H       -2.7440    -4.3300    -0.5790 H     1 <1>   0.4000 
 43 H        1.7170    -3.4060    -2.4090 H     1 <1>   0.1500 
@<TRIPOS>BOND
  1   1   2  2   
  2   2   3  am  
  3   2   4  1   
  4   3   5  1   
  5   3   6  1   
  6   4   7  1   
  7   4   8  2   
  8   5   9  1   
  9   5  10  1   
 10   5  24  1   
 11   6  11  1   
 12   6  25  1   
 13   6  26  1   
 14   7  12  2   
 15   8  13  1   
 16   8  14  1   
 17   9  15  ar  
 18   9  16  ar  
 19  10  17  1   
 20  10  18  1   
 21  10  27  1   
 22  11  17  1   
 23  11  28  1   
 24  11  29  1   
 25  12  13  1   
 26  12  30  1   
 27  14  19  1   
 28  14  31  1   
 29  14  32  1   
 30  15  20  ar  
 31  15  33  1   
 32  16  21  ar  
 33  16  34  1   
 34  18  22  1   
 35  18  35  1   
 36  18  36  1   
 37  19  37  1   
 38  19  38  1   
 39  19  39  1   
 40  20  23  ar  
 41  20  40  1   
 42  21  23  ar  
 43  21  41  1   
 44  22  42  1   
 45  23  43  1   
@<TRIPOS>SUBSTRUCTURE
  1 ****   3 GROUP 4 **** **** 0

# MOE 2024.06 (io_trps.svl 2023.06)
