@<TRIPOS>MOLECULE
NONAME
47 49 1 0 0 
SMALL
USER_CHARGES


@<TRIPOS>ATOM
  1 CL      -0.1530    -0.2150    -0.6970 Cl    1 <1>  -0.1770 
  2 C        1.2080    -1.1800    -0.1810 C.ar  1 <1>   0.1770 
  3 C        1.0270    -2.3320     0.5790 C.ar  1 <1>  -0.0090 
  4 C        2.4610    -0.7400    -0.5650 C.ar  1 <1>  -0.1500 
  5 S       -0.6210    -2.8960     1.0690 S.o2  1 <1>   1.4470 
  6 C        2.1660    -3.0450     0.9570 C.ar  1 <1>  -0.1500 
  7 C        3.5570    -1.4790    -0.1730 C.ar  1 <1>   0.1900 
  8 O       -1.3280    -1.8550     1.7760 O.2   1 <1>  -0.6500 
  9 O       -0.5060    -4.1930     1.7090 O.2   1 <1>  -0.6500 
 10 N       -1.4290    -3.2030    -0.4020 N.am  1 <1>  -0.8490 
 11 C        3.4330    -2.6270     0.5840 C.ar  1 <1>  -0.1500 
 12 F        4.7470    -1.0810    -0.5280 F     1 <1>  -0.1900 
 13 C       -1.5150    -4.6200    -0.7830 C.3   1 <1>   0.1960 
 14 C       -2.7120    -2.5020    -0.5780 C.3   1 <1>   0.1960 
 15 C       -2.6140    -5.3710     0.0230 C.3   1 <1>   0.4230 
 16 C       -3.8290    -3.1900     0.2230 C.3   1 <1>  -0.1600 
 17 N       -2.6310    -6.8790    -0.1900 N.4   1 <1>  -0.9590 
 18 C       -4.0060    -4.6940    -0.1250 C.3   1 <1>   0.0000 
 19 C       -3.9020    -7.5410     0.2540 C.3   1 <1>   0.3430 
 20 C       -2.2630    -7.3500    -1.5650 C.3   1 <1>   0.2630 
 21 C       -4.9980    -5.3330     0.8920 C.3   1 <1>  -0.1600 
 22 C       -4.5360    -4.8600    -1.5780 C.3   1 <1>   0.1200 
 23 C       -4.5820    -6.7400     1.3630 C.3   1 <1>  -0.1600 
 24 O       -5.6650    -4.0900    -1.8030 O.3   1 <1>  -0.6800 
 25 H        2.5810     0.1530    -1.1520 H     1 <1>   0.1500 
 26 H        2.0650    -3.9380     1.5540 H     1 <1>   0.1500 
 27 H        4.3130    -3.1750     0.8760 H     1 <1>   0.1500 
 28 H       -1.7250    -4.6700    -1.8360 H     1 <1>   0.0800 
 29 H       -0.5580    -5.0870    -0.6180 H     1 <1>   0.0800 
 30 H       -2.6230    -1.4720    -0.2710 H     1 <1>   0.0800 
 31 H       -2.9710    -2.4920    -1.6240 H     1 <1>   0.0800 
 32 H       -2.3560    -5.2300     1.0590 H     1 <1>   0.0800 
 33 H       -3.6040    -3.0760     1.2700 H     1 <1>   0.0800 
 34 H       -4.7460    -2.6520     0.0580 H     1 <1>   0.0800 
 35 H       -1.9020    -7.2280     0.4520 H     1 <1>   0.4500 
 36 H       -4.5840    -7.6170    -0.5780 H     1 <1>   0.0800 
 37 H       -3.6930    -8.5410     0.6010 H     1 <1>   0.0800 
 38 H       -2.9710    -6.9860    -2.2920 H     1 <1>   0.0800 
 39 H       -2.2600    -8.4280    -1.6020 H     1 <1>   0.0800 
 40 H       -1.2790    -7.0020    -1.8350 H     1 <1>   0.0800 
 41 H       -5.0890    -4.7160     1.7720 H     1 <1>   0.0800 
 42 H       -5.9840    -5.3850     0.4640 H     1 <1>   0.0800 
 43 H       -4.7990    -5.8810    -1.7880 H     1 <1>   0.0800 
 44 H       -3.8080    -4.5420    -2.3020 H     1 <1>   0.0800 
 45 H       -5.4560    -7.2710     1.7000 H     1 <1>   0.0800 
 46 H       -3.9150    -6.6670     2.2050 H     1 <1>   0.0800 
 47 H       -6.4070    -4.3370    -1.2160 H     1 <1>   0.4000 
@<TRIPOS>BOND
  1   1   2  1   
  2   2   3  ar  
  3   2   4  ar  
  4   3   5  1   
  5   3   6  ar  
  6   4   7  ar  
  7   4  25  1   
  8   5   8  2   
  9   5   9  2   
 10   5  10  am  
 11   6  11  ar  
 12   6  26  1   
 13   7  11  ar  
 14   7  12  1   
 15  10  13  1   
 16  10  14  1   
 17  11  27  1   
 18  13  15  1   
 19  13  28  1   
 20  13  29  1   
 21  14  16  1   
 22  14  30  1   
 23  14  31  1   
 24  15  17  1   
 25  15  18  1   
 26  15  32  1   
 27  16  18  1   
 28  16  33  1   
 29  16  34  1   
 30  17  19  1   
 31  17  20  1   
 32  17  35  1   
 33  18  21  1   
 34  18  22  1   
 35  19  23  1   
 36  19  36  1   
 37  19  37  1   
 38  20  38  1   
 39  20  39  1   
 40  20  40  1   
 41  21  23  1   
 42  21  41  1   
 43  21  42  1   
 44  22  24  1   
 45  22  43  1   
 46  22  44  1   
 47  23  45  1   
 48  23  46  1   
 49  24  47  1   
@<TRIPOS>SUBSTRUCTURE
  1 ****  10 GROUP 4 **** **** 0

# MOE 2024.06 (io_trps.svl 2023.06)
