@<TRIPOS>MOLECULE
NONAME
42 43 1 0 0 
SMALL
USER_CHARGES


@<TRIPOS>ATOM
  1 S        2.0790    -2.4450     2.1170 S.3   1 <1>  -0.0800 
  2 C        1.0060    -1.5100     1.1010 C.2   1 <1>   0.1980 
  3 C        3.3090    -1.2410     1.8680 C.2   1 <1>  -0.1100 
  4 N        1.5150    -0.4320     0.6380 N.2   1 <1>  -0.5650 
  5 C       -0.3970    -2.0490     0.8680 C.3   1 <1>   0.5230 
  6 C        2.8220    -0.2770     1.0710 C.2   1 <1>   0.0460 
  7 N       -1.0850    -1.1340    -0.1110 N.4   1 <1>  -0.9590 
  8 C        3.5620     0.9580     0.6050 C.3   1 <1>  -0.0590 
  9 C       -1.1370    -1.7500    -1.4760 C.3   1 <1>   0.3430 
 10 C       -2.4140    -0.6640     0.4050 C.3   1 <1>   0.3430 
 11 C       -2.2030    -2.8610    -1.6450 C.3   1 <1>   0.2000 
 12 C       -3.6120    -1.3650    -0.2710 C.3   1 <1>  -0.1600 
 13 O       -1.5610    -4.0820    -1.7270 O.3   1 <1>  -0.6800 
 14 C       -3.3240    -2.8660    -0.5580 C.3   1 <1>  -0.1060 
 15 C       -2.8600    -3.5570     0.7470 C.2   1 <1>   0.9060 
 16 C       -4.5740    -3.5820    -1.1420 C.3   1 <1>  -0.1600 
 17 O       -3.0800    -3.0140     1.8340 O.co2 1 <1>  -0.9000 
 18 O       -2.0930    -4.5250     0.6890 O.co2 1 <1>  -0.9000 
 19 C       -5.7740    -3.6810    -0.1840 C.3   1 <1>  -0.1600 
 20 C       -6.9210    -4.4650    -0.8290 C.3   1 <1>  -0.2400 
 21 H        4.2620    -1.3860     2.3440 H     1 <1>   0.1500 
 22 H       -0.9310    -2.0790     1.8040 H     1 <1>   0.0800 
 23 H       -0.3420    -3.0530     0.4800 H     1 <1>   0.0800 
 24 H       -0.4260    -0.3370    -0.1360 H     1 <1>   0.4500 
 25 H        4.5600     0.9700     1.0030 H     1 <1>   0.0800 
 26 H        3.0440     1.8390     0.9370 H     1 <1>   0.0800 
 27 H        3.6140     0.9670    -0.4680 H     1 <1>   0.0800 
 28 H       -1.3750    -0.9720    -2.1800 H     1 <1>   0.0800 
 29 H       -0.1720    -2.1480    -1.7450 H     1 <1>   0.0800 
 30 H       -2.4650    -0.8490     1.4680 H     1 <1>   0.0800 
 31 H       -2.5080     0.3990     0.2590 H     1 <1>   0.0800 
 32 H       -2.6510    -2.7090    -2.6120 H     1 <1>   0.0800 
 33 H       -4.4480    -1.2680     0.3970 H     1 <1>   0.0800 
 34 H       -3.8710    -0.8500    -1.1790 H     1 <1>   0.0800 
 35 H       -1.6580    -4.5260    -0.8220 H     1 <1>   0.4000 
 36 H       -4.8900    -3.0820    -2.0410 H     1 <1>   0.0800 
 37 H       -4.2840    -4.5830    -1.4160 H     1 <1>   0.0800 
 38 H       -5.4800    -4.1810     0.7240 H     1 <1>   0.0800 
 39 H       -6.1320    -2.7020     0.0780 H     1 <1>   0.0800 
 40 H       -6.6020    -5.4640    -1.0700 H     1 <1>   0.0800 
 41 H       -7.2530    -3.9790    -1.7280 H     1 <1>   0.0800 
 42 H       -7.7490    -4.5280    -0.1460 H     1 <1>   0.0800 
@<TRIPOS>BOND
  1   1   2  1   
  2   1   3  1   
  3   2   4  2   
  4   2   5  1   
  5   3   6  2   
  6   3  21  1   
  7   4   6  1   
  8   5   7  1   
  9   5  22  1   
 10   5  23  1   
 11   6   8  1   
 12   7   9  1   
 13   7  10  1   
 14   7  24  1   
 15   8  25  1   
 16   8  26  1   
 17   8  27  1   
 18   9  11  1   
 19   9  28  1   
 20   9  29  1   
 21  10  12  1   
 22  10  30  1   
 23  10  31  1   
 24  11  13  1   
 25  11  14  1   
 26  11  32  1   
 27  12  14  1   
 28  12  33  1   
 29  12  34  1   
 30  13  35  1   
 31  14  15  1   
 32  14  16  1   
 33  15  17  ar  
 34  15  18  ar  
 35  16  19  1   
 36  16  36  1   
 37  16  37  1   
 38  19  20  1   
 39  19  38  1   
 40  19  39  1   
 41  20  40  1   
 42  20  41  1   
 43  20  42  1   
@<TRIPOS>SUBSTRUCTURE
  1 ****   7 GROUP 4 **** **** 0

# MOE 2024.06 (io_trps.svl 2023.06)
