@<TRIPOS>MOLECULE
NONAME
55 58 1 0 0 
SMALL
USER_CHARGES


@<TRIPOS>ATOM
  1 O       -1.3930     2.0870     2.9600 O.2   1 <1>  -0.5700 
  2 C       -2.3440     2.2100     2.2210 C.2   1 <1>   0.5690 
  3 N       -3.3520     1.2740     2.1900 N.am  1 <1>  -0.6600 
  4 C       -2.3660     3.4480     1.3250 C.3   1 <1>   0.1810 
  5 C       -3.1760    -0.0750     2.7930 C.3   1 <1>   0.1400 
  6 C       -4.6270     1.4120     1.4340 C.3   1 <1>   0.1400 
  7 O       -2.5360     3.1080    -0.0470 O.3   1 <1>  -0.3620 
  8 C       -3.1620    -1.1190     1.6720 C.3   1 <1>  -0.1600 
  9 C       -4.6400     0.4020     0.2860 C.3   1 <1>  -0.1600 
 10 C       -1.5380     3.4330    -0.8950 C.ar  1 <1>   0.0820 
 11 C       -4.4180    -1.0410     0.7860 C.3   1 <1>   0.4240 
 12 C       -0.3520     2.7020    -0.9530 C.ar  1 <1>  -0.1440 
 13 C       -1.7350     4.5200    -1.7330 C.ar  1 <1>  -0.1500 
 14 O       -5.4750    -1.3240     1.6790 O.3   1 <1>  -0.5600 
 15 C       -4.3550    -2.0720    -0.3760 C.ar  1 <1>  -0.1440 
 16 C        0.6340     3.0980    -1.8440 C.ar  1 <1>  -0.1500 
 17 C       -0.1040     1.4810    -0.0790 C.3   1 <1>  -0.0970 
 18 C       -0.7450     4.9020    -2.6200 C.ar  1 <1>  -0.1500 
 19 C       -6.6700    -1.7940     1.1470 C.3   1 <1>   0.1200 
 20 C       -3.3690    -2.0170    -1.3700 C.ar  1 <1>   0.0820 
 21 C       -5.3050    -3.0890    -0.4590 C.ar  1 <1>  -0.1440 
 22 C        0.4410     4.1910    -2.6730 C.ar  1 <1>  -0.1500 
 23 C       -6.4170    -3.1760     0.5650 C.3   1 <1>  -0.0170 
 24 O       -2.4430    -1.0260    -1.3520 O.3   1 <1>  -0.3620 
 25 C       -3.3290    -2.9710    -2.3820 C.ar  1 <1>  -0.1500 
 26 C       -5.2610    -4.0320    -1.4740 C.ar  1 <1>  -0.1500 
 27 C       -2.0350    -0.4220    -2.5620 C.3   1 <1>   0.0400 
 28 C       -4.2720    -3.9760    -2.4340 C.ar  1 <1>  -0.1500 
 29 H       -1.4450     3.9910     1.4400 H     1 <1>   0.0800 
 30 H       -3.1810     4.0840     1.6110 H     1 <1>   0.0800 
 31 H       -3.9880    -0.2690     3.4730 H     1 <1>   0.0800 
 32 H       -2.2560    -0.1280     3.3490 H     1 <1>   0.0800 
 33 H       -4.7440     2.4080     1.0460 H     1 <1>   0.0800 
 34 H       -5.4510     1.2190     2.1010 H     1 <1>   0.0800 
 35 H       -3.0920    -2.1050     2.0930 H     1 <1>   0.0800 
 36 H       -2.2770    -0.9610     1.0880 H     1 <1>   0.0800 
 37 H       -3.8640     0.6850    -0.3950 H     1 <1>   0.0800 
 38 H       -5.5640     0.4670    -0.2540 H     1 <1>   0.0800 
 39 H       -2.6610     5.0620    -1.6850 H     1 <1>   0.1500 
 40 H        1.5600     2.5540    -1.8990 H     1 <1>   0.1500 
 41 H       -1.0190     0.9410     0.0860 H     1 <1>   0.0800 
 42 H        0.2980     1.7840     0.8710 H     1 <1>   0.0800 
 43 H        0.5930     0.8110    -0.5480 H     1 <1>   0.0800 
 44 H       -0.8960     5.7480    -3.2670 H     1 <1>   0.1500 
 45 H       -7.0200    -1.1100     0.3940 H     1 <1>   0.0800 
 46 H       -7.3900    -1.8450     1.9450 H     1 <1>   0.0800 
 47 H        1.2150     4.4870    -3.3590 H     1 <1>   0.1500 
 48 H       -7.3210    -3.5360     0.1070 H     1 <1>   0.0800 
 49 H       -6.1390    -3.8540     1.3510 H     1 <1>   0.0800 
 50 H       -2.5590    -2.9440    -3.1290 H     1 <1>   0.1500 
 51 H       -5.9980    -4.8150    -1.5200 H     1 <1>   0.1500 
 52 H       -1.5880     0.5270    -2.3320 H     1 <1>   0.0800 
 53 H       -2.8970    -0.2730    -3.1890 H     1 <1>   0.0800 
 54 H       -1.3140    -1.0570    -3.0450 H     1 <1>   0.0800 
 55 H       -4.2370    -4.7130    -3.2180 H     1 <1>   0.1500 
@<TRIPOS>BOND
  1   1   2  2   
  2   2   3  am  
  3   2   4  1   
  4   3   5  1   
  5   3   6  1   
  6   4   7  1   
  7   4  29  1   
  8   4  30  1   
  9   5   8  1   
 10   5  31  1   
 11   5  32  1   
 12   6   9  1   
 13   6  33  1   
 14   6  34  1   
 15   7  10  1   
 16   8  11  1   
 17   8  35  1   
 18   8  36  1   
 19   9  11  1   
 20   9  37  1   
 21   9  38  1   
 22  10  12  ar  
 23  10  13  ar  
 24  11  14  1   
 25  11  15  1   
 26  12  16  ar  
 27  12  17  1   
 28  13  18  ar  
 29  13  39  1   
 30  14  19  1   
 31  15  20  ar  
 32  15  21  ar  
 33  16  22  ar  
 34  16  40  1   
 35  17  41  1   
 36  17  42  1   
 37  17  43  1   
 38  18  22  ar  
 39  18  44  1   
 40  19  23  1   
 41  19  45  1   
 42  19  46  1   
 43  20  24  1   
 44  20  25  ar  
 45  21  23  1   
 46  21  26  ar  
 47  22  47  1   
 48  23  48  1   
 49  23  49  1   
 50  24  27  1   
 51  25  28  ar  
 52  25  50  1   
 53  26  28  ar  
 54  26  51  1   
 55  27  52  1   
 56  27  53  1   
 57  27  54  1   
 58  28  55  1   
@<TRIPOS>SUBSTRUCTURE
  1 ****   9 GROUP 4 **** **** 0

# MOE 2024.06 (io_trps.svl 2023.06)
