@<TRIPOS>MOLECULE
NONAME
36 36 1 0 0 
SMALL
USER_CHARGES


@<TRIPOS>ATOM
  1 O       -2.5570    -0.6440     0.1630 O.3   1 <1>  -0.6800 
  2 C       -1.8500    -0.9420     1.3240 C.3   1 <1>   0.2800 
  3 C       -2.7440    -1.8300     2.2400 C.3   1 <1>   0.2090 
  4 C       -1.5690     0.4100     2.0290 C.3   1 <1>  -0.0220 
  5 C       -0.5600    -1.7010     0.9180 C.3   1 <1>  -0.0220 
  6 N       -3.0620    -3.2150     1.7440 N.pl3 1 <1>  -0.8690 
  7 C       -1.2770     1.5800     1.0910 C.2   1 <1>  -0.2880 
  8 C        0.3390    -0.9820    -0.0790 C.2   1 <1>  -0.2880 
  9 C       -3.7060    -3.6690     0.6620 C.ar  1 <1>   0.7710 
 10 C       -2.1310     2.5750     0.8320 C.2   1 <1>  -0.3000 
 11 C        0.4240    -1.2750    -1.3790 C.2   1 <1>  -0.3000 
 12 N       -3.9700    -4.9610     0.6480 N.ar  1 <1>  -0.6200 
 13 N       -4.0510    -2.8430    -0.3390 N.ar  1 <1>  -0.1790 
 14 C       -4.6120    -5.4270    -0.3990 C.ar  1 <1>   0.4100 
 15 C       -4.7120    -3.2930    -1.4310 C.ar  1 <1>   0.2110 
 16 N       -4.8690    -6.7350    -0.3920 N.pl3 1 <1>  -0.9000 
 17 C       -5.0100    -4.6140    -1.4740 C.ar  1 <1>  -0.1500 
 18 H       -2.1030     0.1390    -0.2350 H     1 <1>   0.4000 
 19 H       -3.6660    -1.3110     2.4410 H     1 <1>   0.0800 
 20 H       -2.2380    -1.9350     3.1860 H     1 <1>   0.0800 
 21 H       -0.7550     0.2980     2.7230 H     1 <1>   0.0800 
 22 H       -2.4310     0.6760     2.6170 H     1 <1>   0.0800 
 23 H       -0.8320    -2.6490     0.4900 H     1 <1>   0.0800 
 24 H        0.0170    -1.9210     1.7990 H     1 <1>   0.0800 
 25 H       -2.8570    -3.9580     2.4240 H     1 <1>   0.4000 
 26 H       -0.2970     1.5540     0.6460 H     1 <1>   0.1500 
 27 H        0.9340    -0.2050     0.3690 H     1 <1>   0.1500 
 28 H       -1.9090     3.3990     0.1750 H     1 <1>   0.1500 
 29 H       -3.1190     2.6610     1.2530 H     1 <1>   0.1500 
 30 H        1.0760    -0.7610    -2.0670 H     1 <1>   0.1500 
 31 H       -0.1380    -2.0500    -1.8710 H     1 <1>   0.1500 
 32 H       -3.7120    -1.8780    -0.2370 H     1 <1>   0.4570 
 33 H       -4.9700    -2.5980    -2.2150 H     1 <1>   0.1500 
 34 H       -5.3530    -7.2490    -1.1310 H     1 <1>   0.4000 
 35 H       -4.5700    -7.3100     0.4010 H     1 <1>   0.4000 
 36 H       -5.5330    -5.0610    -2.3000 H     1 <1>   0.1500 
@<TRIPOS>BOND
  1   1   2  1   
  2   1  18  1   
  3   2   3  1   
  4   2   4  1   
  5   2   5  1   
  6   3   6  1   
  7   3  19  1   
  8   3  20  1   
  9   4   7  1   
 10   4  21  1   
 11   4  22  1   
 12   5   8  1   
 13   5  23  1   
 14   5  24  1   
 15   6   9  1   
 16   6  25  1   
 17   7  10  2   
 18   7  26  1   
 19   8  11  2   
 20   8  27  1   
 21   9  12  ar  
 22   9  13  ar  
 23  10  28  1   
 24  10  29  1   
 25  11  30  1   
 26  11  31  1   
 27  12  14  ar  
 28  13  15  ar  
 29  13  32  1   
 30  14  16  1   
 31  14  17  ar  
 32  15  17  ar  
 33  15  33  1   
 34  16  34  1   
 35  16  35  1   
 36  17  36  1   
@<TRIPOS>SUBSTRUCTURE
  1 ****   1 GROUP 4 **** **** 0

# MOE 2024.06 (io_trps.svl 2023.06)
