@<TRIPOS>MOLECULE
NONAME
46 48 1 0 0 
SMALL
USER_CHARGES


@<TRIPOS>ATOM
  1 O        0.4090    -0.4150     1.4040 O.2   1 <1>  -0.5700 
  2 C        1.2720    -0.9060     0.7030 C.2   1 <1>   0.5440 
  3 N        2.2730    -0.1220     0.1790 N.am  1 <1>  -0.4940 
  4 C        1.2700    -2.3310     0.4340 C.ar  1 <1>   0.0860 
  5 C        2.5170     1.2720     0.2350 C.2   1 <1>  -0.0880 
  6 C        0.8510    -3.2410     1.4030 C.ar  1 <1>  -0.1500 
  7 C        1.6830    -2.8520    -0.7940 C.ar  1 <1>  -0.1500 
  8 N        1.6080     2.2880     0.2750 N.pl3 1 <1>   0.3140 
  9 C        3.7380     1.8580     0.2230 C.2   1 <1>  -0.1810 
 10 C        0.8560    -4.6040     1.1680 C.ar  1 <1>  -0.1500 
 11 C        1.6890    -4.2140    -1.0360 C.ar  1 <1>  -0.1500 
 12 N        2.2190     3.4940     0.2790 N.2   1 <1>  -0.7070 
 13 C        0.1420     2.2220     0.2260 C.3   1 <1>   0.0160 
 14 C        3.4840     3.2270     0.2520 C.2   1 <1>   0.1080 
 15 C        5.1000     1.1860     0.1940 C.3   1 <1>   0.0210 
 16 C        1.2740    -5.1020    -0.0560 C.ar  1 <1>  -0.1430 
 17 C        4.5260     4.3230     0.2550 C.3   1 <1>  -0.0590 
 18 C        5.5570     0.9600    -1.2490 C.3   1 <1>  -0.2400 
 19 C        1.2730    -6.6060    -0.3200 C.3   1 <1>   0.2390 
 20 N       -0.0390    -7.2180    -0.0260 N.pl3 1 <1>   0.3140 
 21 N       -0.1670    -8.2400     0.7930 N.2   1 <1>  -0.4180 
 22 C       -1.2470    -6.9260    -0.4880 C.2   1 <1>   0.0060 
 23 N       -1.4170    -8.5360     0.8130 N.2   1 <1>   0.0000 
 24 N       -2.1050    -7.7250     0.0170 N.2   1 <1>  -0.3380 
 25 C       -1.5870    -5.8150    -1.4650 C.3   1 <1>  -0.0600 
 26 H        3.0550    -0.6510    -0.2020 H     1 <1>   0.3700 
 27 H        0.5170    -2.8670     2.3570 H     1 <1>   0.1500 
 28 H        1.9960    -2.1820    -1.5760 H     1 <1>   0.1500 
 29 H        0.5260    -5.2730     1.9480 H     1 <1>   0.1500 
 30 H        2.0180    -4.5750    -1.9960 H     1 <1>   0.1500 
 31 H       -0.1580     1.4150    -0.4130 H     1 <1>   0.0800 
 32 H       -0.2400     3.1490    -0.1580 H     1 <1>   0.0800 
 33 H       -0.2320     2.0620     1.2190 H     1 <1>   0.0800 
 34 H        5.0450     0.2430     0.7090 H     1 <1>   0.0800 
 35 H        5.8170     1.7970     0.7130 H     1 <1>   0.0800 
 36 H        5.2870     4.1130    -0.4720 H     1 <1>   0.0800 
 37 H        4.9690     4.3950     1.2300 H     1 <1>   0.0800 
 38 H        4.0640     5.2620     0.0120 H     1 <1>   0.0800 
 39 H        4.8500     0.3420    -1.7710 H     1 <1>   0.0800 
 40 H        6.5190     0.4810    -1.2630 H     1 <1>   0.0800 
 41 H        5.6310     1.9020    -1.7640 H     1 <1>   0.0800 
 42 H        2.0140    -7.0760     0.3010 H     1 <1>   0.0800 
 43 H        1.5140    -6.8100    -1.3460 H     1 <1>   0.0800 
 44 H       -0.9790    -5.8900    -2.3470 H     1 <1>   0.0800 
 45 H       -1.4320    -4.8560    -1.0040 H     1 <1>   0.0800 
 46 H       -2.6210    -5.8890    -1.7540 H     1 <1>   0.0800 
@<TRIPOS>BOND
  1   1   2  2   
  2   2   3  am  
  3   2   4  1   
  4   3   5  1   
  5   3  26  1   
  6   4   6  ar  
  7   4   7  ar  
  8   5   8  1   
  9   5   9  2   
 10   6  10  ar  
 11   6  27  1   
 12   7  11  ar  
 13   7  28  1   
 14   8  12  1   
 15   8  13  1   
 16   9  14  1   
 17   9  15  1   
 18  10  16  ar  
 19  10  29  1   
 20  11  16  ar  
 21  11  30  1   
 22  12  14  2   
 23  13  31  1   
 24  13  32  1   
 25  13  33  1   
 26  14  17  1   
 27  15  18  1   
 28  15  34  1   
 29  15  35  1   
 30  16  19  1   
 31  17  36  1   
 32  17  37  1   
 33  17  38  1   
 34  18  39  1   
 35  18  40  1   
 36  18  41  1   
 37  19  20  1   
 38  19  42  1   
 39  19  43  1   
 40  20  21  1   
 41  20  22  1   
 42  21  23  2   
 43  22  24  2   
 44  22  25  1   
 45  23  24  1   
 46  25  44  1   
 47  25  45  1   
 48  25  46  1   
@<TRIPOS>SUBSTRUCTURE
  1 ****   4 GROUP 4 **** **** 0

# MOE 2024.06 (io_trps.svl 2023.06)
