@<TRIPOS>MOLECULE
NONAME
45 46 1 0 0 
SMALL
USER_CHARGES


@<TRIPOS>ATOM
  1 S        0.4040     0.0660     0.6490 S.o2  1 <1>   1.3330 
  2 O       -0.4270     0.1820     1.8250 O.2   1 <1>  -0.6500 
  3 O        1.8430     0.0970     0.7810 O.2   1 <1>  -0.6500 
  4 N       -0.0160    -1.3610    -0.1690 N.am  1 <1>  -0.8490 
  5 C       -0.0990     1.3480    -0.4960 C.3   1 <1>  -0.0550 
  6 C       -0.3480    -2.4520     0.7520 C.3   1 <1>   0.1160 
  7 C        1.0040    -1.8080    -1.1240 C.3   1 <1>   0.1160 
  8 C        0.0860     2.7670     0.0680 C.3   1 <1>  -0.0800 
  9 C       -0.4330     3.8430    -0.8810 C.3   1 <1>   0.2000 
 10 C        1.5450     3.1650     0.3130 C.3   1 <1>   0.1400 
 11 O       -1.8020     3.9880    -0.7360 O.3   1 <1>  -0.6800 
 12 C        0.3180     5.1170    -0.4980 C.3   1 <1>   0.1400 
 13 N        1.5800     4.6360     0.1190 N.am  1 <1>  -0.6600 
 14 C        2.6800     5.3850     0.4230 C.2   1 <1>   0.5690 
 15 O        3.6950     4.8800     0.8370 O.2   1 <1>  -0.5700 
 16 C        2.6570     6.8880     0.2240 C.3   1 <1>  -0.0990 
 17 C        3.6690     7.5920     1.1390 C.3   1 <1>   0.0960 
 18 N        3.6550     9.0460     0.8960 N.pl3 1 <1>   0.3140 
 19 N        2.6810     9.8240     1.3110 N.2   1 <1>  -0.4180 
 20 C        4.5200     9.8040     0.2390 C.2   1 <1>   0.0070 
 21 N        2.9690    11.0100     0.9110 N.2   1 <1>   0.0000 
 22 N        4.1150    11.0140     0.2380 N.2   1 <1>  -0.3380 
 23 C        5.7990     9.3230    -0.4220 C.3   1 <1>  -0.0600 
 24 H        0.4540     1.2500    -1.4090 H     1 <1>   0.0800 
 25 H       -1.1380     1.2080    -0.7270 H     1 <1>   0.0800 
 26 H       -0.6250    -3.3350     0.2020 H     1 <1>   0.0800 
 27 H       -1.1810    -2.1700     1.3730 H     1 <1>   0.0800 
 28 H        0.4940    -2.6770     1.3850 H     1 <1>   0.0800 
 29 H        0.6470    -2.6610    -1.6750 H     1 <1>   0.0800 
 30 H        1.9110    -2.0780    -0.6070 H     1 <1>   0.0800 
 31 H        1.2280    -1.0220    -1.8240 H     1 <1>   0.0800 
 32 H       -0.4280     2.8460     1.0120 H     1 <1>   0.0800 
 33 H       -0.2250     3.5950    -1.9080 H     1 <1>   0.0800 
 34 H        2.2020     2.7020    -0.4040 H     1 <1>   0.0800 
 35 H        1.8680     2.9020     1.3080 H     1 <1>   0.0800 
 36 H       -2.0400     4.1190     0.2030 H     1 <1>   0.4000 
 37 H       -0.2390     5.6840     0.2280 H     1 <1>   0.0800 
 38 H        0.5220     5.7160    -1.3680 H     1 <1>   0.0800 
 39 H        2.8900     7.0940    -0.8040 H     1 <1>   0.0800 
 40 H        1.6750     7.2640     0.4450 H     1 <1>   0.0800 
 41 H        4.6610     7.2170     0.9630 H     1 <1>   0.0800 
 42 H        3.4180     7.4170     2.1700 H     1 <1>   0.0800 
 43 H        6.2860    10.1460    -0.9150 H     1 <1>   0.0800 
 44 H        5.5800     8.5670    -1.1530 H     1 <1>   0.0800 
 45 H        6.4700     8.9230     0.3160 H     1 <1>   0.0800 
@<TRIPOS>BOND
  1   1   2  2   
  2   1   3  2   
  3   1   4  am  
  4   1   5  1   
  5   4   6  1   
  6   4   7  1   
  7   5   8  1   
  8   5  24  1   
  9   5  25  1   
 10   6  26  1   
 11   6  27  1   
 12   6  28  1   
 13   7  29  1   
 14   7  30  1   
 15   7  31  1   
 16   8   9  1   
 17   8  10  1   
 18   8  32  1   
 19   9  11  1   
 20   9  12  1   
 21   9  33  1   
 22  10  13  1   
 23  10  34  1   
 24  10  35  1   
 25  11  36  1   
 26  12  13  1   
 27  12  37  1   
 28  12  38  1   
 29  13  14  am  
 30  14  15  2   
 31  14  16  1   
 32  16  17  1   
 33  16  39  1   
 34  16  40  1   
 35  17  18  1   
 36  17  41  1   
 37  17  42  1   
 38  18  19  1   
 39  18  20  1   
 40  19  21  2   
 41  20  22  2   
 42  20  23  1   
 43  21  22  1   
 44  23  43  1   
 45  23  44  1   
 46  23  45  1   
@<TRIPOS>SUBSTRUCTURE
  1 ****  13 GROUP 4 **** **** 0

# MOE 2024.06 (io_trps.svl 2023.06)
