@<TRIPOS>MOLECULE
NONAME
53 57 1 0 0 
SMALL
USER_CHARGES


@<TRIPOS>ATOM
  1 O       -0.1960     0.1750     0.8110 O.2   1 <1>  -0.5700 
  2 C       -1.2080     0.8480     0.9190 C.2   1 <1>   0.5440 
  3 N       -2.4220     0.2150     0.7570 N.am  1 <1>  -0.6600 
  4 C       -1.1140     2.2750     1.1700 C.ar  1 <1>   0.0860 
  5 C       -3.6390     0.8830     0.2260 C.3   1 <1>   0.1400 
  6 C       -2.5180    -1.2550     0.5730 C.3   1 <1>   0.1400 
  7 C       -0.0930     3.0420     0.5780 C.ar  1 <1>  -0.1520 
  8 C       -2.0030     2.9660     1.9830 C.ar  1 <1>  -0.1500 
  9 C       -4.3830    -0.2110    -0.5370 C.3   1 <1>   0.2000 
 10 C       -3.9550    -1.5200     0.1210 C.3   1 <1>  -0.0800 
 11 N        0.9440     2.6320    -0.2190 N.pl3 1 <1>   0.0330 
 12 C       -0.0010     4.4210     0.7470 C.ar  1 <1>   0.0000 
 13 C       -1.9200     4.3480     2.1690 C.ar  1 <1>  -0.1500 
 14 O       -5.7580    -0.0580    -0.4460 O.3   1 <1>  -0.6800 
 15 C       -4.0920    -2.7340    -0.8100 C.3   1 <1>   0.0200 
 16 C        1.6690     3.7350    -0.5700 C.2   1 <1>  -0.3320 
 17 C        1.1260     4.8310     0.0010 C.2   1 <1>  -0.1810 
 18 C       -0.9310     5.0790     1.5520 C.ar  1 <1>  -0.1500 
 19 C       -3.5750    -3.9920    -0.1400 C.2   1 <1>  -0.0400 
 20 C        2.9040     3.7290    -1.4490 C.3   1 <1>   0.0200 
 21 C        1.6780     6.2330    -0.1640 C.3   1 <1>   0.0210 
 22 O       -4.1420    -4.4320     0.9510 O.3   1 <1>  -0.0190 
 23 C       -2.5660    -4.8220    -0.4450 C.2   1 <1>  -0.1500 
 24 C        3.2370     5.1680    -1.8880 C.3   1 <1>  -0.1600 
 25 C        3.1110     6.1760    -0.7270 C.3   1 <1>  -0.1600 
 26 N       -3.5650    -5.5100     1.3950 N.2   1 <1>  -0.4100 
 27 C       -2.6120    -5.7700     0.5730 C.2   1 <1>   0.1080 
 28 C       -1.6730    -6.9470     0.7050 C.3   1 <1>  -0.0590 
 29 H       -4.2320     1.2410     1.0490 H     1 <1>   0.0800 
 30 H       -3.3760     1.6960    -0.4280 H     1 <1>   0.0800 
 31 H       -1.8140    -1.5620    -0.1830 H     1 <1>   0.0800 
 32 H       -2.2930    -1.7690     1.4930 H     1 <1>   0.0800 
 33 H       -2.7800     2.4250     2.4920 H     1 <1>   0.1500 
 34 H       -4.1050    -0.1810    -1.5760 H     1 <1>   0.0800 
 35 H       -4.5400    -1.6840     1.0090 H     1 <1>   0.0800 
 36 H        1.1400     1.6460    -0.4360 H     1 <1>   0.2700 
 37 H       -2.6370     4.8400     2.8040 H     1 <1>   0.1500 
 38 H       -6.0540    -0.1610     0.4790 H     1 <1>   0.4000 
 39 H       -3.5420    -2.5650    -1.7190 H     1 <1>   0.0800 
 40 H       -5.1280    -2.8750    -1.0680 H     1 <1>   0.0800 
 41 H       -0.8540     6.1430     1.6810 H     1 <1>   0.1500 
 42 H        3.7270     3.3200    -0.8880 H     1 <1>   0.0800 
 43 H        2.7420     3.1150    -2.3170 H     1 <1>   0.0800 
 44 H        1.0400     6.7750    -0.8390 H     1 <1>   0.0800 
 45 H        1.6790     6.7390     0.7850 H     1 <1>   0.0800 
 46 H       -1.8710    -4.7950    -1.2630 H     1 <1>   0.1500 
 47 H        4.2340     5.1960    -2.2920 H     1 <1>   0.0800 
 48 H        2.5550     5.4560    -2.6700 H     1 <1>   0.0800 
 49 H        3.4040     7.1560    -1.0580 H     1 <1>   0.0800 
 50 H        3.7800     5.8780     0.0620 H     1 <1>   0.0800 
 51 H       -1.7280    -7.5590    -0.1760 H     1 <1>   0.0800 
 52 H       -1.9450    -7.5410     1.5590 H     1 <1>   0.0800 
 53 H       -0.6650    -6.5970     0.8320 H     1 <1>   0.0800 
@<TRIPOS>BOND
  1   1   2  2   
  2   2   3  am  
  3   2   4  1   
  4   3   5  1   
  5   3   6  1   
  6   4   7  ar  
  7   4   8  ar  
  8   5   9  1   
  9   5  29  1   
 10   5  30  1   
 11   6  10  1   
 12   6  31  1   
 13   6  32  1   
 14   7  11  1   
 15   7  12  ar  
 16   8  13  ar  
 17   8  33  1   
 18   9  10  1   
 19   9  14  1   
 20   9  34  1   
 21  10  15  1   
 22  10  35  1   
 23  11  16  1   
 24  11  36  1   
 25  12  17  1   
 26  12  18  ar  
 27  13  18  ar  
 28  13  37  1   
 29  14  38  1   
 30  15  19  1   
 31  15  39  1   
 32  15  40  1   
 33  16  17  2   
 34  16  20  1   
 35  17  21  1   
 36  18  41  1   
 37  19  22  1   
 38  19  23  2   
 39  20  24  1   
 40  20  42  1   
 41  20  43  1   
 42  21  25  1   
 43  21  44  1   
 44  21  45  1   
 45  22  26  1   
 46  23  27  1   
 47  23  46  1   
 48  24  25  1   
 49  24  47  1   
 50  24  48  1   
 51  25  49  1   
 52  25  50  1   
 53  26  27  2   
 54  27  28  1   
 55  28  51  1   
 56  28  52  1   
 57  28  53  1   
@<TRIPOS>SUBSTRUCTURE
  1 ****   2 GROUP 4 **** **** 0

# MOE 2024.06 (io_trps.svl 2023.06)
