@<TRIPOS>MOLECULE
NONAME
43 44 1 0 0 
SMALL
USER_CHARGES


@<TRIPOS>ATOM
  1 F       -0.2540     0.7190    -0.0430 F     1 <1>  -0.1900 
  2 C       -1.5440     0.9320    -0.1060 C.ar  1 <1>   0.1900 
  3 C       -2.1150     2.1490     0.2820 C.ar  1 <1>   0.0830 
  4 C       -2.3170    -0.1100    -0.5800 C.ar  1 <1>  -0.1500 
  5 O       -1.4620     3.2470     0.7620 O.3   1 <1>  -0.3630 
  6 C       -3.4900     2.2760     0.1740 C.ar  1 <1>  -0.1500 
  7 C       -3.6870     0.0520    -0.6770 C.ar  1 <1>  -0.1500 
  8 C       -0.0690     3.2800     0.9790 C.3   1 <1>   0.0400 
  9 C       -4.3060     1.2460    -0.3000 C.ar  1 <1>   0.0530 
 10 C       -5.7320     1.4340    -0.4080 C.2   1 <1>   0.0870 
 11 O       -6.1960     2.6100    -0.7470 O.3   1 <1>  -0.0190 
 12 C       -6.8110     0.6170    -0.2470 C.2   1 <1>  -0.0860 
 13 N       -7.4980     2.6450    -0.8320 N.2   1 <1>  -0.4100 
 14 C       -7.8940     1.4590    -0.5350 C.2   1 <1>   0.3720 
 15 C       -6.9120    -0.7590     0.1320 C.2   1 <1>   0.7160 
 16 N       -9.2500     1.0900    -0.4840 N.pl3 1 <1>  -0.8210 
 17 O       -6.0200    -1.3220     0.7330 O.2   1 <1>  -0.5700 
 18 N       -8.0380    -1.4610    -0.1790 N.am  1 <1>  -0.7300 
 19 C       -9.8420     1.3040     0.8660 C.3   1 <1>   0.1290 
 20 C      -10.0910     1.7150    -1.5470 C.3   1 <1>   0.1290 
 21 C       -8.4820    -2.7900     0.3660 C.3   1 <1>   0.2200 
 22 C       -8.7780    -2.8400     1.9070 C.3   1 <1>   1.0200 
 23 C       -7.5240    -3.8850    -0.1340 C.3   1 <1>  -0.2400 
 24 F       -9.5410    -1.8230     2.3000 F     1 <1>  -0.3400 
 25 F       -7.6970    -2.8100     2.6750 F     1 <1>  -0.3400 
 26 F       -9.4360    -3.9430     2.2450 F     1 <1>  -0.3400 
 27 H       -1.8510    -1.0350    -0.8690 H     1 <1>   0.1500 
 28 H       -3.9390     3.2080     0.4690 H     1 <1>   0.1500 
 29 H       -4.2830    -0.7600    -1.0520 H     1 <1>   0.1500 
 30 H        0.1840     4.2450     1.3810 H     1 <1>   0.0800 
 31 H        0.4360     3.1340     0.0400 H     1 <1>   0.0800 
 32 H        0.1940     2.5110     1.6830 H     1 <1>   0.0800 
 33 H       -8.7990    -0.8450    -0.5090 H     1 <1>   0.3700 
 34 H       -9.2140     0.8630     1.6210 H     1 <1>   0.0800 
 35 H      -10.8160     0.8480     0.9200 H     1 <1>   0.0800 
 36 H       -9.9330     2.3580     1.0670 H     1 <1>   0.0800 
 37 H       -9.6110     1.6070    -2.5040 H     1 <1>   0.0800 
 38 H      -10.2250     2.7650    -1.3460 H     1 <1>   0.0800 
 39 H      -11.0530     1.2360    -1.5860 H     1 <1>   0.0800 
 40 H       -9.4310    -2.9920    -0.0970 H     1 <1>   0.0800 
 41 H       -6.5600    -3.7960     0.3370 H     1 <1>   0.0800 
 42 H       -7.4020    -3.8170    -1.2000 H     1 <1>   0.0800 
 43 H       -7.9190    -4.8580     0.1010 H     1 <1>   0.0800 
@<TRIPOS>BOND
  1   1   2  1   
  2   2   3  ar  
  3   2   4  ar  
  4   3   5  1   
  5   3   6  ar  
  6   4   7  ar  
  7   4  27  1   
  8   5   8  1   
  9   6   9  ar  
 10   6  28  1   
 11   7   9  ar  
 12   7  29  1   
 13   8  30  1   
 14   8  31  1   
 15   8  32  1   
 16   9  10  1   
 17  10  11  1   
 18  10  12  2   
 19  11  13  1   
 20  12  14  1   
 21  12  15  1   
 22  13  14  2   
 23  14  16  1   
 24  15  17  2   
 25  15  18  am  
 26  16  19  1   
 27  16  20  1   
 28  18  21  1   
 29  18  33  1   
 30  19  34  1   
 31  19  35  1   
 32  19  36  1   
 33  20  37  1   
 34  20  38  1   
 35  20  39  1   
 36  21  22  1   
 37  21  23  1   
 38  21  40  1   
 39  22  24  1   
 40  22  25  1   
 41  22  26  1   
 42  23  41  1   
 43  23  42  1   
 44  23  43  1   
@<TRIPOS>SUBSTRUCTURE
  1 ****  12 GROUP 4 **** **** 0

# MOE 2024.06 (io_trps.svl 2023.06)
