@<TRIPOS>MOLECULE
NONAME
58 62 1 0 0 
SMALL
USER_CHARGES


@<TRIPOS>ATOM
  1 O       -0.3500    -0.9720     0.7750 O.3   1 <1>  -0.5600 
  2 C       -1.4640    -1.6780     0.3080 C.3   1 <1>   0.1200 
  3 C        0.4920    -1.7200     1.5980 C.3   1 <1>   0.1200 
  4 C       -1.0230    -2.8940    -0.5250 C.3   1 <1>   0.2090 
  5 C        1.0530    -2.9350     0.8330 C.3   1 <1>   0.2090 
  6 N       -0.0560    -3.7660     0.2420 N.pl3 1 <1>  -0.8380 
  7 C       -0.2360    -5.1120     0.3500 C.ar  1 <1>   0.7710 
  8 N       -1.3470    -5.6590    -0.1200 N.ar  1 <1>  -0.6200 
  9 N        0.7220    -5.8580     0.9280 N.ar  1 <1>  -0.1790 
 10 C       -1.5110    -6.9630    -0.0040 C.ar  1 <1>   0.4100 
 11 C        0.6010    -7.1980     1.0760 C.ar  1 <1>   0.2180 
 12 N       -2.6570    -7.4970    -0.4980 N.pl3 1 <1>  -0.8380 
 13 C       -0.5330    -7.7710     0.6080 C.ar  1 <1>  -0.1500 
 14 C        1.7240    -7.9730     1.7440 C.3   1 <1>  -0.0970 
 15 C       -3.7190    -6.7000    -1.1830 C.3   1 <1>   0.2090 
 16 C       -3.0240    -8.9420    -0.5380 C.3   1 <1>   0.2090 
 17 C       -4.9310    -7.6310    -1.2360 C.3   1 <1>   0.2000 
 18 C       -4.2990    -9.0160    -1.3860 C.3   1 <1>  -0.0800 
 19 O       -5.5890    -7.5530    -0.0170 O.3   1 <1>  -0.6800 
 20 C       -5.2240   -10.2080    -1.0660 C.3   1 <1>  -0.0170 
 21 C       -4.4680   -11.5300    -1.1780 C.ar  1 <1>  -0.1430 
 22 C       -3.9050   -12.2080    -0.0680 C.ar  1 <1>   0.0000 
 23 C       -4.3080   -12.0970    -2.4090 C.ar  1 <1>  -0.1500 
 24 C       -3.1960   -13.4090    -0.3250 C.ar  1 <1>   0.3100 
 25 C       -4.0000   -11.7780     1.2770 C.ar  1 <1>  -0.1500 
 26 C       -3.5960   -13.2940    -2.5500 C.ar  1 <1>   0.1600 
 27 N       -3.0510   -13.9350    -1.5670 N.ar  1 <1>  -0.6200 
 28 C       -2.6100   -14.0990     0.7480 C.ar  1 <1>  -0.1500 
 29 C       -3.4190   -12.4750     2.3010 C.ar  1 <1>  -0.1500 
 30 C       -2.7110   -13.6490     2.0360 C.ar  1 <1>  -0.1500 
 31 H       -2.0590    -1.9880     1.1510 H     1 <1>   0.0800 
 32 H       -2.0480    -1.0060    -0.2960 H     1 <1>   0.0800 
 33 H        1.2930    -1.0750     1.9130 H     1 <1>   0.0800 
 34 H       -0.0620    -2.0320     2.4660 H     1 <1>   0.0800 
 35 H       -0.5450    -2.5400    -1.4220 H     1 <1>   0.0800 
 36 H       -1.9050    -3.4330    -0.8260 H     1 <1>   0.0800 
 37 H        1.6600    -3.5050     1.5100 H     1 <1>   0.0800 
 38 H        1.6870    -2.5730     0.0390 H     1 <1>   0.0800 
 39 H        1.5490    -5.3600     1.2260 H     1 <1>   0.4570 
 40 H       -0.7030    -8.8270     0.6910 H     1 <1>   0.1500 
 41 H        1.4800    -9.0210     1.7920 H     1 <1>   0.0800 
 42 H        1.8810    -7.6200     2.7480 H     1 <1>   0.0800 
 43 H        2.6370    -7.8690     1.1850 H     1 <1>   0.0800 
 44 H       -3.9440    -5.7870    -0.6580 H     1 <1>   0.0800 
 45 H       -3.3910    -6.4660    -2.1810 H     1 <1>   0.0800 
 46 H       -2.2390    -9.5360    -0.9770 H     1 <1>   0.0800 
 47 H       -3.2170    -9.2800     0.4640 H     1 <1>   0.0800 
 48 H       -5.6250    -7.3850    -2.0220 H     1 <1>   0.0800 
 49 H       -3.9820    -9.1160    -2.4090 H     1 <1>   0.0800 
 50 H       -4.9160    -7.5130     0.6920 H     1 <1>   0.4000 
 51 H       -6.0350   -10.2080    -1.7730 H     1 <1>   0.0800 
 52 H       -5.6760   -10.1040    -0.0980 H     1 <1>   0.0800 
 53 H       -4.7150   -11.6460    -3.2950 H     1 <1>   0.1500 
 54 H       -4.5460   -10.8860     1.5160 H     1 <1>   0.1500 
 55 H       -3.4950   -13.7060    -3.5400 H     1 <1>   0.1500 
 56 H       -2.0760   -15.0030     0.5200 H     1 <1>   0.1500 
 57 H       -3.5030   -12.1370     3.3200 H     1 <1>   0.1500 
 58 H       -2.2580   -14.1910     2.8490 H     1 <1>   0.1500 
@<TRIPOS>BOND
  1   1   2  1   
  2   1   3  1   
  3   2   4  1   
  4   2  31  1   
  5   2  32  1   
  6   3   5  1   
  7   3  33  1   
  8   3  34  1   
  9   4   6  1   
 10   4  35  1   
 11   4  36  1   
 12   5   6  1   
 13   5  37  1   
 14   5  38  1   
 15   6   7  1   
 16   7   8  ar  
 17   7   9  ar  
 18   8  10  ar  
 19   9  11  ar  
 20   9  39  1   
 21  10  12  1   
 22  10  13  ar  
 23  11  13  ar  
 24  11  14  1   
 25  12  15  1   
 26  12  16  1   
 27  13  40  1   
 28  14  41  1   
 29  14  42  1   
 30  14  43  1   
 31  15  17  1   
 32  15  44  1   
 33  15  45  1   
 34  16  18  1   
 35  16  46  1   
 36  16  47  1   
 37  17  18  1   
 38  17  19  1   
 39  17  48  1   
 40  18  20  1   
 41  18  49  1   
 42  19  50  1   
 43  20  21  1   
 44  20  51  1   
 45  20  52  1   
 46  21  22  ar  
 47  21  23  ar  
 48  22  24  ar  
 49  22  25  ar  
 50  23  26  ar  
 51  23  53  1   
 52  24  27  ar  
 53  24  28  ar  
 54  25  29  ar  
 55  25  54  1   
 56  26  27  ar  
 57  26  55  1   
 58  28  30  ar  
 59  28  56  1   
 60  29  30  ar  
 61  29  57  1   
 62  30  58  1   
@<TRIPOS>SUBSTRUCTURE
  1 ****  12 GROUP 4 **** **** 0

# MOE 2024.06 (io_trps.svl 2023.06)
