@<TRIPOS>MOLECULE
NONAME
48 50 1 0 0 
SMALL
USER_CHARGES


@<TRIPOS>ATOM
  1 O        1.4230     0.0280    -0.4940 O.2   1 <1>  -0.5700 
  2 C        2.2410    -0.7480    -0.0650 C.2   1 <1>   0.5690 
  3 N        3.3750    -0.2980     0.5650 N.am  1 <1>  -0.6600 
  4 C        1.9880    -2.2330    -0.2630 C.3   1 <1>  -0.0990 
  5 C        4.5860    -1.1210     0.8870 C.3   1 <1>   0.1400 
  6 C        3.4470     1.1170     1.0280 C.3   1 <1>   0.1400 
  7 C        0.5450    -2.5220    -0.7050 C.3   1 <1>   0.0960 
  8 C        5.7930    -0.8020    -0.0250 C.3   1 <1>   0.3430 
  9 C        4.0010     2.0230    -0.0750 C.3   1 <1>  -0.1600 
 10 N        0.3400    -3.9750    -0.8550 N.pl3 1 <1>   0.0480 
 11 N        6.0750     0.6640    -0.1780 N.4   1 <1>  -0.9590 
 12 C        5.0360     1.3670    -0.9860 C.3   1 <1>   0.3430 
 13 C        0.4380    -4.7220    -1.9550 C.2   1 <1>   0.0360 
 14 C        0.0420    -4.8750     0.0830 C.2   1 <1>   0.0360 
 15 C        7.4470     0.9440    -0.6720 C.3   1 <1>   0.4860 
 16 N        0.2270    -5.9680    -1.7080 N.2   1 <1>  -0.3380 
 17 N       -0.0270    -6.0660    -0.4010 N.2   1 <1>  -0.3380 
 18 C        7.7480     2.4090    -0.4390 C.ar  1 <1>  -0.1440 
 19 C        7.6240     2.9570     0.8400 C.ar  1 <1>   0.4100 
 20 C        8.1280     3.2280    -1.4810 C.ar  1 <1>  -0.1500 
 21 N        7.8150     4.2220     1.1300 N.ar  1 <1>  -0.6200 
 22 N        7.2660     2.2260     1.9280 N.pl3 1 <1>  -0.9000 
 23 C        8.3490     4.5570    -1.1810 C.ar  1 <1>  -0.1500 
 24 C        8.1780     4.9960     0.1200 C.ar  1 <1>   0.1600 
 25 H        2.1690    -2.7370     0.6690 H     1 <1>   0.0800 
 26 H        2.6700    -2.6000    -1.0070 H     1 <1>   0.0800 
 27 H        4.3650    -2.1690     0.8020 H     1 <1>   0.0800 
 28 H        4.8640    -0.9470     1.9130 H     1 <1>   0.0800 
 29 H        4.0710     1.1800     1.9040 H     1 <1>   0.0800 
 30 H        2.4640     1.4600     1.3140 H     1 <1>   0.0800 
 31 H        0.3390    -2.0420    -1.6460 H     1 <1>   0.0800 
 32 H       -0.1510    -2.1460     0.0250 H     1 <1>   0.0800 
 33 H        5.6140    -1.2320    -0.9970 H     1 <1>   0.0800 
 34 H        6.6600    -1.2910     0.3880 H     1 <1>   0.0800 
 35 H        4.4170     2.9110     0.3690 H     1 <1>   0.0800 
 36 H        3.1770     2.3440    -0.6890 H     1 <1>   0.0800 
 37 H        6.0800     1.1140     0.7580 H     1 <1>   0.4500 
 38 H        5.4860     2.1310    -1.6000 H     1 <1>   0.0800 
 39 H        4.5410     0.6630    -1.6360 H     1 <1>   0.0800 
 40 H        0.6680    -4.3230    -2.9260 H     1 <1>   0.1500 
 41 H       -0.1180    -4.6240     1.1160 H     1 <1>   0.1500 
 42 H        7.5260     0.7060    -1.7200 H     1 <1>   0.0800 
 43 H        8.1630     0.3510    -0.1270 H     1 <1>   0.0800 
 44 H        8.2510     2.8710    -2.4900 H     1 <1>   0.1500 
 45 H        6.8640     2.8830     2.6110 H     1 <1>   0.4000 
 46 H        8.0940     1.8560     2.4080 H     1 <1>   0.4000 
 47 H        8.6510     5.2510    -1.9470 H     1 <1>   0.1500 
 48 H        8.3500     6.0370     0.3410 H     1 <1>   0.1500 
@<TRIPOS>BOND
  1   1   2  2   
  2   2   3  am  
  3   2   4  1   
  4   3   5  1   
  5   3   6  1   
  6   4   7  1   
  7   4  25  1   
  8   4  26  1   
  9   5   8  1   
 10   5  27  1   
 11   5  28  1   
 12   6   9  1   
 13   6  29  1   
 14   6  30  1   
 15   7  10  1   
 16   7  31  1   
 17   7  32  1   
 18   8  11  1   
 19   8  33  1   
 20   8  34  1   
 21   9  12  1   
 22   9  35  1   
 23   9  36  1   
 24  10  13  1   
 25  10  14  1   
 26  11  12  1   
 27  11  15  1   
 28  11  37  1   
 29  12  38  1   
 30  12  39  1   
 31  13  16  2   
 32  13  40  1   
 33  14  17  2   
 34  14  41  1   
 35  15  18  1   
 36  15  42  1   
 37  15  43  1   
 38  16  17  1   
 39  18  19  ar  
 40  18  20  ar  
 41  19  21  ar  
 42  19  22  1   
 43  20  23  ar  
 44  20  44  1   
 45  21  24  ar  
 46  22  45  1   
 47  22  46  1   
 48  23  24  ar  
 49  23  47  1   
 50  24  48  1   
@<TRIPOS>SUBSTRUCTURE
  1 ****   3 GROUP 4 **** **** 0

# MOE 2024.06 (io_trps.svl 2023.06)
