@<TRIPOS>MOLECULE
NONAME
38 40 1 0 0 
SMALL
USER_CHARGES


@<TRIPOS>ATOM
  1 O       -0.4230     0.6430     1.1640 O.3   1 <1>  -0.5600 
  2 C        0.1940     1.2270     0.0500 C.3   1 <1>   0.1200 
  3 C       -1.7580     1.0460     1.2680 C.3   1 <1>   0.1200 
  4 C       -0.7350     2.3370    -0.4350 C.3   1 <1>   0.2890 
  5 C       -2.0960     1.8130    -0.0130 C.3   1 <1>  -0.0800 
  6 N       -0.4510     3.5900     0.3110 N.pl3 1 <1>  -0.8690 
  7 C       -2.7110     0.9020    -1.0920 C.3   1 <1>  -0.0170 
  8 C        0.3820     4.5880    -0.1690 C.ar  1 <1>   0.4100 
  9 C       -4.0860     0.4010    -0.6790 C.ar  1 <1>  -0.1440 
 10 N        0.7450     4.4880    -1.4410 N.ar  1 <1>  -0.6200 
 11 C        0.8240     5.6430     0.6650 C.ar  1 <1>   0.1670 
 12 C       -5.1950     1.2210    -0.7080 C.ar  1 <1>  -0.1500 
 13 C       -4.2980    -0.8960    -0.2560 C.ar  1 <1>  -0.1500 
 14 C        1.5480     5.4660    -1.8210 C.ar  1 <1>   0.1600 
 15 N        1.6340     6.6090     0.2770 N.ar  1 <1>  -0.6200 
 16 C        0.3710     5.7170     2.1140 C.3   1 <1>  -0.0970 
 17 C       -6.4270     0.7220    -0.3180 C.ar  1 <1>   0.1600 
 18 C       -5.5720    -1.2960     0.1130 C.ar  1 <1>   0.1600 
 19 C        1.9810     6.4900    -0.9940 C.ar  1 <1>   0.1600 
 20 N       -6.6410    -0.5170     0.0940 N.ar  1 <1>  -0.6200 
 21 H        1.1650     1.5990     0.3250 H     1 <1>   0.0800 
 22 H        0.2960     0.4650    -0.7020 H     1 <1>   0.0800 
 23 H       -2.3760     0.1790     1.4220 H     1 <1>   0.0800 
 24 H       -1.8330     1.6920     2.1260 H     1 <1>   0.0800 
 25 H       -0.6670     2.4910    -1.4990 H     1 <1>   0.0800 
 26 H       -2.7750     2.6230     0.1880 H     1 <1>   0.0800 
 27 H       -0.3730     3.4120     1.3140 H     1 <1>   0.4000 
 28 H       -2.0650     0.0630    -1.2860 H     1 <1>   0.0800 
 29 H       -2.8090     1.4540    -2.0110 H     1 <1>   0.0800 
 30 H       -5.1140     2.2440    -1.0290 H     1 <1>   0.1500 
 31 H       -3.4870    -1.5990    -0.2070 H     1 <1>   0.1500 
 32 H        1.8830     5.4540    -2.8430 H     1 <1>   0.1500 
 33 H       -0.6880     5.5480     2.1830 H     1 <1>   0.0800 
 34 H        0.5830     6.6890     2.5220 H     1 <1>   0.0800 
 35 H        0.8920     4.9790     2.6950 H     1 <1>   0.0800 
 36 H       -7.2810     1.3770    -0.3470 H     1 <1>   0.1500 
 37 H       -5.7180    -2.3110     0.4420 H     1 <1>   0.1500 
 38 H        2.6390     7.2410    -1.3950 H     1 <1>   0.1500 
@<TRIPOS>BOND
  1   1   2  1   
  2   1   3  1   
  3   2   4  1   
  4   2  21  1   
  5   2  22  1   
  6   3   5  1   
  7   3  23  1   
  8   3  24  1   
  9   4   5  1   
 10   4   6  1   
 11   4  25  1   
 12   5   7  1   
 13   5  26  1   
 14   6   8  1   
 15   6  27  1   
 16   7   9  1   
 17   7  28  1   
 18   7  29  1   
 19   8  10  ar  
 20   8  11  ar  
 21   9  12  ar  
 22   9  13  ar  
 23  10  14  ar  
 24  11  15  ar  
 25  11  16  1   
 26  12  17  ar  
 27  12  30  1   
 28  13  18  ar  
 29  13  31  1   
 30  14  19  ar  
 31  14  32  1   
 32  15  19  ar  
 33  16  33  1   
 34  16  34  1   
 35  16  35  1   
 36  17  20  ar  
 37  17  36  1   
 38  18  20  ar  
 39  18  37  1   
 40  19  38  1   
@<TRIPOS>SUBSTRUCTURE
  1 ****   5 GROUP 4 **** **** 0

# MOE 2024.06 (io_trps.svl 2023.06)
