@<TRIPOS>MOLECULE
NONAME
51 54 1 0 0 
SMALL
USER_CHARGES


@<TRIPOS>ATOM
  1 S        2.2280    -0.0500     1.1880 S.3   1 <1>  -0.0800 
  2 C        1.3480     1.3260     0.5580 C.2   1 <1>  -0.1400 
  3 C        3.5150     1.0070     1.7510 C.2   1 <1>  -0.1100 
  4 C        2.0050     2.4750     0.7610 C.2   1 <1>  -0.1810 
  5 C        0.0120     1.1960    -0.1230 C.3   1 <1>   0.0200 
  6 C        3.2490     2.2940     1.4530 C.2   1 <1>  -0.1500 
  7 C        1.4310     3.8080     0.2780 C.3   1 <1>   0.4610 
  8 C       -0.6310     2.5920    -0.1330 C.3   1 <1>   0.1200 
  9 O        0.2920     3.5790    -0.5330 O.3   1 <1>  -0.5600 
 10 C        2.4450     4.5240    -0.6230 C.3   1 <1>  -0.1600 
 11 C        1.0300     4.7020     1.4620 C.3   1 <1>  -0.1600 
 12 C        1.9480     5.9070    -1.0440 C.3   1 <1>   0.1400 
 13 C        0.5520     6.0770     0.9930 C.3   1 <1>   0.1400 
 14 N        1.6330     6.6970     0.1800 N.am  1 <1>  -0.6600 
 15 C        2.3680     7.7590     0.6640 C.2   1 <1>   0.5690 
 16 O        2.0420     8.3160     1.6900 O.2   1 <1>  -0.5700 
 17 C        3.6210     8.2640    -0.0680 C.3   1 <1>   0.2370 
 18 N        4.7010     7.2480     0.0400 N.pl3 1 <1>   0.0480 
 19 C        4.1240     9.6420     0.4220 C.3   1 <1>  -0.1600 
 20 C        5.1360     6.6330     1.1760 C.2   1 <1>  -0.3020 
 21 C        5.4210     6.7240    -0.9910 C.2   1 <1>  -0.3020 
 22 C        5.3060    10.1880    -0.3970 C.3   1 <1>  -0.1600 
 23 C        6.1090     5.7370     0.8680 C.2   1 <1>  -0.1500 
 24 C        6.2910     5.7950    -0.5160 C.2   1 <1>  -0.1500 
 25 C        5.7050    11.5850     0.0840 C.3   1 <1>  -0.2400 
 26 H        4.3470     0.5460     2.2530 H     1 <1>   0.1500 
 27 H       -0.6170     0.5080     0.4120 H     1 <1>   0.0800 
 28 H        0.1450     0.8390    -1.1280 H     1 <1>   0.0800 
 29 H        3.8830     3.1310     1.6930 H     1 <1>   0.1500 
 30 H       -0.9960     2.8430     0.8470 H     1 <1>   0.0800 
 31 H       -1.4560     2.6150    -0.8230 H     1 <1>   0.0800 
 32 H        2.6350     3.9190    -1.4900 H     1 <1>   0.0800 
 33 H        3.3760     4.6390    -0.1010 H     1 <1>   0.0800 
 34 H        1.8830     4.8420     2.1010 H     1 <1>   0.0800 
 35 H        0.2710     4.2240     2.0500 H     1 <1>   0.0800 
 36 H        1.0540     5.8060    -1.6370 H     1 <1>   0.0800 
 37 H        2.6900     6.3890    -1.6520 H     1 <1>   0.0800 
 38 H        0.3100     6.6890     1.8450 H     1 <1>   0.0800 
 39 H       -0.3360     5.9780     0.3910 H     1 <1>   0.0800 
 40 H        3.3660     8.3660    -1.1050 H     1 <1>   0.0800 
 41 H        4.4030     9.5670     1.4590 H     1 <1>   0.0800 
 42 H        3.3070    10.3400     0.3600 H     1 <1>   0.0800 
 43 H        4.7270     6.8670     2.1440 H     1 <1>   0.1500 
 44 H        5.2820     7.0370    -2.0100 H     1 <1>   0.1500 
 45 H        5.0400    10.2350    -1.4390 H     1 <1>   0.0800 
 46 H        6.1550     9.5310    -0.2980 H     1 <1>   0.0800 
 47 H        6.6540     5.0960     1.5400 H     1 <1>   0.1500 
 48 H        6.9980     5.2030    -1.0720 H     1 <1>   0.1500 
 49 H        4.8850    12.2720    -0.0260 H     1 <1>   0.0800 
 50 H        6.5360    11.9500    -0.4940 H     1 <1>   0.0800 
 51 H        5.9970    11.5570     1.1190 H     1 <1>   0.0800 
@<TRIPOS>BOND
  1   1   2  1   
  2   1   3  1   
  3   2   4  2   
  4   2   5  1   
  5   3   6  2   
  6   3  26  1   
  7   4   6  1   
  8   4   7  1   
  9   5   8  1   
 10   5  27  1   
 11   5  28  1   
 12   6  29  1   
 13   7   9  1   
 14   7  10  1   
 15   7  11  1   
 16   8   9  1   
 17   8  30  1   
 18   8  31  1   
 19  10  12  1   
 20  10  32  1   
 21  10  33  1   
 22  11  13  1   
 23  11  34  1   
 24  11  35  1   
 25  12  14  1   
 26  12  36  1   
 27  12  37  1   
 28  13  14  1   
 29  13  38  1   
 30  13  39  1   
 31  14  15  am  
 32  15  16  2   
 33  15  17  1   
 34  17  18  1   
 35  17  19  1   
 36  17  40  1   
 37  18  20  1   
 38  18  21  1   
 39  19  22  1   
 40  19  41  1   
 41  19  42  1   
 42  20  23  2   
 43  20  43  1   
 44  21  24  2   
 45  21  44  1   
 46  22  25  1   
 47  22  45  1   
 48  22  46  1   
 49  23  24  1   
 50  23  47  1   
 51  24  48  1   
 52  25  49  1   
 53  25  50  1   
 54  25  51  1   
@<TRIPOS>SUBSTRUCTURE
  1 ****  10 GROUP 4 **** **** 0

# MOE 2024.06 (io_trps.svl 2023.06)
