@<TRIPOS>MOLECULE
NONAME
53 54 1 0 0 
SMALL
USER_CHARGES


@<TRIPOS>ATOM
  1 O       -0.4280     1.4520    -1.8070 O.2   1 <1>  -0.5700 
  2 C       -0.7560     2.5780    -1.5150 C.2   1 <1>   0.5690 
  3 N       -1.4330     2.8900    -0.3700 N.am  1 <1>  -0.6600 
  4 C       -0.4010     3.7220    -2.4610 C.3   1 <1>   0.1810 
  5 C       -1.8610     4.3140    -0.1540 C.3   1 <1>   0.3640 
  6 C       -1.6520     1.8850     0.7040 C.3   1 <1>   0.2200 
  7 O        0.0370     4.8440    -1.7380 O.3   1 <1>  -0.5600 
  8 C       -3.2800     4.5690    -0.6780 C.ar  1 <1>  -0.1440 
  9 C       -0.8850     5.3580    -0.7760 C.3   1 <1>   0.2610 
 10 C       -3.1090     1.8650     1.1660 C.3   1 <1>  -0.2400 
 11 C       -0.6990     2.1650     1.8660 C.3   1 <1>  -0.2400 
 12 C       -3.8900     3.7930    -1.6580 C.ar  1 <1>  -0.1500 
 13 C       -3.9850     5.6400    -0.1440 C.ar  1 <1>  -0.1500 
 14 C       -0.1340     6.0570     0.3590 C.2   1 <1>   0.5690 
 15 C       -5.1690     4.0870    -2.0960 C.ar  1 <1>  -0.1500 
 16 C       -5.2640     5.9360    -0.5810 C.ar  1 <1>  -0.1500 
 17 O       -0.7600     6.7190     1.1550 O.2   1 <1>  -0.5700 
 18 N        1.2160     5.9260     0.4460 N.am  1 <1>  -0.7300 
 19 C       -5.8570     5.1600    -1.5590 C.ar  1 <1>  -0.1500 
 20 C        2.0960     6.5700     1.4510 C.3   1 <1>   0.1400 
 21 C        2.9250     7.7250     0.8450 C.3   1 <1>   0.0000 
 22 C        1.9590     8.8010     0.2900 C.3   1 <1>   0.1200 
 23 C        3.8070     8.3140     1.9640 C.3   1 <1>  -0.2400 
 24 C        3.8440     7.1920    -0.2730 C.3   1 <1>  -0.2400 
 25 O        2.6540     9.9050    -0.1870 O.3   1 <1>  -0.6800 
 26 H       -1.2550     3.9990    -3.0510 H     1 <1>   0.0800 
 27 H        0.3970     3.4160    -3.1140 H     1 <1>   0.0800 
 28 H       -1.9010     4.4890     0.9070 H     1 <1>   0.0800 
 29 H       -1.4210     0.9060     0.3160 H     1 <1>   0.0800 
 30 H       -1.4600     6.1150    -1.2770 H     1 <1>   0.0800 
 31 H       -3.3890     2.7900     1.6350 H     1 <1>   0.0800 
 32 H       -3.2500     1.0730     1.8780 H     1 <1>   0.0800 
 33 H       -3.7570     1.6780     0.3290 H     1 <1>   0.0800 
 34 H       -0.9270     3.0970     2.3490 H     1 <1>   0.0800 
 35 H        0.3150     2.1850     1.5100 H     1 <1>   0.0800 
 36 H       -0.7820     1.3800     2.5960 H     1 <1>   0.0800 
 37 H       -3.3870     2.9460    -2.0890 H     1 <1>   0.1500 
 38 H       -3.5410     6.2590     0.6190 H     1 <1>   0.1500 
 39 H       -5.6310     3.4790    -2.8540 H     1 <1>   0.1500 
 40 H       -5.7970     6.7700    -0.1590 H     1 <1>   0.1500 
 41 H        1.6800     5.4130    -0.3110 H     1 <1>   0.3700 
 42 H       -6.8520     5.3880    -1.9000 H     1 <1>   0.1500 
 43 H        1.4920     6.9490     2.2590 H     1 <1>   0.0800 
 44 H        2.7540     5.8230     1.8590 H     1 <1>   0.0800 
 45 H        1.2830     9.1390     1.0570 H     1 <1>   0.0800 
 46 H        1.3790     8.4090    -0.5270 H     1 <1>   0.0800 
 47 H        4.4230     7.5470     2.4010 H     1 <1>   0.0800 
 48 H        3.1970     8.7410     2.7410 H     1 <1>   0.0800 
 49 H        4.4580     9.0790     1.5810 H     1 <1>   0.0800 
 50 H        4.4690     6.3970     0.0930 H     1 <1>   0.0800 
 51 H        4.4790     7.9760    -0.6460 H     1 <1>   0.0800 
 52 H        3.2640     6.8210    -1.1000 H     1 <1>   0.0800 
 53 H        3.2140    10.2780     0.5190 H     1 <1>   0.4000 
@<TRIPOS>BOND
  1   1   2  2   
  2   2   3  am  
  3   2   4  1   
  4   3   5  1   
  5   3   6  1   
  6   4   7  1   
  7   4  26  1   
  8   4  27  1   
  9   5   8  1   
 10   5   9  1   
 11   5  28  1   
 12   6  10  1   
 13   6  11  1   
 14   6  29  1   
 15   7   9  1   
 16   8  12  ar  
 17   8  13  ar  
 18   9  14  1   
 19   9  30  1   
 20  10  31  1   
 21  10  32  1   
 22  10  33  1   
 23  11  34  1   
 24  11  35  1   
 25  11  36  1   
 26  12  15  ar  
 27  12  37  1   
 28  13  16  ar  
 29  13  38  1   
 30  14  17  2   
 31  14  18  am  
 32  15  19  ar  
 33  15  39  1   
 34  16  19  ar  
 35  16  40  1   
 36  18  20  1   
 37  18  41  1   
 38  19  42  1   
 39  20  21  1   
 40  20  43  1   
 41  20  44  1   
 42  21  22  1   
 43  21  23  1   
 44  21  24  1   
 45  22  25  1   
 46  22  45  1   
 47  22  46  1   
 48  23  47  1   
 49  23  48  1   
 50  23  49  1   
 51  24  50  1   
 52  24  51  1   
 53  24  52  1   
 54  25  53  1   
@<TRIPOS>SUBSTRUCTURE
  1 ****   9 GROUP 4 **** **** 0

# MOE 2024.06 (io_trps.svl 2023.06)
