@<TRIPOS>MOLECULE
NONAME
39 41 1 0 0 
SMALL
USER_CHARGES


@<TRIPOS>ATOM
  1 CL       1.0470     0.4630    -1.3980 Cl    1 <1>  -0.1770 
  2 C        0.5550     1.8200    -0.4090 C.ar  1 <1>   0.1770 
  3 C        1.4430     2.4560     0.4550 C.ar  1 <1>  -0.1440 
  4 C       -0.7590     2.2360    -0.5270 C.ar  1 <1>  -0.1500 
  5 C        0.9730     3.5310     1.1990 C.ar  1 <1>  -0.1500 
  6 C        2.9010     2.0340     0.6180 C.3   1 <1>   0.3640 
  7 C       -1.2100     3.3060     0.2230 C.ar  1 <1>  -0.1500 
  8 C       -0.3420     3.9520     1.0850 C.ar  1 <1>  -0.1500 
  9 N        2.9670     0.6290     1.0830 N.am  1 <1>  -0.7300 
 10 C        3.7450     2.2860    -0.6590 C.3   1 <1>   0.2610 
 11 C        3.7950    -0.2940     0.5450 C.2   1 <1>   0.5690 
 12 O        4.9270     1.4960    -0.6790 O.3   1 <1>  -0.5600 
 13 C        4.0370     3.7870    -0.7860 C.2   1 <1>   0.5690 
 14 O        3.8300    -1.4170     0.9800 O.2   1 <1>  -0.5700 
 15 C        4.6860     0.1060    -0.6350 C.3   1 <1>   0.1810 
 16 O        3.4220     4.3810    -1.6430 O.2   1 <1>  -0.5700 
 17 N        4.9180     4.4590     0.0370 N.am  1 <1>  -0.6600 
 18 C        5.2330     5.9050    -0.1820 C.3   1 <1>   0.1400 
 19 C        5.8280     3.8460     1.0560 C.3   1 <1>   0.1400 
 20 C        6.7320     6.0860    -0.4730 C.3   1 <1>   0.1200 
 21 C        7.2940     4.1210     0.6850 C.3   1 <1>   0.1200 
 22 O        7.5080     5.4970     0.5340 O.3   1 <1>  -0.5600 
 23 H       -1.4200     1.7250    -1.2030 H     1 <1>   0.1500 
 24 H        1.6250     4.0580     1.8750 H     1 <1>   0.1500 
 25 H        3.3270     2.6340     1.4030 H     1 <1>   0.0800 
 26 H       -2.2310     3.6370     0.1360 H     1 <1>   0.1500 
 27 H       -0.6900     4.7880     1.6670 H     1 <1>   0.1500 
 28 H        2.3270     0.3380     1.8230 H     1 <1>   0.3700 
 29 H        3.1750     2.0070    -1.5250 H     1 <1>   0.0800 
 30 H        4.2170    -0.1900    -1.5560 H     1 <1>   0.0800 
 31 H        5.6350    -0.3910    -0.5520 H     1 <1>   0.0800 
 32 H        4.6640     6.3040    -1.0040 H     1 <1>   0.0800 
 33 H        4.9720     6.4640     0.6990 H     1 <1>   0.0800 
 34 H        5.6270     4.2850     2.0170 H     1 <1>   0.0800 
 35 H        5.6790     2.7880     1.1450 H     1 <1>   0.0800 
 36 H        6.9800     7.1320    -0.5100 H     1 <1>   0.0800 
 37 H        6.9890     5.6360    -1.4160 H     1 <1>   0.0800 
 38 H        7.5520     3.6250    -0.2350 H     1 <1>   0.0800 
 39 H        7.9480     3.7710     1.4640 H     1 <1>   0.0800 
@<TRIPOS>BOND
  1   1   2  1   
  2   2   3  ar  
  3   2   4  ar  
  4   3   5  ar  
  5   3   6  1   
  6   4   7  ar  
  7   4  23  1   
  8   5   8  ar  
  9   5  24  1   
 10   6   9  1   
 11   6  10  1   
 12   6  25  1   
 13   7   8  ar  
 14   7  26  1   
 15   8  27  1   
 16   9  11  am  
 17   9  28  1   
 18  10  12  1   
 19  10  13  1   
 20  10  29  1   
 21  11  14  2   
 22  11  15  1   
 23  12  15  1   
 24  13  16  2   
 25  13  17  am  
 26  15  30  1   
 27  15  31  1   
 28  17  18  1   
 29  17  19  1   
 30  18  20  1   
 31  18  32  1   
 32  18  33  1   
 33  19  21  1   
 34  19  34  1   
 35  19  35  1   
 36  20  22  1   
 37  20  36  1   
 38  20  37  1   
 39  21  22  1   
 40  21  38  1   
 41  21  39  1   
@<TRIPOS>SUBSTRUCTURE
  1 ****  10 GROUP 4 **** **** 0

# MOE 2024.06 (io_trps.svl 2023.06)
