@<TRIPOS>MOLECULE
NONAME
52 55 1 0 0 
SMALL
USER_CHARGES


@<TRIPOS>ATOM
  1 F        0.8060     4.0910     0.5700 F     1 <1>  -0.1900 
  2 C        2.0780     4.1610     0.2820 C.ar  1 <1>   0.1900 
  3 C        2.5360     3.5470    -0.8670 C.ar  1 <1>  -0.1500 
  4 C        2.9190     4.8470     1.1380 C.ar  1 <1>  -0.1500 
  5 C        3.8870     3.6240    -1.1660 C.ar  1 <1>  -0.1500 
  6 C        4.2670     4.9160     0.8270 C.ar  1 <1>  -0.1500 
  7 C        4.7550     4.3060    -0.3220 C.ar  1 <1>  -0.1430 
  8 C        6.2390     4.3780    -0.6560 C.3   1 <1>  -0.0160 
  9 C        6.9660     3.0840    -0.2420 C.3   1 <1>  -0.0800 
 10 C        8.4390     2.9840    -0.6550 C.3   1 <1>   0.2890 
 11 C        6.9610     2.8160     1.2700 C.3   1 <1>  -0.1600 
 12 N        9.1770     4.2130    -0.2970 N.pl3 1 <1>  -0.8690 
 13 C        8.9620     1.8510     0.2200 C.3   1 <1>  -0.1600 
 14 C        8.2010     1.9550     1.5480 C.3   1 <1>  -0.1600 
 15 C        9.5290     5.1450    -1.2340 C.ar  1 <1>   0.4100 
 16 N        9.1850     6.3710    -0.9070 N.ar  1 <1>  -0.6200 
 17 C       10.1970     4.8250    -2.4260 C.ar  1 <1>   0.1600 
 18 C        9.5200     7.2920    -1.8300 C.ar  1 <1>   0.3960 
 19 N       10.5300     5.6950    -3.3550 N.ar  1 <1>  -0.6200 
 20 C        9.2130     8.7130    -1.6380 C.2   1 <1>   0.5440 
 21 C       10.1660     6.9260    -3.0160 C.ar  1 <1>   0.1600 
 22 O        9.0080     9.4060    -2.6210 O.2   1 <1>  -0.5700 
 23 N        9.1660     9.3410    -0.4040 N.am  1 <1>  -0.6600 
 24 C        8.9460    10.7970    -0.2570 C.3   1 <1>   0.1400 
 25 C        9.5120     8.7290     0.9000 C.3   1 <1>   0.1400 
 26 C        9.5380    11.1410     1.1030 C.3   1 <1>  -0.1600 
 27 C        9.3930     9.8600     1.9180 C.3   1 <1>  -0.1600 
 28 H        1.8510     3.0240    -1.5080 H     1 <1>   0.1500 
 29 H        2.5240     5.3120     2.0220 H     1 <1>   0.1500 
 30 H        4.2590     3.1520    -2.0580 H     1 <1>   0.1500 
 31 H        4.9340     5.4480     1.4830 H     1 <1>   0.1500 
 32 H        6.3560     4.5310    -1.7150 H     1 <1>   0.0800 
 33 H        6.6760     5.2280    -0.1630 H     1 <1>   0.0800 
 34 H        6.4600     2.2580    -0.7130 H     1 <1>   0.0800 
 35 H        8.5450     2.7610    -1.7040 H     1 <1>   0.0800 
 36 H        7.0430     3.7410     1.8130 H     1 <1>   0.0800 
 37 H        6.0550     2.3180     1.5710 H     1 <1>   0.0800 
 38 H        8.7860     4.6470     0.5420 H     1 <1>   0.4000 
 39 H        8.7180     0.9150    -0.2500 H     1 <1>   0.0800 
 40 H       10.0290     1.9020     0.3510 H     1 <1>   0.0800 
 41 H        7.9260     0.9770     1.9060 H     1 <1>   0.0800 
 42 H        8.8170     2.4350     2.2900 H     1 <1>   0.0800 
 43 H       10.4590     3.7970    -2.5900 H     1 <1>   0.1500 
 44 H       10.3970     7.7040    -3.7240 H     1 <1>   0.1500 
 45 H        9.4270    11.3480    -1.0490 H     1 <1>   0.0800 
 46 H        7.8880    10.9930    -0.2730 H     1 <1>   0.0800 
 47 H        8.8360     7.9270     1.1400 H     1 <1>   0.0800 
 48 H       10.5220     8.3560     0.8620 H     1 <1>   0.0800 
 49 H       10.5800    11.3810     0.9790 H     1 <1>   0.0800 
 50 H        9.0360    11.9770     1.5570 H     1 <1>   0.0800 
 51 H        8.4160     9.8220     2.3660 H     1 <1>   0.0800 
 52 H       10.1360     9.7790     2.6920 H     1 <1>   0.0800 
@<TRIPOS>BOND
  1   1   2  1   
  2   2   3  ar  
  3   2   4  ar  
  4   3   5  ar  
  5   3  28  1   
  6   4   6  ar  
  7   4  29  1   
  8   5   7  ar  
  9   5  30  1   
 10   6   7  ar  
 11   6  31  1   
 12   7   8  1   
 13   8   9  1   
 14   8  32  1   
 15   8  33  1   
 16   9  10  1   
 17   9  11  1   
 18   9  34  1   
 19  10  12  1   
 20  10  13  1   
 21  10  35  1   
 22  11  14  1   
 23  11  36  1   
 24  11  37  1   
 25  12  15  1   
 26  12  38  1   
 27  13  14  1   
 28  13  39  1   
 29  13  40  1   
 30  14  41  1   
 31  14  42  1   
 32  15  16  ar  
 33  15  17  ar  
 34  16  18  ar  
 35  17  19  ar  
 36  17  43  1   
 37  18  20  1   
 38  18  21  ar  
 39  19  21  ar  
 40  20  22  2   
 41  20  23  am  
 42  21  44  1   
 43  23  24  1   
 44  23  25  1   
 45  24  26  1   
 46  24  45  1   
 47  24  46  1   
 48  25  27  1   
 49  25  47  1   
 50  25  48  1   
 51  26  27  1   
 52  26  49  1   
 53  26  50  1   
 54  27  51  1   
 55  27  52  1   
@<TRIPOS>SUBSTRUCTURE
  1 ****   8 GROUP 4 **** **** 0

# MOE 2024.06 (io_trps.svl 2023.06)
