@<TRIPOS>MOLECULE
NONAME
42 44 1 0 0 
SMALL
USER_CHARGES


@<TRIPOS>ATOM
  1 O        0.4110     0.5610     0.6670 O.3   1 <1>  -0.0190 
  2 N        1.3760    -0.3120     0.7020 N.2   1 <1>  -0.4100 
  3 C        0.8220     1.7280     0.2480 C.2   1 <1>  -0.0400 
  4 C        2.4280     0.3030     0.2970 C.2   1 <1>   0.1080 
  5 C        2.1360     1.6270    -0.0150 C.2   1 <1>  -0.1500 
  6 C       -0.1770     2.8690     0.1450 C.3   1 <1>   0.0200 
  7 C        3.7930    -0.3350     0.1770 C.3   1 <1>  -0.0590 
  8 C        0.4910     4.2090    -0.2070 C.3   1 <1>  -0.0800 
  9 C       -0.4700     5.3650    -0.4900 C.3   1 <1>   0.2000 
 10 C        1.3770     4.7600     0.9060 C.3   1 <1>   0.2090 
 11 O       -1.5400     5.2960     0.4150 O.3   1 <1>  -0.5600 
 12 C        0.3800     6.6230    -0.2330 C.3   1 <1>   0.2090 
 13 N        1.5700     6.1880     0.5490 N.pl3 1 <1>  -0.8380 
 14 C       -2.6620     6.0440     0.0660 C.3   1 <1>   0.0400 
 15 C        2.8140     6.6770     0.1300 C.ar  1 <1>   0.4100 
 16 N        3.6610     5.7720    -0.3510 N.ar  1 <1>  -0.6200 
 17 C        3.1390     8.0670     0.1880 C.ar  1 <1>   0.3930 
 18 C        4.8120     6.2990    -0.7360 C.ar  1 <1>   0.1600 
 19 O        2.2060     8.9350     0.6720 O.3   1 <1>  -0.3630 
 20 N        4.2980     8.5770    -0.2100 N.ar  1 <1>  -0.6200 
 21 C        5.1200     7.6460    -0.6680 C.ar  1 <1>   0.1600 
 22 C        2.4970    10.3100     0.8270 C.3   1 <1>   0.0400 
 23 H        2.8300     2.3620    -0.3790 H     1 <1>   0.1500 
 24 H       -0.9010     2.6200    -0.6090 H     1 <1>   0.0800 
 25 H       -0.6980     2.9560     1.0830 H     1 <1>   0.0800 
 26 H        4.5420     0.3230     0.5790 H     1 <1>   0.0800 
 27 H        4.0110    -0.5330    -0.8560 H     1 <1>   0.0800 
 28 H        3.8130    -1.2610     0.7220 H     1 <1>   0.0800 
 29 H        1.1080     4.0760    -1.0780 H     1 <1>   0.0800 
 30 H       -0.8540     5.3260    -1.4940 H     1 <1>   0.0800 
 31 H        2.3060     4.2260     0.9940 H     1 <1>   0.0800 
 32 H        0.8620     4.7110     1.8500 H     1 <1>   0.0800 
 33 H       -0.1690     7.3660     0.3170 H     1 <1>   0.0800 
 34 H        0.7020     7.0400    -1.1710 H     1 <1>   0.0800 
 35 H       -3.4030     5.9100     0.8340 H     1 <1>   0.0800 
 36 H       -3.0480     5.6880    -0.8740 H     1 <1>   0.0800 
 37 H       -2.3980     7.0850    -0.0010 H     1 <1>   0.0800 
 38 H        5.5490     5.6210    -1.1280 H     1 <1>   0.1500 
 39 H        6.0860     7.9760    -1.0070 H     1 <1>   0.1500 
 40 H        1.6320    10.7940     1.2420 H     1 <1>   0.0800 
 41 H        2.7290    10.7280    -0.1370 H     1 <1>   0.0800 
 42 H        3.3350    10.4150     1.4940 H     1 <1>   0.0800 
@<TRIPOS>BOND
  1   1   2  1   
  2   1   3  1   
  3   2   4  2   
  4   3   5  2   
  5   3   6  1   
  6   4   5  1   
  7   4   7  1   
  8   5  23  1   
  9   6   8  1   
 10   6  24  1   
 11   6  25  1   
 12   7  26  1   
 13   7  27  1   
 14   7  28  1   
 15   8   9  1   
 16   8  10  1   
 17   8  29  1   
 18   9  11  1   
 19   9  12  1   
 20   9  30  1   
 21  10  13  1   
 22  10  31  1   
 23  10  32  1   
 24  11  14  1   
 25  12  13  1   
 26  12  33  1   
 27  12  34  1   
 28  13  15  1   
 29  14  35  1   
 30  14  36  1   
 31  14  37  1   
 32  15  16  ar  
 33  15  17  ar  
 34  16  18  ar  
 35  17  19  1   
 36  17  20  ar  
 37  18  21  ar  
 38  18  38  1   
 39  19  22  1   
 40  20  21  ar  
 41  21  39  1   
 42  22  40  1   
 43  22  41  1   
 44  22  42  1   
@<TRIPOS>SUBSTRUCTURE
  1 ****  10 GROUP 4 **** **** 0

# MOE 2024.06 (io_trps.svl 2023.06)
