@<TRIPOS>MOLECULE
NONAME
48 50 1 0 0 
SMALL
USER_CHARGES


@<TRIPOS>ATOM
  1 S       -0.7190    -0.4180     0.9500 S.3   1 <1>  -0.0800 
  2 C       -1.3430     0.5330    -0.4010 C.2   1 <1>  -0.0450 
  3 C       -0.3430     1.0070     1.8870 C.2   1 <1>  -0.1100 
  4 C       -1.8540    -0.1680    -1.5480 C.2   1 <1>   0.5940 
  5 C       -1.2250     1.8520    -0.0850 C.2   1 <1>  -0.1500 
  6 C       -0.6600     2.1220     1.2010 C.2   1 <1>  -0.1810 
  7 O       -1.8380    -1.3650    -1.6730 O.2   1 <1>  -0.5700 
  8 C       -2.4520     0.6370    -2.6820 C.3   1 <1>  -0.1790 
  9 C       -0.4630     3.5340     1.7150 C.3   1 <1>   0.5240 
 10 N        0.7320     4.1110     1.0420 N.4   1 <1>  -0.9590 
 11 C        1.9880     3.4470     1.5470 C.3   1 <1>   0.3430 
 12 C        0.7800     5.5920     1.1950 C.3   1 <1>   0.3430 
 13 C        3.2660     4.0180     0.9170 C.3   1 <1>   0.2000 
 14 C        1.9770     6.1540     0.4300 C.3   1 <1>  -0.1600 
 15 O        4.3270     3.5170     1.6480 O.3   1 <1>  -0.6800 
 16 C        3.2890     5.5630     0.9500 C.3   1 <1>   0.2200 
 17 N        4.4040     6.1110     0.1370 N.am  1 <1>  -0.7300 
 18 C        5.7130     6.1580     0.5290 C.2   1 <1>   0.5440 
 19 O        6.0060     5.6000     1.5670 O.2   1 <1>  -0.5700 
 20 C        6.7190     6.8180    -0.2860 C.ar  1 <1>   0.0860 
 21 C        8.0430     6.3780    -0.2770 C.ar  1 <1>  -0.1500 
 22 C        6.4110     7.9060    -1.1050 C.ar  1 <1>  -0.1500 
 23 C        9.0110     6.9820    -1.0590 C.ar  1 <1>  -0.1500 
 24 C        7.3740     8.5140    -1.8900 C.ar  1 <1>  -0.1500 
 25 C        8.6770     8.0510    -1.8700 C.ar  1 <1>  -0.1500 
 26 H        0.0810     0.8410     2.8630 H     1 <1>   0.1500 
 27 H       -1.5430     2.6480    -0.7370 H     1 <1>   0.1500 
 28 H       -3.2340     1.2710    -2.3090 H     1 <1>   0.0800 
 29 H       -2.8690    -0.0270    -3.4180 H     1 <1>   0.0800 
 30 H       -1.6900     1.2330    -3.1470 H     1 <1>   0.0800 
 31 H       -0.3200     3.5220     2.7830 H     1 <1>   0.0800 
 32 H       -1.3420     4.1170     1.4930 H     1 <1>   0.0800 
 33 H        0.6380     3.8720     0.0460 H     1 <1>   0.4500 
 34 H        2.0570     3.5830     2.6140 H     1 <1>   0.0800 
 35 H        1.9520     2.3890     1.3450 H     1 <1>   0.0800 
 36 H       -0.1280     6.0340     0.8130 H     1 <1>   0.0800 
 37 H        0.8680     5.8510     2.2390 H     1 <1>   0.0800 
 38 H        3.3680     3.6650    -0.0950 H     1 <1>   0.0800 
 39 H        1.9970     7.2220     0.5640 H     1 <1>   0.0800 
 40 H        1.8580     5.9480    -0.6200 H     1 <1>   0.0800 
 41 H        5.0930     4.1590     1.6180 H     1 <1>   0.4000 
 42 H        3.4230     5.8780     1.9730 H     1 <1>   0.0800 
 43 H        4.1730     6.4640    -0.7940 H     1 <1>   0.3700 
 44 H        8.3150     5.5490     0.3540 H     1 <1>   0.1500 
 45 H        5.4090     8.2940    -1.1270 H     1 <1>   0.1500 
 46 H       10.0260     6.6210    -1.0350 H     1 <1>   0.1500 
 47 H        7.1160     9.3510    -2.5160 H     1 <1>   0.1500 
 48 H        9.4290     8.5220    -2.4800 H     1 <1>   0.1500 
@<TRIPOS>BOND
  1   1   2  1   
  2   1   3  1   
  3   2   4  1   
  4   2   5  2   
  5   3   6  2   
  6   3  26  1   
  7   4   7  2   
  8   4   8  1   
  9   5   6  1   
 10   5  27  1   
 11   6   9  1   
 12   8  28  1   
 13   8  29  1   
 14   8  30  1   
 15   9  10  1   
 16   9  31  1   
 17   9  32  1   
 18  10  11  1   
 19  10  12  1   
 20  10  33  1   
 21  11  13  1   
 22  11  34  1   
 23  11  35  1   
 24  12  14  1   
 25  12  36  1   
 26  12  37  1   
 27  13  15  1   
 28  13  16  1   
 29  13  38  1   
 30  14  16  1   
 31  14  39  1   
 32  14  40  1   
 33  15  41  1   
 34  16  17  1   
 35  16  42  1   
 36  17  18  am  
 37  17  43  1   
 38  18  19  2   
 39  18  20  1   
 40  20  21  ar  
 41  20  22  ar  
 42  21  23  ar  
 43  21  44  1   
 44  22  24  ar  
 45  22  45  1   
 46  23  25  ar  
 47  23  46  1   
 48  24  25  ar  
 49  24  47  1   
 50  25  48  1   
@<TRIPOS>SUBSTRUCTURE
  1 ****  13 GROUP 4 **** **** 0

# MOE 2024.06 (io_trps.svl 2023.06)
