@<TRIPOS>MOLECULE
NONAME
50 52 1 0 0 
SMALL
USER_CHARGES


@<TRIPOS>ATOM
  1 F       -2.4020    -1.2010     2.6320 F     1 <1>  -0.1900 
  2 C       -2.5470    -1.3890     1.3430 C.ar  1 <1>   0.1900 
  3 C       -2.6260    -0.2900     0.4930 C.ar  1 <1>   0.0830 
  4 C       -2.6200    -2.6890     0.8810 C.ar  1 <1>  -0.1500 
  5 O       -2.5460     0.9640     1.0230 O.3   1 <1>  -0.3630 
  6 C       -2.7850    -0.5350    -0.8700 C.ar  1 <1>  -0.1500 
  7 C       -2.7920    -2.9200    -0.4750 C.ar  1 <1>  -0.1430 
  8 C       -2.4970     2.1070     0.2000 C.3   1 <1>   0.0400 
  9 C       -2.8660    -1.8360    -1.3420 C.ar  1 <1>  -0.1500 
 10 C       -2.9080    -4.3530    -1.0020 C.3   1 <1>   0.2280 
 11 N       -4.1120    -5.0020    -0.3530 N.3   1 <1>  -0.8100 
 12 C       -1.5600    -5.1320    -0.9390 C.2   1 <1>   0.9060 
 13 C       -4.0320    -6.4720    -0.4450 C.3   1 <1>   0.1100 
 14 C       -5.3740    -4.4770    -0.8860 C.3   1 <1>   0.1100 
 15 O       -1.1040    -5.5680    -2.0060 O.co2 1 <1>  -0.9000 
 16 O       -1.0380    -5.4200     0.1500 O.co2 1 <1>  -0.9000 
 17 C       -5.2310    -7.1380     0.2460 C.3   1 <1>   0.3430 
 18 C       -6.5770    -5.1320    -0.1850 C.3   1 <1>   0.3430 
 19 N       -6.5500    -6.6390    -0.2940 N.4   1 <1>  -0.9590 
 20 C       -7.7290    -7.3000     0.3400 C.3   1 <1>   0.4230 
 21 C       -7.6410    -8.8240     0.1600 C.3   1 <1>  -0.1600 
 22 C       -9.0310    -6.7620    -0.2720 C.3   1 <1>  -0.1600 
 23 C       -8.9440    -9.5030     0.5830 C.3   1 <1>   0.1200 
 24 C      -10.2340    -7.5890     0.1820 C.3   1 <1>   0.1200 
 25 O       -9.9870    -8.9200    -0.1230 O.3   1 <1>  -0.5600 
 26 H       -2.5390    -3.5170     1.5640 H     1 <1>   0.1500 
 27 H       -2.8450     0.2700    -1.5770 H     1 <1>   0.1500 
 28 H       -2.3890     2.9690     0.8350 H     1 <1>   0.0800 
 29 H       -3.4140     2.1770    -0.3560 H     1 <1>   0.0800 
 30 H       -1.6490     2.0280    -0.4570 H     1 <1>   0.0800 
 31 H       -2.9820    -2.0070    -2.3980 H     1 <1>   0.1500 
 32 H       -3.1100    -4.2920    -2.0560 H     1 <1>   0.0800 
 33 H       -3.1420    -6.8180     0.0560 H     1 <1>   0.0800 
 34 H       -3.9700    -6.7800    -1.4750 H     1 <1>   0.0800 
 35 H       -5.4270    -4.6490    -1.9480 H     1 <1>   0.0800 
 36 H       -5.4120    -3.4130    -0.7180 H     1 <1>   0.0800 
 37 H       -5.1650    -6.9280     1.3010 H     1 <1>   0.0800 
 38 H       -5.1470    -8.2020     0.1110 H     1 <1>   0.0800 
 39 H       -7.4780    -4.7430    -0.6250 H     1 <1>   0.0800 
 40 H       -6.5570    -4.8430     0.8530 H     1 <1>   0.0800 
 41 H       -6.5590    -6.8670    -1.2950 H     1 <1>   0.4500 
 42 H       -7.7350    -7.0840     1.3970 H     1 <1>   0.0800 
 43 H       -6.8510    -9.2350     0.7610 H     1 <1>   0.0800 
 44 H       -7.4580    -9.0700    -0.8710 H     1 <1>   0.0800 
 45 H       -8.9860    -6.8050    -1.3460 H     1 <1>   0.0800 
 46 H       -9.2030    -5.7460     0.0300 H     1 <1>   0.0800 
 47 H       -9.1350    -9.3980     1.6380 H     1 <1>   0.0800 
 48 H       -8.9260   -10.5510     0.3340 H     1 <1>   0.0800 
 49 H      -11.1230    -7.2920    -0.3490 H     1 <1>   0.0800 
 50 H      -10.4140    -7.5000     1.2410 H     1 <1>   0.0800 
@<TRIPOS>BOND
  1   1   2  1   
  2   2   3  ar  
  3   2   4  ar  
  4   3   5  1   
  5   3   6  ar  
  6   4   7  ar  
  7   4  26  1   
  8   5   8  1   
  9   6   9  ar  
 10   6  27  1   
 11   7   9  ar  
 12   7  10  1   
 13   8  28  1   
 14   8  29  1   
 15   8  30  1   
 16   9  31  1   
 17  10  11  1   
 18  10  12  1   
 19  10  32  1   
 20  11  13  1   
 21  11  14  1   
 22  12  15  ar  
 23  12  16  ar  
 24  13  17  1   
 25  13  33  1   
 26  13  34  1   
 27  14  18  1   
 28  14  35  1   
 29  14  36  1   
 30  17  19  1   
 31  17  37  1   
 32  17  38  1   
 33  18  19  1   
 34  18  39  1   
 35  18  40  1   
 36  19  20  1   
 37  19  41  1   
 38  20  21  1   
 39  20  22  1   
 40  20  42  1   
 41  21  23  1   
 42  21  43  1   
 43  21  44  1   
 44  22  24  1   
 45  22  45  1   
 46  22  46  1   
 47  23  25  1   
 48  23  47  1   
 49  23  48  1   
 50  24  25  1   
 51  24  49  1   
 52  24  50  1   
@<TRIPOS>SUBSTRUCTURE
  1 ****  11 GROUP 4 **** **** 0

# MOE 2024.06 (io_trps.svl 2023.06)
