@<TRIPOS>MOLECULE
NONAME
53 57 1 0 0 
SMALL
USER_CHARGES


@<TRIPOS>ATOM
  1 S        1.0040     0.2040     0.0820 S.3   1 <1>  -0.0800 
  2 C       -0.1300    -0.7540    -0.8400 C.2   1 <1>  -0.0450 
  3 C        2.1560    -1.1030     0.0090 C.2   1 <1>   0.1980 
  4 C        0.4750    -1.9320    -1.1170 C.2   1 <1>   0.0460 
  5 C       -1.4240    -0.1970    -1.1320 C.2   1 <1>   0.7150 
  6 N        1.7490    -2.1250    -0.6270 N.2   1 <1>  -0.5650 
  7 C        3.4880    -0.8980     0.6910 C.3   1 <1>  -0.0600 
  8 C       -0.1010    -3.0710    -1.9330 C.3   1 <1>  -0.0590 
  9 O       -1.5100     0.8840    -1.6860 O.2   1 <1>  -0.5700 
 10 N       -2.5810    -0.8650    -0.7860 N.am  1 <1>  -0.6600 
 11 C       -3.9280    -0.3570    -1.1930 C.3   1 <1>   0.1400 
 12 C       -2.6010    -1.9530     0.2410 C.3   1 <1>   0.1400 
 13 C       -4.6800     0.2540     0.0120 C.3   1 <1>   0.1430 
 14 C       -3.9060    -1.9490     1.0580 C.3   1 <1>  -0.1600 
 15 C       -6.1580     0.2760    -0.3400 C.ar  1 <1>   0.1670 
 16 C       -4.3910    -0.5150     1.3290 C.3   1 <1>  -0.1600 
 17 C       -4.3660     1.7650     0.1710 C.3   1 <1>  -0.1600 
 18 N       -6.9570    -0.7640    -0.3430 N.ar  1 <1>  -0.6200 
 19 C       -6.5730     1.5270    -0.6790 C.ar  1 <1>  -0.1440 
 20 C       -5.4500     2.5300    -0.6070 C.3   1 <1>  -0.0170 
 21 C       -8.2300    -0.5240    -0.6880 C.ar  1 <1>   0.6200 
 22 C       -7.8880     1.6910    -1.0260 C.ar  1 <1>   0.1600 
 23 N       -8.7220     0.6760    -1.0320 N.ar  1 <1>  -0.6200 
 24 C       -9.1480    -1.6550    -0.6900 C.ar  1 <1>   0.0000 
 25 C      -10.5170    -1.4880    -0.4570 C.ar  1 <1>  -0.1500 
 26 C       -8.7060    -2.9600    -0.9250 C.ar  1 <1>  -0.1500 
 27 C      -11.3930    -2.5590    -0.4570 C.ar  1 <1>  -0.1500 
 28 C       -9.5750    -4.0360    -0.9260 C.ar  1 <1>  -0.1500 
 29 C      -10.9230    -3.8380    -0.6910 C.ar  1 <1>  -0.1500 
 30 H        3.9930    -0.0560     0.2550 H     1 <1>   0.0800 
 31 H        4.0970    -1.7750     0.5670 H     1 <1>   0.0800 
 32 H        3.3380    -0.7200     1.7390 H     1 <1>   0.0800 
 33 H       -1.0680    -2.8150    -2.3230 H     1 <1>   0.0800 
 34 H       -0.1850    -3.9490    -1.3200 H     1 <1>   0.0800 
 35 H        0.5560    -3.2870    -2.7560 H     1 <1>   0.0800 
 36 H       -4.4930    -1.1870    -1.5790 H     1 <1>   0.0800 
 37 H       -3.8470     0.3660    -1.9870 H     1 <1>   0.0800 
 38 H       -1.7730    -1.8150     0.9160 H     1 <1>   0.0800 
 39 H       -2.4840    -2.9080    -0.2420 H     1 <1>   0.0800 
 40 H       -3.7430    -2.4650     1.9870 H     1 <1>   0.0800 
 41 H       -4.6680    -2.4890     0.5220 H     1 <1>   0.0800 
 42 H       -5.2730    -0.5330     1.9460 H     1 <1>   0.0800 
 43 H       -3.6170    -0.0100     1.8800 H     1 <1>   0.0800 
 44 H       -3.3760     2.0180    -0.1660 H     1 <1>   0.0800 
 45 H       -4.4510     2.0420     1.2070 H     1 <1>   0.0800 
 46 H       -5.1080     2.7670    -1.6000 H     1 <1>   0.0800 
 47 H       -5.7450     3.4300    -0.0950 H     1 <1>   0.0800 
 48 H       -8.2630     2.6620    -1.3020 H     1 <1>   0.1500 
 49 H      -10.9010    -0.5000    -0.2710 H     1 <1>   0.1500 
 50 H       -7.6610    -3.1350    -1.1100 H     1 <1>   0.1500 
 51 H      -12.4400    -2.3960    -0.2730 H     1 <1>   0.1500 
 52 H       -9.2030    -5.0290    -1.1090 H     1 <1>   0.1500 
 53 H      -11.6020    -4.6720    -0.6910 H     1 <1>   0.1500 
@<TRIPOS>BOND
  1   1   2  1   
  2   1   3  1   
  3   2   4  2   
  4   2   5  1   
  5   3   6  2   
  6   3   7  1   
  7   4   6  1   
  8   4   8  1   
  9   5   9  2   
 10   5  10  am  
 11   7  30  1   
 12   7  31  1   
 13   7  32  1   
 14   8  33  1   
 15   8  34  1   
 16   8  35  1   
 17  10  11  1   
 18  10  12  1   
 19  11  13  1   
 20  11  36  1   
 21  11  37  1   
 22  12  14  1   
 23  12  38  1   
 24  12  39  1   
 25  13  15  1   
 26  13  16  1   
 27  13  17  1   
 28  14  16  1   
 29  14  40  1   
 30  14  41  1   
 31  15  18  ar  
 32  15  19  ar  
 33  16  42  1   
 34  16  43  1   
 35  17  20  1   
 36  17  44  1   
 37  17  45  1   
 38  18  21  ar  
 39  19  20  1   
 40  19  22  ar  
 41  20  46  1   
 42  20  47  1   
 43  21  23  ar  
 44  21  24  1   
 45  22  23  ar  
 46  22  48  1   
 47  24  25  ar  
 48  24  26  ar  
 49  25  27  ar  
 50  25  49  1   
 51  26  28  ar  
 52  26  50  1   
 53  27  29  ar  
 54  27  51  1   
 55  28  29  ar  
 56  28  52  1   
 57  29  53  1   
@<TRIPOS>SUBSTRUCTURE
  1 ****  11 GROUP 4 **** **** 0

# MOE 2024.06 (io_trps.svl 2023.06)
