@<TRIPOS>MOLECULE
NONAME
57 60 1 0 0 
SMALL
USER_CHARGES


@<TRIPOS>ATOM
  1 O        0.6850     3.5240     1.8340 O.2   1 <1>  -0.5700 
  2 C        0.3740     3.5400     0.6560 C.2   1 <1>   0.5440 
  3 N       -0.7100     4.2900     0.2560 N.am  1 <1>  -0.6600 
  4 C        1.0900     2.6880    -0.2630 C.ar  1 <1>   0.0860 
  5 C       -1.4880     4.0010    -0.9750 C.3   1 <1>   0.1400 
  6 C       -1.4300     5.1970     1.1830 C.3   1 <1>   0.1400 
  7 C        0.7340     1.3380    -0.4270 C.ar  1 <1>   0.0530 
  8 C        2.1430     3.2120    -1.0120 C.ar  1 <1>  -0.1500 
  9 C       -2.7750     3.2750    -0.5700 C.3   1 <1>  -0.1600 
 10 C       -2.7190     4.5070     1.6310 C.3   1 <1>  -0.1600 
 11 C       -0.3520     0.7290     0.3070 C.2   1 <1>   0.1330 
 12 C        1.4460     0.5740    -1.3520 C.ar  1 <1>  -0.1500 
 13 C        2.8370     2.4340    -1.9170 C.ar  1 <1>  -0.1500 
 14 C       -3.6180     4.0780     0.4480 C.3   1 <1>   0.2800 
 15 N       -1.2170    -0.1140    -0.1830 N.2   1 <1>  -0.3380 
 16 N       -0.6380     0.9690     1.5940 N.pl3 1 <1>   0.0330 
 17 C        2.4850     1.1080    -2.0880 C.ar  1 <1>  -0.1500 
 18 O       -4.0300     5.2320    -0.2460 O.3   1 <1>  -0.5600 
 19 C       -4.8640     3.3060     0.9920 C.3   1 <1>   0.2000 
 20 N       -2.0860    -0.4130     0.7810 N.2   1 <1>  -0.3380 
 21 C       -1.7240     0.2430     1.8290 C.2   1 <1>   0.0360 
 22 C       -5.1480     5.9140     0.2420 C.3   1 <1>   0.1200 
 23 O       -4.6090     1.9460     1.2380 O.3   1 <1>  -0.6800 
 24 C       -6.1540     3.5340     0.1550 C.3   1 <1>   0.3000 
 25 C       -6.4160     5.0550     0.0920 C.3   1 <1>  -0.1600 
 26 N       -7.2540     2.8300     0.8540 N.am  1 <1>  -0.7300 
 27 C       -6.0770     2.9310    -1.2580 C.3   1 <1>  -0.2400 
 28 C       -8.6060     2.9010     0.8310 C.2   1 <1>   0.5690 
 29 O       -9.2450     2.1650     1.5360 O.2   1 <1>  -0.5700 
 30 C       -9.3650     3.8720    -0.0420 C.3   1 <1>  -0.1790 
 31 H       -1.7280     4.9280    -1.4700 H     1 <1>   0.0800 
 32 H       -0.9240     3.3940    -1.6610 H     1 <1>   0.0800 
 33 H       -0.8160     5.4310     2.0370 H     1 <1>   0.0800 
 34 H       -1.6590     6.1170     0.6730 H     1 <1>   0.0800 
 35 H        2.4140     4.2450    -0.8780 H     1 <1>   0.1500 
 36 H       -2.4990     2.3320    -0.1470 H     1 <1>   0.0800 
 37 H       -3.3380     3.0660    -1.4560 H     1 <1>   0.0800 
 38 H       -3.2550     5.1580     2.2960 H     1 <1>   0.0800 
 39 H       -2.4490     3.6350     2.1980 H     1 <1>   0.0800 
 40 H        1.1740    -0.4590    -1.4920 H     1 <1>   0.1500 
 41 H        3.6480     2.8550    -2.4870 H     1 <1>   0.1500 
 42 H       -0.1430     1.6270     2.2100 H     1 <1>   0.2700 
 43 H        3.0190     0.4940    -2.7940 H     1 <1>   0.1500 
 44 H       -5.0760     3.7170     1.9640 H     1 <1>   0.0800 
 45 H       -2.2330     0.2230     2.7760 H     1 <1>   0.1500 
 46 H       -4.9730     6.1670     1.2730 H     1 <1>   0.0800 
 47 H       -5.2460     6.8280    -0.3180 H     1 <1>   0.0800 
 48 H       -4.2960     1.4880     0.4300 H     1 <1>   0.4000 
 49 H       -7.0790     5.3470     0.8850 H     1 <1>   0.0800 
 50 H       -6.8920     5.3100    -0.8370 H     1 <1>   0.0800 
 51 H       -6.8880     2.0740     1.4420 H     1 <1>   0.3700 
 52 H       -5.4220     3.5110    -1.8800 H     1 <1>   0.0800 
 53 H       -7.0400     2.9300    -1.7290 H     1 <1>   0.0800 
 54 H       -5.7180     1.9180    -1.2230 H     1 <1>   0.0800 
 55 H       -8.9300     3.9340    -1.0190 H     1 <1>   0.0800 
 56 H       -9.3740     4.8420     0.4170 H     1 <1>   0.0800 
 57 H      -10.3810     3.5360    -0.1450 H     1 <1>   0.0800 
@<TRIPOS>BOND
  1   1   2  2   
  2   2   3  am  
  3   2   4  1   
  4   3   5  1   
  5   3   6  1   
  6   4   7  ar  
  7   4   8  ar  
  8   5   9  1   
  9   5  31  1   
 10   5  32  1   
 11   6  10  1   
 12   6  33  1   
 13   6  34  1   
 14   7  11  1   
 15   7  12  ar  
 16   8  13  ar  
 17   8  35  1   
 18   9  14  1   
 19   9  36  1   
 20   9  37  1   
 21  10  14  1   
 22  10  38  1   
 23  10  39  1   
 24  11  15  2   
 25  11  16  1   
 26  12  17  ar  
 27  12  40  1   
 28  13  17  ar  
 29  13  41  1   
 30  14  18  1   
 31  14  19  1   
 32  15  20  1   
 33  16  21  1   
 34  16  42  1   
 35  17  43  1   
 36  18  22  1   
 37  19  23  1   
 38  19  24  1   
 39  19  44  1   
 40  20  21  2   
 41  21  45  1   
 42  22  25  1   
 43  22  46  1   
 44  22  47  1   
 45  23  48  1   
 46  24  25  1   
 47  24  26  1   
 48  24  27  1   
 49  25  49  1   
 50  25  50  1   
 51  26  28  am  
 52  26  51  1   
 53  27  52  1   
 54  27  53  1   
 55  27  54  1   
 56  28  29  2   
 57  28  30  1   
 58  30  55  1   
 59  30  56  1   
 60  30  57  1   
@<TRIPOS>SUBSTRUCTURE
  1 ****   9 GROUP 4 **** **** 0

# MOE 2024.06 (io_trps.svl 2023.06)
