@<TRIPOS>MOLECULE
NONAME
54 56 1 0 0 
SMALL
USER_CHARGES


@<TRIPOS>ATOM
  1 F       -0.2400    -0.9170    -0.9820 F     1 <1>  -0.1900 
  2 C       -0.7830    -2.0220    -0.5370 C.ar  1 <1>   0.1900 
  3 C       -0.1520    -2.8270     0.4180 C.ar  1 <1>   0.0830 
  4 C       -2.0130    -2.3590    -1.0660 C.ar  1 <1>  -0.1500 
  5 O        1.0570    -2.6010     1.0120 O.3   1 <1>  -0.3630 
  6 C       -0.8060    -3.9810     0.8180 C.ar  1 <1>  -0.1500 
  7 C       -2.6350    -3.5200    -0.6450 C.ar  1 <1>  -0.1500 
  8 C        1.8110    -1.4290     0.7980 C.3   1 <1>   0.0400 
  9 C       -2.0510    -4.3560     0.3070 C.ar  1 <1>   0.0530 
 10 C       -2.6830    -5.5790     0.7440 C.2   1 <1>   0.0870 
 11 O       -1.9250    -6.6120     1.0400 O.3   1 <1>  -0.0190 
 12 C       -3.9720    -5.9760     0.9240 C.2   1 <1>  -0.2330 
 13 N       -2.6110    -7.6660     1.3970 N.2   1 <1>  -0.4100 
 14 C       -3.8390    -7.2970     1.3460 C.2   1 <1>   0.3720 
 15 C       -5.2340    -5.3170     0.7480 C.2   1 <1>   1.0330 
 16 N       -4.9070    -8.1240     1.6480 N.pl3 1 <1>  -0.8520 
 17 O       -5.3150    -4.0870     0.6310 O.co2 1 <1>  -0.9000 
 18 O       -6.2880    -5.9850     0.6880 O.co2 1 <1>  -0.9000 
 19 C       -5.0910    -9.2000     0.6710 C.3   1 <1>   0.2090 
 20 C       -6.4600    -9.8610     0.8780 C.3   1 <1>  -0.0800 
 21 C       -6.6190   -10.9790    -0.1560 C.3   1 <1>   0.3430 
 22 C       -7.6210    -8.8520     0.7750 C.3   1 <1>  -0.1600 
 23 N       -7.9510   -11.6610    -0.0220 N.4   1 <1>  -0.9590 
 24 C       -8.9770    -9.5620     0.7960 C.3   1 <1>  -0.1600 
 25 C       -8.0750   -12.8720    -0.8840 C.3   1 <1>   0.4230 
 26 C       -9.0480   -10.6680    -0.2540 C.3   1 <1>   0.3430 
 27 C       -9.4200   -13.5570    -0.6300 C.3   1 <1>  -0.2400 
 28 C       -6.9510   -13.8610    -0.5660 C.3   1 <1>  -0.2400 
 29 H       -2.4820    -1.7230    -1.7940 H     1 <1>   0.1500 
 30 H       -0.3350    -4.6070     1.5540 H     1 <1>   0.1500 
 31 H       -3.5950    -3.7800    -1.0570 H     1 <1>   0.1500 
 32 H        2.6850    -1.4760     1.4220 H     1 <1>   0.0800 
 33 H        1.2150    -0.5750     1.0690 H     1 <1>   0.0800 
 34 H        2.1030    -1.3850    -0.2360 H     1 <1>   0.0800 
 35 H       -5.7360    -7.4940     1.5650 H     1 <1>   0.4000 
 36 H       -4.2980    -9.9190     0.7990 H     1 <1>   0.0800 
 37 H       -5.0230    -8.7840    -0.3220 H     1 <1>   0.0800 
 38 H       -6.4590   -10.3020     1.8600 H     1 <1>   0.0800 
 39 H       -5.8210   -11.6860    -0.0090 H     1 <1>   0.0800 
 40 H       -6.5240   -10.5620    -1.1460 H     1 <1>   0.0800 
 41 H       -7.5270    -8.2790    -0.1340 H     1 <1>   0.0800 
 42 H       -7.5820    -8.1520     1.5930 H     1 <1>   0.0800 
 43 H       -8.0310   -11.9710     0.9530 H     1 <1>   0.4500 
 44 H       -9.7510    -8.8390     0.6020 H     1 <1>   0.0800 
 45 H       -9.1600    -9.9760     1.7720 H     1 <1>   0.0800 
 46 H       -8.0130   -12.5900    -1.9240 H     1 <1>   0.0800 
 47 H      -10.0110   -11.1430    -0.1820 H     1 <1>   0.0800 
 48 H       -8.9530   -10.2370    -1.2380 H     1 <1>   0.0800 
 49 H       -9.5610   -13.7600     0.4170 H     1 <1>   0.0800 
 50 H       -9.4530   -14.4960    -1.1560 H     1 <1>   0.0800 
 51 H      -10.2390   -12.9710    -1.0010 H     1 <1>   0.0800 
 52 H       -6.9150   -14.0820     0.4860 H     1 <1>   0.0800 
 53 H       -5.9970   -13.4950    -0.8950 H     1 <1>   0.0800 
 54 H       -7.1210   -14.7840    -1.0920 H     1 <1>   0.0800 
@<TRIPOS>BOND
  1   1   2  1   
  2   2   3  ar  
  3   2   4  ar  
  4   3   5  1   
  5   3   6  ar  
  6   4   7  ar  
  7   4  29  1   
  8   5   8  1   
  9   6   9  ar  
 10   6  30  1   
 11   7   9  ar  
 12   7  31  1   
 13   8  32  1   
 14   8  33  1   
 15   8  34  1   
 16   9  10  1   
 17  10  11  1   
 18  10  12  2   
 19  11  13  1   
 20  12  14  1   
 21  12  15  1   
 22  13  14  2   
 23  14  16  1   
 24  15  17  ar  
 25  15  18  ar  
 26  16  19  1   
 27  16  35  1   
 28  19  20  1   
 29  19  36  1   
 30  19  37  1   
 31  20  21  1   
 32  20  22  1   
 33  20  38  1   
 34  21  23  1   
 35  21  39  1   
 36  21  40  1   
 37  22  24  1   
 38  22  41  1   
 39  22  42  1   
 40  23  25  1   
 41  23  26  1   
 42  23  43  1   
 43  24  26  1   
 44  24  44  1   
 45  24  45  1   
 46  25  27  1   
 47  25  28  1   
 48  25  46  1   
 49  26  47  1   
 50  26  48  1   
 51  27  49  1   
 52  27  50  1   
 53  27  51  1   
 54  28  52  1   
 55  28  53  1   
 56  28  54  1   
@<TRIPOS>SUBSTRUCTURE
  1 ****  12 GROUP 4 **** **** 0

# MOE 2024.06 (io_trps.svl 2023.06)
