@<TRIPOS>MOLECULE
NONAME
39 39 1 0 0 
SMALL
USER_CHARGES


@<TRIPOS>ATOM
  1 O        0.2570     0.4030     0.8800 O.2   1 <1>  -0.5700 
  2 C        0.0890     1.5970     0.7380 C.2   1 <1>   0.7800 
  3 O       -1.0440     2.0820     0.2280 O.3   1 <1>  -0.4300 
  4 N        1.0620     2.5080     1.0740 N.am  1 <1>  -0.6600 
  5 C       -2.1820     1.3500    -0.1780 C.3   1 <1>   0.2800 
  6 C        0.9140     3.9670     0.7840 C.3   1 <1>   0.1400 
  7 C        2.3110     2.0770     1.7580 C.3   1 <1>   0.1400 
  8 C       -2.7820     0.5980     1.0160 C.3   1 <1>  -0.2400 
  9 C       -3.1810     2.4010    -0.6640 C.3   1 <1>  -0.2400 
 10 C       -1.8280     0.4150    -1.3400 C.3   1 <1>  -0.2400 
 11 C        2.2710     4.6220     0.4540 C.3   1 <1>  -0.0800 
 12 C        3.5320     2.4530     0.9040 C.3   1 <1>  -0.1600 
 13 C        3.2040     3.5390    -0.1290 C.3   1 <1>   0.4230 
 14 C        2.8140     5.3690     1.6950 C.3   1 <1>   0.1200 
 15 N        4.4510     4.1350    -0.6290 N.4   1 <1>  -0.8530 
 16 O        4.0820     5.8780     1.4340 O.3   1 <1>  -0.6800 
 17 H        0.2610     4.0900    -0.0650 H     1 <1>   0.0800 
 18 H        0.4420     4.4510     1.6230 H     1 <1>   0.0800 
 19 H        2.3600     2.5630     2.7170 H     1 <1>   0.0800 
 20 H        2.3070     1.0140     1.9420 H     1 <1>   0.0800 
 21 H       -3.7220     0.1580     0.7360 H     1 <1>   0.0800 
 22 H       -2.9540     1.2720     1.8360 H     1 <1>   0.0800 
 23 H       -2.1370    -0.1970     1.3400 H     1 <1>   0.0800 
 24 H       -4.0880     1.9290    -0.9950 H     1 <1>   0.0800 
 25 H       -2.7700     2.9570    -1.4870 H     1 <1>   0.0800 
 26 H       -3.4260     3.0810     0.1330 H     1 <1>   0.0800 
 27 H       -2.7220    -0.0370    -1.7300 H     1 <1>   0.0800 
 28 H       -1.1810    -0.3790    -1.0170 H     1 <1>   0.0800 
 29 H       -1.3520     0.9630    -2.1320 H     1 <1>   0.0800 
 30 H        2.0770     5.3620    -0.3020 H     1 <1>   0.0800 
 31 H        3.8640     1.5690     0.3890 H     1 <1>   0.0800 
 32 H        4.3170     2.7680     1.5680 H     1 <1>   0.0800 
 33 H        2.6850     3.0630    -0.9480 H     1 <1>   0.0800 
 34 H        2.8850     4.7230     2.5530 H     1 <1>   0.0800 
 35 H        2.1680     6.1960     1.9410 H     1 <1>   0.0800 
 36 H        4.7410     4.8310     0.0840 H     1 <1>   0.4500 
 37 H        4.3010     4.6460    -1.5020 H     1 <1>   0.4500 
 38 H        5.1920     3.4410    -0.7500 H     1 <1>   0.4500 
 39 H        4.3470     6.5010     2.1510 H     1 <1>   0.4000 
@<TRIPOS>BOND
  1   1   2  2   
  2   2   3  1   
  3   2   4  am  
  4   3   5  1   
  5   4   6  1   
  6   4   7  1   
  7   5   8  1   
  8   5   9  1   
  9   5  10  1   
 10   6  11  1   
 11   6  17  1   
 12   6  18  1   
 13   7  12  1   
 14   7  19  1   
 15   7  20  1   
 16   8  21  1   
 17   8  22  1   
 18   8  23  1   
 19   9  24  1   
 20   9  25  1   
 21   9  26  1   
 22  10  27  1   
 23  10  28  1   
 24  10  29  1   
 25  11  13  1   
 26  11  14  1   
 27  11  30  1   
 28  12  13  1   
 29  12  31  1   
 30  12  32  1   
 31  13  15  1   
 32  13  33  1   
 33  14  16  1   
 34  14  34  1   
 35  14  35  1   
 36  15  36  1   
 37  15  37  1   
 38  15  38  1   
 39  16  39  1   
@<TRIPOS>SUBSTRUCTURE
  1 ****   4 GROUP 4 **** **** 0

# MOE 2024.06 (io_trps.svl 2023.06)
