@<TRIPOS>MOLECULE
NONAME
54 57 1 0 0 
SMALL
USER_CHARGES


@<TRIPOS>ATOM
  1 O       -1.9780     0.8870    -1.2840 O.2   1 <1>  -0.5700 
  2 C       -1.6210     0.9580    -0.1320 C.2   1 <1>   0.6300 
  3 N       -1.6800    -0.1130     0.6920 N.am  1 <1>  -0.7300 
  4 C       -1.0540     2.2650     0.4110 C.3   1 <1>  -0.1000 
  5 C       -2.0600    -1.4860     0.2950 C.3   1 <1>   0.2200 
  6 C       -1.3470     2.8440     1.7820 C.3   1 <1>  -0.1900 
  7 C       -1.8850     3.5190     0.5550 C.3   1 <1>  -0.1900 
  8 C       -3.5040    -1.8000     0.6610 C.3   1 <1>  -0.0800 
  9 C       -1.3290    -2.4730     1.1940 C.3   1 <1>   0.1200 
 10 C       -2.3150     2.1770     2.7750 C.3   1 <1>  -0.1450 
 11 C       -0.1590     3.4420     2.5540 C.3   1 <1>  -0.1450 
 12 C       -1.2800     4.8430     0.0610 C.3   1 <1>  -0.1450 
 13 C       -3.3820     3.4730     0.2020 C.3   1 <1>  -0.1450 
 14 C       -3.4030    -2.2100     2.1340 C.3   1 <1>   0.1200 
 15 C       -4.5310    -0.6860     0.3810 C.3   1 <1>  -0.0170 
 16 O       -2.0540    -2.4840     2.3860 O.3   1 <1>  -0.5600 
 17 C       -5.9490    -1.1610     0.6810 C.ar  1 <1>  -0.1440 
 18 C       -6.6730    -1.9900    -0.2080 C.ar  1 <1>   0.0000 
 19 C       -6.5620    -0.7940     1.8420 C.ar  1 <1>  -0.1500 
 20 C       -7.9720    -2.3970     0.1840 C.ar  1 <1>   0.3100 
 21 C       -6.1890    -2.4360    -1.4600 C.ar  1 <1>  -0.1500 
 22 C       -7.8560    -1.2450     2.1300 C.ar  1 <1>   0.1600 
 23 N       -8.5470    -2.0170     1.3530 N.ar  1 <1>  -0.6200 
 24 C       -8.7090    -3.2320    -0.6710 C.ar  1 <1>  -0.1500 
 25 C       -6.9340    -3.2480    -2.2710 C.ar  1 <1>  -0.1500 
 26 C       -8.2090    -3.6550    -1.8730 C.ar  1 <1>  -0.1500 
 27 H       -1.4210     0.0000     1.6740 H     1 <1>   0.3700 
 28 H       -0.0610     2.4010     0.0240 H     1 <1>   0.1000 
 29 H       -1.8510    -1.6480    -0.7500 H     1 <1>   0.0800 
 30 H       -3.7950    -2.6760     0.1090 H     1 <1>   0.0800 
 31 H       -0.3100    -2.1890     1.3880 H     1 <1>   0.0800 
 32 H       -1.3620    -3.4660     0.7780 H     1 <1>   0.0800 
 33 H       -1.7930     1.4560     3.3790 H     1 <1>   0.0800 
 34 H       -3.1220     1.6710     2.2860 H     1 <1>   0.0800 
 35 H       -2.7350     2.9240     3.4260 H     1 <1>   0.0800 
 36 H        0.2830     2.6980     3.1910 H     1 <1>   0.0800 
 37 H       -0.4950     4.2610     3.1650 H     1 <1>   0.0800 
 38 H        0.6100     3.8000     1.8960 H     1 <1>   0.0800 
 39 H       -1.5250     4.9960    -0.9750 H     1 <1>   0.0800 
 40 H       -0.2100     4.8550     0.1430 H     1 <1>   0.0800 
 41 H       -1.6770     5.6630     0.6330 H     1 <1>   0.0800 
 42 H       -3.5180     3.6690    -0.8470 H     1 <1>   0.0800 
 43 H       -3.9150     4.2210     0.7620 H     1 <1>   0.0800 
 44 H       -3.8240     2.5170     0.4030 H     1 <1>   0.0800 
 45 H       -3.9850    -3.0910     2.3430 H     1 <1>   0.0800 
 46 H       -3.7000    -1.4120     2.7910 H     1 <1>   0.0800 
 47 H       -4.4570    -0.3600    -0.6410 H     1 <1>   0.0800 
 48 H       -4.3120     0.1690     0.9920 H     1 <1>   0.0800 
 49 H       -6.0770    -0.1600     2.5610 H     1 <1>   0.1500 
 50 H       -5.2140    -2.1300    -1.7890 H     1 <1>   0.1500 
 51 H       -8.3030    -0.9320     3.0580 H     1 <1>   0.1500 
 52 H       -9.6880    -3.5300    -0.3450 H     1 <1>   0.1500 
 53 H       -6.5520    -3.5810    -3.2210 H     1 <1>   0.1500 
 54 H       -8.7860    -4.2950    -2.5180 H     1 <1>   0.1500 
@<TRIPOS>BOND
  1   1   2  2   
  2   2   3  am  
  3   2   4  1   
  4   3   5  1   
  5   3  27  1   
  6   4   6  1   
  7   4   7  1   
  8   4  28  1   
  9   5   8  1   
 10   5   9  1   
 11   5  29  1   
 12   6   7  1   
 13   6  10  1   
 14   6  11  1   
 15   7  12  1   
 16   7  13  1   
 17   8  14  1   
 18   8  15  1   
 19   8  30  1   
 20   9  16  1   
 21   9  31  1   
 22   9  32  1   
 23  10  33  1   
 24  10  34  1   
 25  10  35  1   
 26  11  36  1   
 27  11  37  1   
 28  11  38  1   
 29  12  39  1   
 30  12  40  1   
 31  12  41  1   
 32  13  42  1   
 33  13  43  1   
 34  13  44  1   
 35  14  16  1   
 36  14  45  1   
 37  14  46  1   
 38  15  17  1   
 39  15  47  1   
 40  15  48  1   
 41  17  18  ar  
 42  17  19  ar  
 43  18  20  ar  
 44  18  21  ar  
 45  19  22  ar  
 46  19  49  1   
 47  20  23  ar  
 48  20  24  ar  
 49  21  25  ar  
 50  21  50  1   
 51  22  23  ar  
 52  22  51  1   
 53  24  26  ar  
 54  24  52  1   
 55  25  26  ar  
 56  25  53  1   
 57  26  54  1   
@<TRIPOS>SUBSTRUCTURE
  1 ****  15 GROUP 4 **** **** 0

# MOE 2024.06 (io_trps.svl 2023.06)
