@<TRIPOS>MOLECULE
NONAME
51 54 1 0 0 
SMALL
USER_CHARGES


@<TRIPOS>ATOM
  1 O       -3.5690     2.5960     1.8570 O.2   1 <1>  -0.5700 
  2 C       -3.3840     2.1100     0.7640 C.2   1 <1>   0.5690 
  3 N       -4.2890     1.2250     0.2210 N.am  1 <1>  -0.6600 
  4 C       -2.1050     2.4970     0.0060 C.3   1 <1>  -0.0190 
  5 C       -5.5290     0.8440     0.9540 C.3   1 <1>   0.1400 
  6 C       -4.1410     0.4990    -1.0710 C.3   1 <1>   0.1400 
  7 C       -1.0000     1.4380     0.0870 C.3   1 <1>  -0.1600 
  8 C       -1.3960     3.7640     0.4980 C.3   1 <1>  -0.1600 
  9 C       -5.4800    -0.6530     1.2680 C.3   1 <1>  -0.1600 
 10 C       -4.0660    -1.0030    -0.7880 C.3   1 <1>  -0.1600 
 11 C        0.3040     2.1720    -0.2420 C.3   1 <1>  -0.1600 
 12 C        0.0130     3.6700    -0.0870 C.3   1 <1>  -0.1600 
 13 C       -5.2900    -1.4990    -0.0030 C.3   1 <1>   0.4240 
 14 O       -6.3880    -1.2660    -0.8530 O.3   1 <1>  -0.5600 
 15 C       -5.1360    -2.9980     0.3390 C.ar  1 <1>  -0.1440 
 16 C       -7.5460    -2.0080    -0.6270 C.3   1 <1>   0.1200 
 17 C       -6.0650    -3.9360    -0.1010 C.ar  1 <1>  -0.1440 
 18 C       -4.0620    -3.4380     1.1040 C.ar  1 <1>  -0.1500 
 19 C       -7.2550    -3.4760    -0.9200 C.3   1 <1>  -0.0170 
 20 C       -5.9150    -5.2790     0.2050 C.ar  1 <1>  -0.1500 
 21 C       -3.9120    -4.7780     1.4130 C.ar  1 <1>  -0.1500 
 22 C       -4.8320    -5.7080     0.9650 C.ar  1 <1>   0.0820 
 23 O       -4.6110    -7.0020     1.3090 O.3   1 <1>  -0.3620 
 24 C       -5.4770    -8.0310     0.8850 C.3   1 <1>   0.0400 
 25 H       -2.3550     2.6670    -1.0250 H     1 <1>   0.0800 
 26 H       -6.3840     1.0660     0.3400 H     1 <1>   0.0800 
 27 H       -5.6230     1.4030     1.8690 H     1 <1>   0.0800 
 28 H       -3.2630     0.8070    -1.6050 H     1 <1>   0.0800 
 29 H       -4.9950     0.7130    -1.6930 H     1 <1>   0.0800 
 30 H       -1.1740     0.6140    -0.5810 H     1 <1>   0.0800 
 31 H       -0.9500     1.0640     1.0960 H     1 <1>   0.0800 
 32 H       -1.3290     3.7520     1.5730 H     1 <1>   0.0800 
 33 H       -1.9090     4.6580     0.1900 H     1 <1>   0.0800 
 34 H       -6.3740    -0.9500     1.7820 H     1 <1>   0.0800 
 35 H       -4.6600    -0.8210     1.9410 H     1 <1>   0.0800 
 36 H       -3.1670    -1.1960    -0.2350 H     1 <1>   0.0800 
 37 H       -4.0010    -1.5470    -1.7130 H     1 <1>   0.0800 
 38 H        0.6080     1.9630    -1.2540 H     1 <1>   0.0800 
 39 H        1.0880     1.8610     0.4270 H     1 <1>   0.0800 
 40 H        0.7330     4.1520     0.5520 H     1 <1>   0.0800 
 41 H        0.0330     4.1410    -1.0540 H     1 <1>   0.0800 
 42 H       -8.3100    -1.6360    -1.2870 H     1 <1>   0.0800 
 43 H       -7.8630    -1.8710     0.3920 H     1 <1>   0.0800 
 44 H       -3.3280    -2.7420     1.4700 H     1 <1>   0.1500 
 45 H       -7.0430    -3.5970    -1.9680 H     1 <1>   0.0800 
 46 H       -8.1220    -4.0630    -0.6800 H     1 <1>   0.0800 
 47 H       -6.6450    -5.9780    -0.1540 H     1 <1>   0.1500 
 48 H       -3.0780    -5.1110     2.0030 H     1 <1>   0.1500 
 49 H       -5.0990    -8.9620     1.2660 H     1 <1>   0.0800 
 50 H       -5.4920    -8.0540    -0.1900 H     1 <1>   0.0800 
 51 H       -6.4590    -7.8450     1.2820 H     1 <1>   0.0800 
@<TRIPOS>BOND
  1   1   2  2   
  2   2   3  am  
  3   2   4  1   
  4   3   5  1   
  5   3   6  1   
  6   4   7  1   
  7   4   8  1   
  8   4  25  1   
  9   5   9  1   
 10   5  26  1   
 11   5  27  1   
 12   6  10  1   
 13   6  28  1   
 14   6  29  1   
 15   7  11  1   
 16   7  30  1   
 17   7  31  1   
 18   8  12  1   
 19   8  32  1   
 20   8  33  1   
 21   9  13  1   
 22   9  34  1   
 23   9  35  1   
 24  10  13  1   
 25  10  36  1   
 26  10  37  1   
 27  11  12  1   
 28  11  38  1   
 29  11  39  1   
 30  12  40  1   
 31  12  41  1   
 32  13  14  1   
 33  13  15  1   
 34  14  16  1   
 35  15  17  ar  
 36  15  18  ar  
 37  16  19  1   
 38  16  42  1   
 39  16  43  1   
 40  17  19  1   
 41  17  20  ar  
 42  18  21  ar  
 43  18  44  1   
 44  19  45  1   
 45  19  46  1   
 46  20  22  ar  
 47  20  47  1   
 48  21  22  ar  
 49  21  48  1   
 50  22  23  1   
 51  23  24  1   
 52  24  49  1   
 53  24  50  1   
 54  24  51  1   
@<TRIPOS>SUBSTRUCTURE
  1 ****  10 GROUP 4 **** **** 0

# MOE 2024.06 (io_trps.svl 2023.06)
