@<TRIPOS>MOLECULE
NONAME
42 43 1 0 0 
SMALL
USER_CHARGES


@<TRIPOS>ATOM
  1 O       -1.0150     0.2160    -2.1740 O.2   1 <1>  -0.5700 
  2 C       -1.3680     0.4550    -1.0640 C.2   1 <1>   0.4480 
  3 C       -1.6860    -0.5150    -0.0180 C.3   1 <1>  -0.0190 
  4 C       -1.6230     1.8130    -0.4950 C.3   1 <1>  -0.0190 
  5 C       -3.2060    -0.2410     0.2660 C.3   1 <1>   0.3430 
  6 C       -0.6200    -0.1950     1.0870 C.3   1 <1>   0.3430 
  7 C       -2.9980     2.0410    -1.0910 C.3   1 <1>   0.3430 
  8 C       -0.1890     2.1470    -0.1560 C.3   1 <1>   0.3430 
  9 N       -3.8620     0.8260    -0.6700 N.4   1 <1>  -0.9590 
 10 N        0.2630     1.0810     0.8780 N.4   1 <1>  -0.9590 
 11 C       -5.2280     1.2560    -0.2550 C.3   1 <1>   0.4230 
 12 C        1.7000     0.6930     0.7100 C.3   1 <1>   0.4230 
 13 C       -5.2140     1.8850     1.1380 C.3   1 <1>  -0.2400 
 14 C       -6.1720     0.0590    -0.3080 C.3   1 <1>  -0.2400 
 15 C        2.5860     1.9210     0.8920 C.3   1 <1>  -0.2400 
 16 C        1.9620     0.0190    -0.6380 C.3   1 <1>  -0.2400 
 17 H       -1.5550    -1.5190    -0.3800 H     1 <1>   0.0800 
 18 H       -1.9660     1.8700     0.5230 H     1 <1>   0.0800 
 19 H       -3.3050     0.0840     1.2880 H     1 <1>   0.0800 
 20 H       -3.7490    -1.1690     0.1770 H     1 <1>   0.0800 
 21 H        0.0340    -1.0500     1.1670 H     1 <1>   0.0800 
 22 H       -1.1270    -0.1160     2.0360 H     1 <1>   0.0800 
 23 H       -2.9360     2.1020    -2.1680 H     1 <1>   0.0800 
 24 H       -3.4200     2.9600    -0.7160 H     1 <1>   0.0800 
 25 H       -0.1100     3.1380     0.2630 H     1 <1>   0.0800 
 26 H        0.4150     2.1030    -1.0500 H     1 <1>   0.0800 
 27 H       -4.0380     0.3240    -1.5590 H     1 <1>   0.4500 
 28 H        0.2770     1.5670     1.7880 H     1 <1>   0.4500 
 29 H       -5.5890     1.9920    -0.9580 H     1 <1>   0.0800 
 30 H        1.9580    -0.0110     1.4870 H     1 <1>   0.0800 
 31 H       -4.9750     1.1680     1.9020 H     1 <1>   0.0800 
 32 H       -6.1980     2.2640     1.3570 H     1 <1>   0.0800 
 33 H       -4.5350     2.7150     1.1900 H     1 <1>   0.0800 
 34 H       -5.9290    -0.6820     0.4310 H     1 <1>   0.0800 
 35 H       -6.1690    -0.3900    -1.2860 H     1 <1>   0.0800 
 36 H       -7.1760     0.3920    -0.1110 H     1 <1>   0.0800 
 37 H        2.4670     2.6290     0.0920 H     1 <1>   0.0800 
 38 H        3.6180     1.6140     0.8940 H     1 <1>   0.0800 
 39 H        2.3930     2.4010     1.8350 H     1 <1>   0.0800 
 40 H        1.8020     0.6850    -1.4660 H     1 <1>   0.0800 
 41 H        1.3590    -0.8600    -0.7670 H     1 <1>   0.0800 
 42 H        2.9910    -0.2940    -0.6790 H     1 <1>   0.0800 
@<TRIPOS>BOND
  1   1   2  2   
  2   2   3  1   
  3   2   4  1   
  4   3   5  1   
  5   3   6  1   
  6   3  17  1   
  7   4   7  1   
  8   4   8  1   
  9   4  18  1   
 10   5   9  1   
 11   5  19  1   
 12   5  20  1   
 13   6  10  1   
 14   6  21  1   
 15   6  22  1   
 16   7   9  1   
 17   7  23  1   
 18   7  24  1   
 19   8  10  1   
 20   8  25  1   
 21   8  26  1   
 22   9  11  1   
 23   9  27  1   
 24  10  12  1   
 25  10  28  1   
 26  11  13  1   
 27  11  14  1   
 28  11  29  1   
 29  12  15  1   
 30  12  16  1   
 31  12  30  1   
 32  13  31  1   
 33  13  32  1   
 34  13  33  1   
 35  14  34  1   
 36  14  35  1   
 37  14  36  1   
 38  15  37  1   
 39  15  38  1   
 40  15  39  1   
 41  16  40  1   
 42  16  41  1   
 43  16  42  1   
@<TRIPOS>SUBSTRUCTURE
  1 ****   4 GROUP 4 **** **** 0

# MOE 2024.06 (io_trps.svl 2023.06)
