@<TRIPOS>MOLECULE
NONAME
44 46 1 0 0 
SMALL
USER_CHARGES


@<TRIPOS>ATOM
  1 S       -0.2510     0.0210     0.3140 S.o2  1 <1>   1.3330 
  2 O       -0.9340     1.2920     0.2450 O.2   1 <1>  -0.6500 
  3 O       -0.1350    -0.6570     1.5860 O.2   1 <1>  -0.6500 
  4 N       -0.9990    -1.0470    -0.7740 N.am  1 <1>  -0.8490 
  5 C        1.3750     0.2360    -0.4100 C.3   1 <1>  -0.0550 
  6 C       -0.6970    -2.4570    -0.5080 C.3   1 <1>   0.1160 
  7 C       -2.4510    -0.8510    -0.8360 C.3   1 <1>   0.1160 
  8 C        2.2530     1.2580     0.3410 C.3   1 <1>  -0.0800 
  9 C        3.5160     1.5740    -0.4410 C.3   1 <1>   0.2200 
 10 C        2.8180     0.6850     1.6460 C.3   1 <1>   0.1200 
 11 N        4.0250     2.8990    -0.0190 N.am  1 <1>  -0.7300 
 12 C        4.4650     0.4830     0.0410 C.3   1 <1>   0.1200 
 13 O        4.0960     0.1990     1.3580 O.3   1 <1>  -0.5600 
 14 C        4.1490     3.9920    -0.8290 C.2   1 <1>   0.5440 
 15 O        3.8590     3.8720    -2.0030 O.2   1 <1>  -0.5700 
 16 C        4.6270     5.2580    -0.3030 C.ar  1 <1>   0.0860 
 17 C        5.2820     6.1710    -1.1380 C.ar  1 <1>  -0.1500 
 18 C        4.4480     5.6100     1.0470 C.ar  1 <1>  -0.1500 
 19 C        5.7350     7.3620    -0.6120 C.ar  1 <1>   0.0820 
 20 C        4.9100     6.8140     1.5620 C.ar  1 <1>  -0.1500 
 21 O        6.3800     8.3530    -1.2370 O.3   1 <1>  -0.3630 
 22 C        5.5560     7.6770     0.7020 C.ar  1 <1>   0.0820 
 23 C        6.6230     9.3640    -0.2610 C.3   1 <1>   0.4000 
 24 O        6.0790     8.8760     0.9640 O.3   1 <1>  -0.3630 
 25 H        1.8780    -0.7100    -0.4520 H     1 <1>   0.0800 
 26 H        1.2410     0.5810    -1.4180 H     1 <1>   0.0800 
 27 H       -1.1180    -3.0780    -1.2800 H     1 <1>   0.0800 
 28 H       -1.1040    -2.7570     0.4440 H     1 <1>   0.0800 
 29 H        0.3680    -2.6130    -0.4900 H     1 <1>   0.0800 
 30 H       -2.8900    -1.5320    -1.5450 H     1 <1>   0.0800 
 31 H       -2.6750     0.1540    -1.1540 H     1 <1>   0.0800 
 32 H       -2.8920    -1.0130     0.1340 H     1 <1>   0.0800 
 33 H        1.6740     2.1490     0.5180 H     1 <1>   0.0800 
 34 H        3.3750     1.5430    -1.5080 H     1 <1>   0.0800 
 35 H        2.2290    -0.1150     2.0590 H     1 <1>   0.0800 
 36 H        2.9260     1.4610     2.3850 H     1 <1>   0.0800 
 37 H        4.3970     2.9230     0.9320 H     1 <1>   0.3700 
 38 H        5.4960     0.7870     0.0090 H     1 <1>   0.0800 
 39 H        4.3330    -0.4160    -0.5350 H     1 <1>   0.0800 
 40 H        5.4330     5.9500    -2.1790 H     1 <1>   0.1500 
 41 H        3.9300     4.9360     1.7050 H     1 <1>   0.1500 
 42 H        4.7730     7.0820     2.5940 H     1 <1>   0.1500 
 43 H        7.6830     9.5140    -0.1510 H     1 <1>   0.0800 
 44 H        6.1180    10.2700    -0.5450 H     1 <1>   0.0800 
@<TRIPOS>BOND
  1   1   2  2   
  2   1   3  2   
  3   1   4  am  
  4   1   5  1   
  5   4   6  1   
  6   4   7  1   
  7   5   8  1   
  8   5  25  1   
  9   5  26  1   
 10   6  27  1   
 11   6  28  1   
 12   6  29  1   
 13   7  30  1   
 14   7  31  1   
 15   7  32  1   
 16   8   9  1   
 17   8  10  1   
 18   8  33  1   
 19   9  11  1   
 20   9  12  1   
 21   9  34  1   
 22  10  13  1   
 23  10  35  1   
 24  10  36  1   
 25  11  14  am  
 26  11  37  1   
 27  12  13  1   
 28  12  38  1   
 29  12  39  1   
 30  14  15  2   
 31  14  16  1   
 32  16  17  ar  
 33  16  18  ar  
 34  17  19  ar  
 35  17  40  1   
 36  18  20  ar  
 37  18  41  1   
 38  19  21  1   
 39  19  22  ar  
 40  20  22  ar  
 41  20  42  1   
 42  21  23  1   
 43  22  24  1   
 44  23  24  1   
 45  23  43  1   
 46  23  44  1   
@<TRIPOS>SUBSTRUCTURE
  1 ****  11 GROUP 4 **** **** 0

# MOE 2024.06 (io_trps.svl 2023.06)
