@<TRIPOS>MOLECULE
NONAME
44 46 1 0 0 
SMALL
USER_CHARGES


@<TRIPOS>ATOM
  1 O        0.8200    -0.2830    -1.2770 O.2   1 <1>  -0.5700 
  2 C       -0.0970     0.5010    -1.2100 C.2   1 <1>   0.5690 
  3 N       -1.3680     0.0790    -0.9200 N.am  1 <1>  -0.6600 
  4 C        0.2150     1.9730    -1.4540 C.3   1 <1>   0.0440 
  5 C       -2.5640     0.9300    -0.6890 C.3   1 <1>   0.1400 
  6 C       -1.6130    -1.2730    -0.3610 C.3   1 <1>   0.1400 
  7 C        0.0150     2.8550    -0.2220 C.ar  1 <1>  -0.1440 
  8 C       -3.3480     0.2210     0.4210 C.3   1 <1>   0.2000 
  9 C       -3.0600    -1.2590     0.1480 C.3   1 <1>  -0.0800 
 10 C       -0.4220     4.1610    -0.3300 C.ar  1 <1>  -0.1500 
 11 C        0.2380     2.3950     1.0620 C.ar  1 <1>  -0.1500 
 12 O       -2.8270     0.5540     1.6790 O.3   1 <1>  -0.5600 
 13 C       -3.2960    -2.1850     1.3550 C.3   1 <1>   0.0200 
 14 C       -0.6240     4.9130     0.8160 C.ar  1 <1>   0.1600 
 15 C        0.0040     3.2290     2.1410 C.ar  1 <1>   0.1600 
 16 C       -3.2250     1.7880     2.1940 C.3   1 <1>   0.0400 
 17 C       -3.1670    -3.6610     1.0140 C.2   1 <1>  -0.0400 
 18 N       -0.4320     4.4750     2.0490 N.ar  1 <1>  -0.6200 
 19 O       -3.2700    -4.5370     1.9780 O.3   1 <1>  -0.0190 
 20 C       -2.9620    -4.3360    -0.1290 C.2   1 <1>  -0.1500 
 21 N       -3.1430    -5.7580     1.5440 N.2   1 <1>  -0.4100 
 22 C       -2.9540    -5.6670     0.2770 C.2   1 <1>   0.1080 
 23 C       -2.7520    -6.8520    -0.6400 C.3   1 <1>  -0.0590 
 24 H        1.2380     2.0580    -1.7730 H     1 <1>   0.0800 
 25 H       -0.4060     2.3170    -2.2590 H     1 <1>   0.0800 
 26 H       -2.3180     1.9370    -0.4180 H     1 <1>   0.0800 
 27 H       -3.1510     0.9430    -1.5890 H     1 <1>   0.0800 
 28 H       -1.4560    -2.0250    -1.1150 H     1 <1>   0.0800 
 29 H       -0.9270    -1.4400     0.4530 H     1 <1>   0.0800 
 30 H       -4.4010     0.4440     0.4020 H     1 <1>   0.0800 
 31 H       -3.6970    -1.5720    -0.6590 H     1 <1>   0.0800 
 32 H       -0.6080     4.6020    -1.2920 H     1 <1>   0.1500 
 33 H        0.5860     1.3920     1.2390 H     1 <1>   0.1500 
 34 H       -4.2820    -2.0140     1.7470 H     1 <1>   0.0800 
 35 H       -2.5920    -1.9530     2.1360 H     1 <1>   0.0800 
 36 H       -0.9640     5.9290     0.7110 H     1 <1>   0.1500 
 37 H        0.1800     2.8460     3.1320 H     1 <1>   0.1500 
 38 H       -2.8040     1.8880     3.1790 H     1 <1>   0.0800 
 39 H       -4.2990     1.8210     2.2560 H     1 <1>   0.0800 
 40 H       -2.8530     2.5820     1.5710 H     1 <1>   0.0800 
 41 H       -2.8310    -3.9840    -1.1350 H     1 <1>   0.1500 
 42 H       -1.8100    -6.7630    -1.1480 H     1 <1>   0.0800 
 43 H       -3.5450    -6.8930    -1.3630 H     1 <1>   0.0800 
 44 H       -2.7540    -7.7620    -0.0680 H     1 <1>   0.0800 
@<TRIPOS>BOND
  1   1   2  2   
  2   2   3  am  
  3   2   4  1   
  4   3   5  1   
  5   3   6  1   
  6   4   7  1   
  7   4  24  1   
  8   4  25  1   
  9   5   8  1   
 10   5  26  1   
 11   5  27  1   
 12   6   9  1   
 13   6  28  1   
 14   6  29  1   
 15   7  10  ar  
 16   7  11  ar  
 17   8   9  1   
 18   8  12  1   
 19   8  30  1   
 20   9  13  1   
 21   9  31  1   
 22  10  14  ar  
 23  10  32  1   
 24  11  15  ar  
 25  11  33  1   
 26  12  16  1   
 27  13  17  1   
 28  13  34  1   
 29  13  35  1   
 30  14  18  ar  
 31  14  36  1   
 32  15  18  ar  
 33  15  37  1   
 34  16  38  1   
 35  16  39  1   
 36  16  40  1   
 37  17  19  1   
 38  17  20  2   
 39  19  21  1   
 40  20  22  1   
 41  20  41  1   
 42  21  22  2   
 43  22  23  1   
 44  23  42  1   
 45  23  43  1   
 46  23  44  1   
@<TRIPOS>SUBSTRUCTURE
  1 ****   6 GROUP 4 **** **** 0

# MOE 2024.06 (io_trps.svl 2023.06)
