@<TRIPOS>MOLECULE
NONAME
51 53 1 0 0 
SMALL
USER_CHARGES


@<TRIPOS>ATOM
  1 O       -1.1690     0.4150    -1.2890 O.3   1 <1>  -0.0190 
  2 N       -0.2510     0.8140    -0.4620 N.2   1 <1>  -0.4100 
  3 C       -2.2490     0.3370    -0.5510 C.2   1 <1>   0.2980 
  4 C       -0.8020     0.9430     0.6810 C.2   1 <1>   0.3350 
  5 N       -2.0960     0.6480     0.6760 N.2   1 <1>  -0.5650 
  6 C       -3.5660    -0.1030    -1.2000 C.3   1 <1>   0.3700 
  7 C       -0.1090     1.3970     1.9680 C.3   1 <1>   0.1010 
  8 N       -3.4650    -1.4650    -1.7400 N.3   1 <1>  -0.9000 
  9 C       -3.9710     0.8480    -2.3280 C.3   1 <1>  -0.2400 
 10 C       -0.3200     2.9000     2.1930 C.3   1 <1>  -0.2400 
 11 C        1.3930     1.0690     1.9750 C.3   1 <1>  -0.2400 
 12 C       -4.7550    -2.1190    -1.9390 C.3   1 <1>   0.2530 
 13 C       -4.5250    -3.6110    -2.1000 C.ar  1 <1>  -0.1430 
 14 C       -5.1320    -4.5130    -1.2400 C.ar  1 <1>  -0.1500 
 15 C       -3.7060    -4.0890    -3.1120 C.ar  1 <1>  -0.1500 
 16 C       -4.9310    -5.8770    -1.3810 C.ar  1 <1>   0.0830 
 17 C       -3.4990    -5.4500    -3.2620 C.ar  1 <1>  -0.1500 
 18 O       -5.5690    -6.6770    -0.4890 O.3   1 <1>  -0.3620 
 19 C       -4.1080    -6.3450    -2.4010 C.ar  1 <1>  -0.1500 
 20 C       -5.3930    -8.0800    -0.4600 C.3   1 <1>   0.2000 
 21 C       -6.4540    -8.6620     0.4680 C.3   1 <1>  -0.1600 
 22 C       -4.0810    -8.4140     0.2490 C.3   1 <1>  -0.1600 
 23 C       -5.9020    -8.4970     1.8890 C.3   1 <1>  -0.1600 
 24 C       -4.3880    -8.2960     1.7440 C.3   1 <1>  -0.1600 
 25 H       -4.3180    -0.0790    -0.4290 H     1 <1>   0.0800 
 26 H       -0.5670     0.8640     2.7830 H     1 <1>   0.0800 
 27 H       -2.9510    -2.0350    -1.0550 H     1 <1>   0.3600 
 28 H       -3.2600     0.7890    -3.1320 H     1 <1>   0.0800 
 29 H       -3.9870     1.8570    -1.9590 H     1 <1>   0.0800 
 30 H       -4.9500     0.6080    -2.6980 H     1 <1>   0.0800 
 31 H        0.1200     3.4620     1.3880 H     1 <1>   0.0800 
 32 H        0.1290     3.2090     3.1210 H     1 <1>   0.0800 
 33 H       -1.3720     3.1210     2.2300 H     1 <1>   0.0800 
 34 H        1.8980     1.6010     1.1880 H     1 <1>   0.0800 
 35 H        1.5380     0.0140     1.8220 H     1 <1>   0.0800 
 36 H        1.8330     1.3440     2.9170 H     1 <1>   0.0800 
 37 H       -5.2310    -1.7300    -2.8230 H     1 <1>   0.0800 
 38 H       -5.3980    -1.9440    -1.0930 H     1 <1>   0.0800 
 39 H       -5.7710    -4.1730    -0.4460 H     1 <1>   0.1500 
 40 H       -3.2250    -3.3950    -3.7800 H     1 <1>   0.1500 
 41 H       -2.8600    -5.8080    -4.0500 H     1 <1>   0.1500 
 42 H       -3.9280    -7.3930    -2.5390 H     1 <1>   0.1500 
 43 H       -5.4740    -8.4730    -1.4580 H     1 <1>   0.0800 
 44 H       -6.5590    -9.7110     0.2540 H     1 <1>   0.0800 
 45 H       -7.4080    -8.1830     0.3370 H     1 <1>   0.0800 
 46 H       -3.2720    -7.7730    -0.0530 H     1 <1>   0.0800 
 47 H       -3.8200    -9.4330     0.0240 H     1 <1>   0.0800 
 48 H       -6.1300    -9.3590     2.4920 H     1 <1>   0.0800 
 49 H       -6.3360    -7.6250     2.3480 H     1 <1>   0.0800 
 50 H       -4.1280    -7.3080     2.0850 H     1 <1>   0.0800 
 51 H       -3.8320    -9.0200     2.3150 H     1 <1>   0.0800 
@<TRIPOS>BOND
  1   1   2  1   
  2   1   3  1   
  3   2   4  2   
  4   3   5  2   
  5   3   6  1   
  6   4   5  1   
  7   4   7  1   
  8   6   8  1   
  9   6   9  1   
 10   6  25  1   
 11   7  10  1   
 12   7  11  1   
 13   7  26  1   
 14   8  12  1   
 15   8  27  1   
 16   9  28  1   
 17   9  29  1   
 18   9  30  1   
 19  10  31  1   
 20  10  32  1   
 21  10  33  1   
 22  11  34  1   
 23  11  35  1   
 24  11  36  1   
 25  12  13  1   
 26  12  37  1   
 27  12  38  1   
 28  13  14  ar  
 29  13  15  ar  
 30  14  16  ar  
 31  14  39  1   
 32  15  17  ar  
 33  15  40  1   
 34  16  18  1   
 35  16  19  ar  
 36  17  19  ar  
 37  17  41  1   
 38  18  20  1   
 39  19  42  1   
 40  20  21  1   
 41  20  22  1   
 42  20  43  1   
 43  21  23  1   
 44  21  44  1   
 45  21  45  1   
 46  22  24  1   
 47  22  46  1   
 48  22  47  1   
 49  23  24  1   
 50  23  48  1   
 51  23  49  1   
 52  24  50  1   
 53  24  51  1   
@<TRIPOS>SUBSTRUCTURE
  1 ****   8 GROUP 4 **** **** 0

# MOE 2024.06 (io_trps.svl 2023.06)
