@<TRIPOS>MOLECULE
NONAME
52 55 1 0 0 
SMALL
USER_CHARGES


@<TRIPOS>ATOM
  1 F       -2.4080     0.5200    -2.0820 F     1 <1>  -0.1900 
  2 C       -3.1770    -0.1450    -1.2580 C.ar  1 <1>   0.1900 
  3 C       -4.5360     0.0450    -1.3140 C.ar  1 <1>  -0.1500 
  4 C       -2.5640    -1.0230    -0.3580 C.ar  1 <1>  -0.1500 
  5 C       -5.3230    -0.6800    -0.4220 C.ar  1 <1>   0.2270 
  6 C       -3.3460    -1.7380     0.5230 C.ar  1 <1>  -0.1500 
  7 N       -6.6750    -0.6810    -0.2670 N.2   1 <1>  -0.5650 
  8 C       -4.7320    -1.5530     0.4760 C.ar  1 <1>  -0.1520 
  9 C       -6.8920    -1.5210     0.6870 C.2   1 <1>   0.0060 
 10 N       -5.7610    -2.0850     1.1820 N.pl3 1 <1>   0.0330 
 11 C       -8.2600    -1.8850     1.2450 C.3   1 <1>   0.0200 
 12 C       -9.4030    -1.1370     0.5400 C.3   1 <1>  -0.0990 
 13 C      -10.7830    -1.4900     1.0720 C.2   1 <1>   0.5690 
 14 O      -10.8580    -2.2960     1.9710 O.2   1 <1>  -0.5700 
 15 N      -11.8980    -0.9060     0.5260 N.am  1 <1>  -0.6600 
 16 C      -13.2720    -1.2650     0.9970 C.3   1 <1>   0.1400 
 17 C      -11.9050     0.0590    -0.6070 C.3   1 <1>   0.1400 
 18 C      -14.0930    -1.9100    -0.1490 C.3   1 <1>   0.0000 
 19 C      -12.6810    -0.5440    -1.7840 C.3   1 <1>  -0.1600 
 20 C      -15.5210    -2.2510     0.3110 C.3   1 <1>   0.2000 
 21 C      -14.1020    -0.9660    -1.3720 C.3   1 <1>  -0.1600 
 22 C      -13.5360    -3.3040    -0.4890 C.3   1 <1>  -0.1600 
 23 O      -16.0530    -1.2410     1.1180 O.3   1 <1>  -0.5600 
 24 C      -15.4070    -3.5760     1.0720 C.3   1 <1>  -0.1600 
 25 C      -14.1240    -4.2480     0.5640 C.3   1 <1>  -0.1600 
 26 C      -17.4260    -1.3220     1.3310 C.3   1 <1>   0.0400 
 27 H       -4.9950     0.7210    -2.0090 H     1 <1>   0.1500 
 28 H       -1.4930    -1.1230    -0.3690 H     1 <1>   0.1500 
 29 H       -2.9090    -2.4220     1.2300 H     1 <1>   0.1500 
 30 H       -5.6940    -2.7730     1.9360 H     1 <1>   0.2700 
 31 H       -8.4120    -2.9440     1.1330 H     1 <1>   0.0800 
 32 H       -8.2830    -1.6520     2.2950 H     1 <1>   0.0800 
 33 H       -9.3720    -1.3710    -0.5080 H     1 <1>   0.0800 
 34 H       -9.2500    -0.0800     0.6600 H     1 <1>   0.0800 
 35 H      -13.2240    -1.9310     1.8390 H     1 <1>   0.0800 
 36 H      -13.7590    -0.3650     1.3300 H     1 <1>   0.0800 
 37 H      -12.3850     0.9670    -0.2850 H     1 <1>   0.0800 
 38 H      -10.9080     0.3080    -0.9230 H     1 <1>   0.0800 
 39 H      -12.7390     0.1820    -2.5760 H     1 <1>   0.0800 
 40 H      -12.1390    -1.3940    -2.1600 H     1 <1>   0.0800 
 41 H      -16.1490    -2.3770    -0.5540 H     1 <1>   0.0800 
 42 H      -14.5950    -1.4370    -2.2040 H     1 <1>   0.0800 
 43 H      -14.6650    -0.0830    -1.1180 H     1 <1>   0.0800 
 44 H      -13.8870    -3.6070    -1.4600 H     1 <1>   0.0800 
 45 H      -12.4610    -3.3360    -0.4910 H     1 <1>   0.0800 
 46 H      -15.3210    -3.3920     2.1290 H     1 <1>   0.0800 
 47 H      -16.2650    -4.1950     0.8800 H     1 <1>   0.0800 
 48 H      -13.4270    -4.3550     1.3800 H     1 <1>   0.0800 
 49 H      -14.3200    -5.2200     0.1470 H     1 <1>   0.0800 
 50 H      -17.7180    -0.4870     1.9420 H     1 <1>   0.0800 
 51 H      -17.6570    -2.2400     1.8420 H     1 <1>   0.0800 
 52 H      -17.9370    -1.2750     0.3850 H     1 <1>   0.0800 
@<TRIPOS>BOND
  1   1   2  1   
  2   2   3  ar  
  3   2   4  ar  
  4   3   5  ar  
  5   3  27  1   
  6   4   6  ar  
  7   4  28  1   
  8   5   7  1   
  9   5   8  ar  
 10   6   8  ar  
 11   6  29  1   
 12   7   9  2   
 13   8  10  1   
 14   9  10  1   
 15   9  11  1   
 16  10  30  1   
 17  11  12  1   
 18  11  31  1   
 19  11  32  1   
 20  12  13  1   
 21  12  33  1   
 22  12  34  1   
 23  13  14  2   
 24  13  15  am  
 25  15  16  1   
 26  15  17  1   
 27  16  18  1   
 28  16  35  1   
 29  16  36  1   
 30  17  19  1   
 31  17  37  1   
 32  17  38  1   
 33  18  20  1   
 34  18  21  1   
 35  18  22  1   
 36  19  21  1   
 37  19  39  1   
 38  19  40  1   
 39  20  23  1   
 40  20  24  1   
 41  20  41  1   
 42  21  42  1   
 43  21  43  1   
 44  22  25  1   
 45  22  44  1   
 46  22  45  1   
 47  23  26  1   
 48  24  25  1   
 49  24  46  1   
 50  24  47  1   
 51  25  48  1   
 52  25  49  1   
 53  26  50  1   
 54  26  51  1   
 55  26  52  1   
@<TRIPOS>SUBSTRUCTURE
  1 ****  12 GROUP 4 **** **** 0

# MOE 2024.06 (io_trps.svl 2023.06)
