@<TRIPOS>MOLECULE
NONAME
48 51 1 0 0 
SMALL
USER_CHARGES


@<TRIPOS>ATOM
  1 S        0.4520     2.2390     1.1260 S.3   1 <1>  -0.2420 
  2 C        1.8940     2.2940     0.1090 C.2   1 <1>   0.6510 
  3 C        0.4760     0.4670     1.1640 C.2   1 <1>  -0.0370 
  4 N        2.4310     3.3980    -0.2950 N.2   1 <1>  -0.6210 
  5 N        2.3170     1.0170    -0.1430 N.am  1 <1>  -0.2290 
  6 C        1.5150     0.0160     0.4500 C.2   1 <1>  -0.0410 
  7 C       -0.6240    -0.2090     1.9550 C.3   1 <1>  -0.1020 
  8 C        3.5540     3.2700    -1.0670 C.2   1 <1>   0.0330 
  9 C        3.4420     0.8630    -0.9130 C.2   1 <1>   0.6160 
 10 C        4.0610     2.0480    -1.3820 C.2   1 <1>  -0.1360 
 11 C        4.2040     4.5630    -1.5790 C.3   1 <1>   0.2480 
 12 O        3.8810    -0.2480    -1.1670 O.2   1 <1>  -0.5700 
 13 N        4.8850     5.3680    -0.5270 N.3   1 <1>  -0.8100 
 14 C        3.8840     5.9350     0.4280 C.3   1 <1>   0.1100 
 15 C        5.9090     4.5620     0.1720 C.3   1 <1>   0.1100 
 16 C        4.3390     7.2570     1.0770 C.3   1 <1>   0.3430 
 17 C        7.0640     5.4290     0.6920 C.3   1 <1>  -0.1600 
 18 N        5.7820     7.4890     0.7930 N.4   1 <1>  -0.9590 
 19 C        6.6550     6.6000     1.5840 C.3   1 <1>   0.3430 
 20 C        6.1710     8.9190     0.8020 C.3   1 <1>   0.5230 
 21 C        5.5140     9.6320    -0.3630 C.2   1 <1>  -0.1400 
 22 S        5.5220    11.3850    -0.2760 S.3   1 <1>  -0.0800 
 23 C        4.9060     9.2210    -1.4960 C.2   1 <1>  -0.1500 
 24 C        4.6790    11.5140    -1.8080 C.2   1 <1>  -0.1100 
 25 C        4.4300    10.2940    -2.3150 C.2   1 <1>  -0.1500 
 26 H        1.7890    -1.0150     0.2890 H     1 <1>   0.1500 
 27 H       -0.5790     0.1020     2.9840 H     1 <1>   0.0800 
 28 H       -0.5130    -1.2770     1.9090 H     1 <1>   0.0800 
 29 H       -1.5830     0.0600     1.5520 H     1 <1>   0.0800 
 30 H        4.9350     1.9160    -1.9910 H     1 <1>   0.1500 
 31 H        3.4480     5.1630    -2.0570 H     1 <1>   0.0800 
 32 H        4.9260     4.3140    -2.3370 H     1 <1>   0.0800 
 33 H        3.6540     5.2190     1.1990 H     1 <1>   0.0800 
 34 H        2.9580     6.1340    -0.0870 H     1 <1>   0.0800 
 35 H        6.3300     3.8430    -0.5130 H     1 <1>   0.0800 
 36 H        5.4590     4.0060     0.9790 H     1 <1>   0.0800 
 37 H        4.1490     7.2390     2.1370 H     1 <1>   0.0800 
 38 H        3.7520     8.0550     0.6510 H     1 <1>   0.0800 
 39 H        7.6330     5.7960    -0.1450 H     1 <1>   0.0800 
 40 H        7.7240     4.7940     1.2560 H     1 <1>   0.0800 
 41 H        5.8630     7.1300    -0.1760 H     1 <1>   0.4500 
 42 H        7.5390     7.1280     1.9030 H     1 <1>   0.0800 
 43 H        6.1360     6.2400     2.4580 H     1 <1>   0.0800 
 44 H        7.2410     9.0160     0.7100 H     1 <1>   0.0800 
 45 H        5.8640     9.3780     1.7280 H     1 <1>   0.0800 
 46 H        4.7610     8.2030    -1.8160 H     1 <1>   0.1500 
 47 H        4.4560    12.5030    -2.1720 H     1 <1>   0.1500 
 48 H        3.9250    10.1000    -3.2470 H     1 <1>   0.1500 
@<TRIPOS>BOND
  1   1   2  1   
  2   1   3  1   
  3   2   4  2   
  4   2   5  1   
  5   3   6  2   
  6   3   7  1   
  7   4   8  1   
  8   5   6  1   
  9   5   9  am  
 10   6  26  1   
 11   7  27  1   
 12   7  28  1   
 13   7  29  1   
 14   8  10  2   
 15   8  11  1   
 16   9  10  1   
 17   9  12  2   
 18  10  30  1   
 19  11  13  1   
 20  11  31  1   
 21  11  32  1   
 22  13  14  1   
 23  13  15  1   
 24  14  16  1   
 25  14  33  1   
 26  14  34  1   
 27  15  17  1   
 28  15  35  1   
 29  15  36  1   
 30  16  18  1   
 31  16  37  1   
 32  16  38  1   
 33  17  19  1   
 34  17  39  1   
 35  17  40  1   
 36  18  19  1   
 37  18  20  1   
 38  18  41  1   
 39  19  42  1   
 40  19  43  1   
 41  20  21  1   
 42  20  44  1   
 43  20  45  1   
 44  21  22  1   
 45  21  23  2   
 46  22  24  1   
 47  23  25  1   
 48  23  46  1   
 49  24  25  2   
 50  24  47  1   
 51  25  48  1   
@<TRIPOS>SUBSTRUCTURE
  1 ****  14 GROUP 4 **** **** 0

# MOE 2024.06 (io_trps.svl 2023.06)
