@<TRIPOS>MOLECULE
NONAME
53 56 1 0 0 
SMALL
USER_CHARGES


@<TRIPOS>ATOM
  1 O       -1.1010     1.4920     2.1730 O.2   1 <1>  -0.5700 
  2 C       -1.8750     1.5490     1.2160 C.2   1 <1>   0.5440 
  3 N       -2.8930     0.5970     1.1720 N.am  1 <1>  -0.6600 
  4 C       -1.6530     2.5200     0.1730 C.ar  1 <1>   0.0860 
  5 C       -3.1720    -0.3090     2.3140 C.3   1 <1>   0.1400 
  6 C       -4.0230     0.7170     0.2140 C.3   1 <1>   0.1400 
  7 C       -2.5760     3.5640    -0.1310 C.ar  1 <1>  -0.1710 
  8 C       -0.4800     2.4740    -0.6050 C.ar  1 <1>   0.0820 
  9 C       -3.4960    -1.7070     1.7840 C.3   1 <1>  -0.1600 
 10 C       -4.3760    -0.6670    -0.3320 C.3   1 <1>  -0.1600 
 11 O       -3.6850     3.6830     0.4440 O.3   1 <1>  -0.8290 
 12 C       -2.2690     4.5090    -1.1200 C.ar  1 <1>  -0.1500 
 13 O        0.4230     1.4860    -0.4380 O.3   1 <1>  -0.5320 
 14 C       -0.2000     3.4160    -1.5780 C.ar  1 <1>  -0.1500 
 15 C       -4.6640    -1.6840     0.7860 C.3   1 <1>   0.4240 
 16 C       -1.1010     4.4440    -1.8330 C.ar  1 <1>  -0.1500 
 17 O       -5.7770    -1.2470     1.5320 O.3   1 <1>  -0.5600 
 18 C       -4.9120    -3.0910     0.1960 C.ar  1 <1>  -0.1440 
 19 C       -7.0400    -1.4870     1.0000 C.3   1 <1>   0.1200 
 20 C       -6.1520    -3.7090     0.2970 C.ar  1 <1>  -0.1440 
 21 C       -3.8940    -3.7650    -0.4660 C.ar  1 <1>  -0.1500 
 22 C       -7.2890    -2.9920     1.0010 C.3   1 <1>  -0.0170 
 23 C       -6.3580    -4.9690    -0.2420 C.ar  1 <1>  -0.1500 
 24 C       -4.0800    -5.0260    -1.0060 C.ar  1 <1>   0.0820 
 25 C       -5.3360    -5.6440    -0.9050 C.ar  1 <1>   0.0820 
 26 O       -2.9800    -5.5580    -1.6110 O.3   1 <1>  -0.3630 
 27 O       -5.5400    -6.8710    -1.4680 O.3   1 <1>  -0.3620 
 28 C       -2.7290    -6.9450    -1.5700 C.3   1 <1>   0.0400 
 29 C       -6.8190    -7.4610    -1.5400 C.3   1 <1>   0.0400 
 30 H       -4.0040     0.0840     2.8720 H     1 <1>   0.0800 
 31 H       -2.3220    -0.3640     2.9720 H     1 <1>   0.0800 
 32 H       -3.7640     1.3580    -0.6080 H     1 <1>   0.0800 
 33 H       -4.8640     1.1590     0.7210 H     1 <1>   0.0800 
 34 H       -3.7410    -2.3600     2.6000 H     1 <1>   0.0800 
 35 H       -2.6110    -2.0890     1.3130 H     1 <1>   0.0800 
 36 H       -3.5380    -1.0050    -0.9130 H     1 <1>   0.0800 
 37 H       -5.2090    -0.5920    -1.0020 H     1 <1>   0.0800 
 38 H       -2.9940     5.2830    -1.2910 H     1 <1>   0.1500 
 39 H        1.2320     1.6200    -0.9540 H     1 <1>   0.4500 
 40 H        0.7060     3.3660    -2.1490 H     1 <1>   0.1500 
 41 H       -0.8830     5.1790    -2.5850 H     1 <1>   0.1500 
 42 H       -7.0920    -1.0800     0.0060 H     1 <1>   0.0800 
 43 H       -7.7580    -0.9830     1.6230 H     1 <1>   0.0800 
 44 H       -2.9250    -3.3130    -0.5750 H     1 <1>   0.1500 
 45 H       -8.2220    -3.1950     0.5060 H     1 <1>   0.0800 
 46 H       -7.3600    -3.3390     2.0160 H     1 <1>   0.0800 
 47 H       -7.3290    -5.4110    -0.1360 H     1 <1>   0.1500 
 48 H       -1.6810    -7.1000    -1.7500 H     1 <1>   0.0800 
 49 H       -3.3050    -7.4240    -2.3410 H     1 <1>   0.0800 
 50 H       -2.9980    -7.3230    -0.6000 H     1 <1>   0.0800 
 51 H       -6.7300    -8.3840    -2.0840 H     1 <1>   0.0800 
 52 H       -7.4830    -6.7940    -2.0610 H     1 <1>   0.0800 
 53 H       -7.1700    -7.6590    -0.5430 H     1 <1>   0.0800 
@<TRIPOS>BOND
  1   1   2  2   
  2   2   3  am  
  3   2   4  1   
  4   3   5  1   
  5   3   6  1   
  6   4   7  ar  
  7   4   8  ar  
  8   5   9  1   
  9   5  30  1   
 10   5  31  1   
 11   6  10  1   
 12   6  32  1   
 13   6  33  1   
 14   7  11  1   
 15   7  12  ar  
 16   8  13  1   
 17   8  14  ar  
 18   9  15  1   
 19   9  34  1   
 20   9  35  1   
 21  10  15  1   
 22  10  36  1   
 23  10  37  1   
 24  12  16  ar  
 25  12  38  1   
 26  13  39  1   
 27  14  16  ar  
 28  14  40  1   
 29  15  17  1   
 30  15  18  1   
 31  16  41  1   
 32  17  19  1   
 33  18  20  ar  
 34  18  21  ar  
 35  19  22  1   
 36  19  42  1   
 37  19  43  1   
 38  20  22  1   
 39  20  23  ar  
 40  21  24  ar  
 41  21  44  1   
 42  22  45  1   
 43  22  46  1   
 44  23  25  ar  
 45  23  47  1   
 46  24  25  ar  
 47  24  26  1   
 48  25  27  1   
 49  26  28  1   
 50  27  29  1   
 51  28  48  1   
 52  28  49  1   
 53  28  50  1   
 54  29  51  1   
 55  29  52  1   
 56  29  53  1   
@<TRIPOS>SUBSTRUCTURE
  1 ****  10 GROUP 4 **** **** 0

# MOE 2024.06 (io_trps.svl 2023.06)
