@<TRIPOS>MOLECULE
NONAME
55 58 1 0 0 
SMALL
USER_CHARGES


@<TRIPOS>ATOM
  1 O        0.1920     1.6930    -1.3760 O.2   1 <1>  -0.5700 
  2 C       -0.3140     2.7890    -1.3000 C.2   1 <1>   0.5690 
  3 N       -0.8200     3.3150    -0.1440 N.am  1 <1>  -0.5090 
  4 C       -0.3920     3.6510    -2.5540 C.3   1 <1>   0.1810 
  5 C       -1.4540     4.6710    -0.1550 C.3   1 <1>   0.3640 
  6 C       -0.6280     2.6730     1.1770 C.3   1 <1>   0.0490 
  7 O       -0.0820     4.9860    -2.2470 O.3   1 <1>  -0.5600 
  8 C       -2.9820     4.5670    -0.2510 C.ar  1 <1>  -0.1440 
  9 C       -0.9360     5.6090    -1.2890 C.3   1 <1>   0.2610 
 10 C       -1.1970     1.3060     1.3930 C.3   1 <1>  -0.2000 
 11 C       -1.7900     2.4780     2.1030 C.3   1 <1>  -0.2000 
 12 C       -3.7450     5.6060     0.2670 C.ar  1 <1>  -0.1500 
 13 C       -3.6370     3.4880    -0.8370 C.ar  1 <1>  -0.1500 
 14 C       -0.2360     6.8140    -0.6610 C.2   1 <1>   0.5690 
 15 C       -5.1260     5.5690     0.1980 C.ar  1 <1>  -0.1500 
 16 C       -5.0190     3.4490    -0.9060 C.ar  1 <1>  -0.1500 
 17 O       -0.8520     7.4990     0.1240 O.2   1 <1>  -0.5700 
 18 N        1.0590     7.0660    -0.9980 N.am  1 <1>  -0.5790 
 19 C       -5.7740     4.4950    -0.3860 C.ar  1 <1>   0.0830 
 20 C        1.9090     8.1620    -0.5190 C.3   1 <1>   0.0540 
 21 O       -7.1290     4.5370    -0.4120 O.3   1 <1>  -0.3630 
 22 C        2.6610     8.8850    -1.5900 C.3   1 <1>  -0.2000 
 23 C        1.4890     9.5400    -0.9160 C.3   1 <1>  -0.2000 
 24 C        2.5080     7.8300     0.8600 C.3   1 <1>  -0.0650 
 25 C       -7.8860     3.4750    -0.9500 C.3   1 <1>   0.0400 
 26 C        3.4790     8.8750     1.4380 C.3   1 <1>  -0.1600 
 27 C        4.0030     8.4400     2.8110 C.3   1 <1>  -0.2400 
 28 H       -1.3780     3.6080    -2.9790 H     1 <1>   0.0800 
 29 H        0.3230     3.3020    -3.2770 H     1 <1>   0.0800 
 30 H       -1.2330     5.1300     0.7940 H     1 <1>   0.0800 
 31 H        0.3400     2.8860     1.6010 H     1 <1>   0.1000 
 32 H       -1.7800     5.9920    -1.8330 H     1 <1>   0.0800 
 33 H       -1.7420     0.8470     0.5860 H     1 <1>   0.1000 
 34 H       -0.6220     0.5950     1.9590 H     1 <1>   0.1000 
 35 H       -1.6280     2.5600     3.1630 H     1 <1>   0.1000 
 36 H       -2.7790     2.7880     1.8150 H     1 <1>   0.1000 
 37 H       -3.2700     6.4570     0.7290 H     1 <1>   0.1500 
 38 H       -3.0850     2.6580    -1.2400 H     1 <1>   0.1500 
 39 H       -5.7120     6.3770     0.6000 H     1 <1>   0.1500 
 40 H       -5.4880     2.5990    -1.3630 H     1 <1>   0.1500 
 41 H        1.4880     6.4330    -1.6800 H     1 <1>   0.3700 
 42 H        3.6340     9.2980    -1.3950 H     1 <1>   0.1000 
 43 H        2.5480     8.5750    -2.6130 H     1 <1>   0.1000 
 44 H        0.5620     9.6500    -1.4510 H     1 <1>   0.1000 
 45 H        1.6800    10.3710    -0.2620 H     1 <1>   0.1000 
 46 H        1.6930     7.7050     1.5520 H     1 <1>   0.0800 
 47 H        3.0270     6.8910     0.7840 H     1 <1>   0.0800 
 48 H       -8.9270     3.7230    -0.8470 H     1 <1>   0.0800 
 49 H       -7.6680     2.5770    -0.3990 H     1 <1>   0.0800 
 50 H       -7.6380     3.3620    -1.9900 H     1 <1>   0.0800 
 51 H        4.3150     9.0060     0.7750 H     1 <1>   0.0800 
 52 H        2.9780     9.8210     1.5440 H     1 <1>   0.0800 
 53 H        4.5300     7.5050     2.7350 H     1 <1>   0.0800 
 54 H        3.1900     8.3250     3.5050 H     1 <1>   0.0800 
 55 H        4.6790     9.1820     3.1980 H     1 <1>   0.0800 
@<TRIPOS>BOND
  1   1   2  2   
  2   2   3  am  
  3   2   4  1   
  4   3   5  1   
  5   3   6  1   
  6   4   7  1   
  7   4  28  1   
  8   4  29  1   
  9   5   8  1   
 10   5   9  1   
 11   5  30  1   
 12   6  10  1   
 13   6  11  1   
 14   6  31  1   
 15   7   9  1   
 16   8  12  ar  
 17   8  13  ar  
 18   9  14  1   
 19   9  32  1   
 20  10  11  1   
 21  10  33  1   
 22  10  34  1   
 23  11  35  1   
 24  11  36  1   
 25  12  15  ar  
 26  12  37  1   
 27  13  16  ar  
 28  13  38  1   
 29  14  17  2   
 30  14  18  am  
 31  15  19  ar  
 32  15  39  1   
 33  16  19  ar  
 34  16  40  1   
 35  18  20  1   
 36  18  41  1   
 37  19  21  1   
 38  20  22  1   
 39  20  23  1   
 40  20  24  1   
 41  21  25  1   
 42  22  23  1   
 43  22  42  1   
 44  22  43  1   
 45  23  44  1   
 46  23  45  1   
 47  24  26  1   
 48  24  46  1   
 49  24  47  1   
 50  25  48  1   
 51  25  49  1   
 52  25  50  1   
 53  26  27  1   
 54  26  51  1   
 55  26  52  1   
 56  27  53  1   
 57  27  54  1   
 58  27  55  1   
@<TRIPOS>SUBSTRUCTURE
  1 ****   5 GROUP 4 **** **** 0

# MOE 2024.06 (io_trps.svl 2023.06)
