@<TRIPOS>MOLECULE
NONAME
53 56 1 0 0 
SMALL
USER_CHARGES


@<TRIPOS>ATOM
  1 O       -2.4320     0.6060    -1.9030 O.2   1 <1>  -0.5700 
  2 C       -2.3100     1.0660    -0.7840 C.2   1 <1>   0.5440 
  3 N       -2.5050     0.2030     0.2730 N.am  1 <1>  -0.6600 
  4 C       -2.0800     2.4860    -0.5850 C.ar  1 <1>   0.0860 
  5 C       -3.4610     0.5510     1.3660 C.3   1 <1>   0.1400 
  6 C       -2.3890    -1.2670     0.0470 C.3   1 <1>   0.1400 
  7 C       -2.5730     3.4280    -1.4870 C.ar  1 <1>  -0.1500 
  8 C       -1.3780     2.9710     0.5190 C.ar  1 <1>  -0.1500 
  9 C       -4.8620    -0.0460     1.0850 C.3   1 <1>   0.4230 
 10 C       -3.7740    -1.8460    -0.2930 C.3   1 <1>   0.3430 
 11 C       -2.4090     4.7850    -1.2810 C.ar  1 <1>  -0.1500 
 12 C       -1.2160     4.3260     0.7310 C.ar  1 <1>  -0.1500 
 13 N       -4.8030    -1.5360     0.7780 N.4   1 <1>  -0.9590 
 14 C       -5.5700     0.7270    -0.0540 C.3   1 <1>   0.1200 
 15 C       -1.7390     5.2630    -0.1570 C.ar  1 <1>  -0.0230 
 16 C       -6.1850    -2.0270     0.4350 C.3   1 <1>   0.4230 
 17 O       -6.8400     0.1900    -0.2820 O.3   1 <1>  -0.5600 
 18 N       -1.5840     6.6610     0.0830 N.pl3 1 <1>   0.5930 
 19 C       -6.8430    -1.1560    -0.6640 C.3   1 <1>   0.1200 
 20 C       -6.1580    -3.5220     0.0770 C.3   1 <1>  -0.1600 
 21 N       -0.6270     7.1740     0.9000 N.2   1 <1>  -0.7070 
 22 C       -2.3460     7.6750    -0.4060 C.2   1 <1>  -0.3020 
 23 C       -7.5590    -4.1560     0.0990 C.3   1 <1>  -0.1600 
 24 C       -0.8020     8.4580     0.8920 C.2   1 <1>   0.1390 
 25 C       -1.8700     8.8350     0.0890 C.2   1 <1>  -0.1500 
 26 C       -7.4810    -5.6590    -0.1800 C.3   1 <1>  -0.2400 
 27 H       -3.0850     0.1690     2.2990 H     1 <1>   0.0800 
 28 H       -3.5450     1.6190     1.4690 H     1 <1>   0.0800 
 29 H       -1.7100    -1.4610    -0.7660 H     1 <1>   0.0800 
 30 H       -1.9890    -1.7410     0.9260 H     1 <1>   0.0800 
 31 H       -3.0930     3.0850    -2.3670 H     1 <1>   0.1500 
 32 H       -0.9490     2.2770     1.2200 H     1 <1>   0.1500 
 33 H       -5.4580     0.1020     1.9710 H     1 <1>   0.0800 
 34 H       -3.6820    -2.9120    -0.4200 H     1 <1>   0.0800 
 35 H       -4.0870    -1.4270    -1.2360 H     1 <1>   0.0800 
 36 H       -2.8040     5.4720    -2.0100 H     1 <1>   0.1500 
 37 H       -0.6700     4.6670     1.5970 H     1 <1>   0.1500 
 38 H       -4.5110    -2.0170     1.6350 H     1 <1>   0.4500 
 39 H       -5.0100     0.6870    -0.9720 H     1 <1>   0.0800 
 40 H       -5.7000     1.7590     0.2200 H     1 <1>   0.0800 
 41 H       -6.8010    -1.9250     1.3140 H     1 <1>   0.0800 
 42 H       -7.8710    -1.4420    -0.8040 H     1 <1>   0.0800 
 43 H       -6.3320    -1.2530    -1.6060 H     1 <1>   0.0800 
 44 H       -5.7360    -3.6640    -0.9030 H     1 <1>   0.0800 
 45 H       -5.5490    -4.0450     0.7940 H     1 <1>   0.0800 
 46 H       -3.1760     7.5120    -1.0660 H     1 <1>   0.1500 
 47 H       -8.0180    -4.0050     1.0620 H     1 <1>   0.0800 
 48 H       -8.1920    -3.7040    -0.6460 H     1 <1>   0.0800 
 49 H       -0.1870     9.1460     1.4490 H     1 <1>   0.1500 
 50 H       -2.2140     9.8410    -0.0760 H     1 <1>   0.1500 
 51 H       -6.8850    -6.1570     0.5650 H     1 <1>   0.0800 
 52 H       -7.0510    -5.8460    -1.1490 H     1 <1>   0.0800 
 53 H       -8.4680    -6.0870    -0.1630 H     1 <1>   0.0800 
@<TRIPOS>BOND
  1   1   2  2   
  2   2   3  am  
  3   2   4  1   
  4   3   5  1   
  5   3   6  1   
  6   4   7  ar  
  7   4   8  ar  
  8   5   9  1   
  9   5  27  1   
 10   5  28  1   
 11   6  10  1   
 12   6  29  1   
 13   6  30  1   
 14   7  11  ar  
 15   7  31  1   
 16   8  12  ar  
 17   8  32  1   
 18   9  13  1   
 19   9  14  1   
 20   9  33  1   
 21  10  13  1   
 22  10  34  1   
 23  10  35  1   
 24  11  15  ar  
 25  11  36  1   
 26  12  15  ar  
 27  12  37  1   
 28  13  16  1   
 29  13  38  1   
 30  14  17  1   
 31  14  39  1   
 32  14  40  1   
 33  15  18  1   
 34  16  19  1   
 35  16  20  1   
 36  16  41  1   
 37  17  19  1   
 38  18  21  1   
 39  18  22  1   
 40  19  42  1   
 41  19  43  1   
 42  20  23  1   
 43  20  44  1   
 44  20  45  1   
 45  21  24  2   
 46  22  25  2   
 47  22  46  1   
 48  23  26  1   
 49  23  47  1   
 50  23  48  1   
 51  24  25  1   
 52  24  49  1   
 53  25  50  1   
 54  26  51  1   
 55  26  52  1   
 56  26  53  1   
@<TRIPOS>SUBSTRUCTURE
  1 ****   2 GROUP 4 **** **** 0

# MOE 2024.06 (io_trps.svl 2023.06)
