@<TRIPOS>MOLECULE
NONAME
43 45 1 0 0 
SMALL
USER_CHARGES


@<TRIPOS>ATOM
  1 O       -2.0370     0.7650    -1.4760 O.2   1 <1>  -0.5700 
  2 C       -1.8950     0.8500    -0.2700 C.2   1 <1>   0.7160 
  3 N       -1.9810    -0.2950     0.4640 N.am  1 <1>  -0.7300 
  4 C       -1.6570     2.1110     0.4030 C.2   1 <1>  -0.0860 
  5 C       -2.2570    -1.6430    -0.0760 C.3   1 <1>   0.2200 
  6 C       -1.1610     3.3100    -0.0650 C.2   1 <1>  -0.3320 
  7 C       -1.9220     2.3410     1.7700 C.2   1 <1>  -0.1500 
  8 C       -3.7250    -1.9690     0.1290 C.3   1 <1>  -0.0800 
  9 C       -1.5760    -2.6980     0.7910 C.3   1 <1>   0.1200 
 10 N       -1.1210     4.2250     0.9360 N.pl3 1 <1>   0.0480 
 11 C       -0.6990     3.6440    -1.4770 C.3   1 <1>  -0.0600 
 12 C       -1.5870     3.6210     2.0570 C.2   1 <1>  -0.3020 
 13 C       -3.7380    -2.4860     1.5710 C.3   1 <1>   0.1200 
 14 C       -4.2170    -3.0260    -0.8770 C.3   1 <1>  -0.0170 
 15 O       -2.4540    -2.9680     1.8450 O.3   1 <1>  -0.5600 
 16 C       -0.6640     5.6230     0.8530 C.3   1 <1>   0.0160 
 17 C       -5.6970    -3.3230    -0.6910 C.ar  1 <1>  -0.1430 
 18 C       -6.6700    -2.4350    -1.1030 C.ar  1 <1>  -0.1500 
 19 C       -6.1450    -4.4890    -0.1040 C.ar  1 <1>  -0.1500 
 20 C       -8.0050    -2.7450    -0.9090 C.ar  1 <1>   0.1600 
 21 C       -7.5050    -4.7020     0.0440 C.ar  1 <1>   0.1600 
 22 N       -8.4470    -3.8560    -0.3430 N.ar  1 <1>  -0.6200 
 23 H       -1.8570    -0.2390     1.4740 H     1 <1>   0.3700 
 24 H       -1.9470    -1.7040    -1.1060 H     1 <1>   0.0800 
 25 H       -2.3280     1.6170     2.4540 H     1 <1>   0.1500 
 26 H       -4.3360    -1.0880     0.0300 H     1 <1>   0.0800 
 27 H       -0.6310    -2.3660     1.1830 H     1 <1>   0.0800 
 28 H       -1.4410    -3.6110     0.2400 H     1 <1>   0.0800 
 29 H       -0.7060     2.7740    -2.1070 H     1 <1>   0.0800 
 30 H        0.3030     4.0300    -1.4590 H     1 <1>   0.0800 
 31 H       -1.3520     4.3790    -1.9130 H     1 <1>   0.0800 
 32 H       -1.6580     4.1350     2.9990 H     1 <1>   0.1500 
 33 H       -4.4520    -3.2740     1.7330 H     1 <1>   0.0800 
 34 H       -3.9350    -1.6820     2.2580 H     1 <1>   0.0800 
 35 H       -3.6490    -3.9350    -0.7730 H     1 <1>   0.0800 
 36 H       -4.0640    -2.6610    -1.8790 H     1 <1>   0.0800 
 37 H       -0.8320     6.1140     1.7930 H     1 <1>   0.0800 
 38 H       -1.2140     6.1290     0.0810 H     1 <1>   0.0800 
 39 H        0.3840     5.6380     0.6210 H     1 <1>   0.0800 
 40 H       -6.4020    -1.5060    -1.5730 H     1 <1>   0.1500 
 41 H       -5.4510    -5.2340     0.2420 H     1 <1>   0.1500 
 42 H       -8.7500    -2.0390    -1.2360 H     1 <1>   0.1500 
 43 H       -7.8370    -5.6170     0.5050 H     1 <1>   0.1500 
@<TRIPOS>BOND
  1   1   2  2   
  2   2   3  am  
  3   2   4  1   
  4   3   5  1   
  5   3  23  1   
  6   4   6  2   
  7   4   7  1   
  8   5   8  1   
  9   5   9  1   
 10   5  24  1   
 11   6  10  1   
 12   6  11  1   
 13   7  12  2   
 14   7  25  1   
 15   8  13  1   
 16   8  14  1   
 17   8  26  1   
 18   9  15  1   
 19   9  27  1   
 20   9  28  1   
 21  10  12  1   
 22  10  16  1   
 23  11  29  1   
 24  11  30  1   
 25  11  31  1   
 26  12  32  1   
 27  13  15  1   
 28  13  33  1   
 29  13  34  1   
 30  14  17  1   
 31  14  35  1   
 32  14  36  1   
 33  16  37  1   
 34  16  38  1   
 35  16  39  1   
 36  17  18  ar  
 37  17  19  ar  
 38  18  20  ar  
 39  18  40  1   
 40  19  21  ar  
 41  19  41  1   
 42  20  22  ar  
 43  20  42  1   
 44  21  22  ar  
 45  21  43  1   
@<TRIPOS>SUBSTRUCTURE
  1 ****   3 GROUP 4 **** **** 0

# MOE 2024.06 (io_trps.svl 2023.06)
