@<TRIPOS>MOLECULE
NONAME
39 40 1 0 0 
SMALL
USER_CHARGES


@<TRIPOS>ATOM
  1 N       -1.2900     7.2590     1.8210 N.1   1 <1>  -0.5570 
  2 C       -0.7130     6.5630     1.1220 C.1   1 <1>   0.4840 
  3 C        0.0840     5.7710     0.2250 C.ar  1 <1>   0.3830 
  4 N        1.3820     6.0640     0.1520 N.ar  1 <1>  -0.6200 
  5 C       -0.5090     4.7710    -0.5340 C.ar  1 <1>  -0.1500 
  6 C        2.1250     5.3550    -0.6870 C.ar  1 <1>   0.4100 
  7 C        0.2520     4.0400    -1.4220 C.ar  1 <1>  -0.1500 
  8 N        3.4800     5.6770    -0.7380 N.pl3 1 <1>  -0.8380 
  9 C        1.5870     4.3530    -1.4950 C.ar  1 <1>  -0.1500 
 10 C        3.9990     6.8870    -0.0240 C.3   1 <1>   0.2090 
 11 C        4.4840     4.5850    -0.8830 C.3   1 <1>   0.2090 
 12 C        3.4050     8.1770    -0.6280 C.3   1 <1>   0.3430 
 13 C        5.1880     4.7460    -2.2250 C.3   1 <1>  -0.2400 
 14 N        3.1480     9.2550     0.3880 N.4   1 <1>  -0.9590 
 15 C        2.0540     8.9020     1.3320 C.3   1 <1>   0.3430 
 16 C        2.7240    10.5300    -0.2350 C.3   1 <1>   0.3430 
 17 C        1.5980    10.2350     1.9050 C.3   1 <1>  -0.1600 
 18 C        2.0380    11.2940     0.8900 C.3   1 <1>  -0.1600 
 19 H       -1.5610     4.5680    -0.4370 H     1 <1>   0.1500 
 20 H       -0.1810     3.2640    -2.0320 H     1 <1>   0.1500 
 21 H        2.2200     3.8260    -2.1830 H     1 <1>   0.1500 
 22 H        5.0710     6.9290    -0.1060 H     1 <1>   0.0800 
 23 H        3.7440     6.7990     1.0180 H     1 <1>   0.0800 
 24 H        4.0090     3.6200    -0.8300 H     1 <1>   0.0800 
 25 H        5.2020     4.6320    -0.0810 H     1 <1>   0.0800 
 26 H        2.4740     7.9240    -1.1070 H     1 <1>   0.0800 
 27 H        4.0780     8.5390    -1.3860 H     1 <1>   0.0800 
 28 H        4.4760     4.6970    -3.0280 H     1 <1>   0.0800 
 29 H        5.9030     3.9540    -2.3550 H     1 <1>   0.0800 
 30 H        5.7100     5.6840    -2.2680 H     1 <1>   0.0800 
 31 H        3.9950     9.4390     0.9400 H     1 <1>   0.4500 
 32 H        2.3820     8.2200     2.1010 H     1 <1>   0.0800 
 33 H        1.2380     8.4540     0.7870 H     1 <1>   0.0800 
 34 H        2.0090    10.3320    -1.0190 H     1 <1>   0.0800 
 35 H        3.5600    11.0780    -0.6410 H     1 <1>   0.0800 
 36 H        2.0680    10.4040     2.8580 H     1 <1>   0.0800 
 37 H        0.5300    10.2310     2.0460 H     1 <1>   0.0800 
 38 H        1.2010    11.8540     0.5090 H     1 <1>   0.0800 
 39 H        2.7320    11.9810     1.3420 H     1 <1>   0.0800 
@<TRIPOS>BOND
  1   1   2  3   
  2   2   3  1   
  3   3   4  ar  
  4   3   5  ar  
  5   4   6  ar  
  6   5   7  ar  
  7   5  19  1   
  8   6   8  1   
  9   6   9  ar  
 10   7   9  ar  
 11   7  20  1   
 12   8  10  1   
 13   8  11  1   
 14   9  21  1   
 15  10  12  1   
 16  10  22  1   
 17  10  23  1   
 18  11  13  1   
 19  11  24  1   
 20  11  25  1   
 21  12  14  1   
 22  12  26  1   
 23  12  27  1   
 24  13  28  1   
 25  13  29  1   
 26  13  30  1   
 27  14  15  1   
 28  14  16  1   
 29  14  31  1   
 30  15  17  1   
 31  15  32  1   
 32  15  33  1   
 33  16  18  1   
 34  16  34  1   
 35  16  35  1   
 36  17  18  1   
 37  17  36  1   
 38  17  37  1   
 39  18  38  1   
 40  18  39  1   
@<TRIPOS>SUBSTRUCTURE
  1 ****   4 GROUP 4 **** **** 0

# MOE 2024.06 (io_trps.svl 2023.06)
