@<TRIPOS>MOLECULE
NONAME
49 52 1 0 0 
SMALL
USER_CHARGES


@<TRIPOS>ATOM
  1 O        4.7740    -1.5640     0.4700 O.2   1 <1>  -0.5700 
  2 C        3.5770    -1.3510     0.5510 C.2   1 <1>   0.7160 
  3 N        3.1130    -0.2100    -0.0580 N.am  1 <1>  -0.6600 
  4 C        2.7090    -2.2090     1.3170 C.2   1 <1>  -0.0860 
  5 C        3.5990     0.1870    -1.4210 C.3   1 <1>   0.1400 
  6 C        2.5310     0.8860     0.7560 C.3   1 <1>   0.1400 
  7 C        1.3500    -2.2460     1.3720 C.2   1 <1>  -0.0100 
  8 C        3.1120    -3.2350     2.1980 C.2   1 <1>  -0.1500 
  9 C        5.0380     0.7510    -1.4260 C.3   1 <1>   0.3430 
 10 C        3.6410     1.6550     1.4870 C.3   1 <1>  -0.1600 
 11 O        0.9270    -3.1710     2.1970 O.3   1 <1>  -0.2800 
 12 C        1.9830    -3.7760     2.6990 C.2   1 <1>  -0.0100 
 13 N        5.5170     1.1250    -0.0580 N.4   1 <1>  -0.9590 
 14 C        4.7470     2.2230     0.5890 C.3   1 <1>   0.3430 
 15 C        6.9860     1.3210    -0.0110 C.3   1 <1>   0.5230 
 16 C        7.4290     2.5140    -0.8360 C.2   1 <1>  -0.3320 
 17 N        8.7620     2.7420    -0.9690 N.pl3 1 <1>   0.5930 
 18 C        6.7870     3.4890    -1.5240 C.2   1 <1>  -0.1500 
 19 N        8.9730     3.8370    -1.7270 N.2   1 <1>  -0.7070 
 20 C        9.8000     1.9590    -0.4020 C.ar  1 <1>  -0.0230 
 21 C        7.8020     4.2760    -2.0520 C.2   1 <1>   0.1390 
 22 C       10.2910     0.8440    -1.0730 C.ar  1 <1>  -0.1500 
 23 C       10.3200     2.2780     0.8480 C.ar  1 <1>  -0.1500 
 24 C       11.2630     0.0490    -0.4940 C.ar  1 <1>  -0.1500 
 25 C       11.2930     1.4820     1.4270 C.ar  1 <1>  -0.1500 
 26 C       11.7610     0.3650     0.7570 C.ar  1 <1>  -0.1500 
 27 H        2.9300     0.9170    -1.8410 H     1 <1>   0.0800 
 28 H        3.5660    -0.6730    -2.0690 H     1 <1>   0.0800 
 29 H        1.8470     0.4760     1.4820 H     1 <1>   0.0800 
 30 H        1.9680     1.5510     0.1220 H     1 <1>   0.0800 
 31 H        0.6220    -1.6490     0.8500 H     1 <1>   0.1500 
 32 H        4.1330    -3.5070     2.4040 H     1 <1>   0.1500 
 33 H        5.0950     1.5940    -2.0940 H     1 <1>   0.0800 
 34 H        5.6850    -0.0150    -1.8220 H     1 <1>   0.0800 
 35 H        4.0770     1.0290     2.2460 H     1 <1>   0.0800 
 36 H        3.1800     2.4790     2.0020 H     1 <1>   0.0800 
 37 H        1.8370    -4.5790     3.4010 H     1 <1>   0.1500 
 38 H        5.3250     0.2610     0.4890 H     1 <1>   0.4500 
 39 H        5.4110     2.8170     1.1980 H     1 <1>   0.0800 
 40 H        4.3190     2.8680    -0.1600 H     1 <1>   0.0800 
 41 H        7.4750     0.4330    -0.3810 H     1 <1>   0.0800 
 42 H        7.3000     1.4600     1.0120 H     1 <1>   0.0800 
 43 H        5.7410     3.6830    -1.6740 H     1 <1>   0.1500 
 44 H        7.6480     5.1530    -2.6630 H     1 <1>   0.1500 
 45 H        9.9210     0.5990    -2.0550 H     1 <1>   0.1500 
 46 H        9.9720     3.1540     1.3690 H     1 <1>   0.1500 
 47 H       11.6410    -0.8130    -1.0180 H     1 <1>   0.1500 
 48 H       11.6930     1.7330     2.3950 H     1 <1>   0.1500 
 49 H       12.5200    -0.2530     1.2070 H     1 <1>   0.1500 
@<TRIPOS>BOND
  1   1   2  2   
  2   2   3  am  
  3   2   4  1   
  4   3   5  1   
  5   3   6  1   
  6   4   7  2   
  7   4   8  1   
  8   5   9  1   
  9   5  27  1   
 10   5  28  1   
 11   6  10  1   
 12   6  29  1   
 13   6  30  1   
 14   7  11  1   
 15   7  31  1   
 16   8  12  2   
 17   8  32  1   
 18   9  13  1   
 19   9  33  1   
 20   9  34  1   
 21  10  14  1   
 22  10  35  1   
 23  10  36  1   
 24  11  12  1   
 25  12  37  1   
 26  13  14  1   
 27  13  15  1   
 28  13  38  1   
 29  14  39  1   
 30  14  40  1   
 31  15  16  1   
 32  15  41  1   
 33  15  42  1   
 34  16  17  1   
 35  16  18  2   
 36  17  19  1   
 37  17  20  1   
 38  18  21  1   
 39  18  43  1   
 40  19  21  2   
 41  20  22  ar  
 42  20  23  ar  
 43  21  44  1   
 44  22  24  ar  
 45  22  45  1   
 46  23  25  ar  
 47  23  46  1   
 48  24  26  ar  
 49  24  47  1   
 50  25  26  ar  
 51  25  48  1   
 52  26  49  1   
@<TRIPOS>SUBSTRUCTURE
  1 ****  13 GROUP 4 **** **** 0

# MOE 2024.06 (io_trps.svl 2023.06)
