@<TRIPOS>MOLECULE
NONAME
51 54 1 0 0 
SMALL
USER_CHARGES


@<TRIPOS>ATOM
  1 S       -0.4760    -0.8530     2.8450 S.3   1 <1>  -0.0800 
  2 C        0.3310    -0.7320     1.3050 C.2   1 <1>   0.1980 
  3 C       -1.6870    -1.8480     2.0980 C.2   1 <1>  -0.1100 
  4 N       -0.2580    -1.3440     0.3590 N.2   1 <1>  -0.5650 
  5 C        1.6430     0.0430     1.2390 C.3   1 <1>   0.5230 
  6 C       -1.4270    -2.0080     0.7790 C.2   1 <1>   0.1410 
  7 N        2.2060    -0.0360    -0.1530 N.4   1 <1>  -0.9590 
  8 C       -2.2070    -2.8060    -0.1690 C.2   1 <1>   0.7160 
  9 C        3.6910     0.1070    -0.1910 C.3   1 <1>   0.2630 
 10 C        1.5220     0.9170    -1.0800 C.3   1 <1>   0.2630 
 11 O       -1.6550    -3.2930    -1.1400 O.2   1 <1>  -0.5700 
 12 N       -3.5590    -3.0440    -0.0010 N.am  1 <1>  -0.6600 
 13 C       -4.5100    -2.0790     0.6400 C.3   1 <1>   0.1400 
 14 C       -4.2170    -4.2290    -0.6250 C.3   1 <1>   0.1400 
 15 C       -5.5870    -1.6010    -0.3570 C.3   1 <1>   0.1430 
 16 C       -5.2730    -3.7780    -1.6400 C.3   1 <1>  -0.1600 
 17 C       -6.5640    -0.7080     0.3850 C.ar  1 <1>   0.1670 
 18 C       -6.2880    -2.8150    -1.0030 C.3   1 <1>  -0.1600 
 19 C       -4.9940    -0.6420    -1.4260 C.3   1 <1>  -0.1600 
 20 N       -7.4420    -1.1140     1.2710 N.ar  1 <1>  -0.6200 
 21 C       -6.4150     0.6020     0.0350 C.ar  1 <1>  -0.1440 
 22 C       -5.3180     0.7960    -0.9800 C.3   1 <1>  -0.0170 
 23 C       -8.1770    -0.1410     1.7880 C.ar  1 <1>   0.7200 
 24 C       -7.2420     1.5230     0.6330 C.ar  1 <1>   0.1600 
 25 N       -8.1420     1.1560     1.5180 N.ar  1 <1>  -0.6200 
 26 N       -9.0920    -0.5190     2.6810 N.pl3 1 <1>  -0.9000 
 27 H       -2.4760    -2.2320     2.7200 H     1 <1>   0.1500 
 28 H        2.3310    -0.4030     1.9370 H     1 <1>   0.0800 
 29 H        1.4800     1.0680     1.5230 H     1 <1>   0.0800 
 30 H        1.9350    -0.9860    -0.4740 H     1 <1>   0.4500 
 31 H        3.9840     1.0850     0.1520 H     1 <1>   0.0800 
 32 H        4.0500    -0.0260    -1.1990 H     1 <1>   0.0800 
 33 H        4.1560    -0.6370     0.4360 H     1 <1>   0.0800 
 34 H        1.7100     1.9360    -0.7830 H     1 <1>   0.0800 
 35 H        0.4570     0.7420    -1.0730 H     1 <1>   0.0800 
 36 H        1.8800     0.7780    -2.0870 H     1 <1>   0.0800 
 37 H       -3.9880    -1.2190     1.0180 H     1 <1>   0.0800 
 38 H       -4.9920    -2.5670     1.4700 H     1 <1>   0.0800 
 39 H       -4.6860    -4.8120     0.1490 H     1 <1>   0.0800 
 40 H       -3.4910    -4.8560    -1.1140 H     1 <1>   0.0800 
 41 H       -5.7880    -4.6430    -2.0190 H     1 <1>   0.0800 
 42 H       -4.7770    -3.3070    -2.4710 H     1 <1>   0.0800 
 43 H       -6.9990    -2.4840    -1.7390 H     1 <1>   0.0800 
 44 H       -6.8380    -3.3450    -0.2430 H     1 <1>   0.0800 
 45 H       -5.4800    -0.8120    -2.3700 H     1 <1>   0.0800 
 46 H       -3.9370    -0.7850    -1.5680 H     1 <1>   0.0800 
 47 H       -5.6450     1.4010    -1.8080 H     1 <1>   0.0800 
 48 H       -4.4640     1.2510    -0.5090 H     1 <1>   0.0800 
 49 H       -7.1660     2.5680     0.3850 H     1 <1>   0.1500 
 50 H       -9.8370     0.1530     2.8430 H     1 <1>   0.4000 
 51 H       -9.3590    -1.4980     2.6410 H     1 <1>   0.4000 
@<TRIPOS>BOND
  1   1   2  1   
  2   1   3  1   
  3   2   4  2   
  4   2   5  1   
  5   3   6  2   
  6   3  27  1   
  7   4   6  1   
  8   5   7  1   
  9   5  28  1   
 10   5  29  1   
 11   6   8  1   
 12   7   9  1   
 13   7  10  1   
 14   7  30  1   
 15   8  11  2   
 16   8  12  am  
 17   9  31  1   
 18   9  32  1   
 19   9  33  1   
 20  10  34  1   
 21  10  35  1   
 22  10  36  1   
 23  12  13  1   
 24  12  14  1   
 25  13  15  1   
 26  13  37  1   
 27  13  38  1   
 28  14  16  1   
 29  14  39  1   
 30  14  40  1   
 31  15  17  1   
 32  15  18  1   
 33  15  19  1   
 34  16  18  1   
 35  16  41  1   
 36  16  42  1   
 37  17  20  ar  
 38  17  21  ar  
 39  18  43  1   
 40  18  44  1   
 41  19  22  1   
 42  19  45  1   
 43  19  46  1   
 44  20  23  ar  
 45  21  22  1   
 46  21  24  ar  
 47  22  47  1   
 48  22  48  1   
 49  23  25  ar  
 50  23  26  1   
 51  24  25  ar  
 52  24  49  1   
 53  26  50  1   
 54  26  51  1   
@<TRIPOS>SUBSTRUCTURE
  1 ****  13 GROUP 4 **** **** 0

# MOE 2024.06 (io_trps.svl 2023.06)
