@<TRIPOS>MOLECULE
NONAME
64 68 1 0 0 
SMALL
USER_CHARGES


@<TRIPOS>ATOM
  1 N        1.1720     0.6020     0.5500 N.ar  1 <1>  -0.6200 
  2 C        0.3690     1.6140     0.8920 C.ar  1 <1>   0.7200 
  3 C        1.8440     0.7890    -0.5550 C.ar  1 <1>   0.1660 
  4 N        0.2090     2.7580     0.2190 N.ar  1 <1>  -0.6200 
  5 N       -0.3560     1.4620     2.0550 N.pl3 1 <1>  -0.8380 
  6 C        1.7580     1.9130    -1.3140 C.ar  1 <1>  -0.1430 
  7 C        2.8290    -0.2020    -1.1220 C.3   1 <1>   0.1430 
  8 C        0.9060     2.8990    -0.8840 C.ar  1 <1>   0.1600 
  9 C       -0.8100     0.1310     2.5390 C.3   1 <1>   0.1290 
 10 C       -0.9780     2.6300     2.7390 C.3   1 <1>   0.1290 
 11 C        2.6610     1.8450    -2.5190 C.3   1 <1>  -0.0160 
 12 C        3.7570    -0.6400     0.0220 C.3   1 <1>   0.3430 
 13 C        2.0900    -1.4210    -1.7130 C.3   1 <1>  -0.1600 
 14 C        3.5620     0.6310    -2.2090 C.3   1 <1>  -0.1600 
 15 N        4.7000    -1.7390    -0.4010 N.4   1 <1>  -0.9590 
 16 C        3.0530    -2.5770    -2.0410 C.3   1 <1>  -0.1600 
 17 C        3.9430    -2.9440    -0.8490 C.3   1 <1>   0.3430 
 18 C        5.6780    -2.0610     0.6780 C.3   1 <1>   0.4860 
 19 C        6.5330    -0.8430     0.9300 C.ar  1 <1>  -0.1430 
 20 C        6.3220    -0.0270     2.0160 C.ar  1 <1>   0.1600 
 21 C        7.5450    -0.4840     0.0720 C.ar  1 <1>   0.1600 
 22 N        7.0170     1.0620     2.2080 N.ar  1 <1>  -0.6200 
 23 N        8.2500     0.6020     0.2450 N.ar  1 <1>  -0.6200 
 24 C        7.9580     1.3510     1.3090 C.ar  1 <1>   0.7200 
 25 N        8.6770     2.5140     1.4890 N.pl3 1 <1>  -0.8380 
 26 C        8.3320     3.5360     2.5210 C.3   1 <1>   0.2090 
 27 C        9.8900     2.8560     0.6920 C.3   1 <1>   0.2090 
 28 C        8.1120     4.8920     1.8430 C.3   1 <1>  -0.1600 
 29 C        9.6780     4.2020    -0.0080 C.3   1 <1>  -0.1600 
 30 C        9.3200     5.3110     0.9920 C.3   1 <1>  -0.1600 
 31 H        0.7960     3.8120    -1.4450 H     1 <1>   0.1500 
 32 H       -0.6490    -0.6260     1.7910 H     1 <1>   0.0800 
 33 H       -1.8620     0.1620     2.7630 H     1 <1>   0.0800 
 34 H       -0.2670    -0.1340     3.4290 H     1 <1>   0.0800 
 35 H       -0.3820     3.5140     2.5910 H     1 <1>   0.0800 
 36 H       -1.0510     2.4430     3.7960 H     1 <1>   0.0800 
 37 H       -1.9620     2.8010     2.3380 H     1 <1>   0.0800 
 38 H        3.2360     2.7480    -2.6370 H     1 <1>   0.0800 
 39 H        2.0710     1.6710    -3.4030 H     1 <1>   0.0800 
 40 H        3.1450    -0.9820     0.8420 H     1 <1>   0.0800 
 41 H        4.3070     0.2230     0.3620 H     1 <1>   0.0800 
 42 H        1.5420    -1.1300    -2.5930 H     1 <1>   0.0800 
 43 H        1.3670    -1.7690    -0.9930 H     1 <1>   0.0800 
 44 H        3.7680     0.0700    -3.1030 H     1 <1>   0.0800 
 45 H        4.4930     1.0050    -1.8170 H     1 <1>   0.0800 
 46 H        5.2290    -1.3800    -1.2050 H     1 <1>   0.4500 
 47 H        3.6700    -2.3230    -2.8850 H     1 <1>   0.0800 
 48 H        2.4760    -3.4420    -2.3220 H     1 <1>   0.0800 
 49 H        3.3280    -3.3110    -0.0430 H     1 <1>   0.0800 
 50 H        4.6260    -3.7270    -1.1400 H     1 <1>   0.0800 
 51 H        6.3070    -2.8830     0.3760 H     1 <1>   0.0800 
 52 H        5.1590    -2.3420     1.5800 H     1 <1>   0.0800 
 53 H        5.5620    -0.2560     2.7450 H     1 <1>   0.1500 
 54 H        7.7880    -1.0890    -0.7850 H     1 <1>   0.1500 
 55 H        9.1420     3.6060     3.2260 H     1 <1>   0.0800 
 56 H        7.4440     3.2700     3.0670 H     1 <1>   0.0800 
 57 H       10.1140     2.1030    -0.0430 H     1 <1>   0.0800 
 58 H       10.7340     2.9220     1.3570 H     1 <1>   0.0800 
 59 H        7.9230     5.6370     2.5950 H     1 <1>   0.0800 
 60 H        7.2360     4.8240     1.2220 H     1 <1>   0.0800 
 61 H        8.8860     4.0910    -0.7280 H     1 <1>   0.0800 
 62 H       10.5720     4.4690    -0.5400 H     1 <1>   0.0800 
 63 H       10.1630     5.4960     1.6370 H     1 <1>   0.0800 
 64 H        9.0970     6.2210     0.4640 H     1 <1>   0.0800 
@<TRIPOS>BOND
  1   1   2  ar  
  2   1   3  ar  
  3   2   4  ar  
  4   2   5  1   
  5   3   6  ar  
  6   3   7  1   
  7   4   8  ar  
  8   5   9  1   
  9   5  10  1   
 10   6   8  ar  
 11   6  11  1   
 12   7  12  1   
 13   7  13  1   
 14   7  14  1   
 15   8  31  1   
 16   9  32  1   
 17   9  33  1   
 18   9  34  1   
 19  10  35  1   
 20  10  36  1   
 21  10  37  1   
 22  11  14  1   
 23  11  38  1   
 24  11  39  1   
 25  12  15  1   
 26  12  40  1   
 27  12  41  1   
 28  13  16  1   
 29  13  42  1   
 30  13  43  1   
 31  14  44  1   
 32  14  45  1   
 33  15  17  1   
 34  15  18  1   
 35  15  46  1   
 36  16  17  1   
 37  16  47  1   
 38  16  48  1   
 39  17  49  1   
 40  17  50  1   
 41  18  19  1   
 42  18  51  1   
 43  18  52  1   
 44  19  20  ar  
 45  19  21  ar  
 46  20  22  ar  
 47  20  53  1   
 48  21  23  ar  
 49  21  54  1   
 50  22  24  ar  
 51  23  24  ar  
 52  24  25  1   
 53  25  26  1   
 54  25  27  1   
 55  26  28  1   
 56  26  55  1   
 57  26  56  1   
 58  27  29  1   
 59  27  57  1   
 60  27  58  1   
 61  28  30  1   
 62  28  59  1   
 63  28  60  1   
 64  29  30  1   
 65  29  61  1   
 66  29  62  1   
 67  30  63  1   
 68  30  64  1   
@<TRIPOS>SUBSTRUCTURE
  1 ****  12 GROUP 4 **** **** 0

# MOE 2024.06 (io_trps.svl 2023.06)
