@<TRIPOS>MOLECULE
NONAME
46 48 1 0 0 
SMALL
USER_CHARGES


@<TRIPOS>ATOM
  1 S        0.5420    -1.3060     0.6570 S.o2  1 <1>   1.4550 
  2 O        1.3930    -2.4700     0.7230 O.2   1 <1>  -0.6500 
  3 O       -0.5040    -1.1410     1.6370 O.2   1 <1>  -0.6500 
  4 N       -0.1820    -1.2580    -0.8640 N.am  1 <1>  -0.9140 
  5 C        1.6020     0.1250     0.6840 C.2   1 <1>  -0.0030 
  6 C       -1.0500    -2.3560    -1.3200 C.3   1 <1>   0.2760 
  7 C        0.9990     1.3640     0.3420 C.2   1 <1>   0.6160 
  8 C        2.9110     0.0850     1.0260 C.2   1 <1>  -0.0410 
  9 C       -2.2400    -2.6550    -0.4050 C.3   1 <1>  -0.0800 
 10 C       -0.3500    -3.7180    -1.4680 C.3   1 <1>   0.1200 
 11 O       -0.1630     1.4310    -0.0300 O.2   1 <1>  -0.5700 
 12 N        1.7570     2.5240     0.4080 N.am  1 <1>  -0.4200 
 13 N        3.6700     1.2410     1.0440 N.am  1 <1>  -0.4690 
 14 C       -1.7730    -3.9260     0.3030 C.3   1 <1>   0.1200 
 15 C       -3.5160    -2.9110    -1.2320 C.3   1 <1>  -0.0170 
 16 O       -1.0400    -4.6190    -0.6530 O.3   1 <1>  -0.5600 
 17 C        3.1020     2.4700     0.7320 C.2   1 <1>   0.6900 
 18 C        1.1370     3.8450     0.0860 C.3   1 <1>   0.0600 
 19 C        5.1120     1.1760     1.4060 C.3   1 <1>   0.0600 
 20 C       -4.7030    -3.2950    -0.3590 C.ar  1 <1>  -0.1430 
 21 O        3.7820     3.4800     0.7400 O.2   1 <1>  -0.5700 
 22 C       -5.3680    -2.3710     0.4210 C.ar  1 <1>  -0.1500 
 23 C       -5.1770    -4.5900    -0.3060 C.ar  1 <1>  -0.1500 
 24 C       -6.4460    -2.7750     1.1920 C.ar  1 <1>   0.1600 
 25 C       -6.2640    -4.8900     0.4980 C.ar  1 <1>   0.1600 
 26 N       -6.9120    -4.0130     1.2490 N.ar  1 <1>  -0.6200 
 27 H       -0.7610    -0.4130    -0.8150 H     1 <1>   0.4200 
 28 H       -1.4110    -2.0720    -2.2940 H     1 <1>   0.0800 
 29 H        3.3990    -0.8400     1.2920 H     1 <1>   0.1500 
 30 H       -2.4420    -1.8680     0.2960 H     1 <1>   0.0800 
 31 H        0.6810    -3.7000    -1.1720 H     1 <1>   0.0800 
 32 H       -0.4210    -4.0770    -2.4790 H     1 <1>   0.0800 
 33 H       -2.5770    -4.5470     0.6550 H     1 <1>   0.0800 
 34 H       -1.1140    -3.7000     1.1250 H     1 <1>   0.0800 
 35 H       -3.3350    -3.6930    -1.9500 H     1 <1>   0.0800 
 36 H       -3.7710    -2.0210    -1.7810 H     1 <1>   0.0800 
 37 H        0.0880     3.8400     0.3280 H     1 <1>   0.0800 
 38 H        1.2570     4.0500    -0.9630 H     1 <1>   0.0800 
 39 H        1.6090     4.6280     0.6530 H     1 <1>   0.0800 
 40 H        5.4080     0.1630     1.6140 H     1 <1>   0.0800 
 41 H        5.2920     1.7830     2.2760 H     1 <1>   0.0800 
 42 H        5.7040     1.5550     0.5910 H     1 <1>   0.0800 
 43 H       -5.0600    -1.3420     0.4380 H     1 <1>   0.1500 
 44 H       -4.7110    -5.3690    -0.8810 H     1 <1>   0.1500 
 45 H       -6.9520    -2.0410     1.7950 H     1 <1>   0.1500 
 46 H       -6.6190    -5.9060     0.5260 H     1 <1>   0.1500 
@<TRIPOS>BOND
  1   1   2  2   
  2   1   3  2   
  3   1   4  am  
  4   1   5  1   
  5   4   6  1   
  6   4  27  1   
  7   5   7  1   
  8   5   8  2   
  9   6   9  1   
 10   6  10  1   
 11   6  28  1   
 12   7  11  2   
 13   7  12  am  
 14   8  13  1   
 15   8  29  1   
 16   9  14  1   
 17   9  15  1   
 18   9  30  1   
 19  10  16  1   
 20  10  31  1   
 21  10  32  1   
 22  12  17  am  
 23  12  18  1   
 24  13  17  am  
 25  13  19  1   
 26  14  16  1   
 27  14  33  1   
 28  14  34  1   
 29  15  20  1   
 30  15  35  1   
 31  15  36  1   
 32  17  21  2   
 33  18  37  1   
 34  18  38  1   
 35  18  39  1   
 36  19  40  1   
 37  19  41  1   
 38  19  42  1   
 39  20  22  ar  
 40  20  23  ar  
 41  22  24  ar  
 42  22  43  1   
 43  23  25  ar  
 44  23  44  1   
 45  24  26  ar  
 46  24  45  1   
 47  25  26  ar  
 48  25  46  1   
@<TRIPOS>SUBSTRUCTURE
  1 ****   4 GROUP 4 **** **** 0

# MOE 2024.06 (io_trps.svl 2023.06)
