@<TRIPOS>MOLECULE
NONAME
56 58 1 0 0 
SMALL
USER_CHARGES


@<TRIPOS>ATOM
  1 O        0.5580     0.5150     0.7920 O.co2 1 <1>  -0.9000 
  2 C        1.6960     0.0630     0.9000 C.2   1 <1>   0.9060 
  3 O        2.0190    -0.6720     1.8460 O.co2 1 <1>  -0.9000 
  4 C        2.7180     0.3650    -0.2120 C.3   1 <1>  -0.1060 
  5 C        4.1120    -0.1640     0.1760 C.3   1 <1>   0.4230 
  6 C        2.7670     1.9100    -0.4310 C.3   1 <1>  -0.1600 
  7 C        2.3100    -0.3720    -1.5100 C.3   1 <1>  -0.1600 
  8 N        4.0520    -1.6290     0.4910 N.4   1 <1>  -0.9590 
  9 C        4.7290     0.7580     1.2440 C.3   1 <1>   0.1400 
 10 C        4.1740     2.5150    -0.5260 C.3   1 <1>   0.1400 
 11 C        2.3200    -1.8970    -1.2900 C.3   1 <1>  -0.1600 
 12 C        3.6350    -2.4220    -0.6970 C.3   1 <1>   0.3430 
 13 C        5.2480    -2.1930     1.1730 C.3   1 <1>   0.2630 
 14 N        5.0370     2.0980     0.6320 N.am  1 <1>  -0.6600 
 15 C        6.1020     2.8210     1.1190 C.2   1 <1>   0.5690 
 16 O        6.8170     2.3660     1.9800 O.2   1 <1>  -0.5700 
 17 C        6.4390     4.2140     0.6080 C.3   1 <1>  -0.0990 
 18 C        7.4350     4.2830    -0.5880 C.3   1 <1>   0.1430 
 19 C        8.7440     4.9560    -0.1170 C.ar  1 <1>  -0.1430 
 20 C        7.8080     2.9050    -1.1720 C.3   1 <1>  -0.2400 
 21 C        6.7540     5.0670    -1.7280 C.3   1 <1>  -0.2400 
 22 C        9.4600     4.3760     0.9260 C.ar  1 <1>  -0.1500 
 23 C        9.2590     6.1220    -0.6820 C.ar  1 <1>  -0.1500 
 24 C       10.6390     4.9310     1.3900 C.ar  1 <1>  -0.1500 
 25 C       10.4390     6.6800    -0.2210 C.ar  1 <1>  -0.1500 
 26 C       11.1320     6.0870     0.8160 C.ar  1 <1>  -0.1500 
 27 H        4.7480    -0.0610    -0.6860 H     1 <1>   0.0800 
 28 H        2.2790     2.4010     0.3960 H     1 <1>   0.0800 
 29 H        2.1980     2.1790    -1.3040 H     1 <1>   0.0800 
 30 H        1.3160    -0.0650    -1.7980 H     1 <1>   0.0800 
 31 H        2.9820    -0.1140    -2.3090 H     1 <1>   0.0800 
 32 H        3.2470    -1.6460     1.1760 H     1 <1>   0.4500 
 33 H        5.6380     0.3280     1.6190 H     1 <1>   0.0800 
 34 H        4.0480     0.8920     2.0670 H     1 <1>   0.0800 
 35 H        4.0740     3.5840    -0.5600 H     1 <1>   0.0800 
 36 H        4.6370     2.1940    -1.4420 H     1 <1>   0.0800 
 37 H        2.1340    -2.3930    -2.2250 H     1 <1>   0.0800 
 38 H        1.5140    -2.1680    -0.6280 H     1 <1>   0.0800 
 39 H        4.4060    -2.3680    -1.4480 H     1 <1>   0.0800 
 40 H        3.5070    -3.4550    -0.4180 H     1 <1>   0.0800 
 41 H        6.1210    -2.0830     0.5520 H     1 <1>   0.0800 
 42 H        5.0940    -3.2380     1.3830 H     1 <1>   0.0800 
 43 H        5.4150    -1.6830     2.1080 H     1 <1>   0.0800 
 44 H        5.5310     4.7370     0.3870 H     1 <1>   0.0800 
 45 H        6.8540     4.7530     1.4400 H     1 <1>   0.0800 
 46 H        6.9480     2.4040    -1.5750 H     1 <1>   0.0800 
 47 H        8.2540     2.2720    -0.4270 H     1 <1>   0.0800 
 48 H        8.5260     3.0290    -1.9640 H     1 <1>   0.0800 
 49 H        5.8520     4.5730    -2.0430 H     1 <1>   0.0800 
 50 H        7.4050     5.1390    -2.5810 H     1 <1>   0.0800 
 51 H        6.4970     6.0600    -1.4030 H     1 <1>   0.0800 
 52 H        9.1000     3.4770     1.3970 H     1 <1>   0.1500 
 53 H        8.7620     6.6240    -1.4900 H     1 <1>   0.1500 
 54 H       11.1700     4.4620     2.2000 H     1 <1>   0.1500 
 55 H       10.8180     7.5800    -0.6720 H     1 <1>   0.1500 
 56 H       12.0480     6.5210     1.1750 H     1 <1>   0.1500 
@<TRIPOS>BOND
  1   1   2  ar  
  2   2   3  ar  
  3   2   4  1   
  4   4   5  1   
  5   4   6  1   
  6   4   7  1   
  7   5   8  1   
  8   5   9  1   
  9   5  27  1   
 10   6  10  1   
 11   6  28  1   
 12   6  29  1   
 13   7  11  1   
 14   7  30  1   
 15   7  31  1   
 16   8  12  1   
 17   8  13  1   
 18   8  32  1   
 19   9  14  1   
 20   9  33  1   
 21   9  34  1   
 22  10  14  1   
 23  10  35  1   
 24  10  36  1   
 25  11  12  1   
 26  11  37  1   
 27  11  38  1   
 28  12  39  1   
 29  12  40  1   
 30  13  41  1   
 31  13  42  1   
 32  13  43  1   
 33  14  15  am  
 34  15  16  2   
 35  15  17  1   
 36  17  18  1   
 37  17  44  1   
 38  17  45  1   
 39  18  19  1   
 40  18  20  1   
 41  18  21  1   
 42  19  22  ar  
 43  19  23  ar  
 44  20  46  1   
 45  20  47  1   
 46  20  48  1   
 47  21  49  1   
 48  21  50  1   
 49  21  51  1   
 50  22  24  ar  
 51  22  52  1   
 52  23  25  ar  
 53  23  53  1   
 54  24  26  ar  
 55  24  54  1   
 56  25  26  ar  
 57  25  55  1   
 58  26  56  1   
@<TRIPOS>SUBSTRUCTURE
  1 ****  14 GROUP 4 **** **** 0

# MOE 2024.06 (io_trps.svl 2023.06)
