@<TRIPOS>MOLECULE
NONAME
40 42 1 0 0 
SMALL
USER_CHARGES


@<TRIPOS>ATOM
  1 CL       0.9410    -0.4760    -0.8320 Cl    1 <1>  -0.1770 
  2 C        0.5050    -2.0550    -0.2410 C.ar  1 <1>   0.1770 
  3 C        0.5980    -3.1450    -1.0830 C.ar  1 <1>  -0.1500 
  4 C        0.0730    -2.1980     1.0660 C.ar  1 <1>  -0.1500 
  5 C        0.2420    -4.3840    -0.5850 C.ar  1 <1>   0.1900 
  6 C       -0.2770    -3.4520     1.5390 C.ar  1 <1>  -0.1500 
  7 F        0.3470    -5.4040    -1.3910 F     1 <1>  -0.1900 
  8 C       -0.2100    -4.5830     0.7210 C.ar  1 <1>   0.0860 
  9 C       -0.5850    -5.8820     1.2350 C.2   1 <1>   0.5440 
 10 O       -0.0260    -6.3120     2.2250 O.2   1 <1>  -0.5700 
 11 N       -1.5880    -6.6330     0.6710 N.am  1 <1>  -0.6600 
 12 C       -2.5600    -6.1690    -0.3510 C.3   1 <1>   0.1400 
 13 C       -1.9770    -7.9720     1.1850 C.3   1 <1>   0.1400 
 14 C       -3.7630    -7.0980    -0.1860 C.3   1 <1>   0.2000 
 15 C       -3.1610    -8.4140     0.3130 C.3   1 <1>  -0.0800 
 16 O       -4.5740    -6.5840     0.8130 O.3   1 <1>  -0.6800 
 17 C       -2.6960    -9.2890    -0.8660 C.3   1 <1>   0.0210 
 18 C       -2.1030   -10.6000    -0.3860 C.2   1 <1>   0.1080 
 19 N       -2.8140   -11.5270     0.1750 N.2   1 <1>  -0.7070 
 20 C       -0.7610   -10.9490    -0.4810 C.2   1 <1>  -0.1500 
 21 N       -1.9330   -12.5060     0.4560 N.pl3 1 <1>   0.3000 
 22 C       -0.6820   -12.1790     0.0690 C.2   1 <1>  -0.3320 
 23 C        0.5300   -13.0730     0.2530 C.3   1 <1>  -0.0600 
 24 H        0.9400    -3.0310    -2.0950 H     1 <1>   0.1500 
 25 H        0.0160    -1.3330     1.7040 H     1 <1>   0.1500 
 26 H       -0.6050    -3.5710     2.5590 H     1 <1>   0.1500 
 27 H       -2.8330    -5.1380    -0.2120 H     1 <1>   0.0800 
 28 H       -2.1310    -6.3020    -1.3290 H     1 <1>   0.0800 
 29 H       -1.1450    -8.6530     1.1370 H     1 <1>   0.0800 
 30 H       -2.2850    -7.8780     2.2120 H     1 <1>   0.0800 
 31 H       -4.3530    -7.1970    -1.0820 H     1 <1>   0.0800 
 32 H       -3.8760    -8.9780     0.8880 H     1 <1>   0.0800 
 33 H       -4.0390    -6.4650     1.6230 H     1 <1>   0.4000 
 34 H       -1.9640    -8.7690    -1.4580 H     1 <1>   0.0800 
 35 H       -3.5360    -9.5180    -1.4970 H     1 <1>   0.0800 
 36 H        0.0240   -10.3480    -0.9030 H     1 <1>   0.1500 
 37 H       -2.2170   -13.3810     0.9120 H     1 <1>   0.2700 
 38 H        1.4080   -12.5880    -0.1350 H     1 <1>   0.0800 
 39 H        0.3910   -14.0020    -0.2710 H     1 <1>   0.0800 
 40 H        0.6860   -13.2780     1.2980 H     1 <1>   0.0800 
@<TRIPOS>BOND
  1   1   2  1   
  2   2   3  ar  
  3   2   4  ar  
  4   3   5  ar  
  5   3  24  1   
  6   4   6  ar  
  7   4  25  1   
  8   5   7  1   
  9   5   8  ar  
 10   6   8  ar  
 11   6  26  1   
 12   8   9  1   
 13   9  10  2   
 14   9  11  am  
 15  11  12  1   
 16  11  13  1   
 17  12  14  1   
 18  12  27  1   
 19  12  28  1   
 20  13  15  1   
 21  13  29  1   
 22  13  30  1   
 23  14  15  1   
 24  14  16  1   
 25  14  31  1   
 26  15  17  1   
 27  15  32  1   
 28  16  33  1   
 29  17  18  1   
 30  17  34  1   
 31  17  35  1   
 32  18  19  2   
 33  18  20  1   
 34  19  21  1   
 35  20  22  2   
 36  20  36  1   
 37  21  22  1   
 38  21  37  1   
 39  22  23  1   
 40  23  38  1   
 41  23  39  1   
 42  23  40  1   
@<TRIPOS>SUBSTRUCTURE
  1 ****  11 GROUP 4 **** **** 0

# MOE 2024.06 (io_trps.svl 2023.06)
