@<TRIPOS>MOLECULE
NONAME
38 40 1 0 0 
SMALL
USER_CHARGES


@<TRIPOS>ATOM
  1 O       -1.4180    -0.6970     0.3200 O.co2 1 <1>  -0.9000 
  2 C       -2.3230    -0.5950     1.1780 C.2   1 <1>   0.9790 
  3 O       -2.1610    -1.2240     2.2450 O.co2 1 <1>  -0.9000 
  4 C       -3.5040     0.2310     0.9040 C.ar  1 <1>   0.1310 
  5 N       -4.4700     0.4030     1.8320 N.ar  1 <1>  -0.3100 
  6 C       -3.6300     0.8480    -0.3370 C.ar  1 <1>  -0.1500 
  7 N       -5.5250     1.1420     1.5920 N.ar  1 <1>  -0.3100 
  8 C       -4.7330     1.6200    -0.5900 C.ar  1 <1>  -0.1500 
  9 C       -5.6750     1.7530     0.4100 C.ar  1 <1>   0.4100 
 10 N       -6.8040     2.5330     0.2060 N.pl3 1 <1>  -0.8380 
 11 C       -8.0360     2.2090     0.9820 C.3   1 <1>   0.2090 
 12 C       -6.6240     3.9850    -0.0350 C.3   1 <1>   0.2090 
 13 C       -9.3080     2.7210     0.2630 C.3   1 <1>   0.0000 
 14 C       -7.8480     4.5440    -0.7680 C.3   1 <1>  -0.1600 
 15 C      -10.5870     2.4170     1.0670 C.3   1 <1>   0.2000 
 16 C       -9.1580     4.2320    -0.0210 C.3   1 <1>  -0.1600 
 17 C       -9.5530     1.9120    -1.0240 C.3   1 <1>  -0.1600 
 18 O      -10.4170     2.5570     2.4340 O.3   1 <1>  -0.6800 
 19 C      -10.9870     0.9790     0.7310 C.3   1 <1>  -0.1600 
 20 C      -10.2630     0.6310    -0.5760 C.3   1 <1>  -0.1600 
 21 H       -2.8640     0.7100    -1.0810 H     1 <1>   0.1500 
 22 H       -4.8760     2.1050    -1.5350 H     1 <1>   0.1500 
 23 H       -8.0990     1.1440     1.1260 H     1 <1>   0.0800 
 24 H       -7.9490     2.6700     1.9510 H     1 <1>   0.0800 
 25 H       -6.5050     4.4830     0.9130 H     1 <1>   0.0800 
 26 H       -5.7370     4.1570    -0.6190 H     1 <1>   0.0800 
 27 H       -7.7400     5.6090    -0.8720 H     1 <1>   0.0800 
 28 H       -7.8790     4.1210    -1.7560 H     1 <1>   0.0800 
 29 H      -11.3730     3.0870     0.7630 H     1 <1>   0.0800 
 30 H       -9.9950     4.5890    -0.5950 H     1 <1>   0.0800 
 31 H       -9.1590     4.7610     0.9170 H     1 <1>   0.0800 
 32 H      -10.2080     2.4600    -1.6780 H     1 <1>   0.0800 
 33 H       -8.6420     1.6940    -1.5560 H     1 <1>   0.0800 
 34 H       -9.8160     1.8660     2.7710 H     1 <1>   0.4000 
 35 H      -10.6880     0.2940     1.5040 H     1 <1>   0.0800 
 36 H      -12.0530     0.9210     0.5980 H     1 <1>   0.0800 
 37 H       -9.5310    -0.1380    -0.3890 H     1 <1>   0.0800 
 38 H      -10.9460     0.2810    -1.3300 H     1 <1>   0.0800 
@<TRIPOS>BOND
  1   1   2  ar  
  2   2   3  ar  
  3   2   4  1   
  4   4   5  ar  
  5   4   6  ar  
  6   5   7  ar  
  7   6   8  ar  
  8   6  21  1   
  9   7   9  ar  
 10   8   9  ar  
 11   8  22  1   
 12   9  10  1   
 13  10  11  1   
 14  10  12  1   
 15  11  13  1   
 16  11  23  1   
 17  11  24  1   
 18  12  14  1   
 19  12  25  1   
 20  12  26  1   
 21  13  15  1   
 22  13  16  1   
 23  13  17  1   
 24  14  16  1   
 25  14  27  1   
 26  14  28  1   
 27  15  18  1   
 28  15  19  1   
 29  15  29  1   
 30  16  30  1   
 31  16  31  1   
 32  17  20  1   
 33  17  32  1   
 34  17  33  1   
 35  18  34  1   
 36  19  20  1   
 37  19  35  1   
 38  19  36  1   
 39  20  37  1   
 40  20  38  1   
@<TRIPOS>SUBSTRUCTURE
  1 ****  10 GROUP 4 **** **** 0

# MOE 2024.06 (io_trps.svl 2023.06)
