@<TRIPOS>MOLECULE
NONAME
51 52 1 0 0 
SMALL
USER_CHARGES


@<TRIPOS>ATOM
  1 O       -0.3630     0.9100     0.6340 O.2   1 <1>  -0.5700 
  2 C       -0.1630     2.0570     0.3000 C.2   1 <1>   0.5690 
  3 N       -1.1920     2.9750     0.2850 N.am  1 <1>  -0.6600 
  4 C        1.2550     2.4980    -0.1330 C.3   1 <1>   0.1710 
  5 C       -2.5710     2.6000     0.7350 C.3   1 <1>   0.1400 
  6 C       -1.1170     4.3590    -0.2560 C.3   1 <1>   0.1400 
  7 N        2.4080     1.5850     0.1310 N.3   1 <1>  -0.8100 
  8 C       -3.5790     2.6920    -0.4380 C.3   1 <1>   0.0000 
  9 C       -2.0780     4.4980    -1.4430 C.3   1 <1>  -0.1600 
 10 C        3.6370     2.0950    -0.5080 C.3   1 <1>   0.1100 
 11 C        2.5930     1.3680     1.5750 C.3   1 <1>   0.0300 
 12 C       -5.0050     2.3430     0.0210 C.3   1 <1>   0.2000 
 13 C       -3.5150     4.1030    -1.0630 C.3   1 <1>  -0.1600 
 14 C       -3.3070     1.5810    -1.4680 C.3   1 <1>  -0.1600 
 15 C        4.6630     0.9780    -0.7080 C.3   1 <1>   0.1200 
 16 O       -5.2930     2.8980     1.2710 O.3   1 <1>  -0.5600 
 17 C       -5.0660     0.8120     0.0590 C.3   1 <1>  -0.1600 
 18 C       -3.9680     0.3230    -0.8960 C.3   1 <1>  -0.1600 
 19 O        5.7760     1.5120    -1.3570 O.3   1 <1>  -0.5600 
 20 C       -6.6400     2.8850     1.6240 C.3   1 <1>   0.0400 
 21 C        6.7630     0.5740    -1.6370 C.3   1 <1>   0.0400 
 22 H        1.4640     3.4390     0.3400 H     1 <1>   0.0800 
 23 H        1.2010     2.6670    -1.1930 H     1 <1>   0.0800 
 24 H       -2.5790     1.6090     1.1540 H     1 <1>   0.0800 
 25 H       -2.8660     3.2760     1.5180 H     1 <1>   0.0800 
 26 H       -1.3990     5.0500     0.5210 H     1 <1>   0.0800 
 27 H       -0.1220     4.6080    -0.5750 H     1 <1>   0.0800 
 28 H       -2.0670     5.5170    -1.7880 H     1 <1>   0.0800 
 29 H       -1.7280     3.8780    -2.2490 H     1 <1>   0.0800 
 30 H        3.3980     2.4870    -1.4810 H     1 <1>   0.0800 
 31 H        4.0650     2.8840     0.0870 H     1 <1>   0.0800 
 32 H        3.3960     0.6750     1.7500 H     1 <1>   0.0800 
 33 H        1.7010     0.9460     2.0060 H     1 <1>   0.0800 
 34 H        2.8140     2.2960     2.0720 H     1 <1>   0.0800 
 35 H       -5.7100     2.7200    -0.7010 H     1 <1>   0.0800 
 36 H       -4.1470     4.1550    -1.9320 H     1 <1>   0.0800 
 37 H       -3.8910     4.8120    -0.3450 H     1 <1>   0.0800 
 38 H       -3.7810     1.8270    -2.4020 H     1 <1>   0.0800 
 39 H       -2.2580     1.4240    -1.6480 H     1 <1>   0.0800 
 40 H        4.2410     0.2020    -1.3220 H     1 <1>   0.0800 
 41 H        4.9820     0.5770     0.2370 H     1 <1>   0.0800 
 42 H       -4.8590     0.4560     1.0530 H     1 <1>   0.0800 
 43 H       -6.0320     0.4640    -0.2580 H     1 <1>   0.0800 
 44 H       -3.2390    -0.2480    -0.3450 H     1 <1>   0.0800 
 45 H       -4.3680    -0.2950    -1.6820 H     1 <1>   0.0800 
 46 H       -6.7360     3.3560     2.5860 H     1 <1>   0.0800 
 47 H       -6.9860     1.8680     1.6840 H     1 <1>   0.0800 
 48 H       -7.2050     3.4370     0.8930 H     1 <1>   0.0800 
 49 H        7.5740     1.0790    -2.1320 H     1 <1>   0.0800 
 50 H        6.3580    -0.1850    -2.2840 H     1 <1>   0.0800 
 51 H        7.1130     0.1410    -0.7160 H     1 <1>   0.0800 
@<TRIPOS>BOND
  1   1   2  2   
  2   2   3  am  
  3   2   4  1   
  4   3   5  1   
  5   3   6  1   
  6   4   7  1   
  7   4  22  1   
  8   4  23  1   
  9   5   8  1   
 10   5  24  1   
 11   5  25  1   
 12   6   9  1   
 13   6  26  1   
 14   6  27  1   
 15   7  10  1   
 16   7  11  1   
 17   8  12  1   
 18   8  13  1   
 19   8  14  1   
 20   9  13  1   
 21   9  28  1   
 22   9  29  1   
 23  10  15  1   
 24  10  30  1   
 25  10  31  1   
 26  11  32  1   
 27  11  33  1   
 28  11  34  1   
 29  12  16  1   
 30  12  17  1   
 31  12  35  1   
 32  13  36  1   
 33  13  37  1   
 34  14  18  1   
 35  14  38  1   
 36  14  39  1   
 37  15  19  1   
 38  15  40  1   
 39  15  41  1   
 40  16  20  1   
 41  17  18  1   
 42  17  42  1   
 43  17  43  1   
 44  18  44  1   
 45  18  45  1   
 46  19  21  1   
 47  20  46  1   
 48  20  47  1   
 49  20  48  1   
 50  21  49  1   
 51  21  50  1   
 52  21  51  1   
@<TRIPOS>SUBSTRUCTURE
  1 ****   2 GROUP 4 **** **** 0

# MOE 2024.06 (io_trps.svl 2023.06)
