@<TRIPOS>MOLECULE
NONAME
43 45 1 0 0 
SMALL
USER_CHARGES


@<TRIPOS>ATOM
  1 F       -1.8490     2.8420     2.3810 F     1 <1>  -0.1900 
  2 C       -1.9430     3.2070     1.1300 C.ar  1 <1>   0.1900 
  3 C       -0.8270     3.1280     0.3070 C.ar  1 <1>  -0.1440 
  4 C       -3.1760     3.6590     0.6890 C.ar  1 <1>  -0.1500 
  5 C       -1.0200     3.5330    -1.0060 C.ar  1 <1>   0.1900 
  6 C        0.5230     2.6260     0.8280 C.3   1 <1>   0.0450 
  7 C       -3.3230     4.0510    -0.6320 C.ar  1 <1>  -0.1500 
  8 F       -0.0160     3.4980    -1.8410 F     1 <1>  -0.1900 
  9 C       -2.2360     3.9870    -1.4880 C.ar  1 <1>  -0.1500 
 10 C        1.4030     3.7700     1.3210 C.2   1 <1>   0.5690 
 11 O        1.0420     4.3380     2.3250 O.2   1 <1>  -0.5700 
 12 N        2.5430     4.1940     0.6720 N.am  1 <1>  -0.6600 
 13 C        3.4700     5.1610     1.3530 C.3   1 <1>   0.1400 
 14 C        2.9400     3.8700    -0.7320 C.3   1 <1>   0.1400 
 15 C        3.4970     6.5940     0.7470 C.3   1 <1>   0.4230 
 16 C        2.7700     5.0970    -1.6570 C.3   1 <1>  -0.0800 
 17 N        2.2520     7.0280    -0.0070 N.4   1 <1>  -0.9590 
 18 C        4.7680     6.8240    -0.0980 C.3   1 <1>   0.1200 
 19 C        4.1010     5.7260    -2.0990 C.3   1 <1>   0.1200 
 20 C        1.7610     6.1200    -1.1060 C.3   1 <1>   0.3430 
 21 C        1.1310     7.2710     0.9560 C.3   1 <1>   0.2630 
 22 O        4.9900     5.8160    -1.0350 O.3   1 <1>  -0.5600 
 23 H       -4.0060     3.6980     1.3730 H     1 <1>   0.1500 
 24 H        1.0170     2.0360     0.0830 H     1 <1>   0.0800 
 25 H        0.3630     1.9660     1.6610 H     1 <1>   0.0800 
 26 H       -4.2790     4.4000    -0.9890 H     1 <1>   0.1500 
 27 H       -2.3330     4.2810    -2.5190 H     1 <1>   0.1500 
 28 H        3.2080     5.2480     2.3920 H     1 <1>   0.0800 
 29 H        4.4650     4.7490     1.3400 H     1 <1>   0.0800 
 30 H        3.9620     3.5270    -0.7440 H     1 <1>   0.0800 
 31 H        2.3460     3.0640    -1.1170 H     1 <1>   0.0800 
 32 H        3.6030     7.2630     1.5850 H     1 <1>   0.0800 
 33 H        2.3280     4.7210    -2.5620 H     1 <1>   0.0800 
 34 H        2.4820     7.9270    -0.4470 H     1 <1>   0.4500 
 35 H        5.6240     6.8190     0.5550 H     1 <1>   0.0800 
 36 H        4.7450     7.7750    -0.6020 H     1 <1>   0.0800 
 37 H        3.9700     6.6990    -2.5430 H     1 <1>   0.0800 
 38 H        4.5690     5.0870    -2.8290 H     1 <1>   0.0800 
 39 H        0.9110     5.5640    -0.7430 H     1 <1>   0.0800 
 40 H        1.4090     6.7280    -1.9230 H     1 <1>   0.0800 
 41 H        0.8330     6.3510     1.4290 H     1 <1>   0.0800 
 42 H        0.2750     7.6800     0.4440 H     1 <1>   0.0800 
 43 H        1.4340     7.9640     1.7240 H     1 <1>   0.0800 
@<TRIPOS>BOND
  1   1   2  1   
  2   2   3  ar  
  3   2   4  ar  
  4   3   5  ar  
  5   3   6  1   
  6   4   7  ar  
  7   4  23  1   
  8   5   8  1   
  9   5   9  ar  
 10   6  10  1   
 11   6  24  1   
 12   6  25  1   
 13   7   9  ar  
 14   7  26  1   
 15   9  27  1   
 16  10  11  2   
 17  10  12  am  
 18  12  13  1   
 19  12  14  1   
 20  13  15  1   
 21  13  28  1   
 22  13  29  1   
 23  14  16  1   
 24  14  30  1   
 25  14  31  1   
 26  15  17  1   
 27  15  18  1   
 28  15  32  1   
 29  16  19  1   
 30  16  20  1   
 31  16  33  1   
 32  17  20  1   
 33  17  21  1   
 34  17  34  1   
 35  18  22  1   
 36  18  35  1   
 37  18  36  1   
 38  19  22  1   
 39  19  37  1   
 40  19  38  1   
 41  20  39  1   
 42  20  40  1   
 43  21  41  1   
 44  21  42  1   
 45  21  43  1   
@<TRIPOS>SUBSTRUCTURE
  1 ****  10 GROUP 4 **** **** 0

# MOE 2024.06 (io_trps.svl 2023.06)
