@<TRIPOS>MOLECULE
NONAME
53 54 1 0 0 
SMALL
USER_CHARGES


@<TRIPOS>ATOM
  1 O       -0.0130     0.0890    -1.1110 O.2   1 <1>  -0.5700 
  2 C        0.9630    -0.5100    -0.7430 C.2   1 <1>   0.5690 
  3 N        2.0400     0.0720    -0.1330 N.am  1 <1>  -0.4940 
  4 C        0.9860    -2.0020    -0.9720 C.3   1 <1>  -0.0990 
  5 C        2.3060     1.4130     0.2430 C.2   1 <1>  -0.0880 
  6 C        0.1900    -2.7190     0.1310 C.3   1 <1>   0.4230 
  7 N        1.4290     2.4220     0.5290 N.pl3 1 <1>   0.3140 
  8 C        3.5460     1.9380     0.4030 C.2   1 <1>  -0.1810 
  9 N        0.3870    -4.1980     0.0990 N.4   1 <1>  -0.9590 
 10 C       -1.3170    -2.4590     0.0680 C.3   1 <1>  -0.2400 
 11 N        2.0800     3.5550     0.8630 N.2   1 <1>  -0.7070 
 12 C       -0.0380     2.4100     0.5870 C.3   1 <1>   0.0160 
 13 C        3.3360     3.2620     0.7770 C.2   1 <1>   0.1080 
 14 C        4.8960     1.2630     0.2150 C.3   1 <1>   0.0210 
 15 C        1.7340    -4.6120     0.5790 C.3   1 <1>   0.3430 
 16 C        0.0790    -4.8400    -1.2100 C.3   1 <1>   0.3430 
 17 C        4.4090     4.2880     1.0660 C.3   1 <1>  -0.0590 
 18 C        5.3220     1.3290    -1.2520 C.3   1 <1>  -0.2400 
 19 C        1.6790    -5.9850     1.2550 C.3   1 <1>  -0.1600 
 20 C       -0.8010    -6.0720    -0.9980 C.3   1 <1>  -0.1600 
 21 C        1.0840    -7.1320     0.4160 C.3   1 <1>  -0.1600 
 22 C       -0.4270    -6.9870     0.1820 C.3   1 <1>  -0.1600 
 23 H        2.8700    -0.5100    -0.0540 H     1 <1>   0.3700 
 24 H        2.0070    -2.3330    -0.9820 H     1 <1>   0.0800 
 25 H        0.5550    -2.1920    -1.9370 H     1 <1>   0.0800 
 26 H        0.5400    -2.3540     1.0850 H     1 <1>   0.0800 
 27 H       -0.2870    -4.5980     0.7650 H     1 <1>   0.4500 
 28 H       -1.7150    -2.6660    -0.9090 H     1 <1>   0.0800 
 29 H       -1.5220    -1.4260     0.2890 H     1 <1>   0.0800 
 30 H       -1.8390    -3.0470     0.8010 H     1 <1>   0.0800 
 31 H       -0.3730     1.4950     1.0340 H     1 <1>   0.0800 
 32 H       -0.4270     2.5010    -0.4100 H     1 <1>   0.0800 
 33 H       -0.3740     3.2420     1.1770 H     1 <1>   0.0800 
 34 H        4.8360     0.2380     0.5310 H     1 <1>   0.0800 
 35 H        5.6340     1.7480     0.8290 H     1 <1>   0.0800 
 36 H        2.1020    -3.8970     1.2970 H     1 <1>   0.0800 
 37 H        2.4250    -4.6410    -0.2480 H     1 <1>   0.0800 
 38 H        0.9950    -5.1340    -1.6960 H     1 <1>   0.0800 
 39 H       -0.4380    -4.1530    -1.8600 H     1 <1>   0.0800 
 40 H        5.1560     4.2680     0.2950 H     1 <1>   0.0800 
 41 H        4.8650     4.0770     2.0150 H     1 <1>   0.0800 
 42 H        3.9730     5.2690     1.1000 H     1 <1>   0.0800 
 43 H        4.5960     0.8390    -1.8760 H     1 <1>   0.0800 
 44 H        6.2770     0.8520    -1.3850 H     1 <1>   0.0800 
 45 H        5.4020     2.3540    -1.5670 H     1 <1>   0.0800 
 46 H        1.1410    -5.9010     2.1840 H     1 <1>   0.0800 
 47 H        2.6880    -6.2550     1.5140 H     1 <1>   0.0800 
 48 H       -0.7580    -6.6510    -1.9050 H     1 <1>   0.0800 
 49 H       -1.8260    -5.7600    -0.8880 H     1 <1>   0.0800 
 50 H        1.2420    -8.0470     0.9650 H     1 <1>   0.0800 
 51 H        1.6070    -7.2390    -0.5190 H     1 <1>   0.0800 
 52 H       -0.8370    -7.9640    -0.0180 H     1 <1>   0.0800 
 53 H       -0.9010    -6.6420     1.0850 H     1 <1>   0.0800 
@<TRIPOS>BOND
  1   1   2  2   
  2   2   3  am  
  3   2   4  1   
  4   3   5  1   
  5   3  23  1   
  6   4   6  1   
  7   4  24  1   
  8   4  25  1   
  9   5   7  1   
 10   5   8  2   
 11   6   9  1   
 12   6  10  1   
 13   6  26  1   
 14   7  11  1   
 15   7  12  1   
 16   8  13  1   
 17   8  14  1   
 18   9  15  1   
 19   9  16  1   
 20   9  27  1   
 21  10  28  1   
 22  10  29  1   
 23  10  30  1   
 24  11  13  2   
 25  12  31  1   
 26  12  32  1   
 27  12  33  1   
 28  13  17  1   
 29  14  18  1   
 30  14  34  1   
 31  14  35  1   
 32  15  19  1   
 33  15  36  1   
 34  15  37  1   
 35  16  20  1   
 36  16  38  1   
 37  16  39  1   
 38  17  40  1   
 39  17  41  1   
 40  17  42  1   
 41  18  43  1   
 42  18  44  1   
 43  18  45  1   
 44  19  21  1   
 45  19  46  1   
 46  19  47  1   
 47  20  22  1   
 48  20  48  1   
 49  20  49  1   
 50  21  22  1   
 51  21  50  1   
 52  21  51  1   
 53  22  52  1   
 54  22  53  1   
@<TRIPOS>SUBSTRUCTURE
  1 ****   2 GROUP 4 **** **** 0

# MOE 2024.06 (io_trps.svl 2023.06)
