@<TRIPOS>MOLECULE
NONAME
38 40 1 0 0 
SMALL
USER_CHARGES


@<TRIPOS>ATOM
  1 S        0.2320     0.3260    -0.8700 S.3   1 <1>  -0.0800 
  2 C        0.7960    -0.6690     0.4480 C.2   1 <1>  -0.1400 
  3 C        0.2120     1.7020     0.2110 C.2   1 <1>   0.2280 
  4 C        0.9200     0.1030     1.5400 C.2   1 <1>   0.0770 
  5 C        1.0680    -2.1340     0.1880 C.3   1 <1>   0.5230 
  6 N        0.5810     1.4370     1.4000 N.2   1 <1>  -0.5650 
  7 N       -0.1900    -2.9140     0.3220 N.4   1 <1>  -0.9590 
  8 C       -1.2790    -2.5820    -0.6360 C.3   1 <1>   0.3430 
  9 C       -0.0050    -4.3920     0.2350 C.3   1 <1>   0.3430 
 10 C       -2.2270    -3.7750    -0.5260 C.3   1 <1>   0.2000 
 11 C       -1.2550    -4.9550    -0.4580 C.3   1 <1>  -0.0800 
 12 O       -2.9100    -3.6570     0.6820 O.3   1 <1>  -0.6800 
 13 C       -1.7810    -6.2360     0.2200 C.3   1 <1>   0.0210 
 14 C       -0.7720    -7.3670     0.1190 C.2   1 <1>   0.1080 
 15 N        0.4780    -7.2420     0.4490 N.2   1 <1>  -0.7070 
 16 C       -1.0730    -8.6480    -0.3290 C.2   1 <1>  -0.1500 
 17 N        1.0100    -8.4640     0.2260 N.pl3 1 <1>   0.3000 
 18 C        0.0900    -9.3270    -0.2500 C.2   1 <1>  -0.3320 
 19 C        0.3820   -10.7750    -0.6000 C.3   1 <1>  -0.0600 
 20 H       -0.1040     2.6480    -0.1950 H     1 <1>   0.1500 
 21 H        1.2570    -0.2150     2.5140 H     1 <1>   0.1500 
 22 H        1.7860    -2.4890     0.9090 H     1 <1>   0.0800 
 23 H        1.4870    -2.2590    -0.7970 H     1 <1>   0.0800 
 24 H       -0.6010    -2.7260     1.2490 H     1 <1>   0.4500 
 25 H       -1.7780    -1.6610    -0.3800 H     1 <1>   0.0800 
 26 H       -0.8870    -2.5180    -1.6380 H     1 <1>   0.0800 
 27 H        0.8710    -4.6500    -0.3400 H     1 <1>   0.0800 
 28 H        0.0980    -4.8160     1.2220 H     1 <1>   0.0800 
 29 H       -2.9360    -3.8280    -1.3360 H     1 <1>   0.0800 
 30 H       -0.9700    -5.2110    -1.4640 H     1 <1>   0.0800 
 31 H       -3.6830    -4.2590     0.7170 H     1 <1>   0.4000 
 32 H       -2.6970    -6.5440    -0.2500 H     1 <1>   0.0800 
 33 H       -1.9810    -6.0590     1.2620 H     1 <1>   0.0800 
 34 H       -2.0330    -9.0030    -0.6600 H     1 <1>   0.1500 
 35 H        1.9970    -8.6840     0.4110 H     1 <1>   0.2700 
 36 H       -0.5120   -11.2570    -0.9560 H     1 <1>   0.0800 
 37 H        0.7330   -11.3050     0.2680 H     1 <1>   0.0800 
 38 H        1.1290   -10.8300    -1.3720 H     1 <1>   0.0800 
@<TRIPOS>BOND
  1   1   2  1   
  2   1   3  1   
  3   2   4  2   
  4   2   5  1   
  5   3   6  2   
  6   3  20  1   
  7   4   6  1   
  8   4  21  1   
  9   5   7  1   
 10   5  22  1   
 11   5  23  1   
 12   7   8  1   
 13   7   9  1   
 14   7  24  1   
 15   8  10  1   
 16   8  25  1   
 17   8  26  1   
 18   9  11  1   
 19   9  27  1   
 20   9  28  1   
 21  10  11  1   
 22  10  12  1   
 23  10  29  1   
 24  11  13  1   
 25  11  30  1   
 26  12  31  1   
 27  13  14  1   
 28  13  32  1   
 29  13  33  1   
 30  14  15  2   
 31  14  16  1   
 32  15  17  1   
 33  16  18  2   
 34  16  34  1   
 35  17  18  1   
 36  17  35  1   
 37  18  19  1   
 38  19  36  1   
 39  19  37  1   
 40  19  38  1   
@<TRIPOS>SUBSTRUCTURE
  1 ****   9 GROUP 4 **** **** 0

# MOE 2024.06 (io_trps.svl 2023.06)
