@<TRIPOS>MOLECULE
NONAME
42 45 1 0 0 
SMALL
USER_CHARGES


@<TRIPOS>ATOM
  1 O       -0.7120    -0.4060     0.6730 O.co2 1 <1>  -0.9000 
  2 C        0.5240    -0.4710     0.6990 C.2   1 <1>   0.9060 
  3 O        1.2450     0.3850     1.2080 O.co2 1 <1>  -0.9000 
  4 C        1.1670    -1.7460     0.1400 C.3   1 <1>   0.2370 
  5 N        0.2480    -2.9580     0.1620 N.4   1 <1>  -0.9590 
  6 C       -0.2040    -3.2730     1.5400 C.3   1 <1>   0.3430 
  7 C        0.7230    -4.1170    -0.6390 C.3   1 <1>   0.3430 
  8 C       -1.3840    -4.2470     1.5000 C.3   1 <1>  -0.1600 
  9 C       -0.0390    -5.3960    -0.2790 C.3   1 <1>  -0.1600 
 10 C       -1.4520    -5.0860     0.2120 C.3   1 <1>   0.4600 
 11 O       -2.0490    -4.3220    -0.8140 O.3   1 <1>  -0.5600 
 12 C       -2.2470    -6.3700     0.4110 C.2   1 <1>  -0.3320 
 13 C       -3.4570    -4.2470    -0.8600 C.3   1 <1>   0.1200 
 14 N       -1.9050    -7.4390     1.1970 N.pl3 1 <1>   0.0330 
 15 C       -3.4270    -6.6240    -0.1890 C.2   1 <1>  -0.1810 
 16 C       -4.0760    -5.6290    -1.1190 C.3   1 <1>   0.0210 
 17 C       -2.8930    -8.3850     1.0810 C.ar  1 <1>  -0.1520 
 18 C       -3.8670    -7.9020     0.2110 C.ar  1 <1>   0.0000 
 19 C       -3.0220    -9.6440     1.6710 C.ar  1 <1>  -0.1500 
 20 C       -4.9880    -8.6870    -0.0790 C.ar  1 <1>  -0.1500 
 21 C       -4.1300   -10.4060     1.3790 C.ar  1 <1>  -0.1500 
 22 C       -5.1130    -9.9270     0.5040 C.ar  1 <1>  -0.1500 
 23 H        2.0530    -1.9400     0.7160 H     1 <1>   0.0800 
 24 H        1.4610    -1.5300    -0.8710 H     1 <1>   0.0800 
 25 H       -0.6270    -2.6060    -0.2820 H     1 <1>   0.4500 
 26 H       -0.5090    -2.3690     2.0450 H     1 <1>   0.0800 
 27 H        0.6140    -3.7070     2.0900 H     1 <1>   0.0800 
 28 H        1.7770    -4.2710    -0.4800 H     1 <1>   0.0800 
 29 H        0.5660    -3.8980    -1.6830 H     1 <1>   0.0800 
 30 H       -2.2980    -3.7030     1.6400 H     1 <1>   0.0800 
 31 H       -1.2870    -4.8990     2.3470 H     1 <1>   0.0800 
 32 H        0.5000    -5.9250     0.4850 H     1 <1>   0.0800 
 33 H       -0.0890    -6.0400    -1.1380 H     1 <1>   0.0800 
 34 H       -3.7250    -3.5650    -1.6470 H     1 <1>   0.0800 
 35 H       -3.8130    -3.8490     0.0740 H     1 <1>   0.0800 
 36 H       -1.0670    -7.5500     1.7740 H     1 <1>   0.2700 
 37 H       -3.9090    -5.9230    -2.1400 H     1 <1>   0.0800 
 38 H       -5.1360    -5.5910    -0.9420 H     1 <1>   0.0800 
 39 H       -2.2630   -10.0070     2.3410 H     1 <1>   0.1500 
 40 H       -5.7340    -8.3080    -0.7520 H     1 <1>   0.1500 
 41 H       -4.2520   -11.3790     1.8200 H     1 <1>   0.1500 
 42 H       -5.9690   -10.5430     0.2910 H     1 <1>   0.1500 
@<TRIPOS>BOND
  1   1   2  ar  
  2   2   3  ar  
  3   2   4  1   
  4   4   5  1   
  5   4  23  1   
  6   4  24  1   
  7   5   6  1   
  8   5   7  1   
  9   5  25  1   
 10   6   8  1   
 11   6  26  1   
 12   6  27  1   
 13   7   9  1   
 14   7  28  1   
 15   7  29  1   
 16   8  10  1   
 17   8  30  1   
 18   8  31  1   
 19   9  10  1   
 20   9  32  1   
 21   9  33  1   
 22  10  11  1   
 23  10  12  1   
 24  11  13  1   
 25  12  14  1   
 26  12  15  2   
 27  13  16  1   
 28  13  34  1   
 29  13  35  1   
 30  14  17  1   
 31  14  36  1   
 32  15  16  1   
 33  15  18  1   
 34  16  37  1   
 35  16  38  1   
 36  17  18  ar  
 37  17  19  ar  
 38  18  20  ar  
 39  19  21  ar  
 40  19  39  1   
 41  20  22  ar  
 42  20  40  1   
 43  21  22  ar  
 44  21  41  1   
 45  22  42  1   
@<TRIPOS>SUBSTRUCTURE
  1 ****  10 GROUP 4 **** **** 0

# MOE 2024.06 (io_trps.svl 2023.06)
