@<TRIPOS>MOLECULE
NONAME
45 46 1 0 0 
SMALL
USER_CHARGES


@<TRIPOS>ATOM
  1 CL      -1.2480     2.0710    -3.4330 Cl    1 <1>  -0.1770 
  2 C       -2.0590     1.0800    -2.2510 C.ar  1 <1>   0.1770 
  3 C       -3.4360     0.9630    -2.3050 C.ar  1 <1>  -0.1500 
  4 C       -1.3200     0.4330    -1.2800 C.ar  1 <1>  -0.1500 
  5 C       -4.0930     0.1850    -1.3610 C.ar  1 <1>  -0.1440 
  6 C       -1.9730    -0.3510    -0.3460 C.ar  1 <1>  -0.1500 
  7 C       -3.3530    -0.4750    -0.3880 C.ar  1 <1>  -0.1500 
  8 C       -5.6020     0.0540    -1.3800 C.3   1 <1>   0.4870 
  9 N       -6.1400     0.9600    -0.3270 N.4   1 <1>  -0.9590 
 10 C       -7.4740     0.5220     0.1860 C.3   1 <1>   0.4810 
 11 C       -6.1150     2.3820    -0.7720 C.3   1 <1>   0.3430 
 12 C       -7.3420    -0.8700     0.7960 C.2   1 <1>  -0.0380 
 13 C       -6.2310     3.3200     0.4310 C.3   1 <1>  -0.1600 
 14 N       -7.8310    -1.9780     0.1360 N.pl3 1 <1>  -0.5500 
 15 C       -6.7300    -1.0950     1.9820 C.2   1 <1>  -0.1360 
 16 C       -6.0580     4.7800    -0.0060 C.3   1 <1>  -0.1600 
 17 C       -7.6810    -3.2320     0.6600 C.2   1 <1>   0.4390 
 18 C       -6.5890    -2.4170     2.4750 C.2   1 <1>   0.7670 
 19 C       -6.1660     5.7250     1.1930 C.3   1 <1>  -0.2400 
 20 N       -7.0850    -3.4720     1.7650 N.2   1 <1>  -0.6610 
 21 C       -8.2630    -4.3740    -0.1360 C.3   1 <1>  -0.1790 
 22 O       -5.9980    -2.6190     3.5200 O.2   1 <1>  -0.5700 
 23 H       -3.9630     1.4810    -3.0870 H     1 <1>   0.1500 
 24 H       -0.2490     0.5410    -1.2610 H     1 <1>   0.1500 
 25 H       -1.4050    -0.8660     0.4120 H     1 <1>   0.1500 
 26 H       -3.8330    -1.1010     0.3480 H     1 <1>   0.1500 
 27 H       -5.8570    -0.9720    -1.1700 H     1 <1>   0.0800 
 28 H       -5.9950     0.3160    -2.3490 H     1 <1>   0.0800 
 29 H       -5.4670     0.8800     0.4460 H     1 <1>   0.4500 
 30 H       -8.2020     0.5160    -0.6080 H     1 <1>   0.0800 
 31 H       -7.8130     1.2020     0.9500 H     1 <1>   0.0800 
 32 H       -6.9150     2.5750    -1.4690 H     1 <1>   0.0800 
 33 H       -5.1810     2.5890    -1.2690 H     1 <1>   0.0800 
 34 H       -5.4630     3.0850     1.1490 H     1 <1>   0.0800 
 35 H       -7.1930     3.2180     0.8990 H     1 <1>   0.0800 
 36 H       -8.3850    -1.9220    -0.7250 H     1 <1>   0.4000 
 37 H       -6.3190    -0.3230     2.6040 H     1 <1>   0.1500 
 38 H       -6.8150     5.0440    -0.7270 H     1 <1>   0.0800 
 39 H       -5.0950     4.9160    -0.4700 H     1 <1>   0.0800 
 40 H       -7.1290     5.6380     1.6650 H     1 <1>   0.0800 
 41 H       -6.0410     6.7450     0.8690 H     1 <1>   0.0800 
 42 H       -5.4030     5.5090     1.9200 H     1 <1>   0.0800 
 43 H       -7.8070    -4.4220    -1.1070 H     1 <1>   0.0800 
 44 H       -9.3250    -4.2490    -0.2410 H     1 <1>   0.0800 
 45 H       -8.0800    -5.3050     0.3710 H     1 <1>   0.0800 
@<TRIPOS>BOND
  1   1   2  1   
  2   2   3  ar  
  3   2   4  ar  
  4   3   5  ar  
  5   3  23  1   
  6   4   6  ar  
  7   4  24  1   
  8   5   7  ar  
  9   5   8  1   
 10   6   7  ar  
 11   6  25  1   
 12   7  26  1   
 13   8   9  1   
 14   8  27  1   
 15   8  28  1   
 16   9  10  1   
 17   9  11  1   
 18   9  29  1   
 19  10  12  1   
 20  10  30  1   
 21  10  31  1   
 22  11  13  1   
 23  11  32  1   
 24  11  33  1   
 25  12  14  1   
 26  12  15  2   
 27  13  16  1   
 28  13  34  1   
 29  13  35  1   
 30  14  17  1   
 31  14  36  1   
 32  15  18  1   
 33  15  37  1   
 34  16  19  1   
 35  16  38  1   
 36  16  39  1   
 37  17  20  2   
 38  17  21  1   
 39  18  20  1   
 40  18  22  2   
 41  19  40  1   
 42  19  41  1   
 43  19  42  1   
 44  21  43  1   
 45  21  44  1   
 46  21  45  1   
@<TRIPOS>SUBSTRUCTURE
  1 ****   9 GROUP 4 **** **** 0

# MOE 2024.06 (io_trps.svl 2023.06)
