@<TRIPOS>MOLECULE
NONAME
45 46 1 0 0 
SMALL
USER_CHARGES


@<TRIPOS>ATOM
  1 O       -0.6470     0.7180    -3.1270 O.co2 1 <1>  -0.9000 
  2 C        0.3650     0.7540    -2.4250 C.2   1 <1>   0.9060 
  3 O        0.9160    -0.2510    -1.9720 O.co2 1 <1>  -0.9000 
  4 C        0.9670     2.0850    -2.1170 C.3   1 <1>  -0.2660 
  5 C       -0.0790     2.9690    -1.4550 C.3   1 <1>   0.4330 
  6 N        0.4290     4.3670    -1.5390 N.pl3 1 <1>  -0.8690 
  7 C       -0.4700     2.6590     0.0040 C.ar  1 <1>  -0.1430 
  8 C        1.2750     5.0320    -0.7370 C.ar  1 <1>   0.4100 
  9 C       -0.0120     1.5470     0.7050 C.ar  1 <1>  -0.1500 
 10 C       -1.3220     3.5400     0.6610 C.ar  1 <1>  -0.1500 
 11 N        1.3190     6.3320    -0.9300 N.ar  1 <1>  -0.6200 
 12 C        2.0570     4.3980     0.2450 C.ar  1 <1>  -0.1500 
 13 C       -0.3810     1.3360     2.0230 C.ar  1 <1>  -0.1500 
 14 C       -1.6930     3.3330     1.9790 C.ar  1 <1>  -0.1500 
 15 C        2.0980     7.0520    -0.1330 C.ar  1 <1>   0.7710 
 16 C        2.8480     5.1460     1.0460 C.ar  1 <1>   0.2180 
 17 C       -1.2180     2.2300     2.6630 C.ar  1 <1>  -0.1500 
 18 N        2.8420     6.4820     0.8320 N.ar  1 <1>  -0.1790 
 19 N        2.1550     8.4060    -0.2910 N.pl3 1 <1>  -0.8380 
 20 C        3.7210     4.5630     2.1490 C.3   1 <1>  -0.0170 
 21 C        2.7980     9.3950     0.6310 C.3   1 <1>   0.1290 
 22 C        1.4690     9.0780    -1.4450 C.3   1 <1>   0.1290 
 23 C        5.2150     4.8140     1.9010 C.3   1 <1>  -0.2400 
 24 H        1.2670     2.5090    -3.0540 H     1 <1>   0.0800 
 25 H        1.8280     1.9500    -1.4960 H     1 <1>   0.0800 
 26 H       -0.9820     2.9170    -2.0440 H     1 <1>   0.0800 
 27 H       -0.0160     4.8990    -2.2880 H     1 <1>   0.4000 
 28 H        0.6310     0.8200     0.2400 H     1 <1>   0.1500 
 29 H       -1.7010     4.4000     0.1380 H     1 <1>   0.1500 
 30 H        2.0130     3.3310     0.3420 H     1 <1>   0.1500 
 31 H       -0.0180     0.4660     2.5410 H     1 <1>   0.1500 
 32 H       -2.3540     4.0270     2.4660 H     1 <1>   0.1500 
 33 H       -1.5070     2.0610     3.6860 H     1 <1>   0.1500 
 34 H        3.4240     7.1110     1.3640 H     1 <1>   0.4570 
 35 H        3.5550     3.5000     2.2060 H     1 <1>   0.0800 
 36 H        3.4320     4.9810     3.0980 H     1 <1>   0.0800 
 37 H        2.9680     8.9820     1.6090 H     1 <1>   0.0800 
 38 H        2.1560    10.2530     0.7470 H     1 <1>   0.0800 
 39 H        3.7350     9.7270     0.2140 H     1 <1>   0.0800 
 40 H        1.3300     8.4010    -2.2720 H     1 <1>   0.0800 
 41 H        2.0580     9.9080    -1.7980 H     1 <1>   0.0800 
 42 H        0.5040     9.4430    -1.1340 H     1 <1>   0.0800 
 43 H        5.5130     4.3980     0.9540 H     1 <1>   0.0800 
 44 H        5.7960     4.3360     2.6720 H     1 <1>   0.0800 
 45 H        5.4480     5.8640     1.9100 H     1 <1>   0.0800 
@<TRIPOS>BOND
  1   1   2  ar  
  2   2   3  ar  
  3   2   4  1   
  4   4   5  1   
  5   4  24  1   
  6   4  25  1   
  7   5   6  1   
  8   5   7  1   
  9   5  26  1   
 10   6   8  1   
 11   6  27  1   
 12   7   9  ar  
 13   7  10  ar  
 14   8  11  ar  
 15   8  12  ar  
 16   9  13  ar  
 17   9  28  1   
 18  10  14  ar  
 19  10  29  1   
 20  11  15  ar  
 21  12  16  ar  
 22  12  30  1   
 23  13  17  ar  
 24  13  31  1   
 25  14  17  ar  
 26  14  32  1   
 27  15  18  ar  
 28  15  19  1   
 29  16  18  ar  
 30  16  20  1   
 31  17  33  1   
 32  18  34  1   
 33  19  21  1   
 34  19  22  1   
 35  20  23  1   
 36  20  35  1   
 37  20  36  1   
 38  21  37  1   
 39  21  38  1   
 40  21  39  1   
 41  22  40  1   
 42  22  41  1   
 43  22  42  1   
 44  23  43  1   
 45  23  44  1   
 46  23  45  1   
@<TRIPOS>SUBSTRUCTURE
  1 ****  12 GROUP 4 **** **** 0

# MOE 2024.06 (io_trps.svl 2023.06)
