@<TRIPOS>MOLECULE
NONAME
43 45 1 0 0 
SMALL
USER_CHARGES


@<TRIPOS>ATOM
  1 O        1.1680    -2.2010     0.8980 O.3   1 <1>  -0.3630 
  2 C        0.3540    -2.9670     0.1560 C.ar  1 <1>   0.0830 
  3 C        1.7150    -2.9700     1.9610 C.3   1 <1>   0.1200 
  4 C        0.2480    -4.2480     0.6260 C.ar  1 <1>  -0.1440 
  5 C       -0.3240    -2.5530    -0.9740 C.ar  1 <1>  -0.1500 
  6 C        1.1110    -4.3820     1.8460 C.3   1 <1>  -0.0160 
  7 C       -0.5530    -5.1700    -0.0190 C.ar  1 <1>  -0.1500 
  8 C       -1.1320    -3.4680    -1.6310 C.ar  1 <1>  -0.1500 
  9 C       -1.2560    -4.7710    -1.1530 C.ar  1 <1>  -0.1440 
 10 C       -2.1630    -5.7630    -1.8520 C.3   1 <1>   0.4870 
 11 N       -3.3680    -5.9520    -1.0060 N.4   1 <1>  -0.9590 
 12 C       -4.1270    -7.1680    -1.4080 C.3   1 <1>   0.5240 
 13 C       -4.2050    -4.7200    -0.8530 C.3   1 <1>   0.3430 
 14 C       -3.5340    -8.3660    -0.6720 C.2   1 <1>   0.0460 
 15 C       -4.9580    -4.6730     0.4920 C.3   1 <1>   0.1200 
 16 N       -2.2000    -8.5030    -0.5090 N.2   1 <1>  -0.5650 
 17 C       -4.1920    -9.3920    -0.0880 C.2   1 <1>  -0.3020 
 18 O       -5.7010    -5.8330     0.6890 O.3   1 <1>  -0.6800 
 19 C       -2.0750    -9.6040     0.1560 C.2   1 <1>   0.0060 
 20 N       -3.2540   -10.1960     0.4440 N.pl3 1 <1>   0.0330 
 21 C       -0.7440   -10.1910     0.5780 C.3   1 <1>  -0.0600 
 22 H        1.4490    -2.4970     2.8900 H     1 <1>   0.0800 
 23 H        2.7840    -2.9870     1.8440 H     1 <1>   0.0800 
 24 H       -0.2110    -1.5420    -1.3210 H     1 <1>   0.1500 
 25 H        0.5270    -4.6220     2.7160 H     1 <1>   0.0800 
 26 H        1.8810    -5.1190     1.7050 H     1 <1>   0.0800 
 27 H       -0.6210    -6.1780     0.3570 H     1 <1>   0.1500 
 28 H       -1.6560    -3.1510    -2.5160 H     1 <1>   0.1500 
 29 H       -1.6370    -6.6980    -1.9690 H     1 <1>   0.0800 
 30 H       -2.4370    -5.3990    -2.8270 H     1 <1>   0.0800 
 31 H       -2.9990    -6.2140    -0.0810 H     1 <1>   0.4500 
 32 H       -4.0560    -7.3210    -2.4710 H     1 <1>   0.0800 
 33 H       -5.1660    -7.0770    -1.1420 H     1 <1>   0.0800 
 34 H       -4.9130    -4.6520    -1.6620 H     1 <1>   0.0800 
 35 H       -3.5740    -3.8480    -0.9000 H     1 <1>   0.0800 
 36 H       -5.6330    -3.8330     0.5070 H     1 <1>   0.0800 
 37 H       -4.2610    -4.5730     1.3060 H     1 <1>   0.0800 
 38 H       -5.2470    -9.5950    -0.0180 H     1 <1>   0.1500 
 39 H       -6.1980    -5.7920     1.5360 H     1 <1>   0.4000 
 40 H       -3.3950   -11.0720     0.9580 H     1 <1>   0.2700 
 41 H        0.0590    -9.5640     0.2340 H     1 <1>   0.0800 
 42 H       -0.6200   -11.1700     0.1520 H     1 <1>   0.0800 
 43 H       -0.6920   -10.2600     1.6490 H     1 <1>   0.0800 
@<TRIPOS>BOND
  1   1   2  1   
  2   1   3  1   
  3   2   4  ar  
  4   2   5  ar  
  5   3   6  1   
  6   3  22  1   
  7   3  23  1   
  8   4   6  1   
  9   4   7  ar  
 10   5   8  ar  
 11   5  24  1   
 12   6  25  1   
 13   6  26  1   
 14   7   9  ar  
 15   7  27  1   
 16   8   9  ar  
 17   8  28  1   
 18   9  10  1   
 19  10  11  1   
 20  10  29  1   
 21  10  30  1   
 22  11  12  1   
 23  11  13  1   
 24  11  31  1   
 25  12  14  1   
 26  12  32  1   
 27  12  33  1   
 28  13  15  1   
 29  13  34  1   
 30  13  35  1   
 31  14  16  1   
 32  14  17  2   
 33  15  18  1   
 34  15  36  1   
 35  15  37  1   
 36  16  19  2   
 37  17  20  1   
 38  17  38  1   
 39  18  39  1   
 40  19  20  1   
 41  19  21  1   
 42  20  40  1   
 43  21  41  1   
 44  21  42  1   
 45  21  43  1   
@<TRIPOS>SUBSTRUCTURE
  1 ****   7 GROUP 4 **** **** 0

# MOE 2024.06 (io_trps.svl 2023.06)
