@<TRIPOS>MOLECULE
NONAME
38 40 1 0 0 
SMALL
USER_CHARGES


@<TRIPOS>ATOM
  1 S       -0.2180    -0.4490     1.5120 S.o2  1 <1>   1.5000 
  2 O       -0.8470    -1.6490     2.0200 O.2   1 <1>  -0.6500 
  3 O        0.1820     0.5840     2.4440 O.2   1 <1>  -0.6500 
  4 N       -1.3200     0.2700     0.4430 N.am  1 <1>  -0.8490 
  5 C        1.1500    -0.9260     0.4250 C.2   1 <1>  -0.0220 
  6 C       -2.6490     0.4030     1.0620 C.3   1 <1>   0.1960 
  7 C       -0.8460     1.5670    -0.0470 C.3   1 <1>   0.1960 
  8 S        2.6510    -0.0050     0.5110 S.3   1 <1>  -0.0800 
  9 C        1.2700    -1.8840    -0.5180 C.2   1 <1>  -0.1500 
 10 C       -3.7170     0.9090     0.0600 C.3   1 <1>   0.0000 
 11 C       -1.8030     2.1110    -1.1100 C.3   1 <1>  -0.1600 
 12 C        3.3940    -0.9740    -0.7470 C.2   1 <1>  -0.1100 
 13 C        2.5380    -1.9160    -1.1810 C.2   1 <1>  -0.1500 
 14 C       -5.0660     1.0300     0.8000 C.3   1 <1>   0.2000 
 15 C       -3.2300     2.2410    -0.5600 C.3   1 <1>  -0.1600 
 16 C       -4.0040    -0.1680    -1.0070 C.3   1 <1>  -0.1600 
 17 O       -5.9480     1.8080     0.0710 O.3   1 <1>  -0.6800 
 18 C       -5.6350    -0.3860     0.8260 C.3   1 <1>  -0.1600 
 19 C       -5.0760    -1.0950    -0.4160 C.3   1 <1>  -0.1600 
 20 H       -2.9570    -0.5550     1.4450 H     1 <1>   0.0800 
 21 H       -2.5840     1.0830     1.8960 H     1 <1>   0.0800 
 22 H       -0.7730     2.2680     0.7700 H     1 <1>   0.0800 
 23 H        0.1330     1.4590    -0.4840 H     1 <1>   0.0800 
 24 H        0.4950    -2.5850    -0.7780 H     1 <1>   0.1500 
 25 H       -1.4570     3.0740    -1.4390 H     1 <1>   0.0800 
 26 H       -1.7920     1.4510    -1.9600 H     1 <1>   0.0800 
 27 H        4.4030    -0.7320    -1.0300 H     1 <1>   0.1500 
 28 H        2.7440    -2.6430    -1.9490 H     1 <1>   0.1500 
 29 H       -4.9740     1.4640     1.7820 H     1 <1>   0.0800 
 30 H       -3.8890     2.5590    -1.3490 H     1 <1>   0.0800 
 31 H       -3.2450     3.0040     0.1990 H     1 <1>   0.0800 
 32 H       -4.3980     0.2950    -1.8940 H     1 <1>   0.0800 
 33 H       -3.1190    -0.7160    -1.2820 H     1 <1>   0.0800 
 34 H       -6.0790     1.3980    -0.8040 H     1 <1>   0.4000 
 35 H       -5.2760    -0.8890     1.7060 H     1 <1>   0.0800 
 36 H       -6.7120    -0.3910     0.8550 H     1 <1>   0.0800 
 37 H       -4.6420    -2.0400    -0.1350 H     1 <1>   0.0800 
 38 H       -5.8540    -1.2740    -1.1380 H     1 <1>   0.0800 
@<TRIPOS>BOND
  1   1   2  2   
  2   1   3  2   
  3   1   4  am  
  4   1   5  1   
  5   4   6  1   
  6   4   7  1   
  7   5   8  1   
  8   5   9  2   
  9   6  10  1   
 10   6  20  1   
 11   6  21  1   
 12   7  11  1   
 13   7  22  1   
 14   7  23  1   
 15   8  12  1   
 16   9  13  1   
 17   9  24  1   
 18  10  14  1   
 19  10  15  1   
 20  10  16  1   
 21  11  15  1   
 22  11  25  1   
 23  11  26  1   
 24  12  13  2   
 25  12  27  1   
 26  13  28  1   
 27  14  17  1   
 28  14  18  1   
 29  14  29  1   
 30  15  30  1   
 31  15  31  1   
 32  16  19  1   
 33  16  32  1   
 34  16  33  1   
 35  17  34  1   
 36  18  19  1   
 37  18  35  1   
 38  18  36  1   
 39  19  37  1   
 40  19  38  1   
@<TRIPOS>SUBSTRUCTURE
  1 ****   4 GROUP 4 **** **** 0

# MOE 2024.06 (io_trps.svl 2023.06)
