@<TRIPOS>MOLECULE
NONAME
51 54 1 0 0 
SMALL
USER_CHARGES


@<TRIPOS>ATOM
  1 O       -0.1600     0.5720    -0.3760 O.2   1 <1>  -0.5700 
  2 C       -1.2400     1.1310    -0.3570 C.2   1 <1>   0.5440 
  3 N       -2.3880     0.3680    -0.3880 N.am  1 <1>  -0.6600 
  4 C       -1.2840     2.5800    -0.2860 C.ar  1 <1>   0.0860 
  5 C       -2.3590    -1.0990    -0.6760 C.3   1 <1>   0.1400 
  6 C       -3.7210     0.8420     0.0920 C.3   1 <1>   0.1400 
  7 C       -0.5230     3.2750     0.6500 C.ar  1 <1>  -0.1500 
  8 C       -2.0820     3.3360    -1.1440 C.ar  1 <1>  -0.1500 
  9 C       -2.9630    -1.8930     0.4920 C.3   1 <1>   0.1200 
 10 C       -4.2490    -0.0690     1.2140 C.3   1 <1>   0.1200 
 11 C       -0.5690     4.6540     0.7390 C.ar  1 <1>  -0.1500 
 12 C       -2.1290     4.7140    -1.0550 C.ar  1 <1>  -0.1500 
 13 O       -4.2380    -1.4080     0.8110 O.3   1 <1>  -0.5600 
 14 C       -1.3740     5.4120    -0.1130 C.ar  1 <1>   0.0860 
 15 C       -1.4320     6.8610    -0.0370 C.2   1 <1>   0.5440 
 16 O       -2.4220     7.4660    -0.4000 O.2   1 <1>  -0.5700 
 17 N       -0.3720     7.5790     0.4320 N.am  1 <1>  -0.7300 
 18 C       -0.3090     9.0510     0.4760 C.3   1 <1>   0.2350 
 19 C        1.1480     9.5550     0.5190 C.3   1 <1>  -0.1900 
 20 C        2.1750     8.8030     1.3160 C.3   1 <1>  -0.2000 
 21 C        2.2330     8.7980    -0.1930 C.3   1 <1>  -0.2000 
 22 C        1.1450    11.1050     0.5320 C.3   1 <1>   0.1910 
 23 N        2.4830    11.7410     0.6020 N.pl3 1 <1>   0.3140 
 24 N        3.0180    12.1560     1.7680 N.2   1 <1>  -0.7070 
 25 C        3.2880    12.0490    -0.4370 C.2   1 <1>  -0.3020 
 26 C        4.1520    12.6980     1.4420 C.2   1 <1>   0.1390 
 27 C        4.3780    12.6620     0.0720 C.2   1 <1>  -0.1500 
 28 H       -1.3520    -1.4360    -0.8520 H     1 <1>   0.0800 
 29 H       -2.9290    -1.2950    -1.5670 H     1 <1>   0.0800 
 30 H       -4.4180     0.8320    -0.7280 H     1 <1>   0.0800 
 31 H       -3.6590     1.8470     0.4680 H     1 <1>   0.0800 
 32 H        0.1110     2.7130     1.3150 H     1 <1>   0.1500 
 33 H       -2.6690     2.8290    -1.8910 H     1 <1>   0.1500 
 34 H       -2.3350    -1.8190     1.3630 H     1 <1>   0.0800 
 35 H       -3.0620    -2.9300     0.2250 H     1 <1>   0.0800 
 36 H       -5.2630     0.1920     1.4590 H     1 <1>   0.0800 
 37 H       -3.6430     0.0290     2.0980 H     1 <1>   0.0800 
 38 H        0.0250     5.1470     1.4880 H     1 <1>   0.1500 
 39 H       -2.7600     5.2700    -1.7290 H     1 <1>   0.1500 
 40 H        0.5200     7.1200     0.6150 H     1 <1>   0.3700 
 41 H       -0.8400     9.3900     1.3490 H     1 <1>   0.0800 
 42 H       -0.8060     9.4470    -0.3950 H     1 <1>   0.0800 
 43 H        1.9040     7.9010     1.8340 H     1 <1>   0.1000 
 44 H        2.9350     9.3490     1.8510 H     1 <1>   0.1000 
 45 H        3.0550     9.3160    -0.6550 H     1 <1>   0.1000 
 46 H        1.9990     7.8890    -0.7200 H     1 <1>   0.1000 
 47 H        0.5860    11.4490     1.3830 H     1 <1>   0.0800 
 48 H        0.6580    11.4690    -0.3530 H     1 <1>   0.0800 
 49 H        3.0460    11.8200    -1.4580 H     1 <1>   0.1500 
 50 H        4.8310    13.1260     2.1610 H     1 <1>   0.1500 
 51 H        5.2410    13.0490    -0.4390 H     1 <1>   0.1500 
@<TRIPOS>BOND
  1   1   2  2   
  2   2   3  am  
  3   2   4  1   
  4   3   5  1   
  5   3   6  1   
  6   4   7  ar  
  7   4   8  ar  
  8   5   9  1   
  9   5  28  1   
 10   5  29  1   
 11   6  10  1   
 12   6  30  1   
 13   6  31  1   
 14   7  11  ar  
 15   7  32  1   
 16   8  12  ar  
 17   8  33  1   
 18   9  13  1   
 19   9  34  1   
 20   9  35  1   
 21  10  13  1   
 22  10  36  1   
 23  10  37  1   
 24  11  14  ar  
 25  11  38  1   
 26  12  14  ar  
 27  12  39  1   
 28  14  15  1   
 29  15  16  2   
 30  15  17  am  
 31  17  18  1   
 32  17  40  1   
 33  18  19  1   
 34  18  41  1   
 35  18  42  1   
 36  19  20  1   
 37  19  21  1   
 38  19  22  1   
 39  20  21  1   
 40  20  43  1   
 41  20  44  1   
 42  21  45  1   
 43  21  46  1   
 44  22  23  1   
 45  22  47  1   
 46  22  48  1   
 47  23  24  1   
 48  23  25  1   
 49  24  26  2   
 50  25  27  2   
 51  25  49  1   
 52  26  27  1   
 53  26  50  1   
 54  27  51  1   
@<TRIPOS>SUBSTRUCTURE
  1 ****  14 GROUP 4 **** **** 0

# MOE 2024.06 (io_trps.svl 2023.06)
