@<TRIPOS>MOLECULE
NONAME
40 41 1 0 0 
SMALL
USER_CHARGES


@<TRIPOS>ATOM
  1 O        1.1600     0.3330     0.0900 O.2   1 <1>  -0.5700 
  2 C        1.9690    -0.5730    -0.0170 C.2   1 <1>   0.7150 
  3 N        3.0970    -0.3640    -0.7850 N.am  1 <1>  -0.6600 
  4 C        1.7210    -1.8270     0.6500 C.2   1 <1>  -0.2370 
  5 C        3.4220     1.0100    -1.2980 C.3   1 <1>   0.1400 
  6 C        3.8110    -1.4800    -1.4620 C.3   1 <1>   0.1400 
  7 N        0.4830    -2.4170     0.7310 N.pl3 1 <1>   0.0480 
  8 C        2.6050    -2.6420     1.3140 C.2   1 <1>  -0.1500 
  9 C        3.7360     2.0160    -0.1760 C.3   1 <1>   0.2000 
 10 C        5.2660    -1.5430    -1.0000 C.3   1 <1>  -0.2400 
 11 C        0.6110    -3.5770     1.4190 C.2   1 <1>  -0.3020 
 12 C       -0.7840    -1.9000     0.1790 C.3   1 <1>   0.0160 
 13 C        1.9060    -3.7450     1.7920 C.2   1 <1>  -0.1500 
 14 O        4.1450     3.2080    -0.7850 O.3   1 <1>  -0.5600 
 15 C        4.8480     1.5490     0.7810 C.3   1 <1>  -0.1600 
 16 C        4.3150     4.2800     0.0910 C.3   1 <1>   0.1200 
 17 C        5.1900     2.6420     1.8000 C.3   1 <1>  -0.1600 
 18 C        5.4520     3.9640     1.0690 C.3   1 <1>  -0.1600 
 19 H        2.5820     1.3760    -1.8610 H     1 <1>   0.0800 
 20 H        4.2700     0.9610    -1.9570 H     1 <1>   0.0800 
 21 H        3.7740    -1.3280    -2.5280 H     1 <1>   0.0800 
 22 H        3.3260    -2.4180    -1.2550 H     1 <1>   0.0800 
 23 H        3.6560    -2.4730     1.4580 H     1 <1>   0.1500 
 24 H        2.8330     2.2210     0.3730 H     1 <1>   0.0800 
 25 H        5.8040    -0.6690    -1.3170 H     1 <1>   0.0800 
 26 H        5.7420    -2.4040    -1.4320 H     1 <1>   0.0800 
 27 H        5.3200    -1.6250     0.0700 H     1 <1>   0.0800 
 28 H       -0.2220    -4.2290     1.6160 H     1 <1>   0.1500 
 29 H       -0.6450    -1.6490    -0.8570 H     1 <1>   0.0800 
 30 H       -1.0700    -1.0190     0.7240 H     1 <1>   0.0800 
 31 H       -1.5510    -2.6450     0.2690 H     1 <1>   0.0800 
 32 H        2.3300    -4.5600     2.3530 H     1 <1>   0.1500 
 33 H        5.7220     1.3000     0.2070 H     1 <1>   0.0800 
 34 H        4.5290     0.6640     1.3020 H     1 <1>   0.0800 
 35 H        3.3870     4.4510     0.6110 H     1 <1>   0.0800 
 36 H        4.5530     5.1500    -0.4970 H     1 <1>   0.0800 
 37 H        6.0530     2.3570     2.3760 H     1 <1>   0.0800 
 38 H        4.3610     2.7680     2.4750 H     1 <1>   0.0800 
 39 H        5.5490     4.7640     1.7810 H     1 <1>   0.0800 
 40 H        6.3740     3.9000     0.5160 H     1 <1>   0.0800 
@<TRIPOS>BOND
  1   1   2  2   
  2   2   3  am  
  3   2   4  1   
  4   3   5  1   
  5   3   6  1   
  6   4   7  1   
  7   4   8  2   
  8   5   9  1   
  9   5  19  1   
 10   5  20  1   
 11   6  10  1   
 12   6  21  1   
 13   6  22  1   
 14   7  11  1   
 15   7  12  1   
 16   8  13  1   
 17   8  23  1   
 18   9  14  1   
 19   9  15  1   
 20   9  24  1   
 21  10  25  1   
 22  10  26  1   
 23  10  27  1   
 24  11  13  2   
 25  11  28  1   
 26  12  29  1   
 27  12  30  1   
 28  12  31  1   
 29  13  32  1   
 30  14  16  1   
 31  15  17  1   
 32  15  33  1   
 33  15  34  1   
 34  16  18  1   
 35  16  35  1   
 36  16  36  1   
 37  17  18  1   
 38  17  37  1   
 39  17  38  1   
 40  18  39  1   
 41  18  40  1   
@<TRIPOS>SUBSTRUCTURE
  1 ****   3 GROUP 4 **** **** 0

# MOE 2024.06 (io_trps.svl 2023.06)
