@<TRIPOS>MOLECULE
NONAME
50 52 1 0 0 
SMALL
USER_CHARGES


@<TRIPOS>ATOM
  1 S        0.0540     0.6240     0.5710 S.o2  1 <1>   1.2040 
  2 O       -0.3440    -0.1050    -0.6120 O.2   1 <1>  -0.6500 
  3 O       -0.2090     0.0790     1.8840 O.2   1 <1>  -0.6500 
  4 C        1.7980     1.0800     0.4420 C.ar  1 <1>  -0.0090 
  5 C       -0.7470     2.2140     0.4970 C.3   1 <1>  -0.1350 
  6 C        2.4370     1.1320    -0.7900 C.ar  1 <1>  -0.1500 
  7 C        2.5340     1.4220     1.5690 C.ar  1 <1>  -0.1500 
  8 C        3.7620     1.5160    -0.8960 C.ar  1 <1>  -0.1500 
  9 C        3.8580     1.8090     1.4710 C.ar  1 <1>  -0.1500 
 10 C        4.4870     1.8590     0.2370 C.ar  1 <1>  -0.1430 
 11 C        5.9440     2.3030     0.1540 C.3   1 <1>   0.4330 
 12 N        5.9760     3.5730    -0.5840 N.pl3 1 <1>  -0.8690 
 13 C        6.8240     1.2960    -0.5780 C.3   1 <1>  -0.2400 
 14 C        6.6230     4.6900    -0.1360 C.ar  1 <1>   0.4100 
 15 N        7.5370     4.5400     0.8140 N.ar  1 <1>  -0.6200 
 16 C        6.3060     5.9300    -0.6850 C.ar  1 <1>  -0.1500 
 17 C        8.1400     5.6430     1.2250 C.ar  1 <1>   0.1600 
 18 C        6.9480     7.0640    -0.2500 C.ar  1 <1>  -0.1500 
 19 C        7.9170     6.9280     0.7390 C.ar  1 <1>   0.0860 
 20 C        8.6600     8.0450     1.2680 C.2   1 <1>   0.5440 
 21 O        8.7240     8.1920     2.4740 O.2   1 <1>  -0.5700 
 22 N        9.3130     8.9510     0.4570 N.am  1 <1>  -0.6600 
 23 C        9.8830    10.2190     1.0010 C.3   1 <1>   0.1400 
 24 C        9.7200     8.6920    -0.9560 C.3   1 <1>   0.1400 
 25 C        9.6460    11.3830     0.0240 C.3   1 <1>   0.1200 
 26 C        9.4800     9.9400    -1.8230 C.3   1 <1>   0.1200 
 27 O       10.1040    11.0590    -1.2600 O.3   1 <1>  -0.5600 
 28 H       -1.8110     2.0910     0.5630 H     1 <1>   0.0800 
 29 H       -0.5170     2.7070    -0.4270 H     1 <1>   0.0800 
 30 H       -0.4250     2.8340     1.3110 H     1 <1>   0.0800 
 31 H        1.8930     0.8640    -1.6810 H     1 <1>   0.1500 
 32 H        2.0660     1.3840     2.5390 H     1 <1>   0.1500 
 33 H        4.2250     1.5450    -1.8670 H     1 <1>   0.1500 
 34 H        4.3990     2.0730     2.3650 H     1 <1>   0.1500 
 35 H        6.3280     2.4360     1.1520 H     1 <1>   0.0800 
 36 H        5.1100     3.7180    -1.0990 H     1 <1>   0.4000 
 37 H        6.5190     1.1870    -1.6010 H     1 <1>   0.0800 
 38 H        6.7620     0.3410    -0.0900 H     1 <1>   0.0800 
 39 H        7.8450     1.6300    -0.5480 H     1 <1>   0.0800 
 40 H        5.5540     5.9850    -1.4490 H     1 <1>   0.1500 
 41 H        8.8730     5.5310     2.0060 H     1 <1>   0.1500 
 42 H        6.7130     8.0350    -0.6510 H     1 <1>   0.1500 
 43 H       10.9400    10.0940     1.1590 H     1 <1>   0.0800 
 44 H        9.4320    10.4580     1.9490 H     1 <1>   0.0800 
 45 H        9.1850     7.8570    -1.3700 H     1 <1>   0.0800 
 46 H       10.7690     8.4520    -0.9790 H     1 <1>   0.0800 
 47 H       10.1800    12.2570     0.3520 H     1 <1>   0.0800 
 48 H        8.5980    11.6190    -0.0330 H     1 <1>   0.0800 
 49 H        8.4270    10.1430    -1.9160 H     1 <1>   0.0800 
 50 H        9.8930     9.7950    -2.8050 H     1 <1>   0.0800 
@<TRIPOS>BOND
  1   1   2  2   
  2   1   3  2   
  3   1   4  1   
  4   1   5  1   
  5   4   6  ar  
  6   4   7  ar  
  7   5  28  1   
  8   5  29  1   
  9   5  30  1   
 10   6   8  ar  
 11   6  31  1   
 12   7   9  ar  
 13   7  32  1   
 14   8  10  ar  
 15   8  33  1   
 16   9  10  ar  
 17   9  34  1   
 18  10  11  1   
 19  11  12  1   
 20  11  13  1   
 21  11  35  1   
 22  12  14  1   
 23  12  36  1   
 24  13  37  1   
 25  13  38  1   
 26  13  39  1   
 27  14  15  ar  
 28  14  16  ar  
 29  15  17  ar  
 30  16  18  ar  
 31  16  40  1   
 32  17  19  ar  
 33  17  41  1   
 34  18  19  ar  
 35  18  42  1   
 36  19  20  1   
 37  20  21  2   
 38  20  22  am  
 39  22  23  1   
 40  22  24  1   
 41  23  25  1   
 42  23  43  1   
 43  23  44  1   
 44  24  26  1   
 45  24  45  1   
 46  24  46  1   
 47  25  27  1   
 48  25  47  1   
 49  25  48  1   
 50  26  27  1   
 51  26  49  1   
 52  26  50  1   
@<TRIPOS>SUBSTRUCTURE
  1 ****  14 GROUP 4 **** **** 0

# MOE 2024.06 (io_trps.svl 2023.06)
