@<TRIPOS>MOLECULE
NONAME
53 55 1 0 0 
SMALL
USER_CHARGES


@<TRIPOS>ATOM
  1 F        1.9280    -4.4330     3.2770 F     1 <1>  -0.1900 
  2 C        1.1100    -4.6050     2.2710 C.ar  1 <1>   0.1900 
  3 C        1.5440    -4.5480     0.9410 C.ar  1 <1>   0.0830 
  4 C       -0.2130    -4.8410     2.5940 C.ar  1 <1>  -0.1500 
  5 O        2.8160    -4.3210     0.5020 O.3   1 <1>  -0.3630 
  6 C        0.5960    -4.7400    -0.0510 C.ar  1 <1>  -0.1500 
  7 C       -1.1330    -5.0300     1.5790 C.ar  1 <1>  -0.1500 
  8 C        3.9040    -4.1320     1.3780 C.3   1 <1>   0.0400 
  9 C       -0.7450    -4.9950     0.2390 C.ar  1 <1>   0.0860 
 10 C       -1.7040    -5.2270    -0.8240 C.2   1 <1>   0.5440 
 11 O       -1.9810    -4.3080    -1.5710 O.2   1 <1>  -0.5700 
 12 N       -2.3290    -6.4450    -1.0100 N.am  1 <1>  -0.6600 
 13 C       -1.9160    -7.6900    -0.2590 C.3   1 <1>   0.3640 
 14 C       -3.5250    -6.5240    -1.9040 C.3   1 <1>   0.1400 
 15 C       -0.4100    -7.9000    -0.4440 C.ar  1 <1>  -0.1430 
 16 C       -2.6560    -9.0070    -0.6550 C.3   1 <1>   0.2000 
 17 C       -3.8000    -7.9430    -2.3970 C.3   1 <1>   0.1200 
 18 C        0.4130    -8.0550     0.6640 C.ar  1 <1>  -0.1500 
 19 C        0.1560    -7.9150    -1.7120 C.ar  1 <1>  -0.1500 
 20 O       -3.8810    -8.7950    -1.3030 O.3   1 <1>  -0.5600 
 21 C       -2.9670    -9.8970     0.5590 C.3   1 <1>   0.1200 
 22 C        1.7810    -8.2090     0.5160 C.ar  1 <1>   0.0830 
 23 C        1.5230    -8.0630    -1.8710 C.ar  1 <1>  -0.1500 
 24 O       -1.8280   -10.1490     1.3180 O.3   1 <1>  -0.6800 
 25 O        2.5150    -8.3650     1.6460 O.3   1 <1>  -0.3630 
 26 C        2.3430    -8.1900    -0.7640 C.ar  1 <1>   0.0830 
 27 C        3.1970    -9.5900     1.7940 C.3   1 <1>   0.0400 
 28 O        3.6770    -8.2730    -0.9800 O.3   1 <1>  -0.3630 
 29 C        4.4250    -7.1450    -0.5850 C.3   1 <1>   0.0400 
 30 H       -0.5130    -4.8730     3.6260 H     1 <1>   0.1500 
 31 H        0.9050    -4.7020    -1.0800 H     1 <1>   0.1500 
 32 H       -2.1670    -5.2080     1.8190 H     1 <1>   0.1500 
 33 H        4.7900    -3.9900     0.7850 H     1 <1>   0.0800 
 34 H        4.0130    -5.0060     1.9950 H     1 <1>   0.0800 
 35 H        3.7230    -3.2560     1.9760 H     1 <1>   0.0800 
 36 H       -2.1120    -7.5130     0.7830 H     1 <1>   0.0800 
 37 H       -4.3850    -6.1660    -1.3660 H     1 <1>   0.0800 
 38 H       -3.3840    -5.8840    -2.7590 H     1 <1>   0.0800 
 39 H       -2.0440    -9.5690    -1.3370 H     1 <1>   0.0800 
 40 H       -3.0250    -8.2830    -3.0620 H     1 <1>   0.0800 
 41 H       -4.7430    -7.9770    -2.9140 H     1 <1>   0.0800 
 42 H        0.0030    -8.0540     1.6580 H     1 <1>   0.1500 
 43 H       -0.4650    -7.7940    -2.5830 H     1 <1>   0.1500 
 44 H       -3.3710   -10.8410     0.2370 H     1 <1>   0.0800 
 45 H       -3.6790    -9.4060     1.2000 H     1 <1>   0.0800 
 46 H        1.9610    -8.0650    -2.8520 H     1 <1>   0.1500 
 47 H       -1.1640   -10.6510     0.8030 H     1 <1>   0.4000 
 48 H        3.6110    -9.6250     2.7850 H     1 <1>   0.0800 
 49 H        3.9840    -9.6520     1.0660 H     1 <1>   0.0800 
 50 H        2.4970   -10.3960     1.6580 H     1 <1>   0.0800 
 51 H        5.4470    -7.2960    -0.8800 H     1 <1>   0.0800 
 52 H        4.3600    -7.0350     0.4830 H     1 <1>   0.0800 
 53 H        4.0220    -6.2740    -1.0720 H     1 <1>   0.0800 
@<TRIPOS>BOND
  1   1   2  1   
  2   2   3  ar  
  3   2   4  ar  
  4   3   5  1   
  5   3   6  ar  
  6   4   7  ar  
  7   4  30  1   
  8   5   8  1   
  9   6   9  ar  
 10   6  31  1   
 11   7   9  ar  
 12   7  32  1   
 13   8  33  1   
 14   8  34  1   
 15   8  35  1   
 16   9  10  1   
 17  10  11  2   
 18  10  12  am  
 19  12  13  1   
 20  12  14  1   
 21  13  15  1   
 22  13  16  1   
 23  13  36  1   
 24  14  17  1   
 25  14  37  1   
 26  14  38  1   
 27  15  18  ar  
 28  15  19  ar  
 29  16  20  1   
 30  16  21  1   
 31  16  39  1   
 32  17  20  1   
 33  17  40  1   
 34  17  41  1   
 35  18  22  ar  
 36  18  42  1   
 37  19  23  ar  
 38  19  43  1   
 39  21  24  1   
 40  21  44  1   
 41  21  45  1   
 42  22  25  1   
 43  22  26  ar  
 44  23  26  ar  
 45  23  46  1   
 46  24  47  1   
 47  25  27  1   
 48  26  28  1   
 49  27  48  1   
 50  27  49  1   
 51  27  50  1   
 52  28  29  1   
 53  29  51  1   
 54  29  52  1   
 55  29  53  1   
@<TRIPOS>SUBSTRUCTURE
  1 ****  15 GROUP 4 **** **** 0

# MOE 2024.06 (io_trps.svl 2023.06)
