@<TRIPOS>MOLECULE
NONAME
45 47 1 0 0 
SMALL
USER_CHARGES


@<TRIPOS>ATOM
  1 S       -0.7180    -0.8310     1.5930 S.3   1 <1>  -0.0800 
  2 C       -1.7290     0.1980     0.5890 C.2   1 <1>  -0.1400 
  3 C        0.7320     0.0050     1.0660 C.2   1 <1>  -0.1100 
  4 C       -0.9760     1.0950    -0.0750 C.2   1 <1>  -0.1500 
  5 C       -3.2260    -0.0470     0.6110 C.3   1 <1>   0.0200 
  6 C        0.4260     0.9840     0.1960 C.2   1 <1>  -0.1500 
  7 C       -3.5740    -1.3660    -0.0890 C.3   1 <1>  -0.1600 
  8 C       -5.0880    -1.6340    -0.0810 C.3   1 <1>  -0.0990 
  9 C       -5.4400    -2.9150    -0.8100 C.2   1 <1>   0.5690 
 10 O       -5.9690    -2.8530    -1.8920 O.2   1 <1>  -0.5700 
 11 N       -5.1520    -4.0990    -0.2190 N.am  1 <1>  -0.7300 
 12 C       -5.3960    -5.4240    -0.8280 C.3   1 <1>   0.2200 
 13 C       -6.5880    -6.0760    -0.1470 C.3   1 <1>  -0.0800 
 14 C       -4.2650    -6.3760    -0.4540 C.3   1 <1>   0.1200 
 15 C       -5.9440    -6.7120     1.0900 C.3   1 <1>   0.1200 
 16 C       -7.2570    -7.1210    -1.0610 C.3   1 <1>  -0.0170 
 17 O       -4.5850    -6.8850     0.8060 O.3   1 <1>  -0.5600 
 18 C       -8.4660    -7.7550    -0.3900 C.ar  1 <1>  -0.1430 
 19 C       -8.4340    -9.0370     0.1220 C.ar  1 <1>  -0.1500 
 20 C       -9.6610    -7.0780    -0.2620 C.ar  1 <1>  -0.1500 
 21 C       -9.5650    -9.5610     0.7250 C.ar  1 <1>   0.1600 
 22 C      -10.7340    -7.6940     0.3600 C.ar  1 <1>   0.1600 
 23 N      -10.7150    -8.9190     0.8580 N.ar  1 <1>  -0.6200 
 24 H        1.6710    -0.3300     1.4690 H     1 <1>   0.1500 
 25 H       -1.3460     1.8420    -0.7550 H     1 <1>   0.1500 
 26 H       -3.5630    -0.0660     1.6320 H     1 <1>   0.0800 
 27 H       -3.7200     0.7670     0.1100 H     1 <1>   0.0800 
 28 H        1.1320     1.6440    -0.2770 H     1 <1>   0.1500 
 29 H       -3.2260    -1.3260    -1.1080 H     1 <1>   0.0800 
 30 H       -3.0630    -2.1770     0.4000 H     1 <1>   0.0800 
 31 H       -5.6010    -0.8200    -0.5620 H     1 <1>   0.0800 
 32 H       -5.4470    -1.7010     0.9290 H     1 <1>   0.0800 
 33 H       -4.7060    -4.1290     0.7000 H     1 <1>   0.3700 
 34 H       -5.5140    -5.3300    -1.8950 H     1 <1>   0.0800 
 35 H       -7.3230    -5.3430     0.1330 H     1 <1>   0.0800 
 36 H       -3.3070    -5.8880    -0.4170 H     1 <1>   0.0800 
 37 H       -4.2240    -7.2040    -1.1390 H     1 <1>   0.0800 
 38 H       -6.3720    -7.6640     1.3490 H     1 <1>   0.0800 
 39 H       -6.0150    -6.0490     1.9360 H     1 <1>   0.0800 
 40 H       -6.5520    -7.8880    -1.3320 H     1 <1>   0.0800 
 41 H       -7.5810    -6.6430    -1.9700 H     1 <1>   0.0800 
 42 H       -7.5420    -9.6330     0.0590 H     1 <1>   0.1500 
 43 H       -9.7680    -6.0770    -0.6390 H     1 <1>   0.1500 
 44 H       -9.5220   -10.5620     1.1200 H     1 <1>   0.1500 
 45 H      -11.6590    -7.1490     0.4510 H     1 <1>   0.1500 
@<TRIPOS>BOND
  1   1   2  1   
  2   1   3  1   
  3   2   4  2   
  4   2   5  1   
  5   3   6  2   
  6   3  24  1   
  7   4   6  1   
  8   4  25  1   
  9   5   7  1   
 10   5  26  1   
 11   5  27  1   
 12   6  28  1   
 13   7   8  1   
 14   7  29  1   
 15   7  30  1   
 16   8   9  1   
 17   8  31  1   
 18   8  32  1   
 19   9  10  2   
 20   9  11  am  
 21  11  12  1   
 22  11  33  1   
 23  12  13  1   
 24  12  14  1   
 25  12  34  1   
 26  13  15  1   
 27  13  16  1   
 28  13  35  1   
 29  14  17  1   
 30  14  36  1   
 31  14  37  1   
 32  15  17  1   
 33  15  38  1   
 34  15  39  1   
 35  16  18  1   
 36  16  40  1   
 37  16  41  1   
 38  18  19  ar  
 39  18  20  ar  
 40  19  21  ar  
 41  19  42  1   
 42  20  22  ar  
 43  20  43  1   
 44  21  23  ar  
 45  21  44  1   
 46  22  23  ar  
 47  22  45  1   
@<TRIPOS>SUBSTRUCTURE
  1 ****  11 GROUP 4 **** **** 0

# MOE 2024.06 (io_trps.svl 2023.06)
