@<TRIPOS>MOLECULE
NONAME
50 52 1 0 0 
SMALL
USER_CHARGES


@<TRIPOS>ATOM
  1 O       -0.1830    -0.3630     0.5460 O.2   1 <1>  -0.5700 
  2 C       -0.2810    -1.5740     0.6150 C.2   1 <1>   0.5440 
  3 N       -1.5370    -2.1560     0.5810 N.am  1 <1>  -0.6600 
  4 C        0.9240    -2.3750     0.6790 C.ar  1 <1>   0.0860 
  5 C       -1.7730    -3.6210     0.7610 C.3   1 <1>   0.1400 
  6 C       -2.7740    -1.3500     0.3700 C.3   1 <1>   0.0600 
  7 C        1.7970    -2.4050    -0.4060 C.ar  1 <1>  -0.1500 
  8 C        1.2390    -3.1590     1.7900 C.ar  1 <1>  -0.1500 
  9 C       -1.3360    -4.4310    -0.4660 C.3   1 <1>   0.1400 
 10 C        2.9120    -3.2210    -0.4100 C.ar  1 <1>   0.0830 
 11 C        2.3370    -3.9980     1.7870 C.ar  1 <1>  -0.1500 
 12 N       -1.2690    -5.8660    -0.1070 N.am  1 <1>  -0.7300 
 13 O        3.7290    -3.1730    -1.4890 O.3   1 <1>  -0.3630 
 14 C        3.1660    -4.0580     0.6810 C.ar  1 <1>   0.0830 
 15 C       -2.1120    -6.8260    -0.5530 C.2   1 <1>   0.5690 
 16 C        4.9460    -2.4880    -1.2960 C.3   1 <1>   0.0400 
 17 O        4.1940    -4.9350     0.7200 O.3   1 <1>  -0.3630 
 18 O       -3.0000    -6.5920    -1.3340 O.2   1 <1>  -0.5700 
 19 C       -1.9500    -8.2370    -0.0310 C.3   1 <1>  -0.0990 
 20 C        4.3360    -5.8740    -0.3260 C.3   1 <1>   0.1200 
 21 C       -0.6500    -8.9120    -0.4950 C.3   1 <1>   0.0210 
 22 C        4.0280    -7.2740     0.2020 C.3   1 <1>   0.0960 
 23 C        0.6130    -8.2670     0.0570 C.2   1 <1>   0.0460 
 24 N        2.5780    -7.5120     0.3410 N.pl3 1 <1>   0.3140 
 25 N        0.7140    -7.8390     1.3210 N.2   1 <1>  -0.2270 
 26 C        1.7750    -8.0560    -0.5770 C.2   1 <1>  -0.3020 
 27 N        1.9060    -7.3850     1.4910 N.2   1 <1>  -0.4180 
 28 H       -2.8190    -3.8010     0.9380 H     1 <1>   0.0800 
 29 H       -1.2360    -3.9620     1.6260 H     1 <1>   0.0800 
 30 H       -2.5340    -0.3280     0.1320 H     1 <1>   0.0800 
 31 H       -3.3710    -1.3630     1.2650 H     1 <1>   0.0800 
 32 H       -3.3440    -1.7640    -0.4430 H     1 <1>   0.0800 
 33 H        1.5960    -1.7800    -1.2580 H     1 <1>   0.1500 
 34 H        0.6070    -3.1160     2.6590 H     1 <1>   0.1500 
 35 H       -0.3650    -4.1220    -0.8060 H     1 <1>   0.0800 
 36 H       -2.0420    -4.2810    -1.2650 H     1 <1>   0.0800 
 37 H        2.5520    -4.6220     2.6380 H     1 <1>   0.1500 
 38 H       -0.4810    -6.1510     0.4930 H     1 <1>   0.3700 
 39 H        5.4920    -2.5010    -2.2210 H     1 <1>   0.0800 
 40 H        5.5120    -2.9810    -0.5250 H     1 <1>   0.0800 
 41 H        4.7310    -1.4740    -1.0080 H     1 <1>   0.0800 
 42 H       -2.7850    -8.8200    -0.3750 H     1 <1>   0.0800 
 43 H       -1.9920    -8.2160     1.0430 H     1 <1>   0.0800 
 44 H        5.3580    -5.8210    -0.6550 H     1 <1>   0.0800 
 45 H        3.6890    -5.6270    -1.1490 H     1 <1>   0.0800 
 46 H       -0.6100    -8.9090    -1.5700 H     1 <1>   0.0800 
 47 H       -0.6640    -9.9370    -0.1700 H     1 <1>   0.0800 
 48 H        4.5010    -7.4200     1.1560 H     1 <1>   0.0800 
 49 H        4.4150    -8.0050    -0.4820 H     1 <1>   0.0800 
 50 H        2.0710    -8.2720    -1.5850 H     1 <1>   0.1500 
@<TRIPOS>BOND
  1   1   2  2   
  2   2   3  am  
  3   2   4  1   
  4   3   5  1   
  5   3   6  1   
  6   4   7  ar  
  7   4   8  ar  
  8   5   9  1   
  9   5  28  1   
 10   5  29  1   
 11   6  30  1   
 12   6  31  1   
 13   6  32  1   
 14   7  10  ar  
 15   7  33  1   
 16   8  11  ar  
 17   8  34  1   
 18   9  12  1   
 19   9  35  1   
 20   9  36  1   
 21  10  13  1   
 22  10  14  ar  
 23  11  14  ar  
 24  11  37  1   
 25  12  15  am  
 26  12  38  1   
 27  13  16  1   
 28  14  17  1   
 29  15  18  2   
 30  15  19  1   
 31  16  39  1   
 32  16  40  1   
 33  16  41  1   
 34  17  20  1   
 35  19  21  1   
 36  19  42  1   
 37  19  43  1   
 38  20  22  1   
 39  20  44  1   
 40  20  45  1   
 41  21  23  1   
 42  21  46  1   
 43  21  47  1   
 44  22  24  1   
 45  22  48  1   
 46  22  49  1   
 47  23  25  1   
 48  23  26  2   
 49  24  26  1   
 50  24  27  1   
 51  25  27  2   
 52  26  50  1   
@<TRIPOS>SUBSTRUCTURE
  1 ****  11 GROUP 4 **** **** 0

# MOE 2024.06 (io_trps.svl 2023.06)
