@<TRIPOS>MOLECULE
NONAME
52 55 1 0 0 
SMALL
USER_CHARGES


@<TRIPOS>ATOM
  1 CL       2.6190    -1.2370     1.0840 Cl    1 <1>  -0.1770 
  2 C        1.2080    -2.2680     1.0700 C.ar  1 <1>   0.1770 
  3 C        0.9980    -3.1180     0.0140 C.ar  1 <1>  -0.1500 
  4 C        0.3220    -2.1950     2.1510 C.ar  1 <1>  -0.1500 
  5 C       -0.1390    -3.9340     0.0280 C.ar  1 <1>   0.0000 
  6 C       -0.7980    -2.9930     2.1720 C.ar  1 <1>  -0.1500 
  7 C       -1.0230    -3.8640     1.1010 C.ar  1 <1>  -0.1520 
  8 C       -0.6630    -4.8950    -0.8540 C.2   1 <1>  -0.1500 
  9 N       -2.0390    -4.7520     0.8680 N.pl3 1 <1>   0.0330 
 10 C       -1.8200    -5.3930    -0.3270 C.2   1 <1>  -0.2370 
 11 C       -2.7160    -6.3850    -0.8660 C.2   1 <1>   0.7150 
 12 O       -2.6790    -6.6490    -2.0520 O.2   1 <1>  -0.5700 
 13 N       -3.6090    -7.0480    -0.0490 N.am  1 <1>  -0.6600 
 14 C       -4.8420    -7.6510    -0.6410 C.3   1 <1>   0.2200 
 15 C       -3.0690    -7.7470     1.1570 C.3   1 <1>   0.0600 
 16 C       -5.6300    -6.6580    -1.4940 C.3   1 <1>  -0.1600 
 17 C       -5.8730    -8.0630     0.4120 C.3   1 <1>  -0.1600 
 18 C       -7.0490    -7.2330    -1.5740 C.3   1 <1>  -0.0800 
 19 C       -7.2150    -8.1200    -0.3330 C.3   1 <1>  -0.0800 
 20 C       -8.1490    -6.1670    -1.5070 C.3   1 <1>  -0.1600 
 21 C       -8.3930    -7.5430     0.4630 C.3   1 <1>  -0.1600 
 22 C       -8.5210    -6.1040    -0.0270 C.3   1 <1>   0.4230 
 23 N       -9.8620    -5.5040     0.2540 N.4   1 <1>  -0.9590 
 24 C      -11.0190    -6.1650    -0.4370 C.3   1 <1>   0.2630 
 25 C       -9.8560    -4.0390    -0.0490 C.3   1 <1>   0.2630 
 26 H        1.6840    -3.1660    -0.8110 H     1 <1>   0.1500 
 27 H        0.5360    -1.5100     2.9520 H     1 <1>   0.1500 
 28 H       -1.4930    -2.9520     2.9930 H     1 <1>   0.1500 
 29 H       -0.2100    -5.1740    -1.7900 H     1 <1>   0.1500 
 30 H       -2.8480    -4.9080     1.4760 H     1 <1>   0.2700 
 31 H       -4.5730    -8.5050    -1.2420 H     1 <1>   0.0800 
 32 H       -3.6080    -7.4400     2.0360 H     1 <1>   0.0800 
 33 H       -2.0240    -7.5220     1.2940 H     1 <1>   0.0800 
 34 H       -3.1640    -8.8120     1.0370 H     1 <1>   0.0800 
 35 H       -5.6310    -5.6980    -1.0070 H     1 <1>   0.0800 
 36 H       -5.2050    -6.5580    -2.4780 H     1 <1>   0.0800 
 37 H       -5.6340    -9.0180     0.8460 H     1 <1>   0.0800 
 38 H       -5.9070    -7.3120     1.1820 H     1 <1>   0.0800 
 39 H       -7.1420    -7.8260    -2.4700 H     1 <1>   0.0800 
 40 H       -7.4160    -9.1370    -0.6310 H     1 <1>   0.0800 
 41 H       -8.9740    -6.5100    -2.1030 H     1 <1>   0.0800 
 42 H       -7.8060    -5.2190    -1.8830 H     1 <1>   0.0800 
 43 H       -8.2260    -7.5940     1.5250 H     1 <1>   0.0800 
 44 H       -9.2680    -8.1160     0.2160 H     1 <1>   0.0800 
 45 H       -7.7610    -5.5250     0.4750 H     1 <1>   0.0800 
 46 H      -10.0130    -5.6100     1.2690 H     1 <1>   0.4500 
 47 H      -10.9280    -6.0650    -1.5060 H     1 <1>   0.0800 
 48 H      -11.9460    -5.7070    -0.1300 H     1 <1>   0.0800 
 49 H      -11.0630    -7.2130    -0.1900 H     1 <1>   0.0800 
 50 H       -9.7050    -3.8760    -1.1040 H     1 <1>   0.0800 
 51 H       -9.0650    -3.5470     0.4920 H     1 <1>   0.0800 
 52 H      -10.7960    -3.5930     0.2360 H     1 <1>   0.0800 
@<TRIPOS>BOND
  1   1   2  1   
  2   2   3  ar  
  3   2   4  ar  
  4   3   5  ar  
  5   3  26  1   
  6   4   6  ar  
  7   4  27  1   
  8   5   7  ar  
  9   5   8  1   
 10   6   7  ar  
 11   6  28  1   
 12   7   9  1   
 13   8  10  2   
 14   8  29  1   
 15   9  10  1   
 16   9  30  1   
 17  10  11  1   
 18  11  12  2   
 19  11  13  am  
 20  13  14  1   
 21  13  15  1   
 22  14  16  1   
 23  14  17  1   
 24  14  31  1   
 25  15  32  1   
 26  15  33  1   
 27  15  34  1   
 28  16  18  1   
 29  16  35  1   
 30  16  36  1   
 31  17  19  1   
 32  17  37  1   
 33  17  38  1   
 34  18  19  1   
 35  18  20  1   
 36  18  39  1   
 37  19  21  1   
 38  19  40  1   
 39  20  22  1   
 40  20  41  1   
 41  20  42  1   
 42  21  22  1   
 43  21  43  1   
 44  21  44  1   
 45  22  23  1   
 46  22  45  1   
 47  23  24  1   
 48  23  25  1   
 49  23  46  1   
 50  24  47  1   
 51  24  48  1   
 52  24  49  1   
 53  25  50  1   
 54  25  51  1   
 55  25  52  1   
@<TRIPOS>SUBSTRUCTURE
  1 ****  13 GROUP 4 **** **** 0

# MOE 2024.06 (io_trps.svl 2023.06)
