@<TRIPOS>MOLECULE
NONAME
55 58 1 0 0 
SMALL
USER_CHARGES


@<TRIPOS>ATOM
  1 O       -2.4960     0.4870    -1.8740 O.2   1 <1>  -0.5700 
  2 C       -1.8810     0.3490    -0.8440 C.2   1 <1>   0.5690 
  3 N       -1.8040    -0.8630    -0.2320 N.am  1 <1>  -0.7300 
  4 C       -1.1860     1.5830    -0.2050 C.3   1 <1>   0.3410 
  5 C       -2.4390    -2.1060    -0.7290 C.3   1 <1>   0.2200 
  6 O       -0.1110     1.1830     0.6020 O.3   1 <1>  -0.6800 
  7 C       -0.6090     2.5450    -1.2590 C.3   1 <1>  -0.1600 
  8 C       -2.1690     2.3460     0.7040 C.3   1 <1>  -0.1600 
  9 C       -3.7840    -2.2810    -0.0450 C.3   1 <1>  -0.0800 
 10 C       -1.6710    -3.3100    -0.2000 C.3   1 <1>   0.1200 
 11 C        0.0750     3.7800    -0.6560 C.3   1 <1>   0.3430 
 12 C       -1.7790     3.8040     0.9750 C.3   1 <1>   0.3430 
 13 C       -3.4060    -2.9810     1.2680 C.3   1 <1>   0.1200 
 14 C       -4.7460    -3.1290    -0.9010 C.3   1 <1>  -0.0170 
 15 O       -2.1020    -3.4670     1.1160 O.3   1 <1>  -0.5600 
 16 N       -0.3190     3.9820     0.7700 N.4   1 <1>  -0.9590 
 17 C       -6.1310    -3.2120    -0.2660 C.ar  1 <1>  -0.1440 
 18 C        0.1900     5.2720     1.3220 C.3   1 <1>   0.2630 
 19 C       -7.0530    -2.1390    -0.3190 C.ar  1 <1>   0.0000 
 20 C       -6.5220    -4.3470     0.3830 C.ar  1 <1>  -0.1500 
 21 C       -8.3020    -2.3140     0.3250 C.ar  1 <1>   0.3100 
 22 C       -6.8140    -0.9080    -0.9750 C.ar  1 <1>  -0.1500 
 23 C       -7.7850    -4.4190     0.9810 C.ar  1 <1>   0.1600 
 24 N       -8.6510    -3.4560     0.9700 N.ar  1 <1>  -0.6200 
 25 C       -9.2340    -1.2640     0.2980 C.ar  1 <1>  -0.1500 
 26 C       -7.7460     0.0940    -0.9860 C.ar  1 <1>  -0.1500 
 27 C       -8.9720    -0.0830    -0.3400 C.ar  1 <1>  -0.1500 
 28 H       -1.4020    -0.9550     0.7070 H     1 <1>   0.3700 
 29 H       -2.5010    -2.0930    -1.8040 H     1 <1>   0.0800 
 30 H        0.3750     0.4550     0.1570 H     1 <1>   0.4000 
 31 H        0.0790     2.0240    -1.9020 H     1 <1>   0.0800 
 32 H       -1.4110     2.8850    -1.8910 H     1 <1>   0.0800 
 33 H       -3.1390     2.3600     0.2370 H     1 <1>   0.0800 
 34 H       -2.2860     1.8170     1.6330 H     1 <1>   0.0800 
 35 H       -4.2430    -1.3290     0.1540 H     1 <1>   0.0800 
 36 H       -0.6050    -3.1710    -0.2200 H     1 <1>   0.0800 
 37 H       -1.9330    -4.2020    -0.7420 H     1 <1>   0.0800 
 38 H       -0.1830     4.6490    -1.2400 H     1 <1>   0.0800 
 39 H        1.1440     3.6500    -0.7080 H     1 <1>   0.0800 
 40 H       -2.0520     4.0650     1.9850 H     1 <1>   0.0800 
 41 H       -2.3150     4.4530     0.3010 H     1 <1>   0.0800 
 42 H       -4.0550    -3.8050     1.5060 H     1 <1>   0.0800 
 43 H       -3.4010    -2.2850     2.0890 H     1 <1>   0.0800 
 44 H       -4.3470    -4.1210    -1.0230 H     1 <1>   0.0800 
 45 H       -4.8350    -2.7070    -1.8870 H     1 <1>   0.0800 
 46 H        0.1190     3.1880     1.2790 H     1 <1>   0.4500 
 47 H       -0.2570     6.1040     0.8030 H     1 <1>   0.0800 
 48 H        1.2600     5.3300     1.2110 H     1 <1>   0.0800 
 49 H       -0.0500     5.3500     2.3710 H     1 <1>   0.0800 
 50 H       -5.8790    -5.2060     0.4560 H     1 <1>   0.1500 
 51 H       -5.8810    -0.7490    -1.4830 H     1 <1>   0.1500 
 52 H       -8.0520    -5.3320     1.4840 H     1 <1>   0.1500 
 53 H      -10.1710    -1.4240     0.7990 H     1 <1>   0.1500 
 54 H       -7.5510     1.0240    -1.4910 H     1 <1>   0.1500 
 55 H       -9.6980     0.7120    -0.3540 H     1 <1>   0.1500 
@<TRIPOS>BOND
  1   1   2  2   
  2   2   3  am  
  3   2   4  1   
  4   3   5  1   
  5   3  28  1   
  6   4   6  1   
  7   4   7  1   
  8   4   8  1   
  9   5   9  1   
 10   5  10  1   
 11   5  29  1   
 12   6  30  1   
 13   7  11  1   
 14   7  31  1   
 15   7  32  1   
 16   8  12  1   
 17   8  33  1   
 18   8  34  1   
 19   9  13  1   
 20   9  14  1   
 21   9  35  1   
 22  10  15  1   
 23  10  36  1   
 24  10  37  1   
 25  11  16  1   
 26  11  38  1   
 27  11  39  1   
 28  12  16  1   
 29  12  40  1   
 30  12  41  1   
 31  13  15  1   
 32  13  42  1   
 33  13  43  1   
 34  14  17  1   
 35  14  44  1   
 36  14  45  1   
 37  16  18  1   
 38  16  46  1   
 39  17  19  ar  
 40  17  20  ar  
 41  18  47  1   
 42  18  48  1   
 43  18  49  1   
 44  19  21  ar  
 45  19  22  ar  
 46  20  23  ar  
 47  20  50  1   
 48  21  24  ar  
 49  21  25  ar  
 50  22  26  ar  
 51  22  51  1   
 52  23  24  ar  
 53  23  52  1   
 54  25  27  ar  
 55  25  53  1   
 56  26  27  ar  
 57  26  54  1   
 58  27  55  1   
@<TRIPOS>SUBSTRUCTURE
  1 ****   9 GROUP 4 **** **** 0

# MOE 2024.06 (io_trps.svl 2023.06)
