@<TRIPOS>MOLECULE
NONAME
47 50 1 0 0 
SMALL
USER_CHARGES


@<TRIPOS>ATOM
  1 O       -0.9370     4.0290    -2.1670 O.2   1 <1>  -0.5700 
  2 C       -0.6660     3.5150    -1.0950 C.2   1 <1>   0.7150 
  3 N       -1.6950     3.2010    -0.2340 N.am  1 <1>  -0.6600 
  4 C        0.7180     3.2520    -0.7960 C.2   1 <1>  -0.2370 
  5 C       -3.0750     3.7410    -0.4880 C.3   1 <1>   0.1400 
  6 C       -1.5580     2.1880     0.8520 C.3   1 <1>   0.1400 
  7 N        1.6310     3.1610    -1.8100 N.pl3 1 <1>   0.0330 
  8 C        1.4070     3.0740     0.3800 C.2   1 <1>  -0.1500 
  9 C       -3.9120     3.8120     0.8030 C.3   1 <1>   0.1440 
 10 C       -2.8810     1.4530     1.0890 C.3   1 <1>  -0.1600 
 11 C        2.8540     2.9150    -1.2820 C.2   1 <1>  -0.3020 
 12 C        2.7480     2.8550     0.0710 C.2   1 <1>  -0.1500 
 13 C       -5.2590     4.4310     0.4640 C.ar  1 <1>   0.1670 
 14 C       -4.0480     2.3990     1.4350 C.3   1 <1>  -0.1600 
 15 C       -3.3160     4.8540     1.7960 C.3   1 <1>  -0.1600 
 16 N       -6.2280     3.8340    -0.1860 N.ar  1 <1>  -0.6200 
 17 C       -5.3480     5.7170     0.9020 C.ar  1 <1>  -0.1430 
 18 C       -4.0880     6.1690     1.5920 C.3   1 <1>  -0.0160 
 19 C       -7.3250     4.5690    -0.3830 C.ar  1 <1>   0.7200 
 20 C       -6.5140     6.3970     0.6560 C.ar  1 <1>   0.1600 
 21 N       -7.5100     5.8320     0.0160 N.ar  1 <1>  -0.6200 
 22 N       -8.3650     3.9670    -1.0640 N.pl3 1 <1>  -0.8380 
 23 C       -9.5040     4.7500    -1.6180 C.3   1 <1>   0.1290 
 24 C       -8.4020     2.5010    -1.3170 C.3   1 <1>   0.1290 
 25 H       -3.5720     3.1040    -1.1990 H     1 <1>   0.0800 
 26 H       -3.0040     4.7240    -0.9240 H     1 <1>   0.0800 
 27 H       -1.2570     2.6830     1.7590 H     1 <1>   0.0800 
 28 H       -0.8000     1.4700     0.5860 H     1 <1>   0.0800 
 29 H        1.3900     3.2840    -2.8020 H     1 <1>   0.2700 
 30 H        1.0170     3.1040     1.3810 H     1 <1>   0.1500 
 31 H       -2.7580     0.7310     1.8770 H     1 <1>   0.0800 
 32 H       -3.1210     0.9070     0.1920 H     1 <1>   0.0800 
 33 H        3.7350     2.7990    -1.8890 H     1 <1>   0.1500 
 34 H        3.5350     2.6800     0.7840 H     1 <1>   0.1500 
 35 H       -4.9510     1.9330     1.0800 H     1 <1>   0.0800 
 36 H       -4.1500     2.4770     2.5020 H     1 <1>   0.0800 
 37 H       -2.2590     5.0030     1.6570 H     1 <1>   0.0800 
 38 H       -3.4770     4.5340     2.8090 H     1 <1>   0.0800 
 39 H       -3.5410     6.8340     0.9460 H     1 <1>   0.0800 
 40 H       -4.2980     6.6550     2.5290 H     1 <1>   0.0800 
 41 H       -6.6310     7.4150     0.9850 H     1 <1>   0.1500 
 42 H       -9.1930     5.7520    -1.8580 H     1 <1>   0.0800 
 43 H      -10.2960     4.7950    -0.8910 H     1 <1>   0.0800 
 44 H       -9.8700     4.2870    -2.5170 H     1 <1>   0.0800 
 45 H       -7.8960     1.9700    -0.5290 H     1 <1>   0.0800 
 46 H       -7.9160     2.2860    -2.2520 H     1 <1>   0.0800 
 47 H       -9.4200     2.1560    -1.3560 H     1 <1>   0.0800 
@<TRIPOS>BOND
  1   1   2  2   
  2   2   3  am  
  3   2   4  1   
  4   3   5  1   
  5   3   6  1   
  6   4   7  1   
  7   4   8  2   
  8   5   9  1   
  9   5  25  1   
 10   5  26  1   
 11   6  10  1   
 12   6  27  1   
 13   6  28  1   
 14   7  11  1   
 15   7  29  1   
 16   8  12  1   
 17   8  30  1   
 18   9  13  1   
 19   9  14  1   
 20   9  15  1   
 21  10  14  1   
 22  10  31  1   
 23  10  32  1   
 24  11  12  2   
 25  11  33  1   
 26  12  34  1   
 27  13  16  ar  
 28  13  17  ar  
 29  14  35  1   
 30  14  36  1   
 31  15  18  1   
 32  15  37  1   
 33  15  38  1   
 34  16  19  ar  
 35  17  18  1   
 36  17  20  ar  
 37  18  39  1   
 38  18  40  1   
 39  19  21  ar  
 40  19  22  1   
 41  20  21  ar  
 42  20  41  1   
 43  22  23  1   
 44  22  24  1   
 45  23  42  1   
 46  23  43  1   
 47  23  44  1   
 48  24  45  1   
 49  24  46  1   
 50  24  47  1   
@<TRIPOS>SUBSTRUCTURE
  1 ****   5 GROUP 4 **** **** 0

# MOE 2024.06 (io_trps.svl 2023.06)
