@<TRIPOS>MOLECULE
NONAME
57 60 1 0 0 
SMALL
USER_CHARGES


@<TRIPOS>ATOM
  1 O       -1.1070     0.8970    -2.0760 O.2   1 <1>  -0.5700 
  2 C       -1.9790     1.4020    -1.3950 C.2   1 <1>   0.5440 
  3 N       -3.2570     0.8830    -1.4480 N.am  1 <1>  -0.6600 
  4 C       -1.6420     2.5220    -0.5400 C.ar  1 <1>   0.0860 
  5 C       -4.2690     1.0550    -0.3690 C.3   1 <1>   0.1400 
  6 C       -3.6660    -0.0870    -2.5020 C.3   1 <1>   0.1400 
  7 C       -2.3670     3.7040    -0.5260 C.ar  1 <1>  -0.1500 
  8 C       -0.5590     2.4880     0.3230 C.ar  1 <1>  -0.1500 
  9 C       -4.5290    -0.3000     0.2930 C.3   1 <1>  -0.1600 
 10 C       -3.9260    -1.4520    -1.8610 C.3   1 <1>  -0.1600 
 11 C       -2.0100     4.7350     0.3240 C.ar  1 <1>   0.1670 
 12 C       -0.2770     3.5700     1.1360 C.ar  1 <1>   0.1670 
 13 C       -4.9590    -1.3670    -0.7280 C.3   1 <1>   0.4240 
 14 N       -0.9860     4.6840     1.1560 N.ar  1 <1>  -0.6200 
 15 C       -2.8050     6.0230     0.3390 C.3   1 <1>  -0.0970 
 16 C        0.9070     3.5270     2.0790 C.3   1 <1>  -0.0970 
 17 O       -6.1490    -0.9280    -1.3420 O.3   1 <1>  -0.5600 
 18 C       -5.1360    -2.7440    -0.0550 C.ar  1 <1>  -0.1440 
 19 C       -7.3500    -1.1890    -0.6830 C.3   1 <1>   0.1200 
 20 C       -6.3720    -3.3760    -0.0150 C.ar  1 <1>  -0.1440 
 21 C       -4.0540    -3.3830     0.5360 C.ar  1 <1>  -0.1500 
 22 C       -7.5730    -2.6980    -0.6440 C.3   1 <1>  -0.0170 
 23 C       -6.5150    -4.6120     0.5960 C.ar  1 <1>  -0.1500 
 24 C       -4.1760    -4.6190     1.1460 C.ar  1 <1>   0.0820 
 25 C       -5.4290    -5.2480     1.1910 C.ar  1 <1>   0.0820 
 26 O       -3.0210    -5.1190     1.6690 O.3   1 <1>  -0.3620 
 27 O       -5.5670    -6.4500     1.8250 O.3   1 <1>  -0.3620 
 28 C       -2.7540    -6.5040     1.6350 C.3   1 <1>   0.0400 
 29 C       -6.8290    -7.0390     2.0520 C.3   1 <1>   0.0400 
 30 H       -5.1800     1.4380    -0.7980 H     1 <1>   0.0800 
 31 H       -3.9270     1.7500     0.3770 H     1 <1>   0.0800 
 32 H       -2.9020    -0.1780    -3.2550 H     1 <1>   0.0800 
 33 H       -4.5620     0.2700    -2.9810 H     1 <1>   0.0800 
 34 H       -3.2080     3.8080    -1.1860 H     1 <1>   0.1500 
 35 H        0.0570     1.6080     0.3460 H     1 <1>   0.1500 
 36 H       -5.2750    -0.2000     1.0580 H     1 <1>   0.0800 
 37 H       -3.6230    -0.6130     0.7780 H     1 <1>   0.0800 
 38 H       -2.9910    -1.8240    -1.4870 H     1 <1>   0.0800 
 39 H       -4.2740    -2.1440    -2.6050 H     1 <1>   0.0800 
 40 H       -3.6180     5.9880    -0.3610 H     1 <1>   0.0800 
 41 H       -2.1600     6.8440     0.0840 H     1 <1>   0.0800 
 42 H       -3.1990     6.1890     1.3250 H     1 <1>   0.0800 
 43 H        1.4260     2.5890     2.0090 H     1 <1>   0.0800 
 44 H        0.5660     3.6630     3.0890 H     1 <1>   0.0800 
 45 H        1.5880     4.3210     1.8340 H     1 <1>   0.0800 
 46 H       -8.1390    -0.7060    -1.2320 H     1 <1>   0.0800 
 47 H       -7.3070    -0.7770     0.3100 H     1 <1>   0.0800 
 48 H       -3.0810    -2.9260     0.5320 H     1 <1>   0.1500 
 49 H       -7.7130    -3.0640    -1.6450 H     1 <1>   0.0800 
 50 H       -8.4610    -2.9090    -0.0770 H     1 <1>   0.0800 
 51 H       -7.4870    -5.0640     0.5990 H     1 <1>   0.1500 
 52 H       -1.6920    -6.6420     1.7190 H     1 <1>   0.0800 
 53 H       -3.1070    -6.9080     0.7030 H     1 <1>   0.0800 
 54 H       -3.2480    -6.9720     2.4660 H     1 <1>   0.0800 
 55 H       -6.6790    -7.9340     2.6290 H     1 <1>   0.0800 
 56 H       -7.2750    -7.2860     1.1050 H     1 <1>   0.0800 
 57 H       -7.4420    -6.3480     2.6030 H     1 <1>   0.0800 
@<TRIPOS>BOND
  1   1   2  2   
  2   2   3  am  
  3   2   4  1   
  4   3   5  1   
  5   3   6  1   
  6   4   7  ar  
  7   4   8  ar  
  8   5   9  1   
  9   5  30  1   
 10   5  31  1   
 11   6  10  1   
 12   6  32  1   
 13   6  33  1   
 14   7  11  ar  
 15   7  34  1   
 16   8  12  ar  
 17   8  35  1   
 18   9  13  1   
 19   9  36  1   
 20   9  37  1   
 21  10  13  1   
 22  10  38  1   
 23  10  39  1   
 24  11  14  ar  
 25  11  15  1   
 26  12  14  ar  
 27  12  16  1   
 28  13  17  1   
 29  13  18  1   
 30  15  40  1   
 31  15  41  1   
 32  15  42  1   
 33  16  43  1   
 34  16  44  1   
 35  16  45  1   
 36  17  19  1   
 37  18  20  ar  
 38  18  21  ar  
 39  19  22  1   
 40  19  46  1   
 41  19  47  1   
 42  20  22  1   
 43  20  23  ar  
 44  21  24  ar  
 45  21  48  1   
 46  22  49  1   
 47  22  50  1   
 48  23  25  ar  
 49  23  51  1   
 50  24  25  ar  
 51  24  26  1   
 52  25  27  1   
 53  26  28  1   
 54  27  29  1   
 55  28  52  1   
 56  28  53  1   
 57  28  54  1   
 58  29  55  1   
 59  29  56  1   
 60  29  57  1   
@<TRIPOS>SUBSTRUCTURE
  1 ****   9 GROUP 4 **** **** 0

# MOE 2024.06 (io_trps.svl 2023.06)
