@<TRIPOS>MOLECULE
NONAME
61 65 1 0 0 
SMALL
USER_CHARGES


@<TRIPOS>ATOM
  1 O       -1.4240    -0.2480    -0.3310 O.2   1 <1>  -0.5700 
  2 C       -0.2600    -0.4870    -0.5550 C.2   1 <1>   0.5690 
  3 N        0.3070    -1.6930    -0.2280 N.am  1 <1>  -0.6600 
  4 C        0.5570     0.5920    -1.2450 C.3   1 <1>  -0.0990 
  5 C        1.7440    -2.0220    -0.4340 C.3   1 <1>   0.1400 
  6 C       -0.4910    -2.7400     0.4600 C.3   1 <1>   0.1400 
  7 C        2.0730     0.3820    -1.1340 C.3   1 <1>  -0.1600 
  8 C        2.4100    -1.0790    -1.4410 C.3   1 <1>  -0.1600 
  9 C       -1.1740    -3.6290    -0.5730 C.3   1 <1>  -0.0990 
 10 C       -2.1680    -4.5340     0.1200 C.2   1 <1>   0.5690 
 11 O       -1.7470    -5.6010     0.4990 O.2   1 <1>  -0.5700 
 12 N       -3.4780    -4.1680     0.3130 N.am  1 <1>  -0.6600 
 13 C       -4.0870    -2.8540    -0.0970 C.3   1 <1>   0.1400 
 14 C       -4.4310    -5.1980     0.8310 C.3   1 <1>   0.1400 
 15 C       -4.9750    -2.2200     1.0050 C.3   1 <1>   0.1430 
 16 C       -5.8080    -4.6180     1.1810 C.3   1 <1>  -0.1600 
 17 C       -6.0020    -1.3360     0.3120 C.ar  1 <1>   0.1670 
 18 C       -5.6530    -3.2790     1.9090 C.3   1 <1>  -0.1600 
 19 C       -4.1880    -1.1900     1.8600 C.3   1 <1>  -0.1600 
 20 N       -7.0430    -1.7630    -0.3640 N.ar  1 <1>  -0.6200 
 21 C       -5.7150    -0.0150     0.4610 C.ar  1 <1>  -0.1440 
 22 C       -4.4620     0.2030     1.2660 C.3   1 <1>  -0.0170 
 23 C       -7.8260    -0.8170    -0.8980 C.ar  1 <1>   0.6200 
 24 C       -6.5610     0.8940    -0.1200 C.ar  1 <1>   0.1600 
 25 N       -7.6180     0.5040    -0.7970 N.ar  1 <1>  -0.6200 
 26 C       -8.9950    -1.2600    -1.6470 C.ar  1 <1>   0.0000 
 27 C      -10.1400    -0.4650    -1.7570 C.ar  1 <1>  -0.1500 
 28 C       -9.0290    -2.5010    -2.2910 C.ar  1 <1>  -0.1500 
 29 C      -11.2530    -0.8810    -2.4660 C.ar  1 <1>  -0.1500 
 30 C      -10.1370    -2.9240    -3.0010 C.ar  1 <1>  -0.1500 
 31 C      -11.2540    -2.1140    -3.0900 C.ar  1 <1>  -0.1500 
 32 H        0.2930     1.5470    -0.8290 H     1 <1>   0.0800 
 33 H        0.2730     0.5960    -2.2820 H     1 <1>   0.0800 
 34 H        1.8350    -3.0360    -0.7830 H     1 <1>   0.0800 
 35 H        2.2490    -1.9460     0.5150 H     1 <1>   0.0800 
 36 H       -1.2330    -2.2710     1.0820 H     1 <1>   0.0800 
 37 H        0.1410    -3.3330     1.0990 H     1 <1>   0.0800 
 38 H        2.3970     0.6220    -0.1350 H     1 <1>   0.0800 
 39 H        2.5840     1.0350    -1.8200 H     1 <1>   0.0800 
 40 H        2.0790    -1.3310    -2.4340 H     1 <1>   0.0800 
 41 H        3.4750    -1.2230    -1.4060 H     1 <1>   0.0800 
 42 H       -0.4370    -4.2390    -1.0590 H     1 <1>   0.0800 
 43 H       -1.6610    -3.0410    -1.3260 H     1 <1>   0.0800 
 44 H       -4.6960    -3.0420    -0.9650 H     1 <1>   0.0800 
 45 H       -3.3370    -2.1420    -0.3860 H     1 <1>   0.0800 
 46 H       -4.0030    -5.6370     1.7170 H     1 <1>   0.0800 
 47 H       -4.5410    -5.9800     0.0990 H     1 <1>   0.0800 
 48 H       -6.3360    -5.3170     1.8050 H     1 <1>   0.0800 
 49 H       -6.3860    -4.4850     0.2830 H     1 <1>   0.0800 
 50 H       -6.6140    -2.9220     2.2380 H     1 <1>   0.0800 
 51 H       -5.0490    -3.4500     2.7830 H     1 <1>   0.0800 
 52 H       -3.1360    -1.4060     1.8940 H     1 <1>   0.0800 
 53 H       -4.5650    -1.1940     2.8680 H     1 <1>   0.0800 
 54 H       -3.6630     0.5080     0.6130 H     1 <1>   0.0800 
 55 H       -4.6030     0.9410     2.0360 H     1 <1>   0.0800 
 56 H       -6.3690     1.9490    -0.0310 H     1 <1>   0.1500 
 57 H      -10.1580     0.4980    -1.2770 H     1 <1>   0.1500 
 58 H       -8.1690    -3.1460    -2.2340 H     1 <1>   0.1500 
 59 H      -12.1180    -0.2440    -2.5310 H     1 <1>   0.1500 
 60 H      -10.1320    -3.8850    -3.4850 H     1 <1>   0.1500 
 61 H      -12.1180    -2.4410    -3.6420 H     1 <1>   0.1500 
@<TRIPOS>BOND
  1   1   2  2   
  2   2   3  am  
  3   2   4  1   
  4   3   5  1   
  5   3   6  1   
  6   4   7  1   
  7   4  32  1   
  8   4  33  1   
  9   5   8  1   
 10   5  34  1   
 11   5  35  1   
 12   6   9  1   
 13   6  36  1   
 14   6  37  1   
 15   7   8  1   
 16   7  38  1   
 17   7  39  1   
 18   8  40  1   
 19   8  41  1   
 20   9  10  1   
 21   9  42  1   
 22   9  43  1   
 23  10  11  2   
 24  10  12  am  
 25  12  13  1   
 26  12  14  1   
 27  13  15  1   
 28  13  44  1   
 29  13  45  1   
 30  14  16  1   
 31  14  46  1   
 32  14  47  1   
 33  15  17  1   
 34  15  18  1   
 35  15  19  1   
 36  16  18  1   
 37  16  48  1   
 38  16  49  1   
 39  17  20  ar  
 40  17  21  ar  
 41  18  50  1   
 42  18  51  1   
 43  19  22  1   
 44  19  52  1   
 45  19  53  1   
 46  20  23  ar  
 47  21  22  1   
 48  21  24  ar  
 49  22  54  1   
 50  22  55  1   
 51  23  25  ar  
 52  23  26  1   
 53  24  25  ar  
 54  24  56  1   
 55  26  27  ar  
 56  26  28  ar  
 57  27  29  ar  
 58  27  57  1   
 59  28  30  ar  
 60  28  58  1   
 61  29  31  ar  
 62  29  59  1   
 63  30  31  ar  
 64  30  60  1   
 65  31  61  1   
@<TRIPOS>SUBSTRUCTURE
  1 ****  13 GROUP 4 **** **** 0

# MOE 2024.06 (io_trps.svl 2023.06)
