@<TRIPOS>MOLECULE
NONAME
39 41 1 0 0 
SMALL
USER_CHARGES


@<TRIPOS>ATOM
  1 CL       0.1560    -0.4380    -1.0150 Cl    1 <1>  -0.1770 
  2 C       -0.7490    -1.8580    -0.5610 C.ar  1 <1>   0.1770 
  3 C       -2.0980    -1.9290    -0.8490 C.ar  1 <1>  -0.1500 
  4 C       -0.1070    -2.8970     0.0840 C.ar  1 <1>  -0.1500 
  5 C       -2.8110    -3.0570    -0.4840 C.ar  1 <1>  -0.1500 
  6 C       -0.8300    -4.0210     0.4420 C.ar  1 <1>  -0.1500 
  7 C       -2.1970    -4.1310     0.1670 C.ar  1 <1>   0.0530 
  8 C       -2.9320    -5.3120     0.5510 C.2   1 <1>   0.0870 
  9 O       -2.4900    -6.0830     1.5180 O.3   1 <1>  -0.0190 
 10 C       -4.0850    -5.8730     0.1070 C.2   1 <1>  -0.2330 
 11 N       -3.2700    -7.1070     1.7490 N.2   1 <1>  -0.4100 
 12 C       -4.2410    -6.9990     0.9130 C.2   1 <1>   0.3720 
 13 C       -4.9660    -5.4660    -0.9350 C.2   1 <1>   1.0330 
 14 N       -5.2910    -7.9210     0.8680 N.pl3 1 <1>  -0.8210 
 15 O       -5.8670    -4.6400    -0.7080 O.co2 1 <1>  -0.9000 
 16 O       -4.8480    -5.9240    -2.0840 O.co2 1 <1>  -0.9000 
 17 C       -5.3130    -8.7170    -0.3870 C.3   1 <1>   0.2090 
 18 C       -6.6140    -7.3230     1.1880 C.3   1 <1>   0.2090 
 19 C       -6.3300    -9.8510    -0.2570 C.3   1 <1>  -0.1600 
 20 C       -7.6500    -8.4350     1.3480 C.3   1 <1>  -0.1600 
 21 C       -7.7110    -9.2780     0.0760 C.3   1 <1>   0.2000 
 22 O       -8.6130   -10.3180     0.2990 O.3   1 <1>  -0.5600 
 23 C       -9.2090   -10.8370    -0.8470 C.3   1 <1>   0.0400 
 24 H       -2.5860    -1.1140    -1.3520 H     1 <1>   0.1500 
 25 H        0.9430    -2.8240     0.3000 H     1 <1>   0.1500 
 26 H       -3.8640    -3.1000    -0.7070 H     1 <1>   0.1500 
 27 H       -0.3310    -4.8320     0.9420 H     1 <1>   0.1500 
 28 H       -4.3320    -9.1190    -0.5720 H     1 <1>   0.0800 
 29 H       -5.5830    -8.0890    -1.2180 H     1 <1>   0.0800 
 30 H       -6.9210    -6.6560     0.4000 H     1 <1>   0.0800 
 31 H       -6.5370    -6.7550     2.1000 H     1 <1>   0.0800 
 32 H       -6.0090   -10.5160     0.5250 H     1 <1>   0.0800 
 33 H       -6.3610   -10.3890    -1.1850 H     1 <1>   0.0800 
 34 H       -8.6110    -7.9970     1.5380 H     1 <1>   0.0800 
 35 H       -7.3730    -9.0500     2.1860 H     1 <1>   0.0800 
 36 H       -8.0680    -8.6630    -0.7350 H     1 <1>   0.0800 
 37 H       -9.8910   -11.6120    -0.5450 H     1 <1>   0.0800 
 38 H       -8.4540   -11.2530    -1.4900 H     1 <1>   0.0800 
 39 H       -9.7490   -10.0550    -1.3520 H     1 <1>   0.0800 
@<TRIPOS>BOND
  1   1   2  1   
  2   2   3  ar  
  3   2   4  ar  
  4   3   5  ar  
  5   3  24  1   
  6   4   6  ar  
  7   4  25  1   
  8   5   7  ar  
  9   5  26  1   
 10   6   7  ar  
 11   6  27  1   
 12   7   8  1   
 13   8   9  1   
 14   8  10  2   
 15   9  11  1   
 16  10  12  1   
 17  10  13  1   
 18  11  12  2   
 19  12  14  1   
 20  13  15  ar  
 21  13  16  ar  
 22  14  17  1   
 23  14  18  1   
 24  17  19  1   
 25  17  28  1   
 26  17  29  1   
 27  18  20  1   
 28  18  30  1   
 29  18  31  1   
 30  19  21  1   
 31  19  32  1   
 32  19  33  1   
 33  20  21  1   
 34  20  34  1   
 35  20  35  1   
 36  21  22  1   
 37  21  36  1   
 38  22  23  1   
 39  23  37  1   
 40  23  38  1   
 41  23  39  1   
@<TRIPOS>SUBSTRUCTURE
  1 ****  10 GROUP 4 **** **** 0

# MOE 2024.06 (io_trps.svl 2023.06)
