@<TRIPOS>MOLECULE
NONAME
48 50 1 0 0 
SMALL
USER_CHARGES


@<TRIPOS>ATOM
  1 CL       0.4390     0.9400    -0.3460 Cl    1 <1>  -0.1770 
  2 C        0.7720     2.5030     0.3660 C.ar  1 <1>   0.1770 
  3 C        2.0750     2.9420     0.5850 C.ar  1 <1>  -0.1440 
  4 C       -0.3190     3.2850     0.7000 C.ar  1 <1>  -0.1500 
  5 C        2.2540     4.2000     1.1480 C.ar  1 <1>  -0.1500 
  6 C        3.3100     2.1190     0.2310 C.3   1 <1>   0.3640 
  7 C       -0.1220     4.5330     1.2620 C.ar  1 <1>  -0.1500 
  8 C        1.1660     4.9880     1.4840 C.ar  1 <1>  -0.1500 
  9 N        3.2870     0.8270     0.9550 N.am  1 <1>  -0.7300 
 10 C        3.4970     1.9360    -1.2960 C.3   1 <1>   0.2610 
 11 C        3.6250    -0.3490     0.3800 C.2   1 <1>   0.5690 
 12 O        4.4160     0.8920    -1.5830 O.3   1 <1>  -0.5600 
 13 C        3.8920     3.2770    -1.9300 C.2   1 <1>   0.5690 
 14 O        3.6190    -1.3700     1.0200 O.2   1 <1>  -0.5700 
 15 C        4.0060    -0.3720    -1.1040 C.3   1 <1>   0.1810 
 16 O        3.0490     3.8050    -2.6200 O.2   1 <1>  -0.5700 
 17 N        5.1080     3.8950    -1.7070 N.am  1 <1>  -0.6600 
 18 C        5.3710     5.2660    -2.2310 C.3   1 <1>   0.1400 
 19 C        6.2860     3.2880    -1.0210 C.3   1 <1>   0.1400 
 20 C        5.7830     6.1850    -1.0790 C.3   1 <1>  -0.1600 
 21 C        6.7180     4.1820     0.1430 C.3   1 <1>  -0.1600 
 22 C        6.9890     5.6120    -0.3260 C.3   1 <1>   0.2000 
 23 O        7.2230     6.3710     0.8150 O.3   1 <1>  -0.5600 
 24 C        7.9910     7.5150     0.6280 C.3   1 <1>   0.1200 
 25 C        8.1510     8.1830     1.9880 C.3   1 <1>  -0.2400 
 26 H       -1.3130     2.9170     0.5180 H     1 <1>   0.1500 
 27 H        3.2440     4.5860     1.3280 H     1 <1>   0.1500 
 28 H        4.1670     2.6540     0.5960 H     1 <1>   0.0800 
 29 H       -0.9660     5.1490     1.5230 H     1 <1>   0.1500 
 30 H        1.3220     5.9620     1.9180 H     1 <1>   0.1500 
 31 H        2.9820     0.8280     1.9300 H     1 <1>   0.3700 
 32 H        2.5600     1.6510    -1.7370 H     1 <1>   0.0800 
 33 H        3.1620    -0.6980    -1.6850 H     1 <1>   0.0800 
 34 H        4.8180    -1.0600    -1.2540 H     1 <1>   0.0800 
 35 H        6.1570     5.2160    -2.9660 H     1 <1>   0.0800 
 36 H        4.4960     5.6710    -2.7120 H     1 <1>   0.0800 
 37 H        6.0700     2.3050    -0.6490 H     1 <1>   0.0800 
 38 H        7.0910     3.1980    -1.7310 H     1 <1>   0.0800 
 39 H        4.9510     6.2910    -0.4070 H     1 <1>   0.0800 
 40 H        6.0230     7.1510    -1.4810 H     1 <1>   0.0800 
 41 H        7.6120     3.7800     0.5850 H     1 <1>   0.0800 
 42 H        5.9460     4.1900     0.8900 H     1 <1>   0.0800 
 43 H        7.8680     5.6230    -0.9490 H     1 <1>   0.0800 
 44 H        8.9510     7.2290     0.2320 H     1 <1>   0.0800 
 45 H        7.4870     8.1730    -0.0580 H     1 <1>   0.0800 
 46 H        8.6430     7.5140     2.6710 H     1 <1>   0.0800 
 47 H        7.1870     8.4520     2.3810 H     1 <1>   0.0800 
 48 H        8.7440     9.0740     1.8900 H     1 <1>   0.0800 
@<TRIPOS>BOND
  1   1   2  1   
  2   2   3  ar  
  3   2   4  ar  
  4   3   5  ar  
  5   3   6  1   
  6   4   7  ar  
  7   4  26  1   
  8   5   8  ar  
  9   5  27  1   
 10   6   9  1   
 11   6  10  1   
 12   6  28  1   
 13   7   8  ar  
 14   7  29  1   
 15   8  30  1   
 16   9  11  am  
 17   9  31  1   
 18  10  12  1   
 19  10  13  1   
 20  10  32  1   
 21  11  14  2   
 22  11  15  1   
 23  12  15  1   
 24  13  16  2   
 25  13  17  am  
 26  15  33  1   
 27  15  34  1   
 28  17  18  1   
 29  17  19  1   
 30  18  20  1   
 31  18  35  1   
 32  18  36  1   
 33  19  21  1   
 34  19  37  1   
 35  19  38  1   
 36  20  22  1   
 37  20  39  1   
 38  20  40  1   
 39  21  22  1   
 40  21  41  1   
 41  21  42  1   
 42  22  23  1   
 43  22  43  1   
 44  23  24  1   
 45  24  25  1   
 46  24  44  1   
 47  24  45  1   
 48  25  46  1   
 49  25  47  1   
 50  25  48  1   
@<TRIPOS>SUBSTRUCTURE
  1 ****   6 GROUP 4 **** **** 0

# MOE 2024.06 (io_trps.svl 2023.06)
