@<TRIPOS>MOLECULE
NONAME
61 64 1 0 0 
SMALL
USER_CHARGES


@<TRIPOS>ATOM
  1 O       -2.8290    -1.2440     0.6290 O.2   1 <1>  -0.5700 
  2 C       -2.8930    -0.0630     0.3040 C.2   1 <1>   0.6160 
  3 N       -2.6650     0.9260     1.2640 N.am  1 <1>  -0.4690 
  4 C       -3.2030     0.3280    -1.0320 C.2   1 <1>   0.0290 
  5 C       -2.6620     2.2680     0.9100 C.2   1 <1>  -0.0290 
  6 C       -2.3860     0.4980     2.6730 C.3   1 <1>   0.0600 
  7 C       -3.4880    -0.6850    -2.0070 C.2   1 <1>   0.6160 
  8 C       -3.2060     1.6580    -1.3520 C.2   1 <1>  -0.1500 
  9 C       -2.9350     2.6420    -0.3800 C.2   1 <1>  -0.1380 
 10 C       -2.3370     3.2900     2.0010 C.3   1 <1>  -0.1020 
 11 O       -2.7410    -0.7960    -2.9640 O.2   1 <1>  -0.5700 
 12 N       -4.6150    -1.4840    -1.9470 N.am  1 <1>  -0.6600 
 13 C       -2.9640     4.0910    -0.8530 C.3   1 <1>  -0.1020 
 14 C       -5.7280    -1.2920    -0.9760 C.3   1 <1>   0.1400 
 15 C       -4.8160    -2.6360    -2.8700 C.3   1 <1>   0.1400 
 16 C       -5.9070    -2.5640    -0.1440 C.3   1 <1>  -0.1600 
 17 C       -4.9880    -3.9170    -2.0510 C.3   1 <1>  -0.1600 
 18 C       -6.1300    -3.8000    -1.0310 C.3   1 <1>   0.4240 
 19 O       -7.2930    -3.5850    -1.7990 O.3   1 <1>  -0.5600 
 20 C       -6.2370    -5.0890    -0.1860 C.ar  1 <1>  -0.1430 
 21 C       -8.5190    -3.8830    -1.2090 C.3   1 <1>   0.1200 
 22 C       -7.4030    -5.8440    -0.1640 C.ar  1 <1>  -0.1430 
 23 C       -5.1610    -5.5210     0.5790 C.ar  1 <1>  -0.1500 
 24 C       -8.5980    -5.3890    -0.9770 C.3   1 <1>  -0.0170 
 25 C       -7.4820    -6.9990     0.5970 C.ar  1 <1>  -0.1500 
 26 C       -5.2200    -6.6760     1.3400 C.ar  1 <1>   0.0830 
 27 C       -6.4030    -7.4310     1.3630 C.ar  1 <1>   0.0830 
 28 O       -4.0780    -6.9740     2.0230 O.3   1 <1>  -0.3630 
 29 O       -6.4850    -8.5510     2.1410 O.3   1 <1>  -0.3620 
 30 C       -3.6810    -8.3120     2.2220 C.3   1 <1>   0.0400 
 31 C       -7.7000    -9.2410     2.3390 C.3   1 <1>   0.0400 
 32 H       -2.6710    -0.5260     2.8390 H     1 <1>   0.0800 
 33 H       -2.9450     1.1030     3.3630 H     1 <1>   0.0800 
 34 H       -1.3350     0.5980     2.8750 H     1 <1>   0.0800 
 35 H       -3.4150     1.9570    -2.3650 H     1 <1>   0.1500 
 36 H       -3.1130     3.2940     2.7440 H     1 <1>   0.0800 
 37 H       -2.2450     4.2870     1.6190 H     1 <1>   0.0800 
 38 H       -1.4010     3.0440     2.4690 H     1 <1>   0.0800 
 39 H       -3.3150     4.1670    -1.8660 H     1 <1>   0.0800 
 40 H       -1.9740     4.5100    -0.8090 H     1 <1>   0.0800 
 41 H       -3.6210     4.6730    -0.2320 H     1 <1>   0.0800 
 42 H       -6.6330    -1.0850    -1.5220 H     1 <1>   0.0800 
 43 H       -5.5370    -0.4580    -0.3240 H     1 <1>   0.0800 
 44 H       -3.9760    -2.7480    -3.5340 H     1 <1>   0.0800 
 45 H       -5.6930    -2.4590    -3.4700 H     1 <1>   0.0800 
 46 H       -6.7250    -2.4470     0.5400 H     1 <1>   0.0800 
 47 H       -5.0230    -2.7060     0.4490 H     1 <1>   0.0800 
 48 H       -4.0610    -4.1150    -1.5470 H     1 <1>   0.0800 
 49 H       -5.1840    -4.7460    -2.7060 H     1 <1>   0.0800 
 50 H       -9.2950    -3.5640    -1.8810 H     1 <1>   0.0800 
 51 H       -8.6090    -3.3430    -0.2830 H     1 <1>   0.0800 
 52 H       -4.2440    -4.9590     0.5960 H     1 <1>   0.1500 
 53 H       -8.6070    -5.8970    -1.9250 H     1 <1>   0.0800 
 54 H       -9.5110    -5.6190    -0.4600 H     1 <1>   0.0800 
 55 H       -8.4010    -7.5510     0.5800 H     1 <1>   0.1500 
 56 H       -2.6240    -8.3220     2.4170 H     1 <1>   0.0800 
 57 H       -3.8990    -8.8810     1.3350 H     1 <1>   0.0800 
 58 H       -4.2100    -8.7080     3.0700 H     1 <1>   0.0800 
 59 H       -7.5210   -10.0340     3.0430 H     1 <1>   0.0800 
 60 H       -8.0240    -9.6540     1.4000 H     1 <1>   0.0800 
 61 H       -8.4290    -8.5580     2.7360 H     1 <1>   0.0800 
@<TRIPOS>BOND
  1   1   2  2   
  2   2   3  am  
  3   2   4  1   
  4   3   5  1   
  5   3   6  1   
  6   4   7  1   
  7   4   8  2   
  8   5   9  2   
  9   5  10  1   
 10   6  32  1   
 11   6  33  1   
 12   6  34  1   
 13   7  11  2   
 14   7  12  am  
 15   8   9  1   
 16   8  35  1   
 17   9  13  1   
 18  10  36  1   
 19  10  37  1   
 20  10  38  1   
 21  12  14  1   
 22  12  15  1   
 23  13  39  1   
 24  13  40  1   
 25  13  41  1   
 26  14  16  1   
 27  14  42  1   
 28  14  43  1   
 29  15  17  1   
 30  15  44  1   
 31  15  45  1   
 32  16  18  1   
 33  16  46  1   
 34  16  47  1   
 35  17  18  1   
 36  17  48  1   
 37  17  49  1   
 38  18  19  1   
 39  18  20  1   
 40  19  21  1   
 41  20  22  ar  
 42  20  23  ar  
 43  21  24  1   
 44  21  50  1   
 45  21  51  1   
 46  22  24  1   
 47  22  25  ar  
 48  23  26  ar  
 49  23  52  1   
 50  24  53  1   
 51  24  54  1   
 52  25  27  ar  
 53  25  55  1   
 54  26  27  ar  
 55  26  28  1   
 56  27  29  1   
 57  28  30  1   
 58  29  31  1   
 59  30  56  1   
 60  30  57  1   
 61  30  58  1   
 62  31  59  1   
 63  31  60  1   
 64  31  61  1   
@<TRIPOS>SUBSTRUCTURE
  1 ****  16 GROUP 4 **** **** 0

# MOE 2024.06 (io_trps.svl 2023.06)
