@<TRIPOS>MOLECULE
NONAME
45 47 1 0 0 
SMALL
USER_CHARGES


@<TRIPOS>ATOM
  1 CL       0.2100     0.6350    -0.6100 Cl    1 <1>  -0.1770 
  2 C       -0.7430     2.0970    -0.5240 C.ar  1 <1>   0.1770 
  3 C       -0.1220     3.2970    -0.2740 C.ar  1 <1>  -0.1500 
  4 C       -2.1260     2.0010    -0.7150 C.ar  1 <1>  -0.1500 
  5 C       -0.9110     4.4430    -0.2120 C.ar  1 <1>   0.2270 
  6 C       -2.9080     3.1330    -0.6540 C.ar  1 <1>  -0.1500 
  7 N       -0.5470     5.7360     0.0180 N.2   1 <1>  -0.5650 
  8 C       -2.2800     4.3560    -0.3990 C.ar  1 <1>  -0.1520 
  9 C       -1.6510     6.3970    -0.0290 C.2   1 <1>   0.0060 
 10 N       -2.7430     5.6240    -0.2780 N.pl3 1 <1>   0.0330 
 11 C       -1.7320     7.8970     0.1760 C.3   1 <1>   0.0200 
 12 C       -0.3130     8.4620     0.3170 C.3   1 <1>   0.3430 
 13 N       -0.2900     9.9480     0.4840 N.4   1 <1>  -0.9590 
 14 C        1.0840    10.4970     0.2480 C.3   1 <1>   0.5240 
 15 C       -0.8320    10.4160     1.7980 C.3   1 <1>   0.2630 
 16 C        0.9840    11.9730    -0.1120 C.2   1 <1>   0.1080 
 17 N       -0.0690    12.5050    -0.6310 N.2   1 <1>  -0.4100 
 18 C        1.9820    12.9290     0.0660 C.2   1 <1>  -0.1500 
 19 O        0.2090    13.7650    -0.7960 O.3   1 <1>  -0.0190 
 20 C        1.4190    14.0580    -0.3960 C.2   1 <1>  -0.0400 
 21 C        1.9180    15.4930    -0.5160 C.3   1 <1>   0.1000 
 22 C        2.0420    15.8870    -1.9920 C.3   1 <1>  -0.2400 
 23 C        3.2640    15.6820     0.1920 C.3   1 <1>  -0.2400 
 24 H        0.9380     3.3660    -0.1290 H     1 <1>   0.1500 
 25 H       -2.5580     1.0350    -0.9080 H     1 <1>   0.1500 
 26 H       -3.9740     3.0820    -0.7970 H     1 <1>   0.1500 
 27 H       -3.7210     5.9140    -0.3620 H     1 <1>   0.2700 
 28 H       -2.3050     8.0920     1.0640 H     1 <1>   0.0800 
 29 H       -2.2180     8.3410    -0.6740 H     1 <1>   0.0800 
 30 H        0.2390     8.1870    -0.5690 H     1 <1>   0.0800 
 31 H        0.1700     7.9870     1.1560 H     1 <1>   0.0800 
 32 H       -0.8510    10.3990    -0.2610 H     1 <1>   0.4500 
 33 H        1.5490     9.9800    -0.5760 H     1 <1>   0.0800 
 34 H        1.6970    10.3690     1.1240 H     1 <1>   0.0800 
 35 H       -0.2520    10.0120     2.6120 H     1 <1>   0.0800 
 36 H       -1.8570    10.1040     1.9160 H     1 <1>   0.0800 
 37 H       -0.8010    11.4940     1.8510 H     1 <1>   0.0800 
 38 H        2.9660    12.7820     0.4730 H     1 <1>   0.1500 
 39 H        1.1940    16.1390    -0.0470 H     1 <1>   0.0800 
 40 H        2.7470    15.2480    -2.4940 H     1 <1>   0.0800 
 41 H        2.3720    16.9060    -2.0820 H     1 <1>   0.0800 
 42 H        1.0880    15.7960    -2.4810 H     1 <1>   0.0800 
 43 H        4.0220    15.0670    -0.2610 H     1 <1>   0.0800 
 44 H        3.1770    15.4220     1.2320 H     1 <1>   0.0800 
 45 H        3.5750    16.7100     0.1270 H     1 <1>   0.0800 
@<TRIPOS>BOND
  1   1   2  1   
  2   2   3  ar  
  3   2   4  ar  
  4   3   5  ar  
  5   3  24  1   
  6   4   6  ar  
  7   4  25  1   
  8   5   7  1   
  9   5   8  ar  
 10   6   8  ar  
 11   6  26  1   
 12   7   9  2   
 13   8  10  1   
 14   9  10  1   
 15   9  11  1   
 16  10  27  1   
 17  11  12  1   
 18  11  28  1   
 19  11  29  1   
 20  12  13  1   
 21  12  30  1   
 22  12  31  1   
 23  13  14  1   
 24  13  15  1   
 25  13  32  1   
 26  14  16  1   
 27  14  33  1   
 28  14  34  1   
 29  15  35  1   
 30  15  36  1   
 31  15  37  1   
 32  16  17  2   
 33  16  18  1   
 34  17  19  1   
 35  18  20  2   
 36  18  38  1   
 37  19  20  1   
 38  20  21  1   
 39  21  22  1   
 40  21  23  1   
 41  21  39  1   
 42  22  40  1   
 43  22  41  1   
 44  22  42  1   
 45  23  43  1   
 46  23  44  1   
 47  23  45  1   
@<TRIPOS>SUBSTRUCTURE
  1 ****  12 GROUP 4 **** **** 0

# MOE 2024.06 (io_trps.svl 2023.06)
