@<TRIPOS>MOLECULE
NONAME
49 51 1 0 0 
SMALL
USER_CHARGES


@<TRIPOS>ATOM
  1 CL      -0.7140     0.6400    -0.7080 Cl    1 <1>  -0.1770 
  2 C       -2.2460    -0.1240    -0.3700 C.ar  1 <1>   0.1770 
  3 C       -2.9260    -0.7570    -1.3950 C.ar  1 <1>  -0.1500 
  4 C       -2.7530    -0.0830     0.9170 C.ar  1 <1>  -0.1500 
  5 C       -4.1430    -1.3640    -1.1320 C.ar  1 <1>  -0.1500 
  6 C       -3.9700    -0.6890     1.1820 C.ar  1 <1>  -0.1500 
  7 C       -4.6560    -1.3230     0.1590 C.ar  1 <1>   0.1020 
  8 S       -6.2300    -2.0820     0.5890 S.3   1 <1>  -0.3320 
  9 C       -6.9390    -2.7710    -0.9860 C.3   1 <1>   0.1310 
 10 C       -8.2980    -3.4200    -0.7540 C.2   1 <1>   0.5690 
 11 O       -8.3690    -4.6110    -0.9550 O.2   1 <1>  -0.5700 
 12 N       -9.3970    -2.6830    -0.3790 N.am  1 <1>  -0.6600 
 13 C       -9.3630    -1.2090    -0.1270 C.3   1 <1>   0.1400 
 14 C      -10.7080    -3.3610    -0.1470 C.3   1 <1>   0.1400 
 15 C      -10.7430    -0.6010    -0.3750 C.3   1 <1>  -0.1600 
 16 C      -11.4960    -2.6440     0.9520 C.3   1 <1>  -0.1600 
 17 C      -11.7990    -1.1680     0.5990 C.3   1 <1>   0.2800 
 18 O      -11.6140    -0.4480     1.8000 O.3   1 <1>  -0.5600 
 19 C      -13.2580    -1.0160     0.0600 C.3   1 <1>   0.2000 
 20 C      -12.6700     0.2990     2.3330 C.3   1 <1>   0.1200 
 21 O      -13.4370    -1.6310    -1.1850 O.3   1 <1>  -0.6800 
 22 C      -13.7760     0.4530     0.0580 C.3   1 <1>   0.2800 
 23 C      -13.2100     1.2400     1.2540 C.3   1 <1>  -0.1600 
 24 O      -15.1480     0.3890     0.2160 O.3   1 <1>  -0.6800 
 25 C      -13.5620     1.2310    -1.2490 C.3   1 <1>  -0.2400 
 26 H       -2.5030    -0.7720    -2.3840 H     1 <1>   0.1500 
 27 H       -2.2020     0.4150     1.6950 H     1 <1>   0.1500 
 28 H       -4.6650    -1.8570    -1.9290 H     1 <1>   0.1500 
 29 H       -4.3860    -0.6730     2.1740 H     1 <1>   0.1500 
 30 H       -7.0210    -1.9650    -1.6900 H     1 <1>   0.0800 
 31 H       -6.2430    -3.5050    -1.3460 H     1 <1>   0.0800 
 32 H       -9.0690    -1.0310     0.8940 H     1 <1>   0.0800 
 33 H       -8.6480    -0.7340    -0.7750 H     1 <1>   0.0800 
 34 H      -11.2730    -3.3580    -1.0650 H     1 <1>   0.0800 
 35 H      -10.5460    -4.3860     0.1430 H     1 <1>   0.0800 
 36 H      -11.0150    -0.8120    -1.3930 H     1 <1>   0.0800 
 37 H      -10.6850     0.4660    -0.2690 H     1 <1>   0.0800 
 38 H      -10.9130    -2.6960     1.8550 H     1 <1>   0.0800 
 39 H      -12.4080    -3.1840     1.1270 H     1 <1>   0.0800 
 40 H      -13.8860    -1.5650     0.7410 H     1 <1>   0.0800 
 41 H      -13.4300    -0.3760     2.6910 H     1 <1>   0.0800 
 42 H      -12.2830     0.8590     3.1660 H     1 <1>   0.0800 
 43 H      -14.3720    -1.5130    -1.4490 H     1 <1>   0.4000 
 44 H      -12.3900     1.8590     0.9360 H     1 <1>   0.0800 
 45 H      -13.9550     1.8900     1.6750 H     1 <1>   0.0800 
 46 H      -15.5280     1.2850     0.1410 H     1 <1>   0.4000 
 47 H      -12.5170     1.2830    -1.4880 H     1 <1>   0.0800 
 48 H      -13.9300     2.2360    -1.1590 H     1 <1>   0.0800 
 49 H      -14.0620     0.7480    -2.0690 H     1 <1>   0.0800 
@<TRIPOS>BOND
  1   1   2  1   
  2   2   3  ar  
  3   2   4  ar  
  4   3   5  ar  
  5   3  26  1   
  6   4   6  ar  
  7   4  27  1   
  8   5   7  ar  
  9   5  28  1   
 10   6   7  ar  
 11   6  29  1   
 12   7   8  1   
 13   8   9  1   
 14   9  10  1   
 15   9  30  1   
 16   9  31  1   
 17  10  11  2   
 18  10  12  am  
 19  12  13  1   
 20  12  14  1   
 21  13  15  1   
 22  13  32  1   
 23  13  33  1   
 24  14  16  1   
 25  14  34  1   
 26  14  35  1   
 27  15  17  1   
 28  15  36  1   
 29  15  37  1   
 30  16  17  1   
 31  16  38  1   
 32  16  39  1   
 33  17  18  1   
 34  17  19  1   
 35  18  20  1   
 36  19  21  1   
 37  19  22  1   
 38  19  40  1   
 39  20  23  1   
 40  20  41  1   
 41  20  42  1   
 42  21  43  1   
 43  22  23  1   
 44  22  24  1   
 45  22  25  1   
 46  23  44  1   
 47  23  45  1   
 48  24  46  1   
 49  25  47  1   
 50  25  48  1   
 51  25  49  1   
@<TRIPOS>SUBSTRUCTURE
  1 ****  13 GROUP 4 **** **** 0

# MOE 2024.06 (io_trps.svl 2023.06)
