@<TRIPOS>MOLECULE
NONAME
52 54 1 0 0 
SMALL
USER_CHARGES


@<TRIPOS>ATOM
  1 O       -2.2350     2.4650    -2.2070 O.co2 1 <1>  -0.9000 
  2 C       -2.2280     2.0020    -1.0600 C.2   1 <1>   0.9060 
  3 O       -3.2070     1.4330    -0.5790 O.co2 1 <1>  -0.9000 
  4 C       -1.0090     2.2320    -0.1700 C.3   1 <1>  -0.1060 
  5 C       -1.5160     3.0390     1.0490 C.3   1 <1>   0.2000 
  6 C       -0.0060     3.0740    -0.9860 C.3   1 <1>   0.3430 
  7 C       -0.4160     0.8320     0.1820 C.3   1 <1>  -0.1600 
  8 O       -0.4460     3.3830     1.8720 O.3   1 <1>  -0.6800 
  9 C       -2.1760     4.3610     0.6150 C.3   1 <1>  -0.1600 
 10 N       -0.1080     4.5450    -0.6990 N.4   1 <1>  -0.9590 
 11 C        0.8880     0.7810     1.0020 C.3   1 <1>  -0.1600 
 12 C       -1.5320     4.9720    -0.6350 C.3   1 <1>   0.3430 
 13 C        0.6880     5.3450    -1.6500 C.3   1 <1>   0.4860 
 14 C        1.4170    -0.6540     1.0770 C.3   1 <1>  -0.2400 
 15 C        0.7200     6.7910    -1.1850 C.ar  1 <1>  -0.1440 
 16 C        1.3960     7.1460    -0.0270 C.ar  1 <1>  -0.1500 
 17 C        0.0670     7.7740    -1.9130 C.ar  1 <1>  -0.1500 
 18 C        1.4120     8.4630     0.3950 C.ar  1 <1>  -0.1500 
 19 C        0.0890     9.0890    -1.4860 C.ar  1 <1>  -0.1500 
 20 C        0.7600     9.4590    -0.3250 C.ar  1 <1>   0.0000 
 21 C        0.7820    10.8350     0.1190 C.ar  1 <1>   0.0000 
 22 C        1.9840    11.5020     0.3490 C.ar  1 <1>   0.1600 
 23 C       -0.3890    11.5440     0.3340 C.ar  1 <1>  -0.1500 
 24 N        2.1090    12.7540     0.7600 N.ar  1 <1>  -0.6200 
 25 C       -0.2830    12.8500     0.7600 C.ar  1 <1>  -0.1500 
 26 C        0.9720    13.4000     0.9550 C.ar  1 <1>   0.1600 
 27 H       -2.2140     2.4570     1.6320 H     1 <1>   0.0800 
 28 H       -0.1500     2.8910    -2.0380 H     1 <1>   0.0800 
 29 H        0.9900     2.7530    -0.7450 H     1 <1>   0.0800 
 30 H       -1.1710     0.2690     0.7070 H     1 <1>   0.0800 
 31 H       -0.2490     0.3120    -0.7470 H     1 <1>   0.0800 
 32 H       -0.2060     2.6030     2.4110 H     1 <1>   0.4000 
 33 H       -3.2100     4.1720     0.3840 H     1 <1>   0.0800 
 34 H       -2.1640     5.0670     1.4260 H     1 <1>   0.0800 
 35 H        0.2380     4.6650     0.2650 H     1 <1>   0.4500 
 36 H        1.6480     1.4010     0.5640 H     1 <1>   0.0800 
 37 H        0.7120     1.1180     2.0070 H     1 <1>   0.0800 
 38 H       -1.6100     6.0450    -0.5900 H     1 <1>   0.0800 
 39 H       -2.0510     4.6270    -1.5170 H     1 <1>   0.0800 
 40 H        1.6950     4.9640    -1.6980 H     1 <1>   0.0800 
 41 H        0.2510     5.2810    -2.6340 H     1 <1>   0.0800 
 42 H        1.6420    -1.0270     0.0930 H     1 <1>   0.0800 
 43 H        0.6870    -1.3010     1.5310 H     1 <1>   0.0800 
 44 H        2.3160    -0.6880     1.6680 H     1 <1>   0.0800 
 45 H        1.9150     6.4050     0.5570 H     1 <1>   0.1500 
 46 H       -0.4640     7.5260    -2.8180 H     1 <1>   0.1500 
 47 H        1.9350     8.7250     1.3000 H     1 <1>   0.1500 
 48 H       -0.4160     9.8450    -2.0620 H     1 <1>   0.1500 
 49 H        2.8990    10.9610     0.1780 H     1 <1>   0.1500 
 50 H       -1.3490    11.0860     0.1780 H     1 <1>   0.1500 
 51 H       -1.1630    13.4410     0.9410 H     1 <1>   0.1500 
 52 H        1.0440    14.4220     1.2890 H     1 <1>   0.1500 
@<TRIPOS>BOND
  1   1   2  ar  
  2   2   3  ar  
  3   2   4  1   
  4   4   5  1   
  5   4   6  1   
  6   4   7  1   
  7   5   8  1   
  8   5   9  1   
  9   5  27  1   
 10   6  10  1   
 11   6  28  1   
 12   6  29  1   
 13   7  11  1   
 14   7  30  1   
 15   7  31  1   
 16   8  32  1   
 17   9  12  1   
 18   9  33  1   
 19   9  34  1   
 20  10  12  1   
 21  10  13  1   
 22  10  35  1   
 23  11  14  1   
 24  11  36  1   
 25  11  37  1   
 26  12  38  1   
 27  12  39  1   
 28  13  15  1   
 29  13  40  1   
 30  13  41  1   
 31  14  42  1   
 32  14  43  1   
 33  14  44  1   
 34  15  16  ar  
 35  15  17  ar  
 36  16  18  ar  
 37  16  45  1   
 38  17  19  ar  
 39  17  46  1   
 40  18  20  ar  
 41  18  47  1   
 42  19  20  ar  
 43  19  48  1   
 44  20  21  1   
 45  21  22  ar  
 46  21  23  ar  
 47  22  24  ar  
 48  22  49  1   
 49  23  25  ar  
 50  23  50  1   
 51  24  26  ar  
 52  25  26  ar  
 53  25  51  1   
 54  26  52  1   
@<TRIPOS>SUBSTRUCTURE
  1 ****  15 GROUP 4 **** **** 0

# MOE 2024.06 (io_trps.svl 2023.06)
