@<TRIPOS>MOLECULE
NONAME
52 55 1 0 0 
SMALL
USER_CHARGES


@<TRIPOS>ATOM
  1 S        0.4820    -2.2670     2.5300 S.3   1 <1>  -0.0800 
  2 C        1.0300    -2.0000     0.8590 C.2   1 <1>  -0.0450 
  3 C        2.1250    -2.2320     3.1590 C.2   1 <1>  -0.1100 
  4 C        2.3840    -1.9000     0.8630 C.2   1 <1>   0.0620 
  5 C        0.0630    -1.9260    -0.1950 C.2   1 <1>   0.7150 
  6 C        2.9940    -2.0270     2.1540 C.2   1 <1>   0.0620 
  7 O        3.1410    -1.7150    -0.2390 O.3   1 <1>  -0.3420 
  8 O       -0.1140    -0.8620    -0.7660 O.2   1 <1>  -0.5700 
  9 N       -0.6980    -3.0110    -0.5910 N.am  1 <1>  -0.6600 
 10 O        4.3440    -1.9490     2.3040 O.3   1 <1>  -0.3420 
 11 C        4.5290    -1.9610    -0.1190 C.3   1 <1>   0.1200 
 12 C       -0.4370    -4.4000    -0.0650 C.3   1 <1>   0.3640 
 13 C       -1.8560    -2.8020    -1.5110 C.3   1 <1>   0.1400 
 14 C        5.0560    -1.3970     1.2100 C.3   1 <1>   0.1200 
 15 C        1.0200    -4.7800    -0.3530 C.ar  1 <1>  -0.1430 
 16 C       -1.3610    -5.5330    -0.6200 C.3   1 <1>   0.2000 
 17 C       -2.2810    -4.0870    -2.2190 C.3   1 <1>   0.1200 
 18 C        1.8050    -5.3260     0.6510 C.ar  1 <1>  -0.1500 
 19 C        1.5830    -4.5780    -1.6070 C.ar  1 <1>  -0.1500 
 20 O       -2.5160    -5.0680    -1.2650 O.3   1 <1>  -0.5600 
 21 C       -1.8480    -6.4890     0.4810 C.3   1 <1>   0.1200 
 22 C        3.1270    -5.6600     0.4120 C.ar  1 <1>   0.0830 
 23 C        2.9040    -4.9100    -1.8550 C.ar  1 <1>  -0.1500 
 24 O       -0.7880    -7.0100     1.2160 O.3   1 <1>  -0.6800 
 25 O        3.8350    -6.2100     1.4260 O.3   1 <1>  -0.3630 
 26 C        3.6930    -5.4540    -0.8470 C.ar  1 <1>   0.0830 
 27 C        4.6880    -5.3330     2.1220 C.3   1 <1>   0.0400 
 28 O        5.0020    -5.7860    -1.0370 O.3   1 <1>  -0.3630 
 29 C        5.5430    -5.9040    -2.3330 C.3   1 <1>   0.0400 
 30 H        2.2700    -2.3660     4.2150 H     1 <1>   0.1500 
 31 H        4.6870    -3.0230    -0.1640 H     1 <1>   0.0800 
 32 H        5.0180    -1.4950    -0.9540 H     1 <1>   0.0800 
 33 H       -0.5740    -4.3700     1.0010 H     1 <1>   0.0800 
 34 H       -2.6880    -2.4230    -0.9430 H     1 <1>   0.0800 
 35 H       -1.6050    -2.0660    -2.2550 H     1 <1>   0.0800 
 36 H        4.9350    -0.3290     1.2360 H     1 <1>   0.0800 
 37 H        6.0960    -1.6370     1.3380 H     1 <1>   0.0800 
 38 H       -0.8170    -6.1080    -1.3480 H     1 <1>   0.0800 
 39 H       -1.5240    -4.4260    -2.9050 H     1 <1>   0.0800 
 40 H       -3.1960    -3.9250    -2.7600 H     1 <1>   0.0800 
 41 H        1.4030    -5.4970     1.6340 H     1 <1>   0.1500 
 42 H        0.9940    -4.1460    -2.3980 H     1 <1>   0.1500 
 43 H       -2.3910    -7.3110     0.0490 H     1 <1>   0.0800 
 44 H       -2.4870    -5.9610     1.1670 H     1 <1>   0.0800 
 45 H        3.2990    -4.7260    -2.8350 H     1 <1>   0.1500 
 46 H       -0.2050    -7.5660     0.6600 H     1 <1>   0.4000 
 47 H        5.2260    -5.9020     2.8580 H     1 <1>   0.0800 
 48 H        4.0910    -4.5800     2.6030 H     1 <1>   0.0800 
 49 H        5.3750    -4.8850     1.4280 H     1 <1>   0.0800 
 50 H        6.5400    -6.2950    -2.2440 H     1 <1>   0.0800 
 51 H        5.5720    -4.9320    -2.7910 H     1 <1>   0.0800 
 52 H        4.9350    -6.5830    -2.9040 H     1 <1>   0.0800 
@<TRIPOS>BOND
  1   1   2  1   
  2   1   3  1   
  3   2   4  2   
  4   2   5  1   
  5   3   6  2   
  6   3  30  1   
  7   4   6  1   
  8   4   7  1   
  9   5   8  2   
 10   5   9  am  
 11   6  10  1   
 12   7  11  1   
 13   9  12  1   
 14   9  13  1   
 15  10  14  1   
 16  11  14  1   
 17  11  31  1   
 18  11  32  1   
 19  12  15  1   
 20  12  16  1   
 21  12  33  1   
 22  13  17  1   
 23  13  34  1   
 24  13  35  1   
 25  14  36  1   
 26  14  37  1   
 27  15  18  ar  
 28  15  19  ar  
 29  16  20  1   
 30  16  21  1   
 31  16  38  1   
 32  17  20  1   
 33  17  39  1   
 34  17  40  1   
 35  18  22  ar  
 36  18  41  1   
 37  19  23  ar  
 38  19  42  1   
 39  21  24  1   
 40  21  43  1   
 41  21  44  1   
 42  22  25  1   
 43  22  26  ar  
 44  23  26  ar  
 45  23  45  1   
 46  24  46  1   
 47  25  27  1   
 48  26  28  1   
 49  27  47  1   
 50  27  48  1   
 51  27  49  1   
 52  28  29  1   
 53  29  50  1   
 54  29  51  1   
 55  29  52  1   
@<TRIPOS>SUBSTRUCTURE
  1 ****  15 GROUP 4 **** **** 0

# MOE 2024.06 (io_trps.svl 2023.06)
