@<TRIPOS>MOLECULE
NONAME
43 44 1 0 0 
SMALL
USER_CHARGES


@<TRIPOS>ATOM
  1 O       -1.0160    -0.5280     1.4310 O.2   1 <1>  -0.5700 
  2 C       -1.5790     0.3430     0.8010 C.2   1 <1>   0.5690 
  3 N       -2.1760     0.0540    -0.4110 N.am  1 <1>  -0.6600 
  4 C       -1.5560     1.7580     1.4290 C.3   1 <1>   0.4050 
  5 C       -2.3120    -1.3650    -0.8280 C.3   1 <1>   0.3200 
  6 C       -2.5750     1.0970    -1.4070 C.3   1 <1>   0.1400 
  7 O       -2.8000     2.4250     1.3040 O.3   1 <1>  -0.5600 
  8 C       -0.4150     2.6240     0.8690 C.ar  1 <1>  -0.1440 
  9 C       -3.4350    -2.0210    -0.0500 C.2   1 <1>  -0.3320 
 10 C       -4.0860     1.3820    -1.4140 C.3   1 <1>   0.1200 
 11 C       -3.1100     3.2740     2.3660 C.3   1 <1>   0.0400 
 12 C       -0.6330     3.8080     0.1710 C.ar  1 <1>  -0.1500 
 13 C        0.8930     2.2020     1.0680 C.ar  1 <1>  -0.1500 
 14 N       -4.7230    -1.6680    -0.1750 N.pl3 1 <1>   0.0330 
 15 C       -3.4050    -3.0130     0.8660 C.2   1 <1>   0.0770 
 16 O       -4.7830     0.4030    -2.1210 O.3   1 <1>  -0.6800 
 17 C        0.4310     4.5490    -0.3130 C.ar  1 <1>  -0.1500 
 18 C        1.9580     2.9410     0.5850 C.ar  1 <1>  -0.1500 
 19 C       -5.4020    -2.4760     0.6660 C.2   1 <1>   0.0060 
 20 N       -4.6450    -3.3040     1.3090 N.2   1 <1>  -0.5650 
 21 C        1.7280     4.1160    -0.1070 C.ar  1 <1>  -0.1500 
 22 C       -6.9030    -2.4030     0.8310 C.3   1 <1>  -0.0600 
 23 H       -1.3740     1.6100     2.4790 H     1 <1>   0.0800 
 24 H       -2.5160    -1.4280    -1.8830 H     1 <1>   0.0800 
 25 H       -1.3890    -1.8860    -0.6360 H     1 <1>   0.0800 
 26 H       -2.0680     2.0130    -1.1730 H     1 <1>   0.0800 
 27 H       -2.2480     0.8100    -2.3910 H     1 <1>   0.0800 
 28 H       -4.2820     2.3290    -1.8860 H     1 <1>   0.0800 
 29 H       -4.4640     1.4130    -0.4060 H     1 <1>   0.0800 
 30 H       -4.0370     3.7700     2.1400 H     1 <1>   0.0800 
 31 H       -2.3270     4.0030     2.4870 H     1 <1>   0.0800 
 32 H       -3.2240     2.6900     3.2640 H     1 <1>   0.0800 
 33 H       -1.6320     4.1660    -0.0020 H     1 <1>   0.1500 
 34 H        1.0910     1.2870     1.6030 H     1 <1>   0.1500 
 35 H       -5.0870    -0.9220    -0.7840 H     1 <1>   0.2700 
 36 H       -2.5410    -3.5380     1.2390 H     1 <1>   0.1500 
 37 H       -4.6000     0.4760    -3.0800 H     1 <1>   0.4000 
 38 H        0.2500     5.4640    -0.8500 H     1 <1>   0.1500 
 39 H        2.9660     2.6010     0.7470 H     1 <1>   0.1500 
 40 H        2.5560     4.6920    -0.4830 H     1 <1>   0.1500 
 41 H       -7.2250    -3.1340     1.5510 H     1 <1>   0.0800 
 42 H       -7.3860    -2.6050    -0.1070 H     1 <1>   0.0800 
 43 H       -7.1870    -1.4270     1.1770 H     1 <1>   0.0800 
@<TRIPOS>BOND
  1   1   2  2   
  2   2   3  am  
  3   2   4  1   
  4   3   5  1   
  5   3   6  1   
  6   4   7  1   
  7   4   8  1   
  8   4  23  1   
  9   5   9  1   
 10   5  24  1   
 11   5  25  1   
 12   6  10  1   
 13   6  26  1   
 14   6  27  1   
 15   7  11  1   
 16   8  12  ar  
 17   8  13  ar  
 18   9  14  1   
 19   9  15  2   
 20  10  16  1   
 21  10  28  1   
 22  10  29  1   
 23  11  30  1   
 24  11  31  1   
 25  11  32  1   
 26  12  17  ar  
 27  12  33  1   
 28  13  18  ar  
 29  13  34  1   
 30  14  19  1   
 31  14  35  1   
 32  15  20  1   
 33  15  36  1   
 34  16  37  1   
 35  17  21  ar  
 36  17  38  1   
 37  18  21  ar  
 38  18  39  1   
 39  19  20  2   
 40  19  22  1   
 41  21  40  1   
 42  22  41  1   
 43  22  42  1   
 44  22  43  1   
@<TRIPOS>SUBSTRUCTURE
  1 ****   2 GROUP 4 **** **** 0

# MOE 2024.06 (io_trps.svl 2023.06)
