@<TRIPOS>MOLECULE
NONAME
52 54 1 0 0 
SMALL
USER_CHARGES


@<TRIPOS>ATOM
  1 O        0.3220     0.0170     0.5880 O.2   1 <1>  -0.5700 
  2 C       -0.6440     0.7360     0.5160 C.2   1 <1>   0.5690 
  3 N       -1.8900     0.2530     0.2280 N.am  1 <1>  -0.6600 
  4 C       -0.4280     2.2160     0.7180 C.3   1 <1>  -0.0990 
  5 C       -3.1450     1.0400     0.1020 C.3   1 <1>   0.1400 
  6 C       -2.1480    -1.1860    -0.0160 C.3   1 <1>   0.1400 
  7 C       -0.1380     2.8660    -0.6360 C.3   1 <1>   0.0960 
  8 C       -4.2140     0.0210    -0.2980 C.3   1 <1>   0.2000 
  9 C       -3.6640    -1.3440     0.1140 C.3   1 <1>  -0.0800 
 10 N       -0.2390     4.3320    -0.5240 N.pl3 1 <1>   0.3140 
 11 O       -5.4160     0.2570     0.3500 O.3   1 <1>  -0.6800 
 12 C       -4.2540    -2.4920    -0.7230 C.3   1 <1>  -0.0160 
 13 N       -1.4440     4.9120    -0.5780 N.2   1 <1>  -0.7070 
 14 C        0.7400     5.2400    -0.3490 C.2   1 <1>  -0.3320 
 15 C       -3.7210    -3.8470    -0.2850 C.ar  1 <1>   0.1670 
 16 C       -1.2160     6.1750    -0.4430 C.2   1 <1>   0.1080 
 17 C        0.1460     6.4740    -0.2760 C.2   1 <1>  -0.0860 
 18 C        2.2140     4.8540    -0.2840 C.3   1 <1>  -0.0600 
 19 N       -2.5360    -4.1960    -0.7590 N.ar  1 <1>  -0.6200 
 20 C       -4.4730    -4.6480     0.5730 C.ar  1 <1>   0.1600 
 21 C       -2.3490     7.1790    -0.4610 C.3   1 <1>  -0.0590 
 22 C        0.6740     7.8010    -0.0690 C.2   1 <1>   0.5950 
 23 C       -2.1550    -5.3840    -0.3190 C.ar  1 <1>   0.1600 
 24 N       -4.0940    -5.8370     1.0140 N.ar  1 <1>  -0.6200 
 25 O        0.1560     8.8040    -0.4930 O.2   1 <1>  -0.5700 
 26 C        1.9300     7.9950     0.7510 C.3   1 <1>  -0.1790 
 27 C       -2.9080    -6.1770     0.5390 C.ar  1 <1>   0.1600 
 28 H       -1.2960     2.6560     1.1710 H     1 <1>   0.0800 
 29 H        0.4080     2.3620     1.3770 H     1 <1>   0.0800 
 30 H       -3.3810     1.4910     1.0510 H     1 <1>   0.0800 
 31 H       -3.0420     1.8000    -0.6540 H     1 <1>   0.0800 
 32 H       -1.8170    -1.4380    -1.0090 H     1 <1>   0.0800 
 33 H       -1.6220    -1.8000     0.6960 H     1 <1>   0.0800 
 34 H       -0.8610     2.5450    -1.3630 H     1 <1>   0.0800 
 35 H        0.8380     2.5880    -0.9860 H     1 <1>   0.0800 
 36 H       -4.3840     0.0720    -1.3600 H     1 <1>   0.0800 
 37 H       -3.8740    -1.5160     1.1550 H     1 <1>   0.0800 
 38 H       -5.2890     0.2530     1.3180 H     1 <1>   0.4000 
 39 H       -4.0210    -2.3470    -1.7640 H     1 <1>   0.0800 
 40 H       -5.3260    -2.4810    -0.6300 H     1 <1>   0.0800 
 41 H        2.8510     5.7160    -0.3470 H     1 <1>   0.0800 
 42 H        2.4680     4.2120    -1.1090 H     1 <1>   0.0800 
 43 H        2.4220     4.3370     0.6360 H     1 <1>   0.0800 
 44 H       -5.4290    -4.2910     0.9110 H     1 <1>   0.1500 
 45 H       -2.3100     7.7960     0.4180 H     1 <1>   0.0800 
 46 H       -3.2950     6.6690    -0.4860 H     1 <1>   0.0800 
 47 H       -2.2660     7.8020    -1.3320 H     1 <1>   0.0800 
 48 H       -1.1990    -5.7480    -0.6530 H     1 <1>   0.1500 
 49 H        2.0540     7.1850     1.4440 H     1 <1>   0.0800 
 50 H        1.8560     8.9130     1.3050 H     1 <1>   0.0800 
 51 H        2.7800     8.0540     0.0980 H     1 <1>   0.0800 
 52 H       -2.5120    -7.1300     0.8420 H     1 <1>   0.1500 
@<TRIPOS>BOND
  1   1   2  2   
  2   2   3  am  
  3   2   4  1   
  4   3   5  1   
  5   3   6  1   
  6   4   7  1   
  7   4  28  1   
  8   4  29  1   
  9   5   8  1   
 10   5  30  1   
 11   5  31  1   
 12   6   9  1   
 13   6  32  1   
 14   6  33  1   
 15   7  10  1   
 16   7  34  1   
 17   7  35  1   
 18   8   9  1   
 19   8  11  1   
 20   8  36  1   
 21   9  12  1   
 22   9  37  1   
 23  10  13  1   
 24  10  14  1   
 25  11  38  1   
 26  12  15  1   
 27  12  39  1   
 28  12  40  1   
 29  13  16  2   
 30  14  17  2   
 31  14  18  1   
 32  15  19  ar  
 33  15  20  ar  
 34  16  17  1   
 35  16  21  1   
 36  17  22  1   
 37  18  41  1   
 38  18  42  1   
 39  18  43  1   
 40  19  23  ar  
 41  20  24  ar  
 42  20  44  1   
 43  21  45  1   
 44  21  46  1   
 45  21  47  1   
 46  22  25  2   
 47  22  26  1   
 48  23  27  ar  
 49  23  48  1   
 50  24  27  ar  
 51  26  49  1   
 52  26  50  1   
 53  26  51  1   
 54  27  52  1   
@<TRIPOS>SUBSTRUCTURE
  1 ****   3 GROUP 4 **** **** 0

# MOE 2024.06 (io_trps.svl 2023.06)
