@<TRIPOS>MOLECULE
Untitled Document
45 49 1 0 0 
SMALL
USER_CHARGES


@<TRIPOS>ATOM
  1 O       -0.2760     0.5610     0.8180 O.2   1 <1>  -0.5700 
  2 C       -0.5120     1.6330     0.3090 C.2   1 <1>   0.5950 
  3 C        0.4330     2.6960     0.1740 C.2   1 <1>  -0.0860 
  4 C       -1.9100     1.8940    -0.2610 C.3   1 <1>  -0.0190 
  5 C        1.8070     2.7210     0.5330 C.ar  1 <1>   0.0000 
  6 C        0.1480     3.9230    -0.3630 C.2   1 <1>  -0.3320 
  7 C       -2.2850     3.4030    -0.2160 C.3   1 <1>  -0.1600 
  8 C       -2.9500     1.0210     0.4700 C.3   1 <1>   0.0960 
  9 C        2.2720     3.9730     0.1690 C.ar  1 <1>  -0.1520 
 10 C        2.7060     1.8290     1.1260 C.ar  1 <1>  -0.1500 
 11 N        1.2570     4.7050    -0.3760 N.pl3 1 <1>   0.0480 
 12 C       -1.2270     4.3110    -0.8690 C.3   1 <1>   0.0200 
 13 N       -4.3110     1.2170    -0.0750 N.pl3 1 <1>   0.0480 
 14 C        3.5840     4.3850     0.3660 C.ar  1 <1>  -0.1430 
 15 C        4.0140     2.2180     1.3310 C.ar  1 <1>  -0.1500 
 16 C        1.5000     6.0860    -0.8500 C.3   1 <1>   0.0960 
 17 C       -5.3780     1.8410     0.4850 C.2   1 <1>   0.0060 
 18 C       -4.7430     0.8230    -1.2860 C.2   1 <1>  -0.3020 
 19 C        4.4550     3.4950     0.9530 C.ar  1 <1>  -0.1500 
 20 C        3.9470     5.7900    -0.0950 C.3   1 <1>  -0.0170 
 21 C        2.7040     6.7080    -0.1050 C.3   1 <1>  -0.1600 
 22 N       -6.4200     1.8710    -0.2790 N.2   1 <1>  -0.5650 
 23 C       -5.3690     2.4520     1.8720 C.3   1 <1>  -0.0600 
 24 C       -6.0260     1.2290    -1.3920 C.2   1 <1>   0.0770 
 25 H       -1.8780     1.5820    -1.2890 H     1 <1>   0.0800 
 26 H       -2.3910     3.7020     0.8120 H     1 <1>   0.0800 
 27 H       -3.2290     3.5720    -0.7060 H     1 <1>   0.0800 
 28 H       -2.9490     1.2530     1.5190 H     1 <1>   0.0800 
 29 H       -2.6960    -0.0190     0.3610 H     1 <1>   0.0800 
 30 H        2.3600     0.8520     1.4130 H     1 <1>   0.1500 
 31 H       -1.2550     4.2020    -1.9400 H     1 <1>   0.0800 
 32 H       -1.4410     5.3370    -0.6250 H     1 <1>   0.0800 
 33 H        4.7110     1.5390     1.7870 H     1 <1>   0.1500 
 34 H        0.6170     6.6750    -0.6910 H     1 <1>   0.0800 
 35 H        1.7070     6.0430    -1.9040 H     1 <1>   0.0800 
 36 H       -4.1350     0.2880    -1.9920 H     1 <1>   0.1500 
 37 H        5.4810     3.7660     1.1250 H     1 <1>   0.1500 
 38 H        4.3550     5.7270    -1.0890 H     1 <1>   0.0800 
 39 H        4.7010     6.2020     0.5520 H     1 <1>   0.0800 
 40 H        2.4090     6.8980     0.9130 H     1 <1>   0.0800 
 41 H        2.9550     7.6530    -0.5520 H     1 <1>   0.0800 
 42 H       -4.6260     3.2250     1.9340 H     1 <1>   0.0800 
 43 H       -5.1650     1.6960     2.6070 H     1 <1>   0.0800 
 44 H       -6.3310     2.8840     2.0830 H     1 <1>   0.0800 
 45 H       -6.6980     1.0910    -2.2230 H     1 <1>   0.1500 
@<TRIPOS>BOND
  1   1   2  2   
  2   2   3  1   
  3   2   4  1   
  4   3   5  1   
  5   3   6  2   
  6   4   7  1   
  7   4   8  1   
  8   4  25  1   
  9   5   9  ar  
 10   5  10  ar  
 11   6  11  1   
 12   6  12  1   
 13   7  12  1   
 14   7  26  1   
 15   7  27  1   
 16   8  13  1   
 17   8  28  1   
 18   8  29  1   
 19   9  11  1   
 20   9  14  ar  
 21  10  15  ar  
 22  10  30  1   
 23  11  16  1   
 24  12  31  1   
 25  12  32  1   
 26  13  17  1   
 27  13  18  1   
 28  14  19  ar  
 29  14  20  1   
 30  15  19  ar  
 31  15  33  1   
 32  16  21  1   
 33  16  34  1   
 34  16  35  1   
 35  17  22  2   
 36  17  23  1   
 37  18  24  2   
 38  18  36  1   
 39  19  37  1   
 40  20  21  1   
 41  20  38  1   
 42  20  39  1   
 43  21  40  1   
 44  21  41  1   
 45  22  24  1   
 46  23  42  1   
 47  23  43  1   
 48  23  44  1   
 49  24  45  1   
@<TRIPOS>SUBSTRUCTURE
  1 ****   3 GROUP 4 **** **** 0

# MOE 2024.06 (io_trps.svl 2023.06)
