@<TRIPOS>MOLECULE
NONAME
50 52 1 0 0 
SMALL
USER_CHARGES


@<TRIPOS>ATOM
  1 S        0.3150    -0.8370    -2.9130 S.3   1 <1>  -0.0800 
  2 C        1.2840    -1.6820    -1.7170 C.2   1 <1>  -0.1400 
  3 C        1.0190     0.7010    -2.4520 C.2   1 <1>  -0.1100 
  4 C        2.0670    -0.8150    -1.0480 C.2   1 <1>  -0.1500 
  5 C        1.1090    -3.1820    -1.6090 C.3   1 <1>   0.5230 
  6 C        1.9210     0.5510    -1.4600 C.2   1 <1>   0.0190 
  7 N       -0.2960    -3.4870    -1.2270 N.4   1 <1>  -0.9590 
  8 C        2.6830     1.5940    -0.8440 C.1   1 <1>  -0.0190 
  9 C       -0.4830    -4.9790    -1.2240 C.3   1 <1>   0.3430 
 10 C       -0.6950    -2.8160     0.0470 C.3   1 <1>   0.3430 
 11 C        3.3250     2.4520    -0.3250 C.1   1 <1>  -0.2000 
 12 C       -0.9670    -5.5660     0.1080 C.3   1 <1>  -0.1060 
 13 C       -2.0920    -3.2670     0.4720 C.3   1 <1>  -0.1600 
 14 C        4.1370     3.5160     0.3230 C.3   1 <1>   0.3200 
 15 C       -1.3590    -6.9930    -0.2150 C.2   1 <1>   0.9060 
 16 C       -2.2490    -4.7970     0.4820 C.3   1 <1>   0.2000 
 17 C        0.0980    -5.5970     1.2540 C.3   1 <1>  -0.0170 
 18 O        3.6750     3.6640     1.6120 O.3   1 <1>  -0.6800 
 19 O       -0.9190    -7.5060    -1.2480 O.co2 1 <1>  -0.9000 
 20 O       -2.1230    -7.5810     0.5560 O.co2 1 <1>  -0.9000 
 21 O       -2.6660    -5.1940     1.7320 O.3   1 <1>  -0.6800 
 22 C        1.5470    -5.4000     0.8160 C.ar  1 <1>  -0.1440 
 23 C        2.2910    -4.3420     1.3190 C.ar  1 <1>  -0.1500 
 24 C        2.1400    -6.2810    -0.0760 C.ar  1 <1>  -0.1500 
 25 C        3.5970    -4.1430     0.9030 C.ar  1 <1>  -0.1500 
 26 C        3.4430    -6.0810    -0.4960 C.ar  1 <1>  -0.1500 
 27 C        4.1710    -5.0090    -0.0110 C.ar  1 <1>  -0.1500 
 28 H        0.6870     1.5800    -2.9760 H     1 <1>   0.1500 
 29 H        2.7620    -1.0640    -0.2640 H     1 <1>   0.1500 
 30 H        1.7900    -3.5760    -0.8770 H     1 <1>   0.0800 
 31 H        1.3390    -3.6390    -2.5580 H     1 <1>   0.0800 
 32 H       -0.8830    -3.1010    -1.9740 H     1 <1>   0.4500 
 33 H       -1.2170    -5.2350    -1.9720 H     1 <1>   0.0800 
 34 H        0.4240    -5.4790    -1.5180 H     1 <1>   0.0800 
 35 H        0.0080    -3.0700     0.8220 H     1 <1>   0.0800 
 36 H       -0.6810    -1.7450    -0.0760 H     1 <1>   0.0800 
 37 H       -2.8110    -2.8480    -0.2070 H     1 <1>   0.0800 
 38 H       -2.3000    -2.8640     1.4480 H     1 <1>   0.0800 
 39 H        4.0230     4.4550    -0.1920 H     1 <1>   0.0800 
 40 H        5.1780     3.2450     0.3630 H     1 <1>   0.0800 
 41 H       -3.0370    -5.0700    -0.2040 H     1 <1>   0.0800 
 42 H       -0.1380    -4.8520     1.9920 H     1 <1>   0.0800 
 43 H        0.0330    -6.5390     1.7750 H     1 <1>   0.0800 
 44 H        2.7000     3.6860     1.5990 H     1 <1>   0.4000 
 45 H       -2.7210    -6.1910     1.6990 H     1 <1>   0.4000 
 46 H        1.8650    -3.6700     2.0440 H     1 <1>   0.1500 
 47 H        1.5860    -7.1320    -0.4480 H     1 <1>   0.1500 
 48 H        4.1720    -3.3220     1.2980 H     1 <1>   0.1500 
 49 H        3.8910    -6.7700    -1.1920 H     1 <1>   0.1500 
 50 H        5.1870    -4.8590    -0.3340 H     1 <1>   0.1500 
@<TRIPOS>BOND
  1   1   2  1   
  2   1   3  1   
  3   2   4  2   
  4   2   5  1   
  5   3   6  2   
  6   3  28  1   
  7   4   6  1   
  8   4  29  1   
  9   5   7  1   
 10   5  30  1   
 11   5  31  1   
 12   6   8  1   
 13   7   9  1   
 14   7  10  1   
 15   7  32  1   
 16   8  11  3   
 17   9  12  1   
 18   9  33  1   
 19   9  34  1   
 20  10  13  1   
 21  10  35  1   
 22  10  36  1   
 23  11  14  1   
 24  12  15  1   
 25  12  16  1   
 26  12  17  1   
 27  13  16  1   
 28  13  37  1   
 29  13  38  1   
 30  14  18  1   
 31  14  39  1   
 32  14  40  1   
 33  15  19  ar  
 34  15  20  ar  
 35  16  21  1   
 36  16  41  1   
 37  17  22  1   
 38  17  42  1   
 39  17  43  1   
 40  18  44  1   
 41  21  45  1   
 42  22  23  ar  
 43  22  24  ar  
 44  23  25  ar  
 45  23  46  1   
 46  24  26  ar  
 47  24  47  1   
 48  25  27  ar  
 49  25  48  1   
 50  26  27  ar  
 51  26  49  1   
 52  27  50  1   
@<TRIPOS>SUBSTRUCTURE
  1 ****   5 GROUP 4 **** **** 0

# MOE 2024.06 (io_trps.svl 2023.06)
