@<TRIPOS>MOLECULE
NONAME
44 46 1 0 0 
SMALL
USER_CHARGES


@<TRIPOS>ATOM
  1 O        1.7900    -0.2980    -1.4670 O.2   1 <1>  -0.5700 
  2 C        2.0400    -0.7220    -0.3660 C.2   1 <1>   0.5690 
  3 N        2.5450     0.1030     0.6030 N.am  1 <1>  -0.6600 
  4 C        1.8160    -2.1990    -0.0980 C.3   1 <1>  -0.0990 
  5 C        3.6140    -0.3120     1.5550 C.3   1 <1>   0.1400 
  6 C        2.2240     1.5580     0.5760 C.3   1 <1>   0.1400 
  7 C        0.6030    -2.7260    -0.8790 C.3   1 <1>   0.0960 
  8 C        4.9900    -0.3390     0.8530 C.3   1 <1>   0.3430 
  9 C        3.4420     2.4160     0.2190 C.3   1 <1>  -0.1600 
 10 N        0.3650    -4.1460    -0.5590 N.pl3 1 <1>   0.0480 
 11 N        5.4680     0.9910     0.3290 N.4   1 <1>  -0.9590 
 12 C        4.5090     1.6820    -0.5940 C.3   1 <1>   0.3430 
 13 C       -0.3190    -4.6670     0.4610 C.2   1 <1>   0.0360 
 14 C        0.7970    -5.2310    -1.2040 C.2   1 <1>   0.0360 
 15 C        6.8010     0.8470    -0.3150 C.3   1 <1>   0.5240 
 16 N       -0.2970    -5.9550     0.4450 N.2   1 <1>  -0.3380 
 17 N        0.4180    -6.3160    -0.6230 N.2   1 <1>  -0.3380 
 18 C        7.4480     2.2130    -0.3670 C.2   1 <1>  -0.1810 
 19 C        8.1620     2.8370     0.5960 C.2   1 <1>  -0.0100 
 20 C        7.4300     3.1020    -1.4540 C.2   1 <1>  -0.1500 
 21 O        8.5570     4.0220     0.1860 O.3   1 <1>  -0.2800 
 22 C        8.1230     4.1850    -1.0470 C.2   1 <1>  -0.0100 
 23 H        1.6390    -2.3430     0.9520 H     1 <1>   0.0800 
 24 H        2.6960    -2.7410    -0.3900 H     1 <1>   0.0800 
 25 H        3.3970    -1.2940     1.9360 H     1 <1>   0.0800 
 26 H        3.6400     0.3580     2.3970 H     1 <1>   0.0800 
 27 H        1.8300     1.8580     1.5330 H     1 <1>   0.0800 
 28 H        1.4470     1.7360    -0.1510 H     1 <1>   0.0800 
 29 H        0.7690    -2.6320    -1.9380 H     1 <1>   0.0800 
 30 H       -0.2770    -2.1620    -0.6250 H     1 <1>   0.0800 
 31 H        4.9330    -1.0420     0.0380 H     1 <1>   0.0800 
 32 H        5.7140    -0.7190     1.5550 H     1 <1>   0.0800 
 33 H        3.8690     2.8470     1.1060 H     1 <1>   0.0800 
 34 H        3.0820     3.2400    -0.3720 H     1 <1>   0.0800 
 35 H        5.6180     1.6320     1.1180 H     1 <1>   0.4500 
 36 H        5.0390     2.4160    -1.1780 H     1 <1>   0.0800 
 37 H        4.0490     0.9810    -1.2740 H     1 <1>   0.0800 
 38 H       -0.8220    -4.0740     1.2020 H     1 <1>   0.1500 
 39 H        1.3900    -5.1930    -2.0990 H     1 <1>   0.1500 
 40 H        6.7080     0.4360    -1.3070 H     1 <1>   0.0800 
 41 H        7.4250     0.1920     0.2720 H     1 <1>   0.0800 
 42 H        8.4420     2.5290     1.5910 H     1 <1>   0.1500 
 43 H        6.9660     2.9440    -2.4130 H     1 <1>   0.1500 
 44 H        8.3590     5.1030    -1.5610 H     1 <1>   0.1500 
@<TRIPOS>BOND
  1   1   2  2   
  2   2   3  am  
  3   2   4  1   
  4   3   5  1   
  5   3   6  1   
  6   4   7  1   
  7   4  23  1   
  8   4  24  1   
  9   5   8  1   
 10   5  25  1   
 11   5  26  1   
 12   6   9  1   
 13   6  27  1   
 14   6  28  1   
 15   7  10  1   
 16   7  29  1   
 17   7  30  1   
 18   8  11  1   
 19   8  31  1   
 20   8  32  1   
 21   9  12  1   
 22   9  33  1   
 23   9  34  1   
 24  10  13  1   
 25  10  14  1   
 26  11  12  1   
 27  11  15  1   
 28  11  35  1   
 29  12  36  1   
 30  12  37  1   
 31  13  16  2   
 32  13  38  1   
 33  14  17  2   
 34  14  39  1   
 35  15  18  1   
 36  15  40  1   
 37  15  41  1   
 38  16  17  1   
 39  18  19  2   
 40  18  20  1   
 41  19  21  1   
 42  19  42  1   
 43  20  22  2   
 44  20  43  1   
 45  21  22  1   
 46  22  44  1   
@<TRIPOS>SUBSTRUCTURE
  1 ****   3 GROUP 4 **** **** 0

# MOE 2024.06 (io_trps.svl 2023.06)
