@<TRIPOS>MOLECULE
NONAME
54 56 1 0 0 
SMALL
USER_CHARGES


@<TRIPOS>ATOM
  1 CL      -0.9100    -0.9580    -0.8530 Cl    1 <1>  -0.1770 
  2 C       -2.0760     0.3070    -0.5060 C.ar  1 <1>   0.1770 
  3 C       -1.8490     1.1770     0.5520 C.ar  1 <1>   0.0830 
  4 C       -3.2210     0.3760    -1.2830 C.ar  1 <1>  -0.1440 
  5 O       -0.6980     0.9980     1.2610 O.3   1 <1>  -0.3630 
  6 C       -2.8180     2.1480     0.8480 C.ar  1 <1>   0.0830 
  7 C       -4.1680     1.3440    -0.9920 C.ar  1 <1>  -0.1500 
  8 C       -3.4610    -0.6250    -2.3950 C.3   1 <1>   0.4860 
  9 C        0.0710     2.1160     1.6550 C.3   1 <1>   0.0400 
 10 O       -2.6340     2.9760     1.9150 O.3   1 <1>  -0.3630 
 11 C       -3.9650     2.2210     0.0590 C.ar  1 <1>  -0.1500 
 12 N       -4.4530    -1.6120    -1.9060 N.4   1 <1>  -0.9590 
 13 C       -3.6610     3.8160     2.3960 C.3   1 <1>   0.0400 
 14 C       -4.1260    -2.2260    -0.5620 C.3   1 <1>   0.3430 
 15 C       -4.9390    -2.5830    -2.9140 C.3   1 <1>   0.3430 
 16 C       -5.1320    -3.3280    -0.0900 C.3   1 <1>   0.4230 
 17 C       -6.1680    -3.3470    -2.3700 C.3   1 <1>  -0.1600 
 18 N       -5.3780    -3.3390     1.3980 N.4   1 <1>  -0.9590 
 19 C       -6.4670    -3.1650    -0.8440 C.3   1 <1>  -0.1060 
 20 C       -6.2500    -4.4680     1.8190 C.3   1 <1>   0.3430 
 21 C       -4.1810    -3.1990     2.2790 C.3   1 <1>   0.2630 
 22 C       -6.9470    -1.7340    -0.5200 C.2   1 <1>   0.9060 
 23 C       -7.4860    -4.2490    -0.4050 C.3   1 <1>  -0.1600 
 24 C       -7.6090    -4.3620     1.1230 C.3   1 <1>  -0.1600 
 25 O       -6.9820    -0.9000    -1.4300 O.co2 1 <1>  -0.9000 
 26 O       -6.9900    -1.3800     0.6610 O.co2 1 <1>  -0.9000 
 27 H       -5.0820     1.4180    -1.5640 H     1 <1>   0.1500 
 28 H       -2.5440    -1.1180    -2.6720 H     1 <1>   0.0800 
 29 H       -3.8500    -0.1120    -3.2600 H     1 <1>   0.0800 
 30 H        1.0870     1.7930     1.7900 H     1 <1>   0.0800 
 31 H       -0.3140     2.4940     2.5850 H     1 <1>   0.0800 
 32 H        0.0220     2.8700     0.8890 H     1 <1>   0.0800 
 33 H       -4.7290     2.9530     0.2510 H     1 <1>   0.1500 
 34 H       -5.3160    -1.0260    -1.7320 H     1 <1>   0.4500 
 35 H       -3.3080     4.2970     3.2910 H     1 <1>   0.0800 
 36 H       -4.5270     3.2190     2.6220 H     1 <1>   0.0800 
 37 H       -3.8860     4.5580     1.6510 H     1 <1>   0.0800 
 38 H       -3.1350    -2.6450    -0.5890 H     1 <1>   0.0800 
 39 H       -4.1390    -1.4370     0.1730 H     1 <1>   0.0800 
 40 H       -5.2230    -2.0630    -3.8160 H     1 <1>   0.0800 
 41 H       -4.1530    -3.2790    -3.1570 H     1 <1>   0.0800 
 42 H       -4.7140    -4.2820    -0.3620 H     1 <1>   0.0800 
 43 H       -7.0320    -3.0300    -2.9290 H     1 <1>   0.0800 
 44 H       -6.0270    -4.3870    -2.6030 H     1 <1>   0.0800 
 45 H       -5.9890    -2.4830     1.5250 H     1 <1>   0.4500 
 46 H       -5.7830    -5.4060     1.5680 H     1 <1>   0.0800 
 47 H       -6.4010    -4.4360     2.8870 H     1 <1>   0.0800 
 48 H       -3.5140    -4.0350     2.1470 H     1 <1>   0.0800 
 49 H       -4.4870    -3.1620     3.3120 H     1 <1>   0.0800 
 50 H       -3.6510    -2.2860     2.0570 H     1 <1>   0.0800 
 51 H       -8.4540    -4.0220    -0.8220 H     1 <1>   0.0800 
 52 H       -7.1870    -5.2100    -0.7870 H     1 <1>   0.0800 
 53 H       -8.1990    -5.2280     1.3700 H     1 <1>   0.0800 
 54 H       -8.1360    -3.5070     1.5120 H     1 <1>   0.0800 
@<TRIPOS>BOND
  1   1   2  1   
  2   2   3  ar  
  3   2   4  ar  
  4   3   5  1   
  5   3   6  ar  
  6   4   7  ar  
  7   4   8  1   
  8   5   9  1   
  9   6  10  1   
 10   6  11  ar  
 11   7  11  ar  
 12   7  27  1   
 13   8  12  1   
 14   8  28  1   
 15   8  29  1   
 16   9  30  1   
 17   9  31  1   
 18   9  32  1   
 19  10  13  1   
 20  11  33  1   
 21  12  14  1   
 22  12  15  1   
 23  12  34  1   
 24  13  35  1   
 25  13  36  1   
 26  13  37  1   
 27  14  16  1   
 28  14  38  1   
 29  14  39  1   
 30  15  17  1   
 31  15  40  1   
 32  15  41  1   
 33  16  18  1   
 34  16  19  1   
 35  16  42  1   
 36  17  19  1   
 37  17  43  1   
 38  17  44  1   
 39  18  20  1   
 40  18  21  1   
 41  18  45  1   
 42  19  22  1   
 43  19  23  1   
 44  20  24  1   
 45  20  46  1   
 46  20  47  1   
 47  21  48  1   
 48  21  49  1   
 49  21  50  1   
 50  22  25  ar  
 51  22  26  ar  
 52  23  24  1   
 53  23  51  1   
 54  23  52  1   
 55  24  53  1   
 56  24  54  1   
@<TRIPOS>SUBSTRUCTURE
  1 ****  14 GROUP 4 **** **** 0

# MOE 2024.06 (io_trps.svl 2023.06)
