@<TRIPOS>MOLECULE
NONAME
47 49 1 0 0 
SMALL
USER_CHARGES


@<TRIPOS>ATOM
  1 O        1.4760     0.1170     2.2600 O.2   1 <1>  -0.5700 
  2 C        1.8160    -0.4270     1.2350 C.2   1 <1>   0.5690 
  3 N        2.1570     0.3310     0.1310 N.am  1 <1>  -0.6600 
  4 C        1.8660    -1.9720     1.2490 C.3   1 <1>   0.2610 
  5 C        3.0310    -0.1710    -0.9660 C.3   1 <1>   0.1400 
  6 C        1.8660     1.7900     0.0880 C.3   1 <1>   0.1400 
  7 O        3.0840    -2.5140     0.8020 O.3   1 <1>  -0.5600 
  8 C        0.8060    -2.6490     0.3800 C.3   1 <1>  -0.1600 
  9 C        4.4990    -0.2270    -0.4980 C.3   1 <1>   0.3430 
 10 C        3.1510     2.6240     0.1590 C.3   1 <1>  -0.1600 
 11 C        2.8870    -3.8550     0.4920 C.3   1 <1>   0.1200 
 12 C        1.4790    -3.9320    -0.0900 C.3   1 <1>  -0.1600 
 13 N        5.0950     1.1030    -0.1200 N.4   1 <1>  -0.9590 
 14 C        4.3130     1.9180     0.8620 C.3   1 <1>   0.3430 
 15 C        6.5110     0.9480     0.3320 C.3   1 <1>   0.4860 
 16 C        7.2750     2.2350     0.0410 C.ar  1 <1>   0.1670 
 17 N        6.9430     2.8910    -1.0660 N.ar  1 <1>  -0.6200 
 18 C        8.2590     2.6650     0.9260 C.ar  1 <1>   0.1600 
 19 C        7.6680     3.9900    -1.2250 C.ar  1 <1>   0.1600 
 20 N        8.9690     3.7640     0.7660 N.ar  1 <1>  -0.6200 
 21 C        8.6530     4.4180    -0.3380 C.ar  1 <1>   0.1670 
 22 C        9.4330     5.6900    -0.6000 C.3   1 <1>  -0.0970 
 23 H        1.7410    -2.2990     2.2680 H     1 <1>   0.0800 
 24 H        2.7130    -1.1550    -1.2590 H     1 <1>   0.0800 
 25 H        2.9430     0.4620    -1.8320 H     1 <1>   0.0800 
 26 H        1.3240     2.0230    -0.8140 H     1 <1>   0.0800 
 27 H        1.2270     2.0580     0.9140 H     1 <1>   0.0800 
 28 H       -0.0850    -2.8420     0.9530 H     1 <1>   0.0800 
 29 H        0.5480    -2.0260    -0.4580 H     1 <1>   0.0800 
 30 H        5.0860    -0.6650    -1.2880 H     1 <1>   0.0800 
 31 H        4.5560    -0.8920     0.3480 H     1 <1>   0.0800 
 32 H        2.9170     3.5170     0.7110 H     1 <1>   0.0800 
 33 H        3.4450     2.9430    -0.8250 H     1 <1>   0.0800 
 34 H        3.6410    -4.1780    -0.2050 H     1 <1>   0.0800 
 35 H        2.9600    -4.4240     1.4040 H     1 <1>   0.0800 
 36 H        1.5220    -3.9700    -1.1640 H     1 <1>   0.0800 
 37 H        0.9690    -4.8100     0.2680 H     1 <1>   0.0800 
 38 H        5.1970     1.6920    -0.9660 H     1 <1>   0.4500 
 39 H        3.9440     1.3020     1.6680 H     1 <1>   0.0800 
 40 H        4.9540     2.6750     1.2830 H     1 <1>   0.0800 
 41 H        6.5490     0.7090     1.3820 H     1 <1>   0.0800 
 42 H        6.9810     0.1510    -0.2200 H     1 <1>   0.0800 
 43 H        8.4770     2.0830     1.8060 H     1 <1>   0.1500 
 44 H        7.4740     4.5820    -2.1030 H     1 <1>   0.1500 
 45 H        9.1190     6.1630    -1.5120 H     1 <1>   0.0800 
 46 H       10.4810     5.4610    -0.6720 H     1 <1>   0.0800 
 47 H        9.2880     6.3770     0.2150 H     1 <1>   0.0800 
@<TRIPOS>BOND
  1   1   2  2   
  2   2   3  am  
  3   2   4  1   
  4   3   5  1   
  5   3   6  1   
  6   4   7  1   
  7   4   8  1   
  8   4  23  1   
  9   5   9  1   
 10   5  24  1   
 11   5  25  1   
 12   6  10  1   
 13   6  26  1   
 14   6  27  1   
 15   7  11  1   
 16   8  12  1   
 17   8  28  1   
 18   8  29  1   
 19   9  13  1   
 20   9  30  1   
 21   9  31  1   
 22  10  14  1   
 23  10  32  1   
 24  10  33  1   
 25  11  12  1   
 26  11  34  1   
 27  11  35  1   
 28  12  36  1   
 29  12  37  1   
 30  13  14  1   
 31  13  15  1   
 32  13  38  1   
 33  14  39  1   
 34  14  40  1   
 35  15  16  1   
 36  15  41  1   
 37  15  42  1   
 38  16  17  ar  
 39  16  18  ar  
 40  17  19  ar  
 41  18  20  ar  
 42  18  43  1   
 43  19  21  ar  
 44  19  44  1   
 45  20  21  ar  
 46  21  22  1   
 47  22  45  1   
 48  22  46  1   
 49  22  47  1   
@<TRIPOS>SUBSTRUCTURE
  1 ****  13 GROUP 4 **** **** 0

# MOE 2024.06 (io_trps.svl 2023.06)
