@<TRIPOS>MOLECULE
NONAME
48 51 1 0 0 
SMALL
USER_CHARGES


@<TRIPOS>ATOM
  1 O        0.1250     1.8140    -2.5000 O.2   1 <1>  -0.5700 
  2 C       -0.2560     2.3150    -1.4580 C.2   1 <1>   0.5440 
  3 N       -1.5430     2.0540    -1.0340 N.am  1 <1>  -0.6600 
  4 C        0.6390     3.1840    -0.7170 C.ar  1 <1>   0.0860 
  5 C       -2.2670     2.9380    -0.0580 C.3   1 <1>   0.1400 
  6 C       -2.3510     0.9990    -1.7170 C.3   1 <1>   0.1400 
  7 C        0.8040     3.0680     0.6660 C.ar  1 <1>  -0.1500 
  8 C        1.3730     4.1740    -1.3710 C.ar  1 <1>  -0.1500 
  9 C       -3.7430     3.1400    -0.4470 C.3   1 <1>   0.1440 
 10 C       -3.5580     0.5900    -0.8650 C.3   1 <1>  -0.1600 
 11 C        1.6380     3.9120     1.3780 C.ar  1 <1>  -0.1430 
 12 C        2.2140     5.0230    -0.6790 C.ar  1 <1>  -0.1500 
 13 C       -4.3680     4.1010     0.5510 C.ar  1 <1>   0.1660 
 14 C       -4.4770     1.7720    -0.4940 C.3   1 <1>  -0.1600 
 15 C       -3.8670     3.9280    -1.7850 C.3   1 <1>  -0.1600 
 16 C        2.3430     4.8960     0.6940 C.ar  1 <1>   0.0830 
 17 C        1.7780     3.7570     2.8850 C.3   1 <1>  -0.0970 
 18 N       -4.6590     3.8200     1.8030 N.ar  1 <1>  -0.6200 
 19 C       -4.5760     5.3330     0.0070 C.ar  1 <1>  -0.1430 
 20 C       -4.1230     5.4020    -1.4280 C.3   1 <1>  -0.0170 
 21 O        3.1580     5.7290     1.3560 O.3   1 <1>  -0.5330 
 22 C       -5.1910     4.8250     2.4840 C.ar  1 <1>   0.4770 
 23 C       -5.1320     6.3030     0.8040 C.ar  1 <1>   0.1600 
 24 N       -5.4490     6.0540     2.0580 N.ar  1 <1>  -0.6200 
 25 C       -5.5420     4.5280     3.9210 C.3   1 <1>  -0.0970 
 26 H       -1.7870     3.8990    -0.0010 H     1 <1>   0.0800 
 27 H       -2.2240     2.4870     0.9190 H     1 <1>   0.0800 
 28 H       -1.7290     0.1390    -1.9000 H     1 <1>   0.0800 
 29 H       -2.6840     1.3750    -2.6690 H     1 <1>   0.0800 
 30 H        0.2630     2.2940     1.1800 H     1 <1>   0.1500 
 31 H        1.2750     4.2650    -2.4400 H     1 <1>   0.1500 
 32 H       -3.1830     0.1360     0.0360 H     1 <1>   0.0800 
 33 H       -4.1270    -0.1600    -1.3850 H     1 <1>   0.0800 
 34 H        2.7660     5.7770    -1.2110 H     1 <1>   0.1500 
 35 H       -5.3050     1.8180    -1.1780 H     1 <1>   0.0800 
 36 H       -4.8960     1.5580     0.4730 H     1 <1>   0.0800 
 37 H       -4.7130     3.5740    -2.3470 H     1 <1>   0.0800 
 38 H       -2.9950     3.8290    -2.4070 H     1 <1>   0.0800 
 39 H        1.1650     2.9540     3.2540 H     1 <1>   0.0800 
 40 H        1.4820     4.6680     3.3730 H     1 <1>   0.0800 
 41 H        2.8030     3.5510     3.1350 H     1 <1>   0.0800 
 42 H       -4.8760     5.8380    -2.0630 H     1 <1>   0.0800 
 43 H       -3.2130     5.9720    -1.4930 H     1 <1>   0.0800 
 44 H        3.6150     6.3670     0.7820 H     1 <1>   0.4500 
 45 H       -5.3170     7.2900     0.4170 H     1 <1>   0.1500 
 46 H       -6.0890     3.6060     3.9760 H     1 <1>   0.0800 
 47 H       -6.1450     5.3170     4.3320 H     1 <1>   0.0800 
 48 H       -4.6390     4.4390     4.4950 H     1 <1>   0.0800 
@<TRIPOS>BOND
  1   1   2  2   
  2   2   3  am  
  3   2   4  1   
  4   3   5  1   
  5   3   6  1   
  6   4   7  ar  
  7   4   8  ar  
  8   5   9  1   
  9   5  26  1   
 10   5  27  1   
 11   6  10  1   
 12   6  28  1   
 13   6  29  1   
 14   7  11  ar  
 15   7  30  1   
 16   8  12  ar  
 17   8  31  1   
 18   9  13  1   
 19   9  14  1   
 20   9  15  1   
 21  10  14  1   
 22  10  32  1   
 23  10  33  1   
 24  11  16  ar  
 25  11  17  1   
 26  12  16  ar  
 27  12  34  1   
 28  13  18  ar  
 29  13  19  ar  
 30  14  35  1   
 31  14  36  1   
 32  15  20  1   
 33  15  37  1   
 34  15  38  1   
 35  16  21  1   
 36  17  39  1   
 37  17  40  1   
 38  17  41  1   
 39  18  22  ar  
 40  19  20  1   
 41  19  23  ar  
 42  20  42  1   
 43  20  43  1   
 44  21  44  1   
 45  22  24  ar  
 46  22  25  1   
 47  23  24  ar  
 48  23  45  1   
 49  25  46  1   
 50  25  47  1   
 51  25  48  1   
@<TRIPOS>SUBSTRUCTURE
  1 ****   5 GROUP 4 **** **** 0

# MOE 2024.06 (io_trps.svl 2023.06)
