@<TRIPOS>MOLECULE
NONAME
65 68 1 0 0 
SMALL
USER_CHARGES


@<TRIPOS>ATOM
  1 O       -1.2950    -0.3740    -1.4550 O.2   1 <1>  -0.5730 
  2 C       -1.6700     0.7710    -1.3080 C.2   1 <1>   0.5400 
  3 N       -0.7660     1.7880    -1.4460 N.am  1 <1>  -0.7330 
  4 C       -3.0590     1.0350    -0.9770 C.ar  1 <1>   0.0800 
  5 C        0.6690     1.6230    -1.7650 C.3   1 <1>   0.1350 
  6 C       -3.8410     0.0390    -0.3990 C.ar  1 <1>  -0.1150 
  7 C       -3.6700     2.2790    -1.2290 C.ar  1 <1>  -0.1550 
  8 C        1.4920     2.4810    -0.8040 C.3   1 <1>  -0.1650 
  9 C       -5.1660     0.2940    -0.0860 C.ar  1 <1>   0.3040 
 10 C       -4.9920     2.5280    -0.9170 C.ar  1 <1>  -0.1150 
 11 C        2.9900     2.3620    -1.0990 C.3   1 <1>  -0.2450 
 12 N       -6.1380    -0.5000     0.4750 N.pl3 1 <1>  -0.7030 
 13 C       -5.7560     1.5190    -0.3350 C.ar  1 <1>   0.3040 
 14 C       -7.2710     0.1780     0.5450 C.cat 1 <1>   1.0690 
 15 N       -7.0840     1.4260     0.0850 N.pl3 1 <1>  -0.7660 
 16 N       -8.4120    -0.3740     0.9930 N.pl3 1 <1>  -0.5950 
 17 C       -8.0570     2.5380     0.2060 C.3   1 <1>   0.4300 
 18 C       -8.4040    -1.4680     2.0170 C.3   1 <1>   0.1620 
 19 C       -9.6580    -0.3640     0.1810 C.3   1 <1>   0.1620 
 20 C       -8.4440     3.0710    -1.1800 C.3   1 <1>  -0.1650 
 21 C       -7.5160     3.6440     1.1230 C.3   1 <1>  -0.1650 
 22 C       -8.4950    -2.8500     1.3440 C.3   1 <1>   0.1950 
 23 C       -9.8060    -1.7150    -0.5330 C.3   1 <1>  -0.1650 
 24 C       -9.4410     4.2340    -1.0630 C.3   1 <1>  -0.1650 
 25 C       -8.5180     4.8030     1.2330 C.3   1 <1>  -0.1650 
 26 O       -7.3330    -3.0490     0.5970 O.3   1 <1>  -0.6830 
 27 C       -9.7430    -2.9210     0.4370 C.3   1 <1>  -0.0860 
 28 C       -8.8950     5.3430    -0.1530 C.3   1 <1>  -0.1650 
 29 C       -9.8250    -4.2650    -0.3070 C.3   1 <1>   0.1140 
 30 O      -11.0100    -4.3330    -1.0170 O.3   1 <1>  -0.6830 
 31 H       -1.0470     2.7490    -1.2550 H     1 <1>   0.3660 
 32 H        0.9550     0.5890    -1.6710 H     1 <1>   0.0740 
 33 H        0.8430     1.9330    -2.7820 H     1 <1>   0.0740 
 34 H       -3.4190    -0.9300    -0.1940 H     1 <1>   0.1450 
 35 H       -3.0890     3.0600    -1.6910 H     1 <1>   0.1450 
 36 H        1.1980     3.5120    -0.8970 H     1 <1>   0.0740 
 37 H        1.3070     2.1570     0.2060 H     1 <1>   0.0740 
 38 H       -5.4220     3.4890    -1.1280 H     1 <1>   0.1450 
 39 H        3.2060     2.6930    -2.1000 H     1 <1>   0.0740 
 40 H        3.3130     1.3400    -0.9950 H     1 <1>   0.0740 
 41 H        3.5500     2.9680    -0.4090 H     1 <1>   0.0740 
 42 H       -6.1430    -1.5200     0.6040 H     1 <1>   0.4460 
 43 H       -8.9550     2.1720     0.6730 H     1 <1>   0.0740 
 44 H       -7.5150    -1.4170     2.6230 H     1 <1>   0.0740 
 45 H       -9.2480    -1.3370     2.6720 H     1 <1>   0.0740 
 46 H      -10.5050    -0.1910     0.8230 H     1 <1>   0.0740 
 47 H       -9.6300     0.4160    -0.5590 H     1 <1>   0.0740 
 48 H       -7.5760     3.4250    -1.7020 H     1 <1>   0.0740 
 49 H       -8.8890     2.2860    -1.7650 H     1 <1>   0.0740 
 50 H       -7.3350     3.2430     2.1040 H     1 <1>   0.0740 
 51 H       -6.5930     4.0370     0.7420 H     1 <1>   0.0740 
 52 H       -8.5340    -3.6200     2.0970 H     1 <1>   0.0740 
 53 H      -10.7460    -1.7230    -1.0570 H     1 <1>   0.0740 
 54 H       -9.0320    -1.8080    -1.2760 H     1 <1>   0.0740 
 55 H       -9.6410     4.6390    -2.0410 H     1 <1>   0.0740 
 56 H      -10.3740     3.8740    -0.6630 H     1 <1>   0.0740 
 57 H       -9.4080     4.4680     1.7390 H     1 <1>   0.0740 
 58 H       -8.0890     5.5970     1.8220 H     1 <1>   0.0740 
 59 H       -7.3520    -3.9360     0.1780 H     1 <1>   0.3960 
 60 H      -10.5990    -2.8650     1.0870 H     1 <1>   0.0740 
 61 H       -9.6380     6.1150    -0.0460 H     1 <1>   0.0740 
 62 H       -8.0280     5.7880    -0.6120 H     1 <1>   0.0740 
 63 H       -9.7970    -5.0980     0.3750 H     1 <1>   0.0740 
 64 H       -9.0220    -4.3610    -1.0180 H     1 <1>   0.0740 
 65 H      -11.7770    -4.4500    -0.4230 H     1 <1>   0.3960 
@<TRIPOS>BOND
  1   1   2  2   
  2   2   3  am  
  3   2   4  1   
  4   3   5  1   
  5   3  31  1   
  6   4   6  ar  
  7   4   7  ar  
  8   5   8  1   
  9   5  32  1   
 10   5  33  1   
 11   6   9  ar  
 12   6  34  1   
 13   7  10  ar  
 14   7  35  1   
 15   8  11  1   
 16   8  36  1   
 17   8  37  1   
 18   9  12  1   
 19   9  13  ar  
 20  10  13  ar  
 21  10  38  1   
 22  11  39  1   
 23  11  40  1   
 24  11  41  1   
 25  12  14  ar  
 26  12  42  1   
 27  13  15  1   
 28  14  15  ar  
 29  14  16  ar  
 30  15  17  1   
 31  16  18  1   
 32  16  19  1   
 33  17  20  1   
 34  17  21  1   
 35  17  43  1   
 36  18  22  1   
 37  18  44  1   
 38  18  45  1   
 39  19  23  1   
 40  19  46  1   
 41  19  47  1   
 42  20  24  1   
 43  20  48  1   
 44  20  49  1   
 45  21  25  1   
 46  21  50  1   
 47  21  51  1   
 48  22  26  1   
 49  22  27  1   
 50  22  52  1   
 51  23  27  1   
 52  23  53  1   
 53  23  54  1   
 54  24  28  1   
 55  24  55  1   
 56  24  56  1   
 57  25  28  1   
 58  25  57  1   
 59  25  58  1   
 60  26  59  1   
 61  27  29  1   
 62  27  60  1   
 63  28  61  1   
 64  28  62  1   
 65  29  30  1   
 66  29  63  1   
 67  29  64  1   
 68  30  65  1   
@<TRIPOS>SUBSTRUCTURE
  1 ****  13 GROUP 4 **** **** 0

# MOE 2024.06 (io_trps.svl 2023.06)
