@<TRIPOS>MOLECULE
NONAME
46 47 1 0 0 
SMALL
USER_CHARGES


@<TRIPOS>ATOM
  1 S        0.5690     0.8710     0.2110 S.o2  1 <1>   1.3330 
  2 O       -0.5860     0.0040     0.2490 O.2   1 <1>  -0.6500 
  3 O        1.3230     1.1180     1.4210 O.2   1 <1>  -0.6500 
  4 N        1.6550     0.2520    -0.9380 N.am  1 <1>  -0.8490 
  5 C        0.0730     2.4220    -0.5360 C.3   1 <1>  -0.0550 
  6 C        3.0080     0.8070    -0.8140 C.3   1 <1>   0.1160 
  7 C        1.7130    -1.2120    -0.9130 C.3   1 <1>   0.1160 
  8 C       -1.0690     3.1640     0.1940 C.3   1 <1>  -0.0800 
  9 C       -1.3800     4.4680    -0.5290 C.3   1 <1>   0.2000 
 10 C       -0.6630     3.6630     1.5870 C.3   1 <1>   0.1100 
 11 O       -2.6080     4.9300    -0.0920 O.3   1 <1>  -0.6800 
 12 C       -0.3010     5.4080     0.0020 C.3   1 <1>   0.1100 
 13 N       -0.0270     4.9750     1.3910 N.3   1 <1>  -0.8100 
 14 C        1.4100     4.9310     1.7350 C.3   1 <1>   0.2530 
 15 C        2.1240     6.2350     1.3980 C.ar  1 <1>  -0.1430 
 16 C        1.9700     7.3490     2.2080 C.ar  1 <1>   0.1900 
 17 C        2.9550     6.3470     0.2840 C.ar  1 <1>   0.0820 
 18 F        1.2190     7.2780     3.2760 F     1 <1>  -0.1900 
 19 C        2.5900     8.5560     1.9480 C.ar  1 <1>  -0.1500 
 20 O        3.1180     5.2480    -0.5050 O.3   1 <1>  -0.3630 
 21 C        3.5880     7.5620     0.0110 C.ar  1 <1>  -0.1500 
 22 C        3.4050     8.6590     0.8360 C.ar  1 <1>  -0.1500 
 23 C        3.9680     5.2610    -1.6310 C.3   1 <1>   0.0400 
 24 H        0.9320     3.0590    -0.6060 H     1 <1>   0.0800 
 25 H       -0.2540     2.2150    -1.5360 H     1 <1>   0.0800 
 26 H        3.6270     0.4550    -1.6220 H     1 <1>   0.0800 
 27 H        3.4530     0.5110     0.1220 H     1 <1>   0.0800 
 28 H        2.9760     1.8820    -0.8540 H     1 <1>   0.0800 
 29 H        2.3980    -1.5720    -1.6610 H     1 <1>   0.0800 
 30 H        0.7400    -1.6230    -1.1240 H     1 <1>   0.0800 
 31 H        2.0310    -1.5580     0.0570 H     1 <1>   0.0800 
 32 H       -1.9330     2.5230     0.2420 H     1 <1>   0.0800 
 33 H       -1.4020     4.3900    -1.6030 H     1 <1>   0.0800 
 34 H       -0.0330     2.9780     2.1260 H     1 <1>   0.0800 
 35 H       -1.5530     3.8100     2.1770 H     1 <1>   0.0800 
 36 H       -2.4900     5.2400     0.8300 H     1 <1>   0.4000 
 37 H       -0.6110     6.4380    -0.0290 H     1 <1>   0.0800 
 38 H        0.5780     5.2960    -0.6070 H     1 <1>   0.0800 
 39 H        1.5050     4.7460     2.7920 H     1 <1>   0.0800 
 40 H        1.8820     4.1070     1.2290 H     1 <1>   0.0800 
 41 H        2.4350     9.3920     2.6060 H     1 <1>   0.1500 
 42 H        4.2290     7.6770    -0.8420 H     1 <1>   0.1500 
 43 H        3.8970     9.5910     0.6150 H     1 <1>   0.1500 
 44 H        3.9430     4.2850    -2.0820 H     1 <1>   0.0800 
 45 H        4.9690     5.4900    -1.3100 H     1 <1>   0.0800 
 46 H        3.6100     5.9950    -2.3310 H     1 <1>   0.0800 
@<TRIPOS>BOND
  1   1   2  2   
  2   1   3  2   
  3   1   4  am  
  4   1   5  1   
  5   4   6  1   
  6   4   7  1   
  7   5   8  1   
  8   5  24  1   
  9   5  25  1   
 10   6  26  1   
 11   6  27  1   
 12   6  28  1   
 13   7  29  1   
 14   7  30  1   
 15   7  31  1   
 16   8   9  1   
 17   8  10  1   
 18   8  32  1   
 19   9  11  1   
 20   9  12  1   
 21   9  33  1   
 22  10  13  1   
 23  10  34  1   
 24  10  35  1   
 25  11  36  1   
 26  12  13  1   
 27  12  37  1   
 28  12  38  1   
 29  13  14  1   
 30  14  15  1   
 31  14  39  1   
 32  14  40  1   
 33  15  16  ar  
 34  15  17  ar  
 35  16  18  1   
 36  16  19  ar  
 37  17  20  1   
 38  17  21  ar  
 39  19  22  ar  
 40  19  41  1   
 41  20  23  1   
 42  21  22  ar  
 43  21  42  1   
 44  22  43  1   
 45  23  44  1   
 46  23  45  1   
 47  23  46  1   
@<TRIPOS>SUBSTRUCTURE
  1 ****  14 GROUP 4 **** **** 0

# MOE 2024.06 (io_trps.svl 2023.06)
