@<TRIPOS>MOLECULE
NONAME
51 53 1 0 0 
SMALL
USER_CHARGES


@<TRIPOS>ATOM
  1 S        1.9560     1.6680    -0.9220 S.o2  1 <1>   1.3330 
  2 O        2.1090     1.2180    -2.2830 O.2   1 <1>  -0.6500 
  3 O        3.0250     2.3770    -0.2560 O.2   1 <1>  -0.6500 
  4 N        1.5320     0.3480     0.0540 N.am  1 <1>  -0.8490 
  5 C        0.5150     2.7320    -0.8070 C.3   1 <1>  -0.0550 
  6 C        0.6090    -0.5820    -0.6140 C.3   1 <1>   0.1160 
  7 C        2.7190    -0.4030     0.4870 C.3   1 <1>   0.1160 
  8 C       -0.0650     2.9170     0.6210 C.3   1 <1>  -0.0800 
  9 C       -0.9060     4.1950     0.6680 C.3   1 <1>   0.2000 
 10 C        0.9970     3.1880     1.6930 C.3   1 <1>   0.3430 
 11 O       -1.8550     4.0700     1.6740 O.3   1 <1>  -0.6800 
 12 C        0.0910     5.3110     1.0280 C.3   1 <1>   0.3430 
 13 N        1.3280     4.6150     1.5010 N.4   1 <1>  -0.9590 
 14 C        2.0490     5.3010     2.5910 C.3   1 <1>   0.5240 
 15 C        2.6950     6.5320     1.9930 C.2   1 <1>  -0.1810 
 16 C        3.1490     6.7000     0.7210 C.2   1 <1>  -0.0260 
 17 C        2.9720     7.7270     2.6350 C.2   1 <1>   0.1390 
 18 N        3.1290     5.8340    -0.3550 N.2   1 <1>  -0.5760 
 19 N        3.6860     7.9690     0.6700 N.pl3 1 <1>   0.6010 
 20 N        3.5550     8.5960     1.8600 N.2   1 <1>  -0.7070 
 21 C        3.6970     6.2540    -1.4390 C.2   1 <1>   0.3750 
 22 C        4.2760     8.4090    -0.5070 C.2   1 <1>  -0.1690 
 23 C        4.2840     7.5470    -1.5590 C.2   1 <1>  -0.1360 
 24 C        3.7370     5.3340    -2.6400 C.3   1 <1>  -0.1790 
 25 C        4.8760     9.8090    -0.5410 C.3   1 <1>  -0.1020 
 26 H        0.7870     3.6860    -1.2180 H     1 <1>   0.0800 
 27 H       -0.2590     2.3340    -1.4350 H     1 <1>   0.0800 
 28 H        0.3270    -1.3730     0.0600 H     1 <1>   0.0800 
 29 H        1.0750    -1.0180    -1.4840 H     1 <1>   0.0800 
 30 H       -0.2840    -0.0690    -0.9240 H     1 <1>   0.0800 
 31 H        2.4320    -1.2270     1.1180 H     1 <1>   0.0800 
 32 H        3.3810     0.2360     1.0490 H     1 <1>   0.0800 
 33 H        3.2550    -0.7840    -0.3670 H     1 <1>   0.0800 
 34 H       -0.6420     2.0440     0.8750 H     1 <1>   0.0800 
 35 H       -1.4310     4.4010    -0.2490 H     1 <1>   0.0800 
 36 H        1.8620     2.5520     1.6060 H     1 <1>   0.0800 
 37 H        0.5620     3.0430     2.6690 H     1 <1>   0.0800 
 38 H       -1.4900     3.7540     2.5230 H     1 <1>   0.4000 
 39 H       -0.3270     5.9480     1.7900 H     1 <1>   0.0800 
 40 H        0.3240     5.9030     0.1580 H     1 <1>   0.0800 
 41 H        2.0170     4.6750     0.7170 H     1 <1>   0.4500 
 42 H        1.3720     5.5720     3.3840 H     1 <1>   0.0800 
 43 H        2.8190     4.6580     2.9860 H     1 <1>   0.0800 
 44 H        2.7460     7.9450     3.6680 H     1 <1>   0.1500 
 45 H        4.7270     7.8110    -2.5020 H     1 <1>   0.1500 
 46 H        4.7310     5.3080    -3.0500 H     1 <1>   0.0800 
 47 H        3.0550     5.6830    -3.3930 H     1 <1>   0.0800 
 48 H        3.4650     4.3330    -2.3580 H     1 <1>   0.0800 
 49 H        5.6500     9.8960     0.2010 H     1 <1>   0.0800 
 50 H        4.1160    10.5400    -0.3280 H     1 <1>   0.0800 
 51 H        5.2990    10.0240    -1.5060 H     1 <1>   0.0800 
@<TRIPOS>BOND
  1   1   2  2   
  2   1   3  2   
  3   1   4  am  
  4   1   5  1   
  5   4   6  1   
  6   4   7  1   
  7   5   8  1   
  8   5  26  1   
  9   5  27  1   
 10   6  28  1   
 11   6  29  1   
 12   6  30  1   
 13   7  31  1   
 14   7  32  1   
 15   7  33  1   
 16   8   9  1   
 17   8  10  1   
 18   8  34  1   
 19   9  11  1   
 20   9  12  1   
 21   9  35  1   
 22  10  13  1   
 23  10  36  1   
 24  10  37  1   
 25  11  38  1   
 26  12  13  1   
 27  12  39  1   
 28  12  40  1   
 29  13  14  1   
 30  13  41  1   
 31  14  15  1   
 32  14  42  1   
 33  14  43  1   
 34  15  16  2   
 35  15  17  1   
 36  16  18  1   
 37  16  19  1   
 38  17  20  2   
 39  17  44  1   
 40  18  21  2   
 41  19  20  1   
 42  19  22  1   
 43  21  23  1   
 44  21  24  1   
 45  22  23  2   
 46  22  25  1   
 47  23  45  1   
 48  24  46  1   
 49  24  47  1   
 50  24  48  1   
 51  25  49  1   
 52  25  50  1   
 53  25  51  1   
@<TRIPOS>SUBSTRUCTURE
  1 ****  13 GROUP 4 **** **** 0

# MOE 2024.06 (io_trps.svl 2023.06)
