@<TRIPOS>MOLECULE
NONAME
43 45 1 0 0 
SMALL
USER_CHARGES


@<TRIPOS>ATOM
  1 F        0.0800     0.5220    -0.8380 F     1 <1>  -0.1900 
  2 C        1.2430     1.0890    -0.5860 C.ar  1 <1>   0.1900 
  3 C        2.4210     0.3510    -0.5560 C.ar  1 <1>   0.4100 
  4 C        1.2930     2.4320    -0.3510 C.ar  1 <1>   0.1600 
  5 N        3.5640     0.9570    -0.2990 N.ar  1 <1>  -0.6200 
  6 N        2.4650    -1.0220    -0.7740 N.pl3 1 <1>  -0.8380 
  7 N        2.4320     3.0420    -0.0920 N.ar  1 <1>  -0.6200 
  8 C        3.5200     2.2700    -0.0790 C.ar  1 <1>   0.7200 
  9 C        1.7400    -1.9250     0.1670 C.3   1 <1>   0.2090 
 10 C        3.6940    -1.6590    -1.3400 C.3   1 <1>   0.2090 
 11 N        4.7230     2.8940     0.1920 N.pl3 1 <1>  -0.8380 
 12 C        2.7080    -2.5410     1.1950 C.3   1 <1>   0.1200 
 13 C        4.5520    -2.2850    -0.2260 C.3   1 <1>   0.1200 
 14 C        5.9020     2.1500     0.7320 C.3   1 <1>   0.2090 
 15 C        4.8260     4.3700     0.4170 C.3   1 <1>   0.2090 
 16 O        3.7920    -3.1630     0.5610 O.3   1 <1>  -0.5600 
 17 C        7.2220     2.7550     0.2200 C.3   1 <1>   0.1100 
 18 C        6.1810     4.9230    -0.0660 C.3   1 <1>   0.1100 
 19 N        7.3390     4.2010     0.5180 N.3   1 <1>  -0.8100 
 20 C        8.6560     4.7360     0.0340 C.3   1 <1>   0.1100 
 21 C        9.0910     6.1760     0.4340 C.3   1 <1>   1.0200 
 22 F        9.0250     6.4020     1.7410 F     1 <1>  -0.3400 
 23 F        8.3590     7.1200    -0.1480 F     1 <1>  -0.3400 
 24 F       10.3480     6.4170     0.0800 F     1 <1>  -0.3400 
 25 H        0.3910     3.0170    -0.3740 H     1 <1>   0.1500 
 26 H        1.2660    -2.7130    -0.3930 H     1 <1>   0.0800 
 27 H        0.9720    -1.3820     0.6880 H     1 <1>   0.0800 
 28 H        4.2750    -0.9320    -1.8800 H     1 <1>   0.0800 
 29 H        3.4040    -2.4270    -2.0360 H     1 <1>   0.0800 
 30 H        2.2010    -3.2850     1.7830 H     1 <1>   0.0800 
 31 H        3.0870    -1.7780     1.8520 H     1 <1>   0.0800 
 32 H        4.9550    -1.5150     0.4080 H     1 <1>   0.0800 
 33 H        5.3640    -2.8440    -0.6530 H     1 <1>   0.0800 
 34 H        5.8690     1.1130     0.4480 H     1 <1>   0.0800 
 35 H        5.8860     2.1990     1.8070 H     1 <1>   0.0800 
 36 H        4.7130     4.5750     1.4670 H     1 <1>   0.0800 
 37 H        4.0440     4.8900    -0.1090 H     1 <1>   0.0800 
 38 H        7.2790     2.5950    -0.8440 H     1 <1>   0.0800 
 39 H        8.0380     2.2290     0.6820 H     1 <1>   0.0800 
 40 H        6.2240     5.9620     0.2080 H     1 <1>   0.0800 
 41 H        6.2120     4.8570    -1.1400 H     1 <1>   0.0800 
 42 H        8.6830     4.6770    -1.0390 H     1 <1>   0.0800 
 43 H        9.4280     4.0870     0.4080 H     1 <1>   0.0800 
@<TRIPOS>BOND
  1   1   2  1   
  2   2   3  ar  
  3   2   4  ar  
  4   3   5  ar  
  5   3   6  1   
  6   4   7  ar  
  7   4  25  1   
  8   5   8  ar  
  9   6   9  1   
 10   6  10  1   
 11   7   8  ar  
 12   8  11  1   
 13   9  12  1   
 14   9  26  1   
 15   9  27  1   
 16  10  13  1   
 17  10  28  1   
 18  10  29  1   
 19  11  14  1   
 20  11  15  1   
 21  12  16  1   
 22  12  30  1   
 23  12  31  1   
 24  13  16  1   
 25  13  32  1   
 26  13  33  1   
 27  14  17  1   
 28  14  34  1   
 29  14  35  1   
 30  15  18  1   
 31  15  36  1   
 32  15  37  1   
 33  17  19  1   
 34  17  38  1   
 35  17  39  1   
 36  18  19  1   
 37  18  40  1   
 38  18  41  1   
 39  19  20  1   
 40  20  21  1   
 41  20  42  1   
 42  20  43  1   
 43  21  22  1   
 44  21  23  1   
 45  21  24  1   
@<TRIPOS>SUBSTRUCTURE
  1 ****  11 GROUP 4 **** **** 0

# MOE 2024.06 (io_trps.svl 2023.06)
