@<TRIPOS>MOLECULE
NONAME
53 54 1 0 0 
SMALL
USER_CHARGES


@<TRIPOS>ATOM
  1 S        0.0830     0.6850     0.2740 S.3   1 <1>  -0.3320 
  2 C       -0.0130    -1.1050     0.4570 C.ar  1 <1>   0.1020 
  3 C        1.8560     1.0890    -0.0400 C.3   1 <1>   0.0700 
  4 C        1.1080    -1.9170     0.3880 C.ar  1 <1>  -0.1500 
  5 C       -1.2660    -1.6480     0.6710 C.ar  1 <1>  -0.1500 
  6 C        1.9700     2.6040    -0.2020 C.3   1 <1>  -0.1600 
  7 C        0.9630    -3.2860     0.5350 C.ar  1 <1>  -0.1500 
  8 C       -1.4030    -3.0180     0.8170 C.ar  1 <1>  -0.1500 
  9 C        3.4040     3.0050    -0.5520 C.3   1 <1>   0.1400 
 10 C       -0.2890    -3.8420     0.7510 C.ar  1 <1>  -0.1430 
 11 N        3.5170     4.4900    -0.5930 N.am  1 <1>  -0.6600 
 12 C       -0.4410    -5.3440     0.9100 C.3   1 <1>  -0.0970 
 13 C        3.9660     5.1720     0.5210 C.2   1 <1>   0.5690 
 14 C        3.0790     5.0880    -1.8890 C.3   1 <1>   0.0600 
 15 O        4.3100     4.5740     1.5150 O.2   1 <1>  -0.5700 
 16 C        4.0480     6.7040     0.6040 C.3   1 <1>  -0.0190 
 17 C        2.6770     7.4030     0.4740 C.3   1 <1>  -0.1600 
 18 C        5.1420     7.3130    -0.3080 C.3   1 <1>  -0.1600 
 19 C        2.7640     8.9180     0.7540 C.3   1 <1>   0.2000 
 20 C        4.8400     8.7610    -0.7370 C.3   1 <1>  -0.1600 
 21 O        1.7590     9.5520     0.0000 O.3   1 <1>  -0.5600 
 22 C        4.1440     9.5290     0.3880 C.3   1 <1>   0.2000 
 23 C        0.4860     9.5240     0.5670 C.3   1 <1>   0.0400 
 24 O        3.9680    10.8320    -0.0320 O.3   1 <1>  -0.6800 
 25 H        2.4220     0.7390     0.8060 H     1 <1>   0.0800 
 26 H        2.1460     0.5690    -0.9360 H     1 <1>   0.0800 
 27 H        2.0850    -1.5100     0.2250 H     1 <1>   0.1500 
 28 H       -2.1240    -1.0030     0.7210 H     1 <1>   0.1500 
 29 H        1.3020     2.9270    -0.9800 H     1 <1>   0.0800 
 30 H        1.6860     3.0740     0.7230 H     1 <1>   0.0800 
 31 H        1.8320    -3.9190     0.4810 H     1 <1>   0.1500 
 32 H       -2.3790    -3.4390     0.9820 H     1 <1>   0.1500 
 33 H        3.6850     2.5930    -1.5060 H     1 <1>   0.0800 
 34 H        4.0810     2.6050     0.1850 H     1 <1>   0.0800 
 35 H        0.4440    -5.7670     1.3500 H     1 <1>   0.0800 
 36 H       -0.6020    -5.7960    -0.0520 H     1 <1>   0.0800 
 37 H       -1.2770    -5.5720     1.5460 H     1 <1>   0.0800 
 38 H        3.5120     4.5390    -2.7070 H     1 <1>   0.0800 
 39 H        3.3840     6.1110    -1.9810 H     1 <1>   0.0800 
 40 H        2.0070     5.0400    -1.9650 H     1 <1>   0.0800 
 41 H        4.3670     6.9120     1.6120 H     1 <1>   0.0800 
 42 H        1.9890     6.9550     1.1690 H     1 <1>   0.0800 
 43 H        2.2890     7.2600    -0.5150 H     1 <1>   0.0800 
 44 H        6.0720     7.2970     0.2360 H     1 <1>   0.0800 
 45 H        5.2960     6.7140    -1.1860 H     1 <1>   0.0800 
 46 H        2.5890     9.1110     1.7990 H     1 <1>   0.0800 
 47 H        4.1960     8.7500    -1.5990 H     1 <1>   0.0800 
 48 H        5.7580     9.2550    -1.0050 H     1 <1>   0.0800 
 49 H        4.7840     9.5460     1.2530 H     1 <1>   0.0800 
 50 H       -0.1860    10.0440    -0.0930 H     1 <1>   0.0800 
 51 H        0.5100    10.0210     1.5220 H     1 <1>   0.0800 
 52 H        0.1620     8.5030     0.6790 H     1 <1>   0.0800 
 53 H        3.0510    10.8710    -0.3910 H     1 <1>   0.4000 
@<TRIPOS>BOND
  1   1   2  1   
  2   1   3  1   
  3   2   4  ar  
  4   2   5  ar  
  5   3   6  1   
  6   3  25  1   
  7   3  26  1   
  8   4   7  ar  
  9   4  27  1   
 10   5   8  ar  
 11   5  28  1   
 12   6   9  1   
 13   6  29  1   
 14   6  30  1   
 15   7  10  ar  
 16   7  31  1   
 17   8  10  ar  
 18   8  32  1   
 19   9  11  1   
 20   9  33  1   
 21   9  34  1   
 22  10  12  1   
 23  11  13  am  
 24  11  14  1   
 25  12  35  1   
 26  12  36  1   
 27  12  37  1   
 28  13  15  2   
 29  13  16  1   
 30  14  38  1   
 31  14  39  1   
 32  14  40  1   
 33  16  17  1   
 34  16  18  1   
 35  16  41  1   
 36  17  19  1   
 37  17  42  1   
 38  17  43  1   
 39  18  20  1   
 40  18  44  1   
 41  18  45  1   
 42  19  21  1   
 43  19  22  1   
 44  19  46  1   
 45  20  22  1   
 46  20  47  1   
 47  20  48  1   
 48  21  23  1   
 49  22  24  1   
 50  22  49  1   
 51  23  50  1   
 52  23  51  1   
 53  23  52  1   
 54  24  53  1   
@<TRIPOS>SUBSTRUCTURE
  1 ****   6 GROUP 4 **** **** 0

# MOE 2024.06 (io_trps.svl 2023.06)
