@<TRIPOS>MOLECULE
NONAME
50 51 1 0 0 
SMALL
USER_CHARGES


@<TRIPOS>ATOM
  1 S        1.0660    -0.4360    -1.1390 S.o2  1 <1>   1.3330 
  2 O        0.7160    -0.6160    -2.5290 O.2   1 <1>  -0.6500 
  3 O        2.3210    -0.9590    -0.6450 O.2   1 <1>  -0.6500 
  4 N       -0.1840    -1.1340    -0.2210 N.am  1 <1>  -0.8490 
  5 C        0.9440     1.3100    -0.7270 C.3   1 <1>  -0.0550 
  6 C       -1.4990    -1.0510    -0.8680 C.3   1 <1>   0.1160 
  7 C        0.1010    -2.5270     0.1370 C.3   1 <1>   0.1160 
  8 C        1.5880     1.7740     0.5980 C.3   1 <1>  -0.0800 
  9 C        3.1160     1.6850     0.5950 C.3   1 <1>   0.2200 
 10 C        1.1800     1.0290     1.8740 C.3   1 <1>   0.1200 
 11 N        3.6830     3.0510     0.6760 N.am  1 <1>  -0.7300 
 12 C        3.4230     0.8850     1.8600 C.3   1 <1>   0.1200 
 13 O        2.3130     1.0620     2.6780 O.3   1 <1>  -0.5600 
 14 C        3.8550     3.8730    -0.4000 C.2   1 <1>   0.5440 
 15 O        3.5370     3.4570    -1.4970 O.2   1 <1>  -0.5700 
 16 C        4.3700     5.2050    -0.2290 C.ar  1 <1>   0.0860 
 17 C        5.3830     5.7620    -0.9980 C.ar  1 <1>   0.1670 
 18 C        3.8550     6.0330     0.7510 C.ar  1 <1>   0.1600 
 19 N        5.8220     6.9800    -0.8000 N.ar  1 <1>  -0.6200 
 20 C        6.0560     4.9890    -2.1200 C.3   1 <1>  -0.0970 
 21 N        4.2780     7.2500     0.9700 N.ar  1 <1>  -0.6200 
 22 C        5.2570     7.6870     0.1780 C.ar  1 <1>   0.7200 
 23 N        5.7200     8.9650     0.3880 N.pl3 1 <1>  -0.8380 
 24 C        5.0090     9.9430     1.2590 C.3   1 <1>   0.1290 
 25 C        6.9540     9.4810    -0.2690 C.3   1 <1>   0.1290 
 26 H        1.4100     1.8690    -1.5170 H     1 <1>   0.0800 
 27 H       -0.0900     1.5910    -0.7220 H     1 <1>   0.0800 
 28 H       -2.2610    -1.4190    -0.2030 H     1 <1>   0.0800 
 29 H       -1.5110    -1.6360    -1.7730 H     1 <1>   0.0800 
 30 H       -1.7300    -0.0300    -1.1160 H     1 <1>   0.0800 
 31 H       -0.7050    -2.9360     0.7210 H     1 <1>   0.0800 
 32 H        1.0030    -2.5820     0.7250 H     1 <1>   0.0800 
 33 H        0.2330    -3.1220    -0.7530 H     1 <1>   0.0800 
 34 H        1.2980     2.8010     0.7390 H     1 <1>   0.0800 
 35 H        3.5140     1.1840    -0.2720 H     1 <1>   0.0800 
 36 H        0.9470    -0.0050     1.7010 H     1 <1>   0.0800 
 37 H        0.3660     1.5060     2.3910 H     1 <1>   0.0800 
 38 H        3.8960     3.3660     1.6250 H     1 <1>   0.3700 
 39 H        4.3100     1.2180     2.3680 H     1 <1>   0.0800 
 40 H        3.5010    -0.1650     1.6320 H     1 <1>   0.0800 
 41 H        3.0560     5.6680     1.3730 H     1 <1>   0.1500 
 42 H        6.2500     3.9760    -1.8210 H     1 <1>   0.0800 
 43 H        6.9910     5.4500    -2.3850 H     1 <1>   0.0800 
 44 H        5.4180     4.9830    -2.9850 H     1 <1>   0.0800 
 45 H        5.1080    10.9360     0.8570 H     1 <1>   0.0800 
 46 H        5.4300     9.9150     2.2480 H     1 <1>   0.0800 
 47 H        3.9600     9.7090     1.3190 H     1 <1>   0.0800 
 48 H        7.4410    10.1980     0.3680 H     1 <1>   0.0800 
 49 H        6.6950     9.9510    -1.2020 H     1 <1>   0.0800 
 50 H        7.6450     8.6790    -0.4630 H     1 <1>   0.0800 
@<TRIPOS>BOND
  1   1   2  2   
  2   1   3  2   
  3   1   4  am  
  4   1   5  1   
  5   4   6  1   
  6   4   7  1   
  7   5   8  1   
  8   5  26  1   
  9   5  27  1   
 10   6  28  1   
 11   6  29  1   
 12   6  30  1   
 13   7  31  1   
 14   7  32  1   
 15   7  33  1   
 16   8   9  1   
 17   8  10  1   
 18   8  34  1   
 19   9  11  1   
 20   9  12  1   
 21   9  35  1   
 22  10  13  1   
 23  10  36  1   
 24  10  37  1   
 25  11  14  am  
 26  11  38  1   
 27  12  13  1   
 28  12  39  1   
 29  12  40  1   
 30  14  15  2   
 31  14  16  1   
 32  16  17  ar  
 33  16  18  ar  
 34  17  19  ar  
 35  17  20  1   
 36  18  21  ar  
 37  18  41  1   
 38  19  22  ar  
 39  20  42  1   
 40  20  43  1   
 41  20  44  1   
 42  21  22  ar  
 43  22  23  1   
 44  23  24  1   
 45  23  25  1   
 46  24  45  1   
 47  24  46  1   
 48  24  47  1   
 49  25  48  1   
 50  25  49  1   
 51  25  50  1   
@<TRIPOS>SUBSTRUCTURE
  1 ****  11 GROUP 4 **** **** 0

# MOE 2024.06 (io_trps.svl 2023.06)
