@<TRIPOS>MOLECULE
NONAME
52 54 1 0 0 
SMALL
USER_CHARGES


@<TRIPOS>ATOM
  1 F       -2.9660    -0.9690    -0.1290 F     1 <1>  -0.1900 
  2 C       -2.8080    -2.2660    -0.2130 C.ar  1 <1>   0.1900 
  3 C       -1.5900    -2.8870     0.0830 C.ar  1 <1>   0.0830 
  4 C       -3.9100    -2.9950    -0.6120 C.ar  1 <1>  -0.1500 
  5 O       -0.4360    -2.2800     0.4870 O.3   1 <1>  -0.3630 
  6 C       -1.5250    -4.2650    -0.0400 C.ar  1 <1>  -0.1500 
  7 C       -3.8090    -4.3690    -0.7240 C.ar  1 <1>  -0.1500 
  8 C       -0.3350    -0.8920     0.7130 C.3   1 <1>   0.0400 
  9 C       -2.6170    -5.0420    -0.4410 C.ar  1 <1>   0.0530 
 10 C       -2.5010    -6.4800    -0.5560 C.2   1 <1>   0.0870 
 11 O       -1.3520    -7.0720    -0.3080 O.3   1 <1>  -0.0190 
 12 C       -3.3730    -7.4710    -0.8760 C.2   1 <1>  -0.2330 
 13 N       -1.4030    -8.3740    -0.4360 N.2   1 <1>  -0.4100 
 14 C       -2.6060    -8.6260    -0.7960 C.2   1 <1>   0.3720 
 15 C       -4.7660    -7.5490    -1.1400 C.2   1 <1>   1.0330 
 16 N       -3.1160    -9.8950    -1.0340 N.pl3 1 <1>  -0.8520 
 17 O       -5.5940    -7.1130    -0.3300 O.co2 1 <1>  -0.9000 
 18 O       -5.2070    -8.3120    -2.0230 O.co2 1 <1>  -0.9000 
 19 C       -3.5490   -10.6040     0.2000 C.3   1 <1>   0.2090 
 20 C       -4.9290   -10.1380     0.7320 C.3   1 <1>   0.3430 
 21 N       -6.0480   -10.2120    -0.2670 N.4   1 <1>  -0.9590 
 22 C       -7.2970    -9.6000     0.2710 C.3   1 <1>   0.3430 
 23 C       -6.2160   -11.5400    -0.9240 C.3   1 <1>   0.3430 
 24 C       -8.3690    -9.4170    -0.8220 C.3   1 <1>  -0.0800 
 25 C       -7.5770   -11.6770    -1.6180 C.3   1 <1>  -0.1600 
 26 C       -8.1470   -10.3220    -2.0530 C.3   1 <1>  -0.1600 
 27 C       -8.4850    -7.9370    -1.2170 C.3   1 <1>   0.1200 
 28 O       -9.5940    -7.7760    -2.0330 O.3   1 <1>  -0.6800 
 29 H       -4.8360    -2.4940    -0.8320 H     1 <1>   0.1500 
 30 H       -0.5890    -4.7440     0.1850 H     1 <1>   0.1500 
 31 H       -4.6790    -4.9180    -1.0340 H     1 <1>   0.1500 
 32 H        0.6650    -0.6800     1.0470 H     1 <1>   0.0800 
 33 H       -1.0400    -0.6080     1.4740 H     1 <1>   0.0800 
 34 H       -0.5280    -0.3720    -0.2080 H     1 <1>   0.0800 
 35 H       -3.9090    -9.7590    -1.6880 H     1 <1>   0.4000 
 36 H       -2.8110   -10.4420     0.9680 H     1 <1>   0.0800 
 37 H       -3.5710   -11.6610     0.0040 H     1 <1>   0.0800 
 38 H       -4.8290    -9.1160     1.0630 H     1 <1>   0.0800 
 39 H       -5.1830   -10.7320     1.5930 H     1 <1>   0.0800 
 40 H       -5.8020    -9.5320    -1.0320 H     1 <1>   0.4500 
 41 H       -7.0690    -8.6370     0.7010 H     1 <1>   0.0800 
 42 H       -7.6920   -10.2310     1.0490 H     1 <1>   0.0800 
 43 H       -6.1130   -12.3280    -0.1970 H     1 <1>   0.0800 
 44 H       -5.4350   -11.6570    -1.6580 H     1 <1>   0.0800 
 45 H       -9.3040    -9.6850    -0.3630 H     1 <1>   0.0800 
 46 H       -8.2680   -12.1550    -0.9460 H     1 <1>   0.0800 
 47 H       -7.4680   -12.3200    -2.4740 H     1 <1>   0.0800 
 48 H       -7.4510    -9.8510    -2.7300 H     1 <1>   0.0800 
 49 H       -9.0770   -10.4600    -2.5770 H     1 <1>   0.0800 
 50 H       -7.6170    -7.5930    -1.7530 H     1 <1>   0.0800 
 51 H       -8.6230    -7.3160    -0.3480 H     1 <1>   0.0800 
 52 H       -9.3670    -8.0300    -2.9480 H     1 <1>   0.4000 
@<TRIPOS>BOND
  1   1   2  1   
  2   2   3  ar  
  3   2   4  ar  
  4   3   5  1   
  5   3   6  ar  
  6   4   7  ar  
  7   4  29  1   
  8   5   8  1   
  9   6   9  ar  
 10   6  30  1   
 11   7   9  ar  
 12   7  31  1   
 13   8  32  1   
 14   8  33  1   
 15   8  34  1   
 16   9  10  1   
 17  10  11  1   
 18  10  12  2   
 19  11  13  1   
 20  12  14  1   
 21  12  15  1   
 22  13  14  2   
 23  14  16  1   
 24  15  17  ar  
 25  15  18  ar  
 26  16  19  1   
 27  16  35  1   
 28  19  20  1   
 29  19  36  1   
 30  19  37  1   
 31  20  21  1   
 32  20  38  1   
 33  20  39  1   
 34  21  22  1   
 35  21  23  1   
 36  21  40  1   
 37  22  24  1   
 38  22  41  1   
 39  22  42  1   
 40  23  25  1   
 41  23  43  1   
 42  23  44  1   
 43  24  26  1   
 44  24  27  1   
 45  24  45  1   
 46  25  26  1   
 47  25  46  1   
 48  25  47  1   
 49  26  48  1   
 50  26  49  1   
 51  27  28  1   
 52  27  50  1   
 53  27  51  1   
 54  28  52  1   
@<TRIPOS>SUBSTRUCTURE
  1 ****  15 GROUP 4 **** **** 0

# MOE 2024.06 (io_trps.svl 2023.06)
