@<TRIPOS>MOLECULE
NONAME
58 63 1 0 0 
SMALL
USER_CHARGES


@<TRIPOS>ATOM
  1 O        0.9460     0.0030     0.4350 O.2   1 <1>  -0.5700 
  2 C        1.2700    -1.1520     0.4220 C.2   1 <1>   0.6590 
  3 O        2.3260    -1.6260    -0.1830 O.3   1 <1>  -0.4300 
  4 C        0.5550    -2.2470     1.0820 C.3   1 <1>  -0.0990 
  5 C        2.7690    -2.9700     0.0390 C.3   1 <1>   0.2800 
  6 C        1.2920    -3.4300     0.4590 C.3   1 <1>  -0.0190 
  7 C        4.1840    -2.4980    -0.4670 C.3   1 <1>  -0.1600 
  8 C        3.3350    -4.4260     0.3590 C.3   1 <1>  -0.1600 
  9 C        0.5160    -3.9520    -0.7600 C.2   1 <1>   0.5690 
 10 C        5.0750    -3.6220    -0.9570 C.3   1 <1>  -0.1600 
 11 C        4.8160    -4.6470     0.0850 C.3   1 <1>  -0.1600 
 12 O        0.9870    -3.7720    -1.8580 O.2   1 <1>  -0.5700 
 13 N       -0.6760    -4.6280    -0.6120 N.am  1 <1>  -0.6600 
 14 C       -1.4480    -5.0870    -1.8040 C.3   1 <1>   0.1400 
 15 C       -1.3340    -5.0200     0.6690 C.3   1 <1>   0.1400 
 16 C       -1.5430    -6.6130    -1.7820 C.3   1 <1>  -0.1600 
 17 C       -1.4100    -6.5470     0.7340 C.3   1 <1>  -0.1600 
 18 C       -2.1600    -7.1200    -0.4730 C.3   1 <1>   0.4600 
 19 O       -3.4840    -6.6410    -0.3690 O.3   1 <1>  -0.5600 
 20 C       -2.1670    -8.6430    -0.4160 C.2   1 <1>  -0.3320 
 21 C       -4.5010    -7.3460    -1.0410 C.3   1 <1>   0.1200 
 22 N       -1.0730    -9.4630    -0.3670 N.pl3 1 <1>   0.0330 
 23 C       -3.2850    -9.3960    -0.4100 C.2   1 <1>  -0.1810 
 24 C       -4.6540    -8.7680    -0.4770 C.3   1 <1>   0.0210 
 25 C       -1.5170   -10.7620    -0.3190 C.ar  1 <1>  -0.1520 
 26 C       -2.9090   -10.7540    -0.3410 C.ar  1 <1>   0.0000 
 27 C       -0.8100   -11.9650    -0.2560 C.ar  1 <1>  -0.1500 
 28 C       -3.6100   -11.9630    -0.2980 C.ar  1 <1>  -0.1500 
 29 C       -1.5120   -13.1480    -0.2160 C.ar  1 <1>  -0.1500 
 30 C       -2.9120   -13.1470    -0.2360 C.ar  1 <1>  -0.1500 
 31 H       -0.4940    -2.2130     0.8520 H     1 <1>   0.0800 
 32 H        0.7200    -2.1840     2.1410 H     1 <1>   0.0800 
 33 H        1.2380    -4.2000     1.2050 H     1 <1>   0.0800 
 34 H        4.6850    -2.0000     0.3460 H     1 <1>   0.0800 
 35 H        4.1410    -1.8060    -1.2980 H     1 <1>   0.0800 
 36 H        2.8230    -5.1590    -0.2430 H     1 <1>   0.0800 
 37 H        3.2120    -4.6870     1.3970 H     1 <1>   0.0800 
 38 H        6.1120    -3.3360    -1.0090 H     1 <1>   0.0800 
 39 H        4.7390    -3.9680    -1.9210 H     1 <1>   0.0800 
 40 H        5.0330    -5.6440    -0.2590 H     1 <1>   0.0800 
 41 H        5.4000    -4.4310     0.9650 H     1 <1>   0.0800 
 42 H       -0.9790    -4.7670    -2.7190 H     1 <1>   0.0800 
 43 H       -2.4350    -4.6560    -1.7730 H     1 <1>   0.0800 
 44 H       -2.3290    -4.6060     0.6920 H     1 <1>   0.0800 
 45 H       -0.8070    -4.6480     1.5260 H     1 <1>   0.0800 
 46 H       -0.5520    -7.0140    -1.8900 H     1 <1>   0.0800 
 47 H       -2.1160    -6.9600    -2.6200 H     1 <1>   0.0800 
 48 H       -1.9140    -6.8520     1.6330 H     1 <1>   0.0800 
 49 H       -0.4130    -6.9430     0.7660 H     1 <1>   0.0800 
 50 H       -4.2580    -7.3840    -2.0880 H     1 <1>   0.0800 
 51 H       -5.4180    -6.7980    -0.9180 H     1 <1>   0.0800 
 52 H       -0.0890    -9.1800    -0.3700 H     1 <1>   0.2700 
 53 H       -5.2960    -9.3450    -1.1180 H     1 <1>   0.0800 
 54 H       -5.0880    -8.7310     0.5050 H     1 <1>   0.0800 
 55 H        0.2650   -11.9580    -0.2410 H     1 <1>   0.1500 
 56 H       -4.6840   -11.9460    -0.3130 H     1 <1>   0.1500 
 57 H       -0.9900   -14.0880    -0.1670 H     1 <1>   0.1500 
 58 H       -3.4370   -14.0850    -0.2020 H     1 <1>   0.1500 
@<TRIPOS>BOND
  1   1   2  2   
  2   2   3  1   
  3   2   4  1   
  4   3   5  1   
  5   4   6  1   
  6   4  31  1   
  7   4  32  1   
  8   5   6  1   
  9   5   7  1   
 10   5   8  1   
 11   6   9  1   
 12   6  33  1   
 13   7  10  1   
 14   7  34  1   
 15   7  35  1   
 16   8  11  1   
 17   8  36  1   
 18   8  37  1   
 19   9  12  2   
 20   9  13  am  
 21  10  11  1   
 22  10  38  1   
 23  10  39  1   
 24  11  40  1   
 25  11  41  1   
 26  13  14  1   
 27  13  15  1   
 28  14  16  1   
 29  14  42  1   
 30  14  43  1   
 31  15  17  1   
 32  15  44  1   
 33  15  45  1   
 34  16  18  1   
 35  16  46  1   
 36  16  47  1   
 37  17  18  1   
 38  17  48  1   
 39  17  49  1   
 40  18  19  1   
 41  18  20  1   
 42  19  21  1   
 43  20  22  1   
 44  20  23  2   
 45  21  24  1   
 46  21  50  1   
 47  21  51  1   
 48  22  25  1   
 49  22  52  1   
 50  23  24  1   
 51  23  26  1   
 52  24  53  1   
 53  24  54  1   
 54  25  26  ar  
 55  25  27  ar  
 56  26  28  ar  
 57  27  29  ar  
 58  27  55  1   
 59  28  30  ar  
 60  28  56  1   
 61  29  30  ar  
 62  29  57  1   
 63  30  58  1   
@<TRIPOS>SUBSTRUCTURE
  1 ****  17 GROUP 4 **** **** 0

# MOE 2024.06 (io_trps.svl 2023.06)
