@<TRIPOS>MOLECULE
NONAME
45 48 1 0 0 
SMALL
USER_CHARGES


@<TRIPOS>ATOM
  1 N       -0.9340    -0.2050     0.9360 N.ar  1 <1>  -0.6200 
  2 C        0.3650    -0.2050     1.1280 C.ar  1 <1>   0.7710 
  3 C       -1.5050    -1.3360     0.5600 C.ar  1 <1>   0.4100 
  4 N        1.1370    -1.2930     0.9630 N.ar  1 <1>  -0.1790 
  5 N        0.9090     0.9490     1.5050 N.pl3 1 <1>  -0.9000 
  6 N       -2.8490    -1.3240     0.3480 N.pl3 1 <1>  -0.8380 
  7 C       -0.7430    -2.5110     0.3930 C.ar  1 <1>  -0.1500 
  8 C        0.5970    -2.4780     0.5950 C.ar  1 <1>   0.2170 
  9 C       -3.7630    -0.3220     1.0060 C.3   1 <1>   0.2090 
 10 C       -3.5940    -2.2610    -0.5460 C.3   1 <1>   0.2090 
 11 C        1.5040    -3.6870     0.4410 C.3   1 <1>  -0.0970 
 12 C       -4.5030     0.5340    -0.0400 C.3   1 <1>   0.1440 
 13 C       -4.3450    -1.4700    -1.6240 C.3   1 <1>  -0.1600 
 14 C       -5.4820     1.4730     0.6400 C.ar  1 <1>   0.1670 
 15 C       -5.2570    -0.3820    -1.0280 C.3   1 <1>  -0.1600 
 16 C       -3.5570     1.5240    -0.7740 C.3   1 <1>  -0.1600 
 17 N       -6.3350     1.1330     1.5770 N.ar  1 <1>  -0.6200 
 18 C       -5.3760     2.7450     0.1580 C.ar  1 <1>  -0.1430 
 19 C       -4.3180     2.8540    -0.9100 C.3   1 <1>  -0.0170 
 20 C       -7.0760     2.1370     2.0200 C.ar  1 <1>   0.7200 
 21 C       -6.2100     3.7010     0.6860 C.ar  1 <1>   0.1600 
 22 N       -7.0780     3.4030     1.6270 N.ar  1 <1>  -0.6200 
 23 N       -7.9580     1.8280     2.9710 N.pl3 1 <1>  -0.9000 
 24 H        2.1300    -1.1860     1.1360 H     1 <1>   0.4570 
 25 H        1.8850     1.1670     1.7080 H     1 <1>   0.4000 
 26 H        0.2730     1.7450     1.6270 H     1 <1>   0.4000 
 27 H       -1.2400    -3.4220     0.1230 H     1 <1>   0.1500 
 28 H       -3.2250     0.3180     1.6820 H     1 <1>   0.0800 
 29 H       -4.4890    -0.8570     1.5930 H     1 <1>   0.0800 
 30 H       -4.2950    -2.8280     0.0440 H     1 <1>   0.0800 
 31 H       -2.9290    -2.9500    -1.0340 H     1 <1>   0.0800 
 32 H        2.2470    -3.5070    -0.3160 H     1 <1>   0.0800 
 33 H        0.9330    -4.5520     0.1480 H     1 <1>   0.0800 
 34 H        1.9950    -3.9120     1.3710 H     1 <1>   0.0800 
 35 H       -4.9420    -2.1510    -2.2050 H     1 <1>   0.0800 
 36 H       -3.6260    -1.0290    -2.2900 H     1 <1>   0.0800 
 37 H       -5.6940     0.2060    -1.8170 H     1 <1>   0.0800 
 38 H       -6.0640    -0.8620    -0.5000 H     1 <1>   0.0800 
 39 H       -3.2250     1.1580    -1.7280 H     1 <1>   0.0800 
 40 H       -2.6880     1.6980    -0.1650 H     1 <1>   0.0800 
 41 H       -4.7860     2.9280    -1.8770 H     1 <1>   0.0800 
 42 H       -3.6720     3.6990    -0.7500 H     1 <1>   0.0800 
 43 H       -6.1650     4.7170     0.3350 H     1 <1>   0.1500 
 44 H       -8.7100     2.4990     3.0910 H     1 <1>   0.4000 
 45 H       -8.2020     0.8450     3.0350 H     1 <1>   0.4000 
@<TRIPOS>BOND
  1   1   2  ar  
  2   1   3  ar  
  3   2   4  ar  
  4   2   5  1   
  5   3   6  1   
  6   3   7  ar  
  7   4   8  ar  
  8   4  24  1   
  9   5  25  1   
 10   5  26  1   
 11   6   9  1   
 12   6  10  1   
 13   7   8  ar  
 14   7  27  1   
 15   8  11  1   
 16   9  12  1   
 17   9  28  1   
 18   9  29  1   
 19  10  13  1   
 20  10  30  1   
 21  10  31  1   
 22  11  32  1   
 23  11  33  1   
 24  11  34  1   
 25  12  14  1   
 26  12  15  1   
 27  12  16  1   
 28  13  15  1   
 29  13  35  1   
 30  13  36  1   
 31  14  17  ar  
 32  14  18  ar  
 33  15  37  1   
 34  15  38  1   
 35  16  19  1   
 36  16  39  1   
 37  16  40  1   
 38  17  20  ar  
 39  18  19  1   
 40  18  21  ar  
 41  19  41  1   
 42  19  42  1   
 43  20  22  ar  
 44  20  23  1   
 45  21  22  ar  
 46  21  43  1   
 47  23  44  1   
 48  23  45  1   
@<TRIPOS>SUBSTRUCTURE
  1 ****   9 GROUP 4 **** **** 0

# MOE 2024.06 (io_trps.svl 2023.06)
