@<TRIPOS>MOLECULE
NONAME
44 46 1 0 0 
SMALL
USER_CHARGES


@<TRIPOS>ATOM
  1 S        0.0320    -0.2360     1.3040 S.3   1 <1>  -0.0800 
  2 C        1.1200    -0.0070    -0.0560 C.2   1 <1>   0.1980 
  3 C       -0.9120     1.1150     0.7520 C.2   1 <1>  -0.1100 
  4 N        0.8030     0.9760    -0.8080 N.2   1 <1>  -0.5650 
  5 C        2.3180    -0.9510    -0.1880 C.3   1 <1>   0.4000 
  6 C       -0.3470     1.6070    -0.3600 C.2   1 <1>   0.0770 
  7 N        1.9920    -2.3740     0.1020 N.am  1 <1>  -0.6600 
  8 C        3.4270    -0.5970     0.8110 C.3   1 <1>  -0.1600 
  9 C        1.3570    -3.1810    -0.8100 C.2   1 <1>   0.5440 
 10 C        2.7540    -2.8670     1.2660 C.3   1 <1>   0.1400 
 11 C        3.9500    -1.9300     1.3470 C.3   1 <1>  -0.1600 
 12 O        1.0200    -2.7020    -1.8760 O.2   1 <1>  -0.5700 
 13 C        1.1120    -4.5810    -0.5480 C.ar  1 <1>   0.0860 
 14 C        0.3360    -5.0340     0.5250 C.ar  1 <1>   0.0820 
 15 C        1.6760    -5.5480    -1.3770 C.ar  1 <1>  -0.1500 
 16 O       -0.2800    -4.1780     1.3680 O.3   1 <1>  -0.3630 
 17 C        0.1740    -6.3860     0.7740 C.ar  1 <1>  -0.1500 
 18 C        1.5240    -6.9020    -1.1450 C.ar  1 <1>   0.0820 
 19 C       -1.3880    -3.4630     0.8620 C.3   1 <1>   0.0400 
 20 C        0.7550    -7.3410    -0.0530 C.ar  1 <1>   0.0820 
 21 O        2.1560    -7.7180    -2.0370 O.3   1 <1>  -0.3630 
 22 O        0.5760    -8.6720     0.1620 O.3   1 <1>  -0.3630 
 23 C        2.7710    -8.9110    -1.6030 C.3   1 <1>   0.0400 
 24 C       -0.2850    -9.1690     1.1650 C.3   1 <1>   0.0400 
 25 H       -1.7830     1.3920     1.3150 H     1 <1>   0.1500 
 26 H        2.7030    -0.8840    -1.1920 H     1 <1>   0.0800 
 27 H       -0.7090     2.4450    -0.9300 H     1 <1>   0.1500 
 28 H        3.0150    -0.0220     1.6210 H     1 <1>   0.0800 
 29 H        4.2000    -0.0160     0.3410 H     1 <1>   0.0800 
 30 H        3.0640    -3.8910     1.1390 H     1 <1>   0.0800 
 31 H        2.1400    -2.7800     2.1470 H     1 <1>   0.0800 
 32 H        4.3280    -1.8500     2.3510 H     1 <1>   0.0800 
 33 H        4.7300    -2.3030     0.7060 H     1 <1>   0.0800 
 34 H        2.2560    -5.2290    -2.2250 H     1 <1>   0.1500 
 35 H       -0.4200    -6.6620     1.6230 H     1 <1>   0.1500 
 36 H       -1.8150    -2.8910     1.6660 H     1 <1>   0.0800 
 37 H       -2.1110    -4.1640     0.4820 H     1 <1>   0.0800 
 38 H       -1.0650    -2.8010     0.0780 H     1 <1>   0.0800 
 39 H        3.5210    -9.1830    -2.3240 H     1 <1>   0.0800 
 40 H        2.0270    -9.6850    -1.5460 H     1 <1>   0.0800 
 41 H        3.2250    -8.7470    -0.6420 H     1 <1>   0.0800 
 42 H       -0.2890   -10.2420     1.0990 H     1 <1>   0.0800 
 43 H       -1.2770    -8.7890     0.9930 H     1 <1>   0.0800 
 44 H        0.0860    -8.8640     2.1270 H     1 <1>   0.0800 
@<TRIPOS>BOND
  1   1   2  1   
  2   1   3  1   
  3   2   4  2   
  4   2   5  1   
  5   3   6  2   
  6   3  25  1   
  7   4   6  1   
  8   5   7  1   
  9   5   8  1   
 10   5  26  1   
 11   6  27  1   
 12   7   9  am  
 13   7  10  1   
 14   8  11  1   
 15   8  28  1   
 16   8  29  1   
 17   9  12  2   
 18   9  13  1   
 19  10  11  1   
 20  10  30  1   
 21  10  31  1   
 22  11  32  1   
 23  11  33  1   
 24  13  14  ar  
 25  13  15  ar  
 26  14  16  1   
 27  14  17  ar  
 28  15  18  ar  
 29  15  34  1   
 30  16  19  1   
 31  17  20  ar  
 32  17  35  1   
 33  18  20  ar  
 34  18  21  1   
 35  19  36  1   
 36  19  37  1   
 37  19  38  1   
 38  20  22  1   
 39  21  23  1   
 40  22  24  1   
 41  23  39  1   
 42  23  40  1   
 43  23  41  1   
 44  24  42  1   
 45  24  43  1   
 46  24  44  1   
@<TRIPOS>SUBSTRUCTURE
  1 ****   9 GROUP 4 **** **** 0

# MOE 2024.06 (io_trps.svl 2023.06)
