@<TRIPOS>MOLECULE
NONAME
51 53 1 0 0 
SMALL
USER_CHARGES


@<TRIPOS>ATOM
  1 O        0.1070    -0.7790    -1.2180 O.3   1 <1>  -0.0190 
  2 N       -0.2410    -0.6740     0.0300 N.2   1 <1>  -0.4100 
  3 C        0.0160    -2.0070    -1.6480 C.2   1 <1>  -0.0400 
  4 C       -0.5580    -1.8530     0.4190 C.2   1 <1>   0.1080 
  5 C       -0.4330    -2.7630    -0.6310 C.2   1 <1>  -0.1810 
  6 C        0.4060    -2.3050    -3.0820 C.3   1 <1>  -0.0600 
  7 C       -0.9880    -2.1590     1.8400 C.3   1 <1>  -0.0590 
  8 C       -0.7450    -4.2380    -0.5850 C.3   1 <1>   0.5240 
  9 N       -1.9860    -4.4680    -1.3750 N.4   1 <1>  -0.9590 
 10 C       -2.1700    -5.9060    -1.8090 C.3   1 <1>   0.3430 
 11 C       -3.1790    -3.8510    -0.7270 C.3   1 <1>   0.3430 
 12 C       -2.9440    -6.8640    -0.8620 C.3   1 <1>   0.0000 
 13 C       -3.6700    -4.7160     0.4250 C.3   1 <1>  -0.1600 
 14 C       -4.0620    -6.0850    -0.1170 C.3   1 <1>   0.2000 
 15 C       -3.6790    -7.8840    -1.7680 C.3   1 <1>   0.1200 
 16 C       -1.9880    -7.7090     0.0460 C.3   1 <1>  -0.0170 
 17 O       -4.6020    -6.8280     0.9110 O.3   1 <1>  -0.6800 
 18 O       -2.8060    -8.3800    -2.7290 O.3   1 <1>  -0.6800 
 19 C       -0.8900    -6.9820     0.8090 C.ar  1 <1>  -0.1440 
 20 C        0.3860    -6.9080     0.2670 C.ar  1 <1>  -0.1500 
 21 C       -1.1240    -6.4350     2.0620 C.ar  1 <1>  -0.1500 
 22 C        1.3980    -6.2500     0.9430 C.ar  1 <1>  -0.1500 
 23 C       -0.1130    -5.7770     2.7390 C.ar  1 <1>  -0.1500 
 24 C        1.1470    -5.6770     2.1760 C.ar  1 <1>  -0.1500 
 25 H        0.3230    -3.3540    -3.2990 H     1 <1>   0.0800 
 26 H        1.4250    -2.0010    -3.2460 H     1 <1>   0.0800 
 27 H       -0.2250    -1.7520    -3.7550 H     1 <1>   0.0800 
 28 H       -0.3780    -2.9420     2.2500 H     1 <1>   0.0800 
 29 H       -2.0200    -2.4500     1.8680 H     1 <1>   0.0800 
 30 H       -0.8650    -1.2820     2.4510 H     1 <1>   0.0800 
 31 H       -0.8700    -4.5580     0.4340 H     1 <1>   0.0800 
 32 H        0.0770    -4.7820    -1.0190 H     1 <1>   0.0800 
 33 H       -1.8190    -3.9190    -2.2280 H     1 <1>   0.4500 
 34 H       -2.7180    -5.8890    -2.7370 H     1 <1>   0.0800 
 35 H       -1.2130    -6.3470    -2.0380 H     1 <1>   0.0800 
 36 H       -2.9410    -2.8620    -0.3700 H     1 <1>   0.0800 
 37 H       -3.9720    -3.7550    -1.4530 H     1 <1>   0.0800 
 38 H       -4.5410    -4.2480     0.8500 H     1 <1>   0.0800 
 39 H       -2.9230    -4.7790     1.1880 H     1 <1>   0.0800 
 40 H       -4.8750    -5.9160    -0.8060 H     1 <1>   0.0800 
 41 H       -4.5030    -7.4290    -2.2910 H     1 <1>   0.0800 
 42 H       -4.0580    -8.7110    -1.1870 H     1 <1>   0.0800 
 43 H       -2.5610    -8.2930     0.7450 H     1 <1>   0.0800 
 44 H       -1.4890    -8.4400    -0.5680 H     1 <1>   0.0800 
 45 H       -3.9630    -6.9650     1.6360 H     1 <1>   0.4000 
 46 H       -3.2130    -9.1290    -3.2180 H     1 <1>   0.4000 
 47 H        0.6070    -7.3710    -0.6810 H     1 <1>   0.1500 
 48 H       -2.0880    -6.5270     2.5320 H     1 <1>   0.1500 
 49 H        2.3880    -6.1960     0.5200 H     1 <1>   0.1500 
 50 H       -0.2980    -5.3560     3.7130 H     1 <1>   0.1500 
 51 H        1.9370    -5.1690     2.7060 H     1 <1>   0.1500 
@<TRIPOS>BOND
  1   1   2  1   
  2   1   3  1   
  3   2   4  2   
  4   3   5  2   
  5   3   6  1   
  6   4   5  1   
  7   4   7  1   
  8   5   8  1   
  9   6  25  1   
 10   6  26  1   
 11   6  27  1   
 12   7  28  1   
 13   7  29  1   
 14   7  30  1   
 15   8   9  1   
 16   8  31  1   
 17   8  32  1   
 18   9  10  1   
 19   9  11  1   
 20   9  33  1   
 21  10  12  1   
 22  10  34  1   
 23  10  35  1   
 24  11  13  1   
 25  11  36  1   
 26  11  37  1   
 27  12  14  1   
 28  12  15  1   
 29  12  16  1   
 30  13  14  1   
 31  13  38  1   
 32  13  39  1   
 33  14  17  1   
 34  14  40  1   
 35  15  18  1   
 36  15  41  1   
 37  15  42  1   
 38  16  19  1   
 39  16  43  1   
 40  16  44  1   
 41  17  45  1   
 42  18  46  1   
 43  19  20  ar  
 44  19  21  ar  
 45  20  22  ar  
 46  20  47  1   
 47  21  23  ar  
 48  21  48  1   
 49  22  24  ar  
 50  22  49  1   
 51  23  24  ar  
 52  23  50  1   
 53  24  51  1   
@<TRIPOS>SUBSTRUCTURE
  1 ****   8 GROUP 4 **** **** 0

# MOE 2024.06 (io_trps.svl 2023.06)
