@<TRIPOS>MOLECULE
NONAME
51 54 1 0 0 
SMALL
USER_CHARGES


@<TRIPOS>ATOM
  1 S       -0.0630    -0.7500     0.3100 S.3   1 <1>  -0.0800 
  2 C       -1.6370    -1.2880    -0.1710 C.2   1 <1>   0.4420 
  3 C       -0.7560     0.8150     0.5660 C.2   1 <1>   0.1980 
  4 N       -2.5110    -0.3540    -0.1130 N.2   1 <1>  -0.3380 
  5 N       -1.7680    -2.6170    -0.5220 N.am  1 <1>  -0.4940 
  6 N       -2.0020     0.8420     0.3070 N.2   1 <1>  -0.3380 
  7 C        0.1700     1.9200     1.0480 C.3   1 <1>   0.0200 
  8 C       -2.8670    -3.2320    -1.0700 C.2   1 <1>   0.5690 
  9 C       -0.5500     3.2610     1.2460 C.3   1 <1>  -0.2400 
 10 O       -3.8060    -2.6190    -1.5180 O.2   1 <1>  -0.5700 
 11 C       -2.9730    -4.7790    -1.1510 C.3   1 <1>   0.4840 
 12 N       -4.4180    -5.2190    -1.2470 N.4   1 <1>  -0.9590 
 13 C       -2.2700    -5.5090     0.0060 C.3   1 <1>  -0.2400 
 14 C       -5.1990    -4.9770     0.0090 C.3   1 <1>   0.3430 
 15 C       -4.5910    -6.5890    -1.8140 C.3   1 <1>   0.3430 
 16 C       -6.6790    -5.2370    -0.2390 C.3   1 <1>  -0.1600 
 17 C       -6.0670    -6.8620    -2.0770 C.3   1 <1>  -0.1600 
 18 C       -6.9190    -6.6290    -0.8280 C.3   1 <1>   0.2820 
 19 C       -6.7550    -7.7480     0.2140 C.ar  1 <1>  -0.1440 
 20 C       -8.3900    -6.7990    -1.1700 C.2   1 <1>  -0.2880 
 21 C       -7.9680    -8.3990     0.3790 C.ar  1 <1>   0.0280 
 22 C       -5.6480    -8.1530     0.9460 C.ar  1 <1>  -0.1500 
 23 C       -8.9410    -7.7980    -0.4760 C.2   1 <1>  -0.1780 
 24 C       -8.0890    -9.4560     1.2680 C.ar  1 <1>  -0.1500 
 25 C       -5.7690    -9.2100     1.8360 C.ar  1 <1>  -0.1500 
 26 C       -6.9840    -9.8590     1.9960 C.ar  1 <1>  -0.1500 
 27 H       -0.9410    -3.1750    -0.3230 H     1 <1>   0.3700 
 28 H        0.9590     2.0470     0.3280 H     1 <1>   0.0800 
 29 H        0.6130     1.6170     1.9800 H     1 <1>   0.0800 
 30 H       -0.9860     3.5890     0.3190 H     1 <1>   0.0800 
 31 H        0.1430     4.0100     1.5860 H     1 <1>   0.0800 
 32 H       -1.3340     3.1580     1.9760 H     1 <1>   0.0800 
 33 H       -2.4820    -5.0640    -2.0670 H     1 <1>   0.0800 
 34 H       -4.8190    -4.5410    -1.9210 H     1 <1>   0.4500 
 35 H       -2.6260    -5.1620     0.9600 H     1 <1>   0.0800 
 36 H       -1.2120    -5.3250    -0.0370 H     1 <1>   0.0800 
 37 H       -2.4100    -6.5720    -0.0630 H     1 <1>   0.0800 
 38 H       -5.0720    -3.9550     0.3310 H     1 <1>   0.0800 
 39 H       -4.8490    -5.6240     0.7960 H     1 <1>   0.0800 
 40 H       -4.2090    -7.3250    -1.1260 H     1 <1>   0.0800 
 41 H       -4.0450    -6.6790    -2.7390 H     1 <1>   0.0800 
 42 H       -7.0610    -4.4860    -0.9070 H     1 <1>   0.0800 
 43 H       -7.2170    -5.1460     0.6880 H     1 <1>   0.0800 
 44 H       -6.1890    -7.8800    -2.4030 H     1 <1>   0.0800 
 45 H       -6.4080    -6.2250    -2.8740 H     1 <1>   0.0800 
 46 H       -8.8530    -6.1500    -1.8940 H     1 <1>   0.1500 
 47 H       -4.6940    -7.6760     0.8500 H     1 <1>   0.1500 
 48 H       -9.9580    -8.1500    -0.5070 H     1 <1>   0.1500 
 49 H       -9.0360    -9.9520     1.3850 H     1 <1>   0.1500 
 50 H       -4.9180    -9.5350     2.4100 H     1 <1>   0.1500 
 51 H       -7.0690   -10.6790     2.6890 H     1 <1>   0.1500 
@<TRIPOS>BOND
  1   1   2  1   
  2   1   3  1   
  3   2   4  2   
  4   2   5  1   
  5   3   6  2   
  6   3   7  1   
  7   4   6  1   
  8   5   8  am  
  9   5  27  1   
 10   7   9  1   
 11   7  28  1   
 12   7  29  1   
 13   8  10  2   
 14   8  11  1   
 15   9  30  1   
 16   9  31  1   
 17   9  32  1   
 18  11  12  1   
 19  11  13  1   
 20  11  33  1   
 21  12  14  1   
 22  12  15  1   
 23  12  34  1   
 24  13  35  1   
 25  13  36  1   
 26  13  37  1   
 27  14  16  1   
 28  14  38  1   
 29  14  39  1   
 30  15  17  1   
 31  15  40  1   
 32  15  41  1   
 33  16  18  1   
 34  16  42  1   
 35  16  43  1   
 36  17  18  1   
 37  17  44  1   
 38  17  45  1   
 39  18  19  1   
 40  18  20  1   
 41  19  21  ar  
 42  19  22  ar  
 43  20  23  2   
 44  20  46  1   
 45  21  23  1   
 46  21  24  ar  
 47  22  25  ar  
 48  22  47  1   
 49  23  48  1   
 50  24  26  ar  
 51  24  49  1   
 52  25  26  ar  
 53  25  50  1   
 54  26  51  1   
@<TRIPOS>SUBSTRUCTURE
  1 ****  14 GROUP 4 **** **** 0

# MOE 2024.06 (io_trps.svl 2023.06)
