@<TRIPOS>MOLECULE
NONAME
43 46 1 0 0 
SMALL
USER_CHARGES


@<TRIPOS>ATOM
  1 O        0.5650     0.4660     0.7520 O.2   1 <1>  -0.5700 
  2 C        0.4290     1.5990     0.3560 C.2   1 <1>   0.5690 
  3 N        1.3470     2.5830     0.6280 N.am  1 <1>  -0.6600 
  4 C       -0.7940     1.8850    -0.5000 C.3   1 <1>  -0.0990 
  5 C        1.1600     4.0170     0.2500 C.3   1 <1>   0.2200 
  6 C        2.6260     2.2580     1.3030 C.3   1 <1>   0.1400 
  7 C       -1.0880     3.3760    -0.6990 C.3   1 <1>  -0.1600 
  8 C        2.5000     4.7460    -0.0210 C.3   1 <1>  -0.0800 
  9 C        0.2190     4.1280    -0.9590 C.3   1 <1>  -0.1600 
 10 C        3.7750     2.4830     0.3130 C.3   1 <1>  -0.0800 
 11 C        3.6090     3.7890    -0.5200 C.3   1 <1>   0.1760 
 12 C        2.9610     5.5990     1.1770 C.3   1 <1>  -0.1600 
 13 C        5.1310     2.3510     1.0270 C.3   1 <1>  -0.1600 
 14 N        4.9060     4.5140    -0.7630 N.4   1 <1>  -0.0180 
 15 C        4.2130     6.3890     0.7870 C.3   1 <1>  -0.1600 
 16 C        6.3090     2.5940     0.0660 C.3   1 <1>  -0.1600 
 17 O        4.7370     5.2550    -1.8800 O.2   1 <1>  -0.7500 
 18 C        5.3350     5.4570     0.3130 C.3   1 <1>   0.0960 
 19 C        5.9850     3.5580    -1.0930 C.3   1 <1>   0.0960 
 20 H       -0.6210     1.4290    -1.4580 H     1 <1>   0.0800 
 21 H       -1.6470     1.4030    -0.0590 H     1 <1>   0.0800 
 22 H        0.6720     4.5050     1.0770 H     1 <1>   0.0800 
 23 H        2.7330     2.8770     2.1740 H     1 <1>   0.0800 
 24 H        2.6350     1.2330     1.6350 H     1 <1>   0.0800 
 25 H       -1.7660     3.5070    -1.5250 H     1 <1>   0.0800 
 26 H       -1.5570     3.7700     0.1860 H     1 <1>   0.0800 
 27 H        2.3260     5.4450    -0.8220 H     1 <1>   0.0800 
 28 H       -0.0030     5.1650    -1.1420 H     1 <1>   0.0800 
 29 H        0.7050     3.7370    -1.8370 H     1 <1>   0.0800 
 30 H        3.7150     1.6730    -0.3940 H     1 <1>   0.0800 
 31 H        3.2850     3.4590    -1.4910 H     1 <1>   0.0800 
 32 H        2.1830     6.2920     1.4500 H     1 <1>   0.0800 
 33 H        3.1750     4.9860     2.0330 H     1 <1>   0.0800 
 34 H        5.1740     3.0590     1.8350 H     1 <1>   0.0800 
 35 H        5.2240     1.3700     1.4620 H     1 <1>   0.0800 
 36 H        4.5600     6.9660     1.6250 H     1 <1>   0.0800 
 37 H        3.9810     7.0760    -0.0090 H     1 <1>   0.0800 
 38 H        6.6170     1.6580    -0.3670 H     1 <1>   0.0800 
 39 H        7.1500     2.9730     0.6200 H     1 <1>   0.0800 
 40 H        5.6870     4.8880     1.1510 H     1 <1>   0.0800 
 41 H        6.1540     6.0400    -0.0650 H     1 <1>   0.0800 
 42 H        5.6540     2.9890    -1.9420 H     1 <1>   0.0800 
 43 H        6.8620     4.1100    -1.3780 H     1 <1>   0.0800 
@<TRIPOS>BOND
  1   1   2  2   
  2   2   3  am  
  3   2   4  1   
  4   3   5  1   
  5   3   6  1   
  6   4   7  1   
  7   4  20  1   
  8   4  21  1   
  9   5   8  1   
 10   5   9  1   
 11   5  22  1   
 12   6  10  1   
 13   6  23  1   
 14   6  24  1   
 15   7   9  1   
 16   7  25  1   
 17   7  26  1   
 18   8  11  1   
 19   8  12  1   
 20   8  27  1   
 21   9  28  1   
 22   9  29  1   
 23  10  11  1   
 24  10  13  1   
 25  10  30  1   
 26  11  14  1   
 27  11  31  1   
 28  12  15  1   
 29  12  32  1   
 30  12  33  1   
 31  13  16  1   
 32  13  34  1   
 33  13  35  1   
 34  14  17  2   
 35  14  18  1   
 36  14  19  1   
 37  15  18  1   
 38  15  36  1   
 39  15  37  1   
 40  16  19  1   
 41  16  38  1   
 42  16  39  1   
 43  18  40  1   
 44  18  41  1   
 45  19  42  1   
 46  19  43  1   
@<TRIPOS>SUBSTRUCTURE
  1 ****  11 GROUP 4 **** **** 0

# MOE 2024.06 (io_trps.svl 2023.06)
