@<TRIPOS>MOLECULE
NONAME
55 57 1 0 0 
SMALL
USER_CHARGES


@<TRIPOS>ATOM
  1 CL       0.0150    -0.6640     0.1360 Cl    1 <1>  -0.1770 
  2 C       -1.6310    -0.1270     0.3530 C.ar  1 <1>   0.1770 
  3 C       -2.6520    -1.0560     0.3360 C.ar  1 <1>  -0.1500 
  4 C       -1.8810     1.2200     0.5370 C.ar  1 <1>  -0.1500 
  5 C       -3.9720    -0.6460     0.5040 C.ar  1 <1>   0.1170 
  6 C       -3.1880     1.6400     0.7090 C.ar  1 <1>  -0.1500 
  7 N       -5.0260    -1.5810     0.4750 N.am  1 <1>  -0.4770 
  8 C       -4.2180     0.7130     0.6910 C.ar  1 <1>  -0.1500 
  9 C       -6.1940    -1.5670     1.1810 C.2   1 <1>   0.5690 
 10 C       -4.9780    -2.7680    -0.4070 C.3   1 <1>   0.1400 
 11 O       -6.5640    -0.7420     1.9780 O.2   1 <1>  -0.5700 
 12 C       -7.0590    -2.7440     0.8330 C.3   1 <1>  -0.0990 
 13 C       -6.4360    -3.2570    -0.4720 C.3   1 <1>  -0.0190 
 14 C       -6.5890    -4.7620    -0.6860 C.2   1 <1>   0.5690 
 15 O       -5.6230    -5.4570    -0.4860 O.2   1 <1>  -0.5700 
 16 N       -7.7800    -5.3110    -1.0950 N.am  1 <1>  -0.6600 
 17 C       -7.8120    -6.7400    -1.5650 C.3   1 <1>   0.3210 
 18 C       -9.0940    -4.6070    -1.1850 C.3   1 <1>   0.1400 
 19 C       -8.6850    -7.6280    -0.6780 C.2   1 <1>   0.0460 
 20 C       -9.8740    -4.7350     0.1400 C.3   1 <1>   0.3430 
 21 N      -10.0270    -7.6990    -0.8400 N.2   1 <1>  -0.5650 
 22 C       -8.2770    -8.4530     0.3140 C.2   1 <1>  -0.3320 
 23 N      -11.3120    -4.3170     0.0150 N.4   1 <1>  -0.9590 
 24 C      -10.3930    -8.5880     0.0270 C.2   1 <1>   0.0360 
 25 N       -9.3770    -9.0820     0.7640 N.pl3 1 <1>   0.0330 
 26 C       -6.8900    -8.7200     0.8770 C.3   1 <1>  -0.0600 
 27 C      -11.9160    -4.1500     1.3720 C.3   1 <1>   0.2630 
 28 C      -12.0890    -5.3390    -0.7610 C.3   1 <1>   0.2630 
 29 H       -2.4070    -2.0910     0.2010 H     1 <1>   0.1500 
 30 H       -1.0670     1.9220     0.5460 H     1 <1>   0.1500 
 31 H       -3.4060     2.6840     0.8580 H     1 <1>   0.1500 
 32 H       -5.2290     1.0550     0.8270 H     1 <1>   0.1500 
 33 H       -4.3320    -3.5010     0.0450 H     1 <1>   0.0800 
 34 H       -4.6060    -2.5090    -1.3830 H     1 <1>   0.0800 
 35 H       -8.0760    -2.4280     0.7080 H     1 <1>   0.0800 
 36 H       -6.9770    -3.4720     1.6210 H     1 <1>   0.0800 
 37 H       -6.8870    -2.7460    -1.3020 H     1 <1>   0.0800 
 38 H       -6.8200    -7.1540    -1.5940 H     1 <1>   0.0800 
 39 H       -8.1910    -6.7780    -2.5710 H     1 <1>   0.0800 
 40 H       -9.6590    -5.0500    -1.9860 H     1 <1>   0.0800 
 41 H       -8.9460    -3.5690    -1.4210 H     1 <1>   0.0800 
 42 H       -9.3880    -4.1270     0.8830 H     1 <1>   0.0800 
 43 H       -9.8330    -5.7560     0.4780 H     1 <1>   0.0800 
 44 H      -11.3640    -3.4130    -0.4780 H     1 <1>   0.4500 
 45 H      -11.4060    -8.9290     0.1640 H     1 <1>   0.1500 
 46 H       -9.4290    -9.8030     1.4910 H     1 <1>   0.2700 
 47 H       -6.1590    -8.0760     0.4220 H     1 <1>   0.0800 
 48 H       -6.6040    -9.7410     0.6930 H     1 <1>   0.0800 
 49 H       -6.8770    -8.5420     1.9380 H     1 <1>   0.0800 
 50 H      -11.8790    -5.0810     1.9150 H     1 <1>   0.0800 
 51 H      -12.9460    -3.8410     1.2890 H     1 <1>   0.0800 
 52 H      -11.3790    -3.4020     1.9340 H     1 <1>   0.0800 
 53 H      -12.0510    -6.2940    -0.2620 H     1 <1>   0.0800 
 54 H      -11.6770    -5.4620    -1.7490 H     1 <1>   0.0800 
 55 H      -13.1210    -5.0390    -0.8540 H     1 <1>   0.0800 
@<TRIPOS>BOND
  1   1   2  1   
  2   2   3  ar  
  3   2   4  ar  
  4   3   5  ar  
  5   3  29  1   
  6   4   6  ar  
  7   4  30  1   
  8   5   7  1   
  9   5   8  ar  
 10   6   8  ar  
 11   6  31  1   
 12   7   9  am  
 13   7  10  1   
 14   8  32  1   
 15   9  11  2   
 16   9  12  1   
 17  10  13  1   
 18  10  33  1   
 19  10  34  1   
 20  12  13  1   
 21  12  35  1   
 22  12  36  1   
 23  13  14  1   
 24  13  37  1   
 25  14  15  2   
 26  14  16  am  
 27  16  17  1   
 28  16  18  1   
 29  17  19  1   
 30  17  38  1   
 31  17  39  1   
 32  18  20  1   
 33  18  40  1   
 34  18  41  1   
 35  19  21  1   
 36  19  22  2   
 37  20  23  1   
 38  20  42  1   
 39  20  43  1   
 40  21  24  2   
 41  22  25  1   
 42  22  26  1   
 43  23  27  1   
 44  23  28  1   
 45  23  44  1   
 46  24  25  1   
 47  24  45  1   
 48  25  46  1   
 49  26  47  1   
 50  26  48  1   
 51  26  49  1   
 52  27  50  1   
 53  27  51  1   
 54  27  52  1   
 55  28  53  1   
 56  28  54  1   
 57  28  55  1   
@<TRIPOS>SUBSTRUCTURE
  1 ****  13 GROUP 4 **** **** 0

# MOE 2024.06 (io_trps.svl 2023.06)
