@<TRIPOS>MOLECULE
NONAME
43 46 1 0 0 
SMALL
USER_CHARGES


@<TRIPOS>ATOM
  1 F       -1.4660    -0.2200    -1.7030 F     1 <1>  -0.1900 
  2 C       -1.8770    -0.9860    -0.7290 C.ar  1 <1>   0.1900 
  3 C       -2.1460    -0.4290     0.5090 C.ar  1 <1>   0.1600 
  4 C       -2.0370    -2.3320    -0.9580 C.ar  1 <1>  -0.1500 
  5 N       -2.5650    -1.1380     1.5500 N.ar  1 <1>  -0.6200 
  6 C       -2.4840    -3.0960     0.1120 C.ar  1 <1>   0.0860 
  7 C       -2.7090    -2.4380     1.3250 C.ar  1 <1>   0.1600 
  8 C       -2.7060    -4.5210    -0.0110 C.2   1 <1>   0.5440 
  9 O       -1.9180    -5.1950    -0.6430 O.2   1 <1>  -0.5700 
 10 N       -3.8000    -5.1370     0.5530 N.am  1 <1>  -0.6600 
 11 C       -3.8770    -6.6280     0.6930 C.3   1 <1>   0.1400 
 12 C       -5.1420    -4.4830     0.6710 C.3   1 <1>   0.1400 
 13 C       -4.9760    -7.2160    -0.2100 C.3   1 <1>   0.3440 
 14 C       -6.1770    -5.1900    -0.2280 C.3   1 <1>   0.2950 
 15 O       -6.1960    -6.5620     0.0320 O.3   1 <1>  -0.5600 
 16 C       -5.1330    -8.7120     0.0450 C.ar  1 <1>  -0.1440 
 17 C       -7.5900    -4.6540     0.0190 C.3   1 <1>  -0.1950 
 18 C       -6.0130    -9.1980     1.0040 C.ar  1 <1>  -0.1500 
 19 C       -4.3700    -9.6120    -0.6850 C.ar  1 <1>  -0.1500 
 20 C       -8.6620    -4.7920    -1.0150 C.3   1 <1>  -0.2000 
 21 C       -8.0930    -3.4380    -0.6950 C.3   1 <1>  -0.2000 
 22 C       -6.1260   -10.5590     1.2290 C.ar  1 <1>  -0.1500 
 23 C       -4.4820   -10.9730    -0.4610 C.ar  1 <1>  -0.1500 
 24 C       -5.3600   -11.4480     0.4970 C.ar  1 <1>  -0.1500 
 25 H       -2.0090     0.6310     0.6430 H     1 <1>   0.1500 
 26 H       -1.8250    -2.7720    -1.9160 H     1 <1>   0.1500 
 27 H       -3.0300    -3.0350     2.1630 H     1 <1>   0.1500 
 28 H       -2.9350    -7.0840     0.4430 H     1 <1>   0.0800 
 29 H       -4.0950    -6.8780     1.7160 H     1 <1>   0.0800 
 30 H       -5.4710    -4.5300     1.6940 H     1 <1>   0.0800 
 31 H       -5.0900    -3.4480     0.3840 H     1 <1>   0.0800 
 32 H       -4.7160    -7.0600    -1.2430 H     1 <1>   0.0800 
 33 H       -5.9170    -5.0500    -1.2640 H     1 <1>   0.0800 
 34 H       -7.8900    -4.7760     1.0460 H     1 <1>   0.1000 
 35 H       -6.6160    -8.5150     1.5770 H     1 <1>   0.1500 
 36 H       -3.6810    -9.2580    -1.4330 H     1 <1>   0.1500 
 37 H       -8.4160    -5.2590    -1.9530 H     1 <1>   0.1000 
 38 H       -9.6590    -5.0330    -0.6870 H     1 <1>   0.1000 
 39 H       -8.7090    -2.7370    -0.1590 H     1 <1>   0.1000 
 40 H       -7.4790    -2.9600    -1.4400 H     1 <1>   0.1000 
 41 H       -6.8120   -10.9240     1.9730 H     1 <1>   0.1500 
 42 H       -3.8860   -11.6630    -1.0320 H     1 <1>   0.1500 
 43 H       -5.4480   -12.5060     0.6710 H     1 <1>   0.1500 
@<TRIPOS>BOND
  1   1   2  1   
  2   2   3  ar  
  3   2   4  ar  
  4   3   5  ar  
  5   3  25  1   
  6   4   6  ar  
  7   4  26  1   
  8   5   7  ar  
  9   6   7  ar  
 10   6   8  1   
 11   7  27  1   
 12   8   9  2   
 13   8  10  am  
 14  10  11  1   
 15  10  12  1   
 16  11  13  1   
 17  11  28  1   
 18  11  29  1   
 19  12  14  1   
 20  12  30  1   
 21  12  31  1   
 22  13  15  1   
 23  13  16  1   
 24  13  32  1   
 25  14  15  1   
 26  14  17  1   
 27  14  33  1   
 28  16  18  ar  
 29  16  19  ar  
 30  17  20  1   
 31  17  21  1   
 32  17  34  1   
 33  18  22  ar  
 34  18  35  1   
 35  19  23  ar  
 36  19  36  1   
 37  20  21  1   
 38  20  37  1   
 39  20  38  1   
 40  21  39  1   
 41  21  40  1   
 42  22  24  ar  
 43  22  41  1   
 44  23  24  ar  
 45  23  42  1   
 46  24  43  1   
@<TRIPOS>SUBSTRUCTURE
  1 ****  10 GROUP 4 **** **** 0

# MOE 2024.06 (io_trps.svl 2023.06)
