@<TRIPOS>MOLECULE
NONAME
43 45 1 0 0 
SMALL
USER_CHARGES


@<TRIPOS>ATOM
  1 F       -1.9070    -0.9800    -0.5630 F     1 <1>  -0.1900 
  2 C       -2.2270     0.0960     0.1110 C.ar  1 <1>   0.1900 
  3 C       -1.7830     1.3520    -0.3160 C.ar  1 <1>   0.0820 
  4 C       -3.0250    -0.0740     1.2410 C.ar  1 <1>   0.0860 
  5 O       -1.0020     1.6150    -1.4010 O.3   1 <1>  -0.3630 
  6 C       -2.1630     2.4630     0.4210 C.ar  1 <1>  -0.1500 
  7 C       -3.4950    -1.3700     1.6730 C.2   1 <1>   0.5440 
  8 C       -3.3660     1.0720     1.9600 C.ar  1 <1>  -0.1500 
  9 C       -0.1750     0.6400    -1.9980 C.3   1 <1>   0.0400 
 10 C       -2.9460     2.3260     1.5540 C.ar  1 <1>  -0.1500 
 11 O       -3.1280    -1.8180     2.7410 O.2   1 <1>  -0.5700 
 12 N       -4.3900    -2.1010     0.9290 N.am  1 <1>  -0.6600 
 13 C       -5.0540    -1.6600    -0.3240 C.3   1 <1>   0.1400 
 14 C       -4.8800    -3.4410     1.3360 C.3   1 <1>   0.1400 
 15 C       -6.2180    -2.6350    -0.5030 C.3   1 <1>   0.2000 
 16 C       -5.7400    -3.9300     0.1610 C.3   1 <1>  -0.0800 
 17 O       -7.3020    -2.1590     0.2160 O.3   1 <1>  -0.6800 
 18 C       -4.9210    -4.7850    -0.8250 C.3   1 <1>  -0.0170 
 19 C       -4.5070    -6.1120    -0.2060 C.ar  1 <1>  -0.1430 
 20 C       -3.2260    -6.3380     0.2570 C.ar  1 <1>  -0.1500 
 21 C       -5.3950    -7.1610    -0.0770 C.ar  1 <1>  -0.1500 
 22 C       -2.9060    -7.5650     0.8140 C.ar  1 <1>   0.1600 
 23 C       -4.9720    -8.3490     0.4950 C.ar  1 <1>   0.1600 
 24 N       -3.7490    -8.5770     0.9440 N.ar  1 <1>  -0.6200 
 25 H       -1.8360     3.4380     0.1040 H     1 <1>   0.1500 
 26 H       -3.9670     0.9680     2.8470 H     1 <1>   0.1500 
 27 H        0.5010     1.1400    -2.6670 H     1 <1>   0.0800 
 28 H       -0.7880    -0.0480    -2.5510 H     1 <1>   0.0800 
 29 H        0.3810     0.1320    -1.2300 H     1 <1>   0.0800 
 30 H       -3.2250     3.1980     2.1210 H     1 <1>   0.1500 
 31 H       -5.3930    -0.6400    -0.2630 H     1 <1>   0.0800 
 32 H       -4.3630    -1.7640    -1.1420 H     1 <1>   0.0800 
 33 H       -4.0560    -4.0970     1.5550 H     1 <1>   0.0800 
 34 H       -5.4820    -3.3370     2.2230 H     1 <1>   0.0800 
 35 H       -6.5200    -2.7540    -1.5290 H     1 <1>   0.0800 
 36 H       -6.5730    -4.5140     0.5120 H     1 <1>   0.0800 
 37 H       -7.0110    -1.9490     1.1260 H     1 <1>   0.4000 
 38 H       -4.0450    -4.2490    -1.1450 H     1 <1>   0.0800 
 39 H       -5.5140    -4.9880    -1.7000 H     1 <1>   0.0800 
 40 H       -2.4740    -5.5720     0.1940 H     1 <1>   0.1500 
 41 H       -6.4100    -7.0660    -0.4150 H     1 <1>   0.1500 
 42 H       -1.9030    -7.7210     1.1720 H     1 <1>   0.1500 
 43 H       -5.6780    -9.1560     0.5870 H     1 <1>   0.1500 
@<TRIPOS>BOND
  1   1   2  1   
  2   2   3  ar  
  3   2   4  ar  
  4   3   5  1   
  5   3   6  ar  
  6   4   7  1   
  7   4   8  ar  
  8   5   9  1   
  9   6  10  ar  
 10   6  25  1   
 11   7  11  2   
 12   7  12  am  
 13   8  10  ar  
 14   8  26  1   
 15   9  27  1   
 16   9  28  1   
 17   9  29  1   
 18  10  30  1   
 19  12  13  1   
 20  12  14  1   
 21  13  15  1   
 22  13  31  1   
 23  13  32  1   
 24  14  16  1   
 25  14  33  1   
 26  14  34  1   
 27  15  16  1   
 28  15  17  1   
 29  15  35  1   
 30  16  18  1   
 31  16  36  1   
 32  17  37  1   
 33  18  19  1   
 34  18  38  1   
 35  18  39  1   
 36  19  20  ar  
 37  19  21  ar  
 38  20  22  ar  
 39  20  40  1   
 40  21  23  ar  
 41  21  41  1   
 42  22  24  ar  
 43  22  42  1   
 44  23  24  ar  
 45  23  43  1   
@<TRIPOS>SUBSTRUCTURE
  1 ****  12 GROUP 4 **** **** 0

# MOE 2024.06 (io_trps.svl 2023.06)
