@<TRIPOS>MOLECULE
NONAME
53 56 1 0 0 
SMALL
USER_CHARGES


@<TRIPOS>ATOM
  1 S        2.1010    -1.0570    -0.6350 S.3   1 <1>  -0.3320 
  2 C        3.1300    -1.9770     0.5200 C.ar  1 <1>   0.1020 
  3 C        0.5480    -0.6660     0.3220 C.3   1 <1>   0.2110 
  4 C        3.4490    -1.4650     1.7800 C.ar  1 <1>   0.0860 
  5 C        3.5820    -3.2140     0.0980 C.ar  1 <1>  -0.1500 
  6 C       -0.6580    -1.2340    -0.4070 C.2   1 <1>   0.5690 
  7 C        0.3180     0.8520     0.2960 C.3   1 <1>  -0.0990 
  8 C        3.0420    -0.1470     2.1990 C.2   1 <1>   0.5440 
  9 C        4.2080    -2.2750     2.6240 C.ar  1 <1>  -0.1500 
 10 C        4.3490    -3.9890     0.9490 C.ar  1 <1>  -0.1500 
 11 O       -0.9050    -2.4110    -0.4970 O.2   1 <1>  -0.5700 
 12 N       -1.4120    -0.2240    -0.9160 N.am  1 <1>  -0.4200 
 13 C       -0.8960     0.9910    -0.5900 C.2   1 <1>   0.5690 
 14 O        2.2590    -0.0150     3.1190 O.2   1 <1>  -0.5700 
 15 N        3.5140     0.9490     1.5180 N.am  1 <1>  -0.4940 
 16 C        4.6560    -3.5200     2.2160 C.ar  1 <1>  -0.1500 
 17 C       -2.6270    -0.4220    -1.7330 C.3   1 <1>   0.1400 
 18 O       -1.3230     2.0560    -0.9500 O.2   1 <1>  -0.5700 
 19 C        3.2280     2.3200     1.7280 C.2   1 <1>  -0.0880 
 20 C       -3.8550    -0.4710    -0.8250 C.3   1 <1>  -0.2400 
 21 N        3.3100     3.3010     0.7850 N.pl3 1 <1>   0.3140 
 22 C        2.8270     2.9260     2.8710 C.2   1 <1>  -0.1500 
 23 N        2.9890     4.5110     1.3110 N.2   1 <1>  -0.7070 
 24 C        3.6450     3.1170    -0.6580 C.3   1 <1>   0.1760 
 25 C        2.7010     4.2690     2.5510 C.2   1 <1>   0.1390 
 26 C        4.9820     3.7510    -1.0450 C.3   1 <1>  -0.1600 
 27 C        2.6400     3.7630    -1.6130 C.3   1 <1>  -0.1600 
 28 C        4.8850     4.0310    -2.5500 C.3   1 <1>  -0.1600 
 29 C        3.4050     3.8920    -2.9300 C.3   1 <1>  -0.1600 
 30 H        0.6310    -1.0700     1.3140 H     1 <1>   0.0800 
 31 H        3.3280    -3.5720    -0.8840 H     1 <1>   0.1500 
 32 H        1.1460     1.3900    -0.1200 H     1 <1>   0.0800 
 33 H        0.0940     1.2240     1.2790 H     1 <1>   0.0800 
 34 H        4.4500    -1.9180     3.6110 H     1 <1>   0.1500 
 35 H        4.7010    -4.9560     0.6310 H     1 <1>   0.1500 
 36 H        4.1220     0.7250     0.7300 H     1 <1>   0.3700 
 37 H        5.2440    -4.1270     2.8830 H     1 <1>   0.1500 
 38 H       -2.5400    -1.3430    -2.2850 H     1 <1>   0.0800 
 39 H       -2.7210     0.3890    -2.4360 H     1 <1>   0.0800 
 40 H       -3.7760    -1.2900    -0.1330 H     1 <1>   0.0800 
 41 H       -4.7390    -0.6140    -1.4210 H     1 <1>   0.0800 
 42 H       -3.9570     0.4530    -0.2830 H     1 <1>   0.0800 
 43 H        2.6430     2.4780     3.8310 H     1 <1>   0.1500 
 44 H        3.6840     2.0660    -0.8770 H     1 <1>   0.0800 
 45 H        2.3980     5.0340     3.2470 H     1 <1>   0.1500 
 46 H        5.8110     3.1060    -0.8120 H     1 <1>   0.0800 
 47 H        5.0990     4.6870    -0.5240 H     1 <1>   0.0800 
 48 H        2.3810     4.7480    -1.2630 H     1 <1>   0.0800 
 49 H        1.7460     3.1760    -1.7250 H     1 <1>   0.0800 
 50 H        5.4760     3.3240    -3.1080 H     1 <1>   0.0800 
 51 H        5.2410     5.0240    -2.7650 H     1 <1>   0.0800 
 52 H        3.0590     4.7380    -3.5010 H     1 <1>   0.0800 
 53 H        3.2670     2.9990    -3.5160 H     1 <1>   0.0800 
@<TRIPOS>BOND
  1   1   2  1   
  2   1   3  1   
  3   2   4  ar  
  4   2   5  ar  
  5   3   6  1   
  6   3   7  1   
  7   3  30  1   
  8   4   8  1   
  9   4   9  ar  
 10   5  10  ar  
 11   5  31  1   
 12   6  11  2   
 13   6  12  am  
 14   7  13  1   
 15   7  32  1   
 16   7  33  1   
 17   8  14  2   
 18   8  15  am  
 19   9  16  ar  
 20   9  34  1   
 21  10  16  ar  
 22  10  35  1   
 23  12  13  am  
 24  12  17  1   
 25  13  18  2   
 26  15  19  1   
 27  15  36  1   
 28  16  37  1   
 29  17  20  1   
 30  17  38  1   
 31  17  39  1   
 32  19  21  1   
 33  19  22  2   
 34  20  40  1   
 35  20  41  1   
 36  20  42  1   
 37  21  23  1   
 38  21  24  1   
 39  22  25  1   
 40  22  43  1   
 41  23  25  2   
 42  24  26  1   
 43  24  27  1   
 44  24  44  1   
 45  25  45  1   
 46  26  28  1   
 47  26  46  1   
 48  26  47  1   
 49  27  29  1   
 50  27  48  1   
 51  27  49  1   
 52  28  29  1   
 53  28  50  1   
 54  28  51  1   
 55  29  52  1   
 56  29  53  1   
@<TRIPOS>SUBSTRUCTURE
  1 ****   7 GROUP 4 **** **** 0

# MOE 2024.06 (io_trps.svl 2023.06)
