@<TRIPOS>MOLECULE
NONAME
50 53 1 0 0 
SMALL
USER_CHARGES


@<TRIPOS>ATOM
  1 F       -3.7240    -1.1290    -3.0990 F     1 <1>  -0.1900 
  2 C       -3.6370    -1.5370    -1.8610 C.ar  1 <1>   0.1900 
  3 C       -3.7290    -2.8890    -1.5990 C.ar  1 <1>  -0.1500 
  4 C       -3.4550    -0.5980    -0.8640 C.ar  1 <1>  -0.1500 
  5 C       -3.6400    -3.3210    -0.2860 C.ar  1 <1>   0.0830 
  6 C       -3.3630    -1.0350     0.4480 C.ar  1 <1>  -0.1500 
  7 O       -3.7420    -4.6560    -0.0800 O.3   1 <1>  -0.3630 
  8 C       -3.4550    -2.3890     0.7370 C.ar  1 <1>  -0.1500 
  9 C       -3.7680    -5.2040     1.2310 C.3   1 <1>   0.1810 
 10 C       -3.9360    -6.7220     1.2090 C.2   1 <1>   0.5690 
 11 O       -3.1030    -7.3680     1.8040 O.2   1 <1>  -0.5700 
 12 N       -4.9940    -7.3300     0.5750 N.am  1 <1>  -0.6600 
 13 C       -6.0870    -6.6210    -0.1630 C.3   1 <1>   0.1400 
 14 C       -5.1060    -8.8190     0.4950 C.3   1 <1>   0.1400 
 15 C       -7.4750    -7.1560     0.2400 C.3   1 <1>   0.1900 
 16 C       -6.5170    -9.2960     0.8740 C.3   1 <1>   0.1100 
 17 N       -7.5530    -8.6270     0.0560 N.3   1 <1>  -0.8100 
 18 C       -8.5790    -6.4520    -0.5740 C.3   1 <1>   0.1200 
 19 C       -8.9160    -9.1080     0.3860 C.3   1 <1>   0.3330 
 20 O       -9.8400    -6.9320    -0.2060 O.3   1 <1>  -0.5600 
 21 C       -9.0650   -10.5970     0.0770 C.ar  1 <1>  -0.1430 
 22 C       -9.9810    -8.3140    -0.4000 C.3   1 <1>   0.1200 
 23 C       -8.6290   -11.1210    -1.1320 C.ar  1 <1>  -0.1500 
 24 C       -9.6480   -11.4450     1.0080 C.ar  1 <1>  -0.1500 
 25 C       -8.7730   -12.4690    -1.4090 C.ar  1 <1>  -0.1500 
 26 C       -9.7930   -12.7950     0.7340 C.ar  1 <1>  -0.1500 
 27 C       -9.3560   -13.3070    -0.4750 C.ar  1 <1>  -0.1500 
 28 H       -3.8660    -3.5920    -2.3980 H     1 <1>   0.1500 
 29 H       -3.3870     0.4460    -1.1110 H     1 <1>   0.1500 
 30 H       -3.2190    -0.3210     1.2410 H     1 <1>   0.1500 
 31 H       -3.3750    -2.6940     1.7630 H     1 <1>   0.1500 
 32 H       -2.8380    -4.9600     1.7120 H     1 <1>   0.0800 
 33 H       -4.5850    -4.7630     1.7710 H     1 <1>   0.0800 
 34 H       -6.0580    -5.5660     0.0320 H     1 <1>   0.0800 
 35 H       -5.9440    -6.7680    -1.2190 H     1 <1>   0.0800 
 36 H       -4.8880    -9.1340    -0.5100 H     1 <1>   0.0800 
 37 H       -4.3910    -9.2880     1.1490 H     1 <1>   0.0800 
 38 H       -7.6320    -6.9180     1.2780 H     1 <1>   0.0800 
 39 H       -6.6870    -9.1020     1.9190 H     1 <1>   0.0800 
 40 H       -6.5640   -10.3610     0.7220 H     1 <1>   0.0800 
 41 H       -8.4400    -6.6200    -1.6280 H     1 <1>   0.0800 
 42 H       -8.5670    -5.3930    -0.3850 H     1 <1>   0.0800 
 43 H       -9.0970    -8.9490     1.4360 H     1 <1>   0.0800 
 44 H      -10.9650    -8.5950    -0.0700 H     1 <1>   0.0800 
 45 H       -9.9000    -8.5230    -1.4520 H     1 <1>   0.0800 
 46 H       -8.1690   -10.4720    -1.8590 H     1 <1>   0.1500 
 47 H       -9.9930   -11.0620     1.9520 H     1 <1>   0.1500 
 48 H       -8.4310   -12.8640    -2.3490 H     1 <1>   0.1500 
 49 H      -10.2460   -13.4460     1.4600 H     1 <1>   0.1500 
 50 H       -9.4680   -14.3560    -0.6890 H     1 <1>   0.1500 
@<TRIPOS>BOND
  1   1   2  1   
  2   2   3  ar  
  3   2   4  ar  
  4   3   5  ar  
  5   3  28  1   
  6   4   6  ar  
  7   4  29  1   
  8   5   7  1   
  9   5   8  ar  
 10   6   8  ar  
 11   6  30  1   
 12   7   9  1   
 13   8  31  1   
 14   9  10  1   
 15   9  32  1   
 16   9  33  1   
 17  10  11  2   
 18  10  12  am  
 19  12  13  1   
 20  12  14  1   
 21  13  15  1   
 22  13  34  1   
 23  13  35  1   
 24  14  16  1   
 25  14  36  1   
 26  14  37  1   
 27  15  17  1   
 28  15  18  1   
 29  15  38  1   
 30  16  17  1   
 31  16  39  1   
 32  16  40  1   
 33  17  19  1   
 34  18  20  1   
 35  18  41  1   
 36  18  42  1   
 37  19  21  1   
 38  19  22  1   
 39  19  43  1   
 40  20  22  1   
 41  21  23  ar  
 42  21  24  ar  
 43  22  44  1   
 44  22  45  1   
 45  23  25  ar  
 46  23  46  1   
 47  24  26  ar  
 48  24  47  1   
 49  25  27  ar  
 50  25  48  1   
 51  26  27  ar  
 52  26  49  1   
 53  27  50  1   
@<TRIPOS>SUBSTRUCTURE
  1 ****  13 GROUP 4 **** **** 0

# MOE 2024.06 (io_trps.svl 2023.06)
