@<TRIPOS>MOLECULE
NONAME
41 43 1 0 0 
SMALL
USER_CHARGES


@<TRIPOS>ATOM
  1 O       -1.3640    -4.1100     1.7130 O.2   1 <1>  -0.5700 
  2 C       -0.1770    -3.8800     1.6120 C.2   1 <1>   0.6900 
  3 N        0.3840    -3.0820     0.6600 N.am  1 <1>  -0.6600 
  4 N        0.7650    -4.4780     2.3710 N.am  1 <1>  -0.4900 
  5 C        1.8680    -3.2400     0.7390 C.3   1 <1>   0.2010 
  6 C       -0.2650    -2.8180    -0.6670 C.3   1 <1>   0.2010 
  7 C        2.0020    -4.1870     1.9200 C.2   1 <1>   0.5690 
  8 C       -0.4230    -4.0990    -1.4860 C.2   1 <1>   0.5690 
  9 O        3.0340    -4.6160     2.3660 O.2   1 <1>  -0.5700 
 10 O        0.2000    -4.2410    -2.5100 O.2   1 <1>  -0.5700 
 11 N       -1.2080    -5.0790    -0.9790 N.am  1 <1>  -0.7300 
 12 C       -1.1040    -6.5090    -1.3290 C.3   1 <1>   0.2200 
 13 C       -2.1880    -7.3070    -0.6180 C.3   1 <1>  -0.0800 
 14 C        0.1400    -7.0910    -0.6650 C.3   1 <1>   0.1200 
 15 C       -1.5880    -7.5310     0.7770 C.3   1 <1>   0.1200 
 16 C       -3.5930    -6.6740    -0.6020 C.3   1 <1>  -0.0170 
 17 O       -0.2130    -7.2960     0.6710 O.3   1 <1>  -0.5600 
 18 C       -4.5830    -7.5700     0.1250 C.ar  1 <1>  -0.1440 
 19 C       -4.9720    -7.3210     1.4260 C.ar  1 <1>  -0.1500 
 20 C       -5.1400    -8.6800    -0.4770 C.ar  1 <1>  -0.1500 
 21 C       -5.8710    -8.1720     2.0460 C.ar  1 <1>   0.1600 
 22 C       -6.0310    -9.4670     0.2330 C.ar  1 <1>   0.1600 
 23 N       -6.4080    -9.2410     1.4810 N.ar  1 <1>  -0.6200 
 24 H        0.5570    -5.2240     3.0250 H     1 <1>   0.3700 
 25 H        2.2630    -3.6930    -0.1530 H     1 <1>   0.0800 
 26 H        2.3470    -2.3000     0.9440 H     1 <1>   0.0800 
 27 H       -1.2380    -2.3910    -0.5050 H     1 <1>   0.0800 
 28 H        0.3250    -2.1130    -1.2240 H     1 <1>   0.0800 
 29 H       -1.5570    -4.9260    -0.0210 H     1 <1>   0.3700 
 30 H       -1.1020    -6.6380    -2.3990 H     1 <1>   0.0800 
 31 H       -2.2570    -8.2690    -1.0940 H     1 <1>   0.0800 
 32 H        0.9910    -6.4360    -0.7210 H     1 <1>   0.0800 
 33 H        0.3870    -8.0470    -1.0910 H     1 <1>   0.0800 
 34 H       -1.7490    -8.5370     1.1250 H     1 <1>   0.0800 
 35 H       -1.9810    -6.8310     1.4950 H     1 <1>   0.0800 
 36 H       -3.9280    -6.5190    -1.6130 H     1 <1>   0.0800 
 37 H       -3.5730    -5.7140    -0.1180 H     1 <1>   0.0800 
 38 H       -4.5860    -6.4740     1.9630 H     1 <1>   0.1500 
 39 H       -4.8920    -8.9390    -1.4890 H     1 <1>   0.1500 
 40 H       -6.1630    -7.9620     3.0610 H     1 <1>   0.1500 
 41 H       -6.4570   -10.3290    -0.2510 H     1 <1>   0.1500 
@<TRIPOS>BOND
  1   1   2  2   
  2   2   3  am  
  3   2   4  am  
  4   3   5  1   
  5   3   6  1   
  6   4   7  am  
  7   4  24  1   
  8   5   7  1   
  9   5  25  1   
 10   5  26  1   
 11   6   8  1   
 12   6  27  1   
 13   6  28  1   
 14   7   9  2   
 15   8  10  2   
 16   8  11  am  
 17  11  12  1   
 18  11  29  1   
 19  12  13  1   
 20  12  14  1   
 21  12  30  1   
 22  13  15  1   
 23  13  16  1   
 24  13  31  1   
 25  14  17  1   
 26  14  32  1   
 27  14  33  1   
 28  15  17  1   
 29  15  34  1   
 30  15  35  1   
 31  16  18  1   
 32  16  36  1   
 33  16  37  1   
 34  18  19  ar  
 35  18  20  ar  
 36  19  21  ar  
 37  19  38  1   
 38  20  22  ar  
 39  20  39  1   
 40  21  23  ar  
 41  21  40  1   
 42  22  23  ar  
 43  22  41  1   
@<TRIPOS>SUBSTRUCTURE
  1 ****  15 GROUP 4 **** **** 0

# MOE 2024.06 (io_trps.svl 2023.06)
