@<TRIPOS>MOLECULE
NONAME
47 49 1 0 0 
SMALL
USER_CHARGES


@<TRIPOS>ATOM
  1 O       -0.1320     0.4790     3.1670 O.2   1 <1>  -0.5700 
  2 C        0.1770    -0.2370     2.2450 C.2   1 <1>   0.5690 
  3 N        0.9520     0.1420     1.1870 N.am  1 <1>  -0.4940 
  4 C       -0.3050    -1.6900     2.2390 C.3   1 <1>   0.1710 
  5 C        1.6600     1.3140     0.8240 C.2   1 <1>  -0.0880 
  6 N       -0.2220    -2.3390     0.8970 N.3   1 <1>  -0.8100 
  7 N        1.4950     2.5920     1.2730 N.pl3 1 <1>   0.3140 
  8 C        2.6580     1.3630    -0.0910 C.2   1 <1>  -0.1810 
  9 C       -0.2150    -3.8100     1.0230 C.3   1 <1>   0.2530 
 10 C       -1.3310    -1.9160     0.0240 C.3   1 <1>   0.1100 
 11 N        2.3560     3.4400     0.6680 N.2   1 <1>  -0.7070 
 12 C        0.5100     3.1260     2.2220 C.3   1 <1>   0.0160 
 13 C        3.0430     2.6990    -0.1390 C.2   1 <1>   0.1080 
 14 C        3.2430     0.2120    -0.8940 C.3   1 <1>   0.0210 
 15 C       -0.2540    -4.5090    -0.3330 C.ar  1 <1>  -0.1430 
 16 C       -1.0640    -2.3760    -1.4130 C.3   1 <1>  -0.0170 
 17 C        4.1350     3.2770    -1.0110 C.3   1 <1>  -0.0590 
 18 C        2.5150     0.0680    -2.2310 C.3   1 <1>  -0.2400 
 19 C       -0.6700    -3.8430    -1.4800 C.ar  1 <1>  -0.1430 
 20 C        0.1170    -5.8430    -0.4180 C.ar  1 <1>  -0.1500 
 21 C       -0.7110    -4.5130    -2.6930 C.ar  1 <1>  -0.1500 
 22 C        0.0750    -6.5090    -1.6310 C.ar  1 <1>  -0.1500 
 23 C       -0.3410    -5.8440    -2.7690 C.ar  1 <1>  -0.1500 
 24 H        1.0650    -0.6460     0.5360 H     1 <1>   0.3700 
 25 H       -1.3140    -1.7270     2.6090 H     1 <1>   0.0800 
 26 H        0.3200    -2.2240     2.9330 H     1 <1>   0.0800 
 27 H       -1.0690    -4.1290     1.5970 H     1 <1>   0.0800 
 28 H        0.6760    -4.1120     1.5460 H     1 <1>   0.0800 
 29 H       -1.4290    -0.8430     0.0330 H     1 <1>   0.0800 
 30 H       -2.2560    -2.3440     0.3730 H     1 <1>   0.0800 
 31 H       -0.4590     2.7290     1.9880 H     1 <1>   0.0800 
 32 H        0.4890     4.1960     2.1440 H     1 <1>   0.0800 
 33 H        0.7950     2.8430     3.2170 H     1 <1>   0.0800 
 34 H        3.1490    -0.7010    -0.3330 H     1 <1>   0.0800 
 35 H        4.2920     0.3830    -1.0620 H     1 <1>   0.0800 
 36 H       -0.2680    -1.7840    -1.8260 H     1 <1>   0.0800 
 37 H       -1.9450    -2.2060    -2.0050 H     1 <1>   0.0800 
 38 H        4.0660     2.8810    -2.0060 H     1 <1>   0.0800 
 39 H        5.0940     3.0340    -0.5940 H     1 <1>   0.0800 
 40 H        4.0360     4.3460    -1.0550 H     1 <1>   0.0800 
 41 H        1.4650    -0.0900    -2.0630 H     1 <1>   0.0800 
 42 H        2.9100    -0.7670    -2.7810 H     1 <1>   0.0800 
 43 H        2.6350     0.9610    -2.8180 H     1 <1>   0.0800 
 44 H        0.4410    -6.3720     0.4610 H     1 <1>   0.1500 
 45 H       -1.0300    -4.0000    -3.5830 H     1 <1>   0.1500 
 46 H        0.3640    -7.5440    -1.6880 H     1 <1>   0.1500 
 47 H       -0.3750    -6.3590    -3.7130 H     1 <1>   0.1500 
@<TRIPOS>BOND
  1   1   2  2   
  2   2   3  am  
  3   2   4  1   
  4   3   5  1   
  5   3  24  1   
  6   4   6  1   
  7   4  25  1   
  8   4  26  1   
  9   5   7  1   
 10   5   8  2   
 11   6   9  1   
 12   6  10  1   
 13   7  11  1   
 14   7  12  1   
 15   8  13  1   
 16   8  14  1   
 17   9  15  1   
 18   9  27  1   
 19   9  28  1   
 20  10  16  1   
 21  10  29  1   
 22  10  30  1   
 23  11  13  2   
 24  12  31  1   
 25  12  32  1   
 26  12  33  1   
 27  13  17  1   
 28  14  18  1   
 29  14  34  1   
 30  14  35  1   
 31  15  19  ar  
 32  15  20  ar  
 33  16  19  1   
 34  16  36  1   
 35  16  37  1   
 36  17  38  1   
 37  17  39  1   
 38  17  40  1   
 39  18  41  1   
 40  18  42  1   
 41  18  43  1   
 42  19  21  ar  
 43  20  22  ar  
 44  20  44  1   
 45  21  23  ar  
 46  21  45  1   
 47  22  23  ar  
 48  22  46  1   
 49  23  47  1   
@<TRIPOS>SUBSTRUCTURE
  1 ****   3 GROUP 4 **** **** 0

# MOE 2024.06 (io_trps.svl 2023.06)
