@<TRIPOS>MOLECULE
NONAME
49 50 1 0 0 
SMALL
USER_CHARGES


@<TRIPOS>ATOM
  1 S        1.5040     0.6950     1.0760 S.o2  1 <1>   1.3330 
  2 O        1.9350     1.6230     2.0990 O.2   1 <1>  -0.6500 
  3 O        1.5130    -0.7250     1.3480 O.2   1 <1>  -0.6500 
  4 N       -0.0710     1.1240     0.6090 N.am  1 <1>  -0.8490 
  5 C        2.4710     1.0150    -0.3950 C.3   1 <1>  -0.0550 
  6 C       -0.9050     1.4990     1.7540 C.3   1 <1>   0.1160 
  7 C       -0.7480     0.0900    -0.1810 C.3   1 <1>   0.1160 
  8 C        3.9740     0.7710    -0.1830 C.3   1 <1>  -0.0800 
  9 C        4.8120     1.2220    -1.3620 C.3   1 <1>   0.2200 
 10 C        4.3810    -0.6890    -0.0430 C.3   1 <1>   0.1200 
 11 N        5.1340     2.6540    -1.2090 N.am  1 <1>  -0.7300 
 12 C        6.0360     0.3100    -1.2950 C.3   1 <1>   0.1200 
 13 O        5.7250    -0.7260    -0.4070 O.3   1 <1>  -0.5600 
 14 C        4.3940     3.6650    -1.7500 C.2   1 <1>   0.5440 
 15 O        3.6370     3.3930    -2.6630 O.2   1 <1>  -0.5700 
 16 C        4.4840     5.0170    -1.2360 C.ar  1 <1>   0.0860 
 17 C        4.7180     5.3050     0.1180 C.ar  1 <1>   0.0820 
 18 C        4.3130     6.1030    -2.0980 C.ar  1 <1>  -0.1500 
 19 O        4.8720     4.3020     1.0100 O.3   1 <1>  -0.3630 
 20 C        4.8010     6.6140     0.5720 C.ar  1 <1>  -0.1500 
 21 C        4.3860     7.4060    -1.6460 C.ar  1 <1>  -0.1500 
 22 C        3.9050     4.1730     2.0330 C.3   1 <1>   0.0400 
 23 C        4.6340     7.6730    -0.3100 C.ar  1 <1>   0.0820 
 24 O        4.6980     8.9750     0.0520 O.3   1 <1>  -0.3620 
 25 C        4.9610     9.3640     1.3820 C.3   1 <1>   0.0400 
 26 H        2.1200     0.4070    -1.2050 H     1 <1>   0.0800 
 27 H        2.3270     2.0410    -0.6750 H     1 <1>   0.0800 
 28 H       -1.8890     1.7830     1.4220 H     1 <1>   0.0800 
 29 H       -0.4690     2.3390     2.2680 H     1 <1>   0.0800 
 30 H       -0.9860     0.6750     2.4440 H     1 <1>   0.0800 
 31 H       -1.7060     0.4490    -0.5150 H     1 <1>   0.0800 
 32 H       -0.8930    -0.8010     0.4090 H     1 <1>   0.0800 
 33 H       -0.1610    -0.1610    -1.0480 H     1 <1>   0.0800 
 34 H        4.3010     1.2820     0.7070 H     1 <1>   0.0800 
 35 H        4.2990     1.0470    -2.2930 H     1 <1>   0.0800 
 36 H        3.8360    -1.3210    -0.7240 H     1 <1>   0.0800 
 37 H        4.2750    -1.0560     0.9640 H     1 <1>   0.0800 
 38 H        5.6370     2.8910    -0.3470 H     1 <1>   0.3700 
 39 H        6.8990     0.8270    -0.9120 H     1 <1>   0.0800 
 40 H        6.2540    -0.1190    -2.2570 H     1 <1>   0.0800 
 41 H        4.1170     5.9120    -3.1390 H     1 <1>   0.1500 
 42 H        5.0020     6.7860     1.6110 H     1 <1>   0.1500 
 43 H        4.2510     8.2280    -2.3260 H     1 <1>   0.1500 
 44 H        4.0940     3.2570     2.5650 H     1 <1>   0.0800 
 45 H        2.9260     4.1350     1.5880 H     1 <1>   0.0800 
 46 H        3.9810     5.0080     2.7050 H     1 <1>   0.0800 
 47 H        4.9740    10.4380     1.4180 H     1 <1>   0.0800 
 48 H        5.9200     8.9760     1.6760 H     1 <1>   0.0800 
 49 H        4.1800     8.9870     2.0180 H     1 <1>   0.0800 
@<TRIPOS>BOND
  1   1   2  2   
  2   1   3  2   
  3   1   4  am  
  4   1   5  1   
  5   4   6  1   
  6   4   7  1   
  7   5   8  1   
  8   5  26  1   
  9   5  27  1   
 10   6  28  1   
 11   6  29  1   
 12   6  30  1   
 13   7  31  1   
 14   7  32  1   
 15   7  33  1   
 16   8   9  1   
 17   8  10  1   
 18   8  34  1   
 19   9  11  1   
 20   9  12  1   
 21   9  35  1   
 22  10  13  1   
 23  10  36  1   
 24  10  37  1   
 25  11  14  am  
 26  11  38  1   
 27  12  13  1   
 28  12  39  1   
 29  12  40  1   
 30  14  15  2   
 31  14  16  1   
 32  16  17  ar  
 33  16  18  ar  
 34  17  19  1   
 35  17  20  ar  
 36  18  21  ar  
 37  18  41  1   
 38  19  22  1   
 39  20  23  ar  
 40  20  42  1   
 41  21  23  ar  
 42  21  43  1   
 43  22  44  1   
 44  22  45  1   
 45  22  46  1   
 46  23  24  1   
 47  24  25  1   
 48  25  47  1   
 49  25  48  1   
 50  25  49  1   
@<TRIPOS>SUBSTRUCTURE
  1 ****  14 GROUP 4 **** **** 0

# MOE 2024.06 (io_trps.svl 2023.06)
