@<TRIPOS>MOLECULE
NONAME
46 47 1 0 0 
SMALL
USER_CHARGES


@<TRIPOS>ATOM
  1 F        2.5520     1.3200    -0.6380 F     1 <1>  -0.1900 
  2 C        2.0430     2.5240    -0.5880 C.ar  1 <1>   0.1900 
  3 C        0.6840     2.7450    -0.3320 C.ar  1 <1>   0.0820 
  4 C        2.9210     3.5710    -0.7960 C.ar  1 <1>  -0.1500 
  5 O       -0.2750     1.8000    -0.1140 O.3   1 <1>  -0.3630 
  6 C        0.2430     4.0570    -0.2900 C.ar  1 <1>  -0.1500 
  7 C        2.4460     4.8690    -0.7480 C.ar  1 <1>  -0.1500 
  8 C       -0.0310     0.4160    -0.2320 C.3   1 <1>   0.0400 
  9 C        1.1020     5.1380    -0.4860 C.ar  1 <1>   0.0860 
 10 C        0.6070     6.4980    -0.4230 C.2   1 <1>   0.5440 
 11 O       -0.1110     6.9000    -1.3180 O.2   1 <1>  -0.5700 
 12 N        0.9210     7.3480     0.6210 N.am  1 <1>  -0.6600 
 13 C        1.7210     6.9150     1.8170 C.3   1 <1>   0.1400 
 14 C        0.4840     8.7720     0.5930 C.3   1 <1>   0.1400 
 15 C        2.7880     7.9330     2.2590 C.3   1 <1>   0.1400 
 16 C        1.5320     9.6310    -0.1270 C.3   1 <1>  -0.1600 
 17 N        3.4500     8.5900     1.0940 N.am  1 <1>  -0.6600 
 18 C        2.8200     9.8720     0.6720 C.3   1 <1>   0.1400 
 19 C        4.4440     7.9390     0.4080 C.2   1 <1>   0.5690 
 20 O        4.8510     6.8550     0.7730 O.2   1 <1>  -0.5700 
 21 C        5.0550     8.5490    -0.8610 C.3   1 <1>   0.2010 
 22 N        6.2170     7.7730    -1.3800 N.am  1 <1>  -0.7300 
 23 C        7.2370     8.3320    -2.0510 C.2   1 <1>   0.6900 
 24 O        7.1980     9.4800    -2.4330 O.2   1 <1>  -0.5700 
 25 N        8.3180     7.5920    -2.2990 N.am  1 <1>  -0.8000 
 26 H        3.9590     3.3720    -0.9910 H     1 <1>   0.1500 
 27 H       -0.7990     4.2500    -0.1030 H     1 <1>   0.1500 
 28 H        3.1210     5.6910    -0.9100 H     1 <1>   0.1500 
 29 H       -0.9600    -0.1010    -0.0720 H     1 <1>   0.0800 
 30 H        0.6830     0.1210     0.5170 H     1 <1>   0.0800 
 31 H        0.3370     0.2070    -1.2210 H     1 <1>   0.0800 
 32 H        2.2250     5.9890     1.6150 H     1 <1>   0.0800 
 33 H        1.0490     6.7350     2.6380 H     1 <1>   0.0800 
 34 H        0.3180     9.1300     1.5940 H     1 <1>   0.0800 
 35 H       -0.4530     8.8450     0.0660 H     1 <1>   0.0800 
 36 H        3.5280     7.4260     2.8550 H     1 <1>   0.0800 
 37 H        2.3330     8.6770     2.8870 H     1 <1>   0.0800 
 38 H        1.0900    10.5890    -0.3330 H     1 <1>   0.0800 
 39 H        1.7650     9.1850    -1.0770 H     1 <1>   0.0800 
 40 H        2.5940    10.4570     1.5470 H     1 <1>   0.0800 
 41 H        3.5040    10.4500     0.0770 H     1 <1>   0.0800 
 42 H        5.3770     9.5520    -0.6430 H     1 <1>   0.0800 
 43 H        4.2990     8.5910    -1.6230 H     1 <1>   0.0800 
 44 H        6.3860     6.9160    -0.8480 H     1 <1>   0.3700 
 45 H        9.0470     8.0000    -2.8810 H     1 <1>   0.3700 
 46 H        8.3130     6.5820    -2.1980 H     1 <1>   0.3700 
@<TRIPOS>BOND
  1   1   2  1   
  2   2   3  ar  
  3   2   4  ar  
  4   3   5  1   
  5   3   6  ar  
  6   4   7  ar  
  7   4  26  1   
  8   5   8  1   
  9   6   9  ar  
 10   6  27  1   
 11   7   9  ar  
 12   7  28  1   
 13   8  29  1   
 14   8  30  1   
 15   8  31  1   
 16   9  10  1   
 17  10  11  2   
 18  10  12  am  
 19  12  13  1   
 20  12  14  1   
 21  13  15  1   
 22  13  32  1   
 23  13  33  1   
 24  14  16  1   
 25  14  34  1   
 26  14  35  1   
 27  15  17  1   
 28  15  36  1   
 29  15  37  1   
 30  16  18  1   
 31  16  38  1   
 32  16  39  1   
 33  17  18  1   
 34  17  19  am  
 35  18  40  1   
 36  18  41  1   
 37  19  20  2   
 38  19  21  1   
 39  21  22  1   
 40  21  42  1   
 41  21  43  1   
 42  22  23  am  
 43  22  44  1   
 44  23  24  2   
 45  23  25  am  
 46  25  45  1   
 47  25  46  1   
@<TRIPOS>SUBSTRUCTURE
  1 ****   7 GROUP 4 **** **** 0

# MOE 2024.06 (io_trps.svl 2023.06)
