@<TRIPOS>MOLECULE
NONAME
22 22 1 0 0 
SMALL
USER_CHARGES


@<TRIPOS>ATOM
  1 O       -5.3720     1.0540     1.6620 O.3   1 <1>  -0.6800 
  2 C       -5.0240     1.2680     0.3380 C.3   1 <1>   0.2800 
  3 C       -5.2420    -0.0660    -0.4450 C.3   1 <1>   0.4720 
  4 C       -5.8940     2.4180    -0.1750 C.3   1 <1>  -0.2400 
  5 C       -3.5480     1.6730     0.3470 C.3   1 <1>  -0.2400 
  6 N       -4.9390    -1.2690     0.4030 N.4   1 <1>  -0.8440 
  7 C       -6.6950    -0.5930    -0.5260 C.3   1 <1>   0.0000 
  8 C       -6.0880    -1.9800    -0.2370 C.3   1 <1>   0.4720 
  9 H       -5.3110     1.8980     2.1590 H     1 <1>   0.4000 
 10 H       -4.7370    -0.1170    -1.3930 H     1 <1>   0.0000 
 11 H       -5.6790     2.6110    -1.2110 H     1 <1>   0.0800 
 12 H       -5.6950     3.3220     0.3740 H     1 <1>   0.0800 
 13 H       -6.9410     2.1870    -0.0860 H     1 <1>   0.0800 
 14 H       -3.2080     1.8540    -0.6570 H     1 <1>   0.0800 
 15 H       -2.9370     0.8980     0.7750 H     1 <1>   0.0800 
 16 H       -3.4030     2.5780     0.9100 H     1 <1>   0.0800 
 17 H       -4.0140    -1.6750     0.2490 H     1 <1>   0.4500 
 18 H       -5.1150    -0.9770     1.3780 H     1 <1>   0.4500 
 19 H       -7.3410    -0.2510     0.2640 H     1 <1>   0.0000 
 20 H       -7.1360    -0.5070    -1.5030 H     1 <1>   0.0000 
 21 H       -5.7770    -2.5010    -1.1240 H     1 <1>   0.0000 
 22 H       -6.6450    -2.5740     0.4660 H     1 <1>   0.0000 
@<TRIPOS>BOND
  1   1   2  1   
  2   1   9  1   
  3   2   3  1   
  4   2   4  1   
  5   2   5  1   
  6   3   6  1   
  7   3   7  1   
  8   3  10  1   
  9   4  11  1   
 10   4  12  1   
 11   4  13  1   
 12   5  14  1   
 13   5  15  1   
 14   5  16  1   
 15   6   8  1   
 16   6  17  1   
 17   6  18  1   
 18   7   8  1   
 19   7  19  1   
 20   7  20  1   
 21   8  21  1   
 22   8  22  1   
@<TRIPOS>SUBSTRUCTURE
  1 ****   3 GROUP 4 **** **** 0

# MOE 2024.06 (io_trps.svl 2023.06)
