@<TRIPOS>MOLECULE
NONAME
43 45 1 0 0 
SMALL
USER_CHARGES


@<TRIPOS>ATOM
  1 O        2.6240     3.9450     0.6250 O.2   1 <1>  -0.5700 
  2 C        1.8320     3.6490    -0.2370 C.2   1 <1>   0.5690 
  3 N        0.5110     3.4910    -0.0340 N.am  1 <1>  -0.6600 
  4 C        2.1750     3.4690    -1.6880 C.3   1 <1>  -0.0990 
  5 C       -0.2410     3.2710    -1.2780 C.3   1 <1>   0.1400 
  6 C       -0.1800     3.7280     1.2700 C.3   1 <1>   0.2010 
  7 C        0.8550     2.9850    -2.3150 C.3   1 <1>  -0.1600 
  8 C       -0.3510     5.2080     1.6050 C.2   1 <1>   0.5690 
  9 O       -1.4590     5.5940     1.9020 O.2   1 <1>  -0.5700 
 10 N        0.7540     6.0200     1.5690 N.am  1 <1>  -0.4940 
 11 C        0.8640     7.3950     1.9030 C.2   1 <1>  -0.0880 
 12 N        2.0190     8.1230     1.9470 N.pl3 1 <1>   0.3140 
 13 C       -0.1300     8.2480     2.2450 C.2   1 <1>  -0.1500 
 14 N        1.7700     9.4100     2.3110 N.2   1 <1>  -0.7070 
 15 C        3.4230     7.6920     1.6710 C.3   1 <1>   0.3190 
 16 C        0.4870     9.4660     2.4830 C.2   1 <1>   0.1390 
 17 C        3.6360     7.3360     0.1870 C.ar  1 <1>  -0.1440 
 18 C        3.8550     6.6120     2.6800 C.3   1 <1>  -0.2400 
 19 C        3.0280     8.1140    -0.7930 C.ar  1 <1>  -0.1500 
 20 C        4.4540     6.2870    -0.2220 C.ar  1 <1>  -0.1500 
 21 C        3.2260     7.8510    -2.1370 C.ar  1 <1>  -0.1500 
 22 C        4.6590     6.0280    -1.5660 C.ar  1 <1>  -0.1500 
 23 C        4.0450     6.8090    -2.5260 C.ar  1 <1>  -0.1500 
 24 H        2.9690     2.7560    -1.8090 H     1 <1>   0.0800 
 25 H        2.4620     4.4200    -2.0960 H     1 <1>   0.0800 
 26 H       -0.7890     4.1640    -1.5300 H     1 <1>   0.0800 
 27 H       -0.9160     2.4380    -1.1780 H     1 <1>   0.0800 
 28 H        0.3940     3.2710     2.0560 H     1 <1>   0.0800 
 29 H       -1.1480     3.2600     1.2520 H     1 <1>   0.0800 
 30 H        0.9040     1.9240    -2.4870 H     1 <1>   0.0800 
 31 H        0.6480     3.4770    -3.2490 H     1 <1>   0.0800 
 32 H        1.6080     5.5440     1.2400 H     1 <1>   0.3700 
 33 H       -1.1840     8.0500     2.3240 H     1 <1>   0.1500 
 34 H        4.0360     8.5540     1.8630 H     1 <1>   0.0800 
 35 H       -0.0330    10.3620     2.7780 H     1 <1>   0.1500 
 36 H        3.3640     5.6780     2.4830 H     1 <1>   0.0800 
 37 H        3.6190     6.9310     3.6790 H     1 <1>   0.0800 
 38 H        4.9170     6.4610     2.6230 H     1 <1>   0.0800 
 39 H        2.3960     8.9430    -0.5180 H     1 <1>   0.1500 
 40 H        4.9460     5.6510     0.4910 H     1 <1>   0.1500 
 41 H        2.7440     8.4650    -2.8780 H     1 <1>   0.1500 
 42 H        5.2990     5.2140    -1.8610 H     1 <1>   0.1500 
 43 H        4.2050     6.6080    -3.5710 H     1 <1>   0.1500 
@<TRIPOS>BOND
  1   1   2  2   
  2   2   3  am  
  3   2   4  1   
  4   3   5  1   
  5   3   6  1   
  6   4   7  1   
  7   4  24  1   
  8   4  25  1   
  9   5   7  1   
 10   5  26  1   
 11   5  27  1   
 12   6   8  1   
 13   6  28  1   
 14   6  29  1   
 15   7  30  1   
 16   7  31  1   
 17   8   9  2   
 18   8  10  am  
 19  10  11  1   
 20  10  32  1   
 21  11  12  1   
 22  11  13  2   
 23  12  14  1   
 24  12  15  1   
 25  13  16  1   
 26  13  33  1   
 27  14  16  2   
 28  15  17  1   
 29  15  18  1   
 30  15  34  1   
 31  16  35  1   
 32  17  19  ar  
 33  17  20  ar  
 34  18  36  1   
 35  18  37  1   
 36  18  38  1   
 37  19  21  ar  
 38  19  39  1   
 39  20  22  ar  
 40  20  40  1   
 41  21  23  ar  
 42  21  41  1   
 43  22  23  ar  
 44  22  42  1   
 45  23  43  1   
@<TRIPOS>SUBSTRUCTURE
  1 ****  10 GROUP 4 **** **** 0

# MOE 2024.06 (io_trps.svl 2023.06)
