@<TRIPOS>MOLECULE
NONAME
48 50 1 0 0 
SMALL
USER_CHARGES


@<TRIPOS>ATOM
  1 O        2.8630    -0.4970     1.9210 O.2   1 <1>  -0.5700 
  2 C        2.5180    -1.2940     1.0690 C.2   1 <1>   0.5440 
  3 N        2.5630    -0.9190    -0.2590 N.am  1 <1>  -0.6600 
  4 C        2.0840    -2.6130     1.4840 C.ar  1 <1>   0.0860 
  5 C        2.6230    -1.8790    -1.3960 C.3   1 <1>   0.1400 
  6 C        2.7020     0.5080    -0.6610 C.3   1 <1>   0.1400 
  7 C        0.9290    -3.2100     1.0150 C.ar  1 <1>  -0.1500 
  8 C        2.8010    -3.3690     2.4000 C.ar  1 <1>  -0.1500 
  9 C        1.5200    -1.5500    -2.4080 C.3   1 <1>  -0.1600 
 10 C        1.6060     0.8640    -1.6720 C.3   1 <1>  -0.1600 
 11 C        0.5590    -4.4820     1.4270 C.ar  1 <1>   0.4100 
 12 C        2.3610    -4.6270     2.7560 C.ar  1 <1>   0.1600 
 13 C        1.6060    -0.0900    -2.8760 C.3   1 <1>  -0.1600 
 14 N        1.2680    -5.2030     2.2860 N.ar  1 <1>  -0.6200 
 15 N       -0.5950    -5.0510     0.9280 N.pl3 1 <1>  -0.8380 
 16 C       -0.6550    -6.5370     0.8100 C.3   1 <1>   0.3890 
 17 C       -1.8970    -4.3620     1.1500 C.3   1 <1>   0.1290 
 18 C       -1.7390    -6.9800    -0.1590 C.2   1 <1>  -0.0400 
 19 O       -1.6710    -6.6410    -1.4200 O.3   1 <1>  -0.0190 
 20 C       -2.8520    -7.7090     0.0120 C.2   1 <1>  -0.1500 
 21 N       -2.6810    -7.1020    -2.1000 N.2   1 <1>  -0.4100 
 22 C       -3.4100    -7.7510    -1.2640 C.2   1 <1>   0.1080 
 23 C       -4.7000    -8.4620    -1.6290 C.3   1 <1>   0.0210 
 24 C       -5.9250    -7.6730    -1.1560 C.3   1 <1>  -0.2400 
 25 H        2.5220    -2.8950    -1.0580 H     1 <1>   0.0800 
 26 H        3.5850    -1.7880    -1.8720 H     1 <1>   0.0800 
 27 H        3.6740     0.6560    -1.1010 H     1 <1>   0.0800 
 28 H        2.6210     1.1550     0.1960 H     1 <1>   0.0800 
 29 H        0.3050    -2.6910     0.3160 H     1 <1>   0.1500 
 30 H        3.7010    -2.9640     2.8280 H     1 <1>   0.1500 
 31 H        0.5620    -1.7310    -1.9540 H     1 <1>   0.0800 
 32 H        1.6090    -2.2070    -3.2550 H     1 <1>   0.0800 
 33 H        1.7520     1.8740    -2.0110 H     1 <1>   0.0800 
 34 H        0.6530     0.8200    -1.1750 H     1 <1>   0.0800 
 35 H        2.9390    -5.1940     3.4660 H     1 <1>   0.1500 
 36 H        0.7740     0.1350    -3.5200 H     1 <1>   0.0800 
 37 H        2.5120     0.0510    -3.4410 H     1 <1>   0.0800 
 38 H       -0.8440    -6.9590     1.7820 H     1 <1>   0.0800 
 39 H        0.2950    -6.9050     0.4630 H     1 <1>   0.0800 
 40 H       -1.7410    -3.3770     1.5540 H     1 <1>   0.0800 
 41 H       -2.4980    -4.9250     1.8430 H     1 <1>   0.0800 
 42 H       -2.4240    -4.2770     0.2150 H     1 <1>   0.0800 
 43 H       -3.2510    -8.1650     0.8980 H     1 <1>   0.1500 
 44 H       -4.7010    -9.4410    -1.1850 H     1 <1>   0.0800 
 45 H       -4.7420    -8.5820    -2.6980 H     1 <1>   0.0800 
 46 H       -5.9110    -7.5640    -0.0860 H     1 <1>   0.0800 
 47 H       -6.8280    -8.1830    -1.4420 H     1 <1>   0.0800 
 48 H       -5.9240    -6.6940    -1.6030 H     1 <1>   0.0800 
@<TRIPOS>BOND
  1   1   2  2   
  2   2   3  am  
  3   2   4  1   
  4   3   5  1   
  5   3   6  1   
  6   4   7  ar  
  7   4   8  ar  
  8   5   9  1   
  9   5  25  1   
 10   5  26  1   
 11   6  10  1   
 12   6  27  1   
 13   6  28  1   
 14   7  11  ar  
 15   7  29  1   
 16   8  12  ar  
 17   8  30  1   
 18   9  13  1   
 19   9  31  1   
 20   9  32  1   
 21  10  13  1   
 22  10  33  1   
 23  10  34  1   
 24  11  14  ar  
 25  11  15  1   
 26  12  14  ar  
 27  12  35  1   
 28  13  36  1   
 29  13  37  1   
 30  15  16  1   
 31  15  17  1   
 32  16  18  1   
 33  16  38  1   
 34  16  39  1   
 35  17  40  1   
 36  17  41  1   
 37  17  42  1   
 38  18  19  1   
 39  18  20  2   
 40  19  21  1   
 41  20  22  1   
 42  20  43  1   
 43  21  22  2   
 44  22  23  1   
 45  23  24  1   
 46  23  44  1   
 47  23  45  1   
 48  24  46  1   
 49  24  47  1   
 50  24  48  1   
@<TRIPOS>SUBSTRUCTURE
  1 ****  15 GROUP 4 **** **** 0

# MOE 2024.06 (io_trps.svl 2023.06)
