@<TRIPOS>MOLECULE
NONAME
51 53 1 0 0 
SMALL
USER_CHARGES


@<TRIPOS>ATOM
  1 S        0.7610     0.8830    -0.7690 S.o2  1 <1>   1.3330 
  2 O        0.6970     2.0680    -1.5950 O.2   1 <1>  -0.6500 
  3 O       -0.2840     0.6260     0.1960 O.2   1 <1>  -0.6500 
  4 N        0.8500    -0.4670    -1.7960 N.am  1 <1>  -0.8490 
  5 C        2.3670     0.8700     0.0300 C.3   1 <1>  -0.0550 
  6 C        0.5490    -1.7320    -1.1160 C.3   1 <1>   0.1160 
  7 C       -0.0100    -0.3220    -2.9740 C.3   1 <1>   0.1160 
  8 C        2.5600     2.0050     1.0520 C.3   1 <1>  -0.0800 
  9 C        4.0300     2.1270     1.4610 C.3   1 <1>   0.2200 
 10 C        1.8710     1.6910     2.3810 C.3   1 <1>   0.1200 
 11 N        4.5490     3.5030     1.2570 N.am  1 <1>  -0.7300 
 12 C        4.0510     1.6740     2.9260 C.3   1 <1>   0.1200 
 13 O        2.8370     1.0240     3.1220 O.3   1 <1>  -0.5600 
 14 C        4.0960     4.6650     1.8060 C.2   1 <1>   0.6300 
 15 O        3.2140     4.6770     2.6310 O.2   1 <1>  -0.5700 
 16 C        4.7310     5.9870     1.3420 C.3   1 <1>   0.0320 
 17 C        5.6660     5.8110     0.1510 C.ar  1 <1>  -0.0320 
 18 C        5.0610     7.0450     2.3590 C.3   1 <1>  -0.2000 
 19 C        3.9320     7.2600     1.4030 C.3   1 <1>  -0.2000 
 20 C        5.1520     5.7820    -1.1360 C.ar  1 <1>  -0.1500 
 21 C        7.0290     5.6460     0.3400 C.ar  1 <1>  -0.1500 
 22 C        5.9890     5.5880    -2.2200 C.ar  1 <1>  -0.1500 
 23 C        7.8670     5.4520    -0.7450 C.ar  1 <1>  -0.1500 
 24 C        7.3510     5.4230    -2.0300 C.ar  1 <1>  -0.1440 
 25 C        8.2740     5.2110    -3.2170 C.3   1 <1>  -0.0970 
 26 H        2.5230    -0.0730     0.5180 H     1 <1>   0.0800 
 27 H        3.1100     0.9670    -0.7370 H     1 <1>   0.0800 
 28 H        0.7080    -2.5590    -1.7880 H     1 <1>   0.0800 
 29 H       -0.4750    -1.7460    -0.7800 H     1 <1>   0.0800 
 30 H        1.1930    -1.8600    -0.2630 H     1 <1>   0.0800 
 31 H        0.0770    -1.1860    -3.6090 H     1 <1>   0.0800 
 32 H        0.2870     0.5440    -3.5430 H     1 <1>   0.0800 
 33 H       -1.0380    -0.2020    -2.6750 H     1 <1>   0.0800 
 34 H        2.1790     2.9260     0.6440 H     1 <1>   0.0800 
 35 H        4.6410     1.4490     0.8900 H     1 <1>   0.0800 
 36 H        1.0000     1.0670     2.2910 H     1 <1>   0.0800 
 37 H        1.6150     2.5970     2.9060 H     1 <1>   0.0800 
 38 H        5.2680     3.5970     0.5330 H     1 <1>   0.3700 
 39 H        4.0950     2.5070     3.6050 H     1 <1>   0.0800 
 40 H        4.8490     0.9830     3.1280 H     1 <1>   0.0800 
 41 H        4.8270     6.8590     3.3930 H     1 <1>   0.1000 
 42 H        5.9520     7.6350     2.2360 H     1 <1>   0.1000 
 43 H        4.0530     7.9880     0.6200 H     1 <1>   0.1000 
 44 H        2.9240     7.2180     1.7770 H     1 <1>   0.1000 
 45 H        4.0950     5.9080    -1.2940 H     1 <1>   0.1500 
 46 H        7.4420     5.6660     1.3330 H     1 <1>   0.1500 
 47 H        5.5730     5.5680    -3.2130 H     1 <1>   0.1500 
 48 H        8.9230     5.3250    -0.5840 H     1 <1>   0.1500 
 49 H        7.8350     5.6120    -4.1140 H     1 <1>   0.0800 
 50 H        8.4520     4.1600    -3.3580 H     1 <1>   0.0800 
 51 H        9.2140     5.7050    -3.0520 H     1 <1>   0.0800 
@<TRIPOS>BOND
  1   1   2  2   
  2   1   3  2   
  3   1   4  am  
  4   1   5  1   
  5   4   6  1   
  6   4   7  1   
  7   5   8  1   
  8   5  26  1   
  9   5  27  1   
 10   6  28  1   
 11   6  29  1   
 12   6  30  1   
 13   7  31  1   
 14   7  32  1   
 15   7  33  1   
 16   8   9  1   
 17   8  10  1   
 18   8  34  1   
 19   9  11  1   
 20   9  12  1   
 21   9  35  1   
 22  10  13  1   
 23  10  36  1   
 24  10  37  1   
 25  11  14  am  
 26  11  38  1   
 27  12  13  1   
 28  12  39  1   
 29  12  40  1   
 30  14  15  2   
 31  14  16  1   
 32  16  17  1   
 33  16  18  1   
 34  16  19  1   
 35  17  20  ar  
 36  17  21  ar  
 37  18  19  1   
 38  18  41  1   
 39  18  42  1   
 40  19  43  1   
 41  19  44  1   
 42  20  22  ar  
 43  20  45  1   
 44  21  23  ar  
 45  21  46  1   
 46  22  24  ar  
 47  22  47  1   
 48  23  24  ar  
 49  23  48  1   
 50  24  25  1   
 51  25  49  1   
 52  25  50  1   
 53  25  51  1   
@<TRIPOS>SUBSTRUCTURE
  1 ****  11 GROUP 4 **** **** 0

# MOE 2024.06 (io_trps.svl 2023.06)
