@<TRIPOS>MOLECULE
NONAME
47 48 1 0 0 
SMALL
USER_CHARGES


@<TRIPOS>ATOM
  1 S        0.7270    -0.2380     0.0470 S.o2  1 <1>   1.3330 
  2 O        0.5410    -1.2030    -1.0140 O.2   1 <1>  -0.6500 
  3 O        1.0260    -0.7020     1.3840 O.2   1 <1>  -0.6500 
  4 N       -0.6650     0.7300     0.1370 N.am  1 <1>  -0.8490 
  5 C        1.9960     0.9120    -0.4740 C.3   1 <1>  -0.0550 
  6 C       -1.8920    -0.0450    -0.0610 C.3   1 <1>   0.1160 
  7 C       -0.7570     1.5050     1.3790 C.3   1 <1>   0.1160 
  8 C        3.3610     0.2380    -0.7190 C.3   1 <1>  -0.0800 
  9 C        4.4400     1.1570    -1.2710 C.3   1 <1>   0.2200 
 10 C        4.0190    -0.3500     0.5370 C.3   1 <1>   0.1200 
 11 N        4.4080     2.4730    -0.5920 N.am  1 <1>  -0.7300 
 12 C        5.6910     0.4120    -0.8310 C.3   1 <1>   0.1200 
 13 O        5.3880    -0.0770     0.4390 O.3   1 <1>  -0.5600 
 14 C        3.8930     3.6250    -1.1090 C.2   1 <1>   0.5440 
 15 O        3.3550     3.5760    -2.1970 O.2   1 <1>  -0.5700 
 16 C        3.9320     4.8560    -0.3410 C.ar  1 <1>   0.0860 
 17 C        5.1070     5.4100     0.1960 C.ar  1 <1>  -0.1440 
 18 C        2.7260     5.5150    -0.1080 C.ar  1 <1>  -0.1500 
 19 C        5.0420     6.5550     0.9880 C.ar  1 <1>  -0.1440 
 20 C        6.4630     4.7630    -0.1010 C.3   1 <1>  -0.0970 
 21 C        2.6650     6.6580     0.6600 C.ar  1 <1>  -0.1500 
 22 C        3.8210     7.1710     1.2120 C.ar  1 <1>  -0.1500 
 23 C        6.2770     7.1770     1.6280 C.3   1 <1>  -0.0970 
 24 H        1.6810     1.3840    -1.3850 H     1 <1>   0.0800 
 25 H        2.1000     1.6780     0.2680 H     1 <1>   0.0800 
 26 H       -2.7530     0.5990    -0.0170 H     1 <1>   0.0800 
 27 H       -1.9790    -0.8080     0.6950 H     1 <1>   0.0800 
 28 H       -1.8770    -0.5180    -1.0290 H     1 <1>   0.0800 
 29 H       -1.6100     2.1610     1.3420 H     1 <1>   0.0800 
 30 H        0.1270     2.1060     1.5080 H     1 <1>   0.0800 
 31 H       -0.8550     0.8470     2.2270 H     1 <1>   0.0800 
 32 H        3.2190    -0.5670    -1.4200 H     1 <1>   0.0800 
 33 H        4.3840     1.2750    -2.3410 H     1 <1>   0.0800 
 34 H        3.8780    -1.4160     0.6020 H     1 <1>   0.0800 
 35 H        3.6580     0.1170     1.4380 H     1 <1>   0.0800 
 36 H        4.8000     2.4690     0.3530 H     1 <1>   0.3700 
 37 H        6.5600     1.0440    -0.7830 H     1 <1>   0.0800 
 38 H        5.8820    -0.4300    -1.4740 H     1 <1>   0.0800 
 39 H        1.8250     5.1160    -0.5390 H     1 <1>   0.1500 
 40 H        7.2440     5.4980    -0.1540 H     1 <1>   0.0800 
 41 H        6.4540     4.2590    -1.0500 H     1 <1>   0.0800 
 42 H        6.7080     4.0530     0.6690 H     1 <1>   0.0800 
 43 H        1.7220     7.1490     0.8290 H     1 <1>   0.1500 
 44 H        3.7610     8.0600     1.8160 H     1 <1>   0.1500 
 45 H        6.0030     7.9200     2.3560 H     1 <1>   0.0800 
 46 H        6.8820     7.6500     0.8760 H     1 <1>   0.0800 
 47 H        6.8590     6.4250     2.1290 H     1 <1>   0.0800 
@<TRIPOS>BOND
  1   1   2  2   
  2   1   3  2   
  3   1   4  am  
  4   1   5  1   
  5   4   6  1   
  6   4   7  1   
  7   5   8  1   
  8   5  24  1   
  9   5  25  1   
 10   6  26  1   
 11   6  27  1   
 12   6  28  1   
 13   7  29  1   
 14   7  30  1   
 15   7  31  1   
 16   8   9  1   
 17   8  10  1   
 18   8  32  1   
 19   9  11  1   
 20   9  12  1   
 21   9  33  1   
 22  10  13  1   
 23  10  34  1   
 24  10  35  1   
 25  11  14  am  
 26  11  36  1   
 27  12  13  1   
 28  12  37  1   
 29  12  38  1   
 30  14  15  2   
 31  14  16  1   
 32  16  17  ar  
 33  16  18  ar  
 34  17  19  ar  
 35  17  20  1   
 36  18  21  ar  
 37  18  39  1   
 38  19  22  ar  
 39  19  23  1   
 40  20  40  1   
 41  20  41  1   
 42  20  42  1   
 43  21  22  ar  
 44  21  43  1   
 45  22  44  1   
 46  23  45  1   
 47  23  46  1   
 48  23  47  1   
@<TRIPOS>SUBSTRUCTURE
  1 ****  11 GROUP 4 **** **** 0

# MOE 2024.06 (io_trps.svl 2023.06)
