@<TRIPOS>MOLECULE
NONAME
33 34 1 0 0 
SMALL
USER_CHARGES


@<TRIPOS>ATOM
  1 CL      -0.3560    -0.0920    -0.3960 Cl    1 <1>  -0.1770 
  2 C        1.1510    -0.9780    -0.2330 C.ar  1 <1>   0.1770 
  3 C        1.1580    -2.3610    -0.0960 C.ar  1 <1>   0.4100 
  4 C        2.3490    -0.3200    -0.2410 C.ar  1 <1>   0.1600 
  5 N        2.3000    -3.0140     0.0170 N.ar  1 <1>  -0.6200 
  6 N       -0.0030    -3.0970    -0.0770 N.pl3 1 <1>  -0.8690 
  7 N        3.4980    -0.9650    -0.1240 N.ar  1 <1>  -0.6200 
  8 C        3.3990    -2.2790     0.0000 C.ar  1 <1>   0.4770 
  9 C       -0.0480    -4.5830    -0.1470 C.3   1 <1>   0.3900 
 10 C        4.7010    -3.0320     0.1320 C.3   1 <1>  -0.0960 
 11 C       -1.3610    -5.1240     0.4080 C.2   1 <1>   0.0460 
 12 N       -1.6770    -6.4460     0.1180 N.2   1 <1>  -0.5650 
 13 C       -2.2540    -4.4550     1.1570 C.2   1 <1>  -0.1100 
 14 C       -2.7920    -6.7830     0.6320 C.2   1 <1>   0.1980 
 15 S       -3.5830    -5.5090     1.5370 S.3   1 <1>  -0.0800 
 16 C       -3.4880    -8.1280     0.5570 C.3   1 <1>   0.0200 
 17 C       -4.7060    -8.0850    -0.3790 C.3   1 <1>  -0.1600 
 18 C       -5.3910    -9.4520    -0.4770 C.3   1 <1>  -0.2400 
 19 H        2.3740     0.7500    -0.3450 H     1 <1>   0.1500 
 20 H       -0.8650    -2.6360    -0.3780 H     1 <1>   0.4000 
 21 H        0.7660    -5.0110     0.4110 H     1 <1>   0.0800 
 22 H        0.0500    -4.8860    -1.1740 H     1 <1>   0.0800 
 23 H        4.5530    -3.9310     0.7030 H     1 <1>   0.0800 
 24 H        5.4320    -2.4220     0.6290 H     1 <1>   0.0800 
 25 H        5.0620    -3.2900    -0.8450 H     1 <1>   0.0800 
 26 H       -2.2780    -3.4500     1.5370 H     1 <1>   0.1500 
 27 H       -3.7910    -8.4210     1.5460 H     1 <1>   0.0800 
 28 H       -2.7840    -8.8550     0.1940 H     1 <1>   0.0800 
 29 H       -4.3850    -7.7750    -1.3590 H     1 <1>   0.0800 
 30 H       -5.4130    -7.3590    -0.0170 H     1 <1>   0.0800 
 31 H       -4.7090   -10.1900    -0.8630 H     1 <1>   0.0800 
 32 H       -6.2370    -9.3920    -1.1400 H     1 <1>   0.0800 
 33 H       -5.7380    -9.7720     0.4900 H     1 <1>   0.0800 
@<TRIPOS>BOND
  1   1   2  1   
  2   2   3  ar  
  3   2   4  ar  
  4   3   5  ar  
  5   3   6  1   
  6   4   7  ar  
  7   4  19  1   
  8   5   8  ar  
  9   6   9  1   
 10   6  20  1   
 11   7   8  ar  
 12   8  10  1   
 13   9  11  1   
 14   9  21  1   
 15   9  22  1   
 16  10  23  1   
 17  10  24  1   
 18  10  25  1   
 19  11  12  1   
 20  11  13  2   
 21  12  14  2   
 22  13  15  1   
 23  13  26  1   
 24  14  15  1   
 25  14  16  1   
 26  16  17  1   
 27  16  27  1   
 28  16  28  1   
 29  17  18  1   
 30  17  29  1   
 31  17  30  1   
 32  18  31  1   
 33  18  32  1   
 34  18  33  1   
@<TRIPOS>SUBSTRUCTURE
  1 ****   9 GROUP 4 **** **** 0

# MOE 2024.06 (io_trps.svl 2023.06)
