@<TRIPOS>MOLECULE
NONAME
45 47 1 0 0 
SMALL
USER_CHARGES


@<TRIPOS>ATOM
  1 CL       1.3040     0.7290    -0.9620 Cl    1 <1>  -0.1770 
  2 C        2.1270    -0.3910     0.1070 C.ar  1 <1>   0.1770 
  3 C        1.9670    -1.7580    -0.0800 C.ar  1 <1>   0.0830 
  4 C        2.9290     0.1200     1.1180 C.ar  1 <1>  -0.1440 
  5 O        1.1590    -2.1930    -1.0810 O.3   1 <1>  -0.3630 
  6 C        2.6530    -2.6340     0.7660 C.ar  1 <1>   0.0830 
  7 C        3.5760    -0.7630     1.9720 C.ar  1 <1>  -0.1500 
  8 C        3.0940     1.6170     1.2870 C.3   1 <1>   0.4860 
  9 C       -0.0400    -2.8300    -0.6930 C.3   1 <1>   0.0400 
 10 O        2.5940    -3.9820     0.6450 O.3   1 <1>  -0.3630 
 11 C        3.4340    -2.1290     1.7930 C.ar  1 <1>  -0.1500 
 12 N        4.4190     2.0120     0.7290 N.4   1 <1>  -0.9590 
 13 C        3.0830    -4.5530    -0.5500 C.3   1 <1>   0.0400 
 14 C        4.8350     3.3620     1.2570 C.3   1 <1>   0.3430 
 15 C        4.4060     1.9210    -0.7750 C.3   1 <1>   0.3430 
 16 C        6.2660     3.8090     0.8730 C.3   1 <1>   0.2200 
 17 C        5.7870     2.0130    -1.4230 C.3   1 <1>  -0.0190 
 18 N        6.3040     4.2640    -0.5400 N.am  1 <1>  -0.7300 
 19 C        7.3170     2.7100     1.1760 C.3   1 <1>   0.1200 
 20 C        6.1350     3.4690    -1.6160 C.2   1 <1>   0.5690 
 21 C        6.8840     1.2040    -0.7020 C.3   1 <1>   0.1200 
 22 O        7.7530     2.0020     0.0480 O.3   1 <1>  -0.5600 
 23 O        6.1980     3.9220    -2.7260 O.2   1 <1>  -0.5700 
 24 H        4.1880    -0.4110     2.7860 H     1 <1>   0.1500 
 25 H        3.0490     1.8520     2.3380 H     1 <1>   0.0800 
 26 H        2.3000     2.1510     0.7900 H     1 <1>   0.0800 
 27 H       -0.5920    -3.0760    -1.5820 H     1 <1>   0.0800 
 28 H       -0.6120    -2.1550    -0.0820 H     1 <1>   0.0800 
 29 H        0.1900    -3.7260    -0.1460 H     1 <1>   0.0800 
 30 H        3.9330    -2.8210     2.4510 H     1 <1>   0.1500 
 31 H        5.0900     1.3090     1.0620 H     1 <1>   0.4500 
 32 H        3.1260    -5.6190    -0.4180 H     1 <1>   0.0800 
 33 H        4.0680    -4.1670    -0.7450 H     1 <1>   0.0800 
 34 H        2.4190    -4.3160    -1.3600 H     1 <1>   0.0800 
 35 H        4.1440     4.1160     0.9160 H     1 <1>   0.0800 
 36 H        4.7810     3.3390     2.3330 H     1 <1>   0.0800 
 37 H        3.9840     0.9710    -1.0610 H     1 <1>   0.0800 
 38 H        3.7710     2.6890    -1.1870 H     1 <1>   0.0800 
 39 H        6.4990     4.6590     1.4920 H     1 <1>   0.0800 
 40 H        5.6790     1.5900    -2.4050 H     1 <1>   0.0800 
 41 H        6.6840     5.1960    -0.7370 H     1 <1>   0.3700 
 42 H        6.9700     2.0080     1.9140 H     1 <1>   0.0800 
 43 H        8.1940     3.1860     1.5810 H     1 <1>   0.0800 
 44 H        7.5000     0.7300    -1.4480 H     1 <1>   0.0800 
 45 H        6.4860     0.4270    -0.0730 H     1 <1>   0.0800 
@<TRIPOS>BOND
  1   1   2  1   
  2   2   3  ar  
  3   2   4  ar  
  4   3   5  1   
  5   3   6  ar  
  6   4   7  ar  
  7   4   8  1   
  8   5   9  1   
  9   6  10  1   
 10   6  11  ar  
 11   7  11  ar  
 12   7  24  1   
 13   8  12  1   
 14   8  25  1   
 15   8  26  1   
 16   9  27  1   
 17   9  28  1   
 18   9  29  1   
 19  10  13  1   
 20  11  30  1   
 21  12  14  1   
 22  12  15  1   
 23  12  31  1   
 24  13  32  1   
 25  13  33  1   
 26  13  34  1   
 27  14  16  1   
 28  14  35  1   
 29  14  36  1   
 30  15  17  1   
 31  15  37  1   
 32  15  38  1   
 33  16  18  1   
 34  16  19  1   
 35  16  39  1   
 36  17  20  1   
 37  17  21  1   
 38  17  40  1   
 39  18  20  am  
 40  18  41  1   
 41  19  22  1   
 42  19  42  1   
 43  19  43  1   
 44  20  23  2   
 45  21  22  1   
 46  21  44  1   
 47  21  45  1   
@<TRIPOS>SUBSTRUCTURE
  1 ****  15 GROUP 4 **** **** 0

# MOE 2024.06 (io_trps.svl 2023.06)
