@<TRIPOS>MOLECULE
NONAME
44 46 1 0 0 
SMALL
USER_CHARGES


@<TRIPOS>ATOM
  1 F        0.5120     0.4920     2.0040 F     1 <1>  -0.1900 
  2 C        1.4840     0.9190     1.2410 C.ar  1 <1>   0.1900 
  3 C        2.2960    -0.0090     0.6180 C.ar  1 <1>  -0.1440 
  4 C        1.6490     2.2810     1.0830 C.ar  1 <1>  -0.1500 
  5 C        3.3130     0.4500    -0.2100 C.ar  1 <1>   0.0830 
  6 C        2.0770    -1.4890     0.8410 C.3   1 <1>   0.4860 
  7 C        2.6690     2.7310     0.2630 C.ar  1 <1>  -0.1500 
  8 O        4.0820    -0.4870    -0.8270 O.3   1 <1>  -0.3630 
  9 C        3.4950     1.8230    -0.3810 C.ar  1 <1>  -0.1500 
 10 N        1.7050    -2.1200    -0.4530 N.4   1 <1>  -0.9590 
 11 C        5.2600    -0.1220    -1.5200 C.3   1 <1>   0.0400 
 12 C        0.4020    -1.6170    -0.9890 C.3   1 <1>   0.3430 
 13 C        1.5670    -3.5940    -0.3390 C.3   1 <1>   0.3430 
 14 C       -0.6490    -2.6850    -0.6510 C.3   1 <1>   0.2000 
 15 C        0.1010    -3.8380     0.0230 C.3   1 <1>  -0.0800 
 16 O       -1.6140    -2.1910     0.2130 O.3   1 <1>  -0.6800 
 17 C       -0.4230    -5.2190    -0.4130 C.3   1 <1>  -0.0170 
 18 C        0.3140    -6.3610     0.2750 C.ar  1 <1>   0.1670 
 19 N        1.5980    -6.4960    -0.0240 N.ar  1 <1>  -0.6200 
 20 C       -0.3630    -7.2000     1.1590 C.ar  1 <1>   0.1600 
 21 C        2.1470    -7.5270     0.6030 C.ar  1 <1>   0.1600 
 22 N        0.1900    -8.2170     1.7960 N.ar  1 <1>  -0.6200 
 23 C        1.4660    -8.3580     1.4840 C.ar  1 <1>   0.1600 
 24 H        0.9970     2.9720     1.5890 H     1 <1>   0.1500 
 25 H        1.3030    -1.6490     1.5730 H     1 <1>   0.0800 
 26 H        2.9920    -1.9240     1.2100 H     1 <1>   0.0800 
 27 H        2.8190     3.7890     0.1250 H     1 <1>   0.1500 
 28 H        4.2740     2.2090    -1.0140 H     1 <1>   0.1500 
 29 H        2.4770    -1.8620    -1.0930 H     1 <1>   0.4500 
 30 H        5.7520    -1.0190    -1.8510 H     1 <1>   0.0800 
 31 H        5.9070     0.4210    -0.8530 H     1 <1>   0.0800 
 32 H        4.9960     0.4820    -2.3710 H     1 <1>   0.0800 
 33 H        0.1330    -0.6620    -0.5680 H     1 <1>   0.0800 
 34 H        0.4690    -1.5220    -2.0600 H     1 <1>   0.0800 
 35 H        1.7790    -4.0540    -1.2910 H     1 <1>   0.0800 
 36 H        2.2340    -4.0120     0.4000 H     1 <1>   0.0800 
 37 H       -1.1480    -2.9970    -1.5540 H     1 <1>   0.0800 
 38 H        0.0150    -3.7600     1.0930 H     1 <1>   0.0800 
 39 H       -1.2580    -1.9260     1.0840 H     1 <1>   0.4000 
 40 H       -0.3150    -5.3390    -1.4770 H     1 <1>   0.0800 
 41 H       -1.4740    -5.2820    -0.1880 H     1 <1>   0.0800 
 42 H       -1.4080    -7.0270     1.3500 H     1 <1>   0.1500 
 43 H        3.1870    -7.7270     0.4130 H     1 <1>   0.1500 
 44 H        1.9980    -9.1700     1.9480 H     1 <1>   0.1500 
@<TRIPOS>BOND
  1   1   2  1   
  2   2   3  ar  
  3   2   4  ar  
  4   3   5  ar  
  5   3   6  1   
  6   4   7  ar  
  7   4  24  1   
  8   5   8  1   
  9   5   9  ar  
 10   6  10  1   
 11   6  25  1   
 12   6  26  1   
 13   7   9  ar  
 14   7  27  1   
 15   8  11  1   
 16   9  28  1   
 17  10  12  1   
 18  10  13  1   
 19  10  29  1   
 20  11  30  1   
 21  11  31  1   
 22  11  32  1   
 23  12  14  1   
 24  12  33  1   
 25  12  34  1   
 26  13  15  1   
 27  13  35  1   
 28  13  36  1   
 29  14  15  1   
 30  14  16  1   
 31  14  37  1   
 32  15  17  1   
 33  15  38  1   
 34  16  39  1   
 35  17  18  1   
 36  17  40  1   
 37  17  41  1   
 38  18  19  ar  
 39  18  20  ar  
 40  19  21  ar  
 41  20  22  ar  
 42  20  42  1   
 43  21  23  ar  
 44  21  43  1   
 45  22  23  ar  
 46  23  44  1   
@<TRIPOS>SUBSTRUCTURE
  1 ****  10 GROUP 4 **** **** 0

# MOE 2024.06 (io_trps.svl 2023.06)
