@<TRIPOS>MOLECULE
NONAME
40 43 1 0 0 
SMALL
USER_CHARGES


@<TRIPOS>ATOM
  1 O       -2.3020     0.5320    -2.4100 O.2   1 <1>  -0.5700 
  2 C       -2.0990     0.7690    -1.2300 C.2   1 <1>   0.7160 
  3 N       -1.9700    -0.3100    -0.3940 N.am  1 <1>  -0.7300 
  4 C       -2.0090     2.1310    -0.6800 C.2   1 <1>   0.4300 
  5 C       -2.0230    -1.7370    -0.7860 C.3   1 <1>   0.2200 
  6 N       -1.8000     2.3700     0.6040 N.2   1 <1>  -0.7070 
  7 N       -2.1350     3.2420    -1.4410 N.2   1 <1>  -0.5650 
  8 C       -3.3640    -2.3630    -0.4260 C.3   1 <1>  -0.0800 
  9 C       -1.0910    -2.5360     0.1160 C.3   1 <1>   0.1200 
 10 N       -1.7870     3.6900     0.6570 N.pl3 1 <1>   0.6010 
 11 C       -1.9930     4.1970    -0.5870 C.2   1 <1>   0.3120 
 12 C       -3.1790    -2.7480     1.0460 C.3   1 <1>   0.1200 
 13 C       -4.6090    -1.5010    -0.7040 C.3   1 <1>  -0.0170 
 14 O       -1.8030    -2.7380     1.2990 O.3   1 <1>  -0.5600 
 15 C       -1.6080     4.5370     1.7310 C.2   1 <1>  -0.1810 
 16 N       -2.0360     5.5460    -0.8540 N.2   1 <1>  -0.5760 
 17 C       -5.8820    -2.2650    -0.3780 C.ar  1 <1>  -0.1430 
 18 C       -1.6460     5.8730     1.4850 C.2   1 <1>  -0.1360 
 19 C       -1.8670     6.3350     0.1560 C.2   1 <1>   0.3760 
 20 C       -6.4230    -3.1820    -1.2560 C.ar  1 <1>  -0.1500 
 21 C       -6.5610    -2.0840     0.8100 C.ar  1 <1>  -0.1500 
 22 C       -7.5810    -3.8590    -0.9110 C.ar  1 <1>   0.1600 
 23 C       -7.7120    -2.8130     1.0580 C.ar  1 <1>   0.1600 
 24 N       -8.2380    -3.6980     0.2260 N.ar  1 <1>  -0.6200 
 25 H       -1.8260    -0.1260     0.6030 H     1 <1>   0.3700 
 26 H       -1.7770    -1.8550    -1.8280 H     1 <1>   0.0800 
 27 H       -3.4580    -3.2770    -0.9850 H     1 <1>   0.0800 
 28 H       -0.1700    -2.0210     0.3280 H     1 <1>   0.0800 
 29 H       -0.8830    -3.5010    -0.3110 H     1 <1>   0.0800 
 30 H       -3.5680    -3.7290     1.2550 H     1 <1>   0.0800 
 31 H       -3.6340    -2.0280     1.7040 H     1 <1>   0.0800 
 32 H       -4.6210    -1.2140    -1.7420 H     1 <1>   0.0800 
 33 H       -4.5800    -0.5960    -0.1220 H     1 <1>   0.0800 
 34 H       -1.4490     4.0790     2.6890 H     1 <1>   0.1500 
 35 H       -1.5160     6.6070     2.2610 H     1 <1>   0.1500 
 36 H       -1.8920     7.3990    -0.0040 H     1 <1>   0.0600 
 37 H       -5.9570    -3.3750    -2.2040 H     1 <1>   0.1500 
 38 H       -6.2080    -1.3850     1.5450 H     1 <1>   0.1500 
 39 H       -7.9900    -4.5700    -1.6080 H     1 <1>   0.1500 
 40 H       -8.2290    -2.6600     1.9900 H     1 <1>   0.1500 
@<TRIPOS>BOND
  1   1   2  2   
  2   2   3  am  
  3   2   4  1   
  4   3   5  1   
  5   3  25  1   
  6   4   6  2   
  7   4   7  1   
  8   5   8  1   
  9   5   9  1   
 10   5  26  1   
 11   6  10  1   
 12   7  11  2   
 13   8  12  1   
 14   8  13  1   
 15   8  27  1   
 16   9  14  1   
 17   9  28  1   
 18   9  29  1   
 19  10  11  1   
 20  10  15  1   
 21  11  16  1   
 22  12  14  1   
 23  12  30  1   
 24  12  31  1   
 25  13  17  1   
 26  13  32  1   
 27  13  33  1   
 28  15  18  2   
 29  15  34  1   
 30  16  19  2   
 31  17  20  ar  
 32  17  21  ar  
 33  18  19  1   
 34  18  35  1   
 35  19  36  1   
 36  20  22  ar  
 37  20  37  1   
 38  21  23  ar  
 39  21  38  1   
 40  22  24  ar  
 41  22  39  1   
 42  23  24  ar  
 43  23  40  1   
@<TRIPOS>SUBSTRUCTURE
  1 ****   3 GROUP 4 **** **** 0

# MOE 2024.06 (io_trps.svl 2023.06)
