@<TRIPOS>MOLECULE
NONAME
42 44 1 0 0 
SMALL
USER_CHARGES


@<TRIPOS>ATOM
  1 O       -3.0450    -1.4430     1.7860 O.2   1 <1>  -0.5700 
  2 C       -3.1620    -1.0080     0.6520 C.2   1 <1>   0.7150 
  3 N       -2.4810    -1.6450    -0.3710 N.am  1 <1>  -0.6600 
  4 C       -4.0160     0.1380     0.4210 C.2   1 <1>   0.0550 
  5 C       -2.7110    -1.3310    -1.8200 C.3   1 <1>   0.1400 
  6 C       -1.4730    -2.7010    -0.0730 C.3   1 <1>   0.1400 
  7 O       -3.6570     1.3440     0.8550 O.3   1 <1>  -0.2800 
  8 C       -5.2230     0.2510    -0.2020 C.2   1 <1>  -0.1500 
  9 C       -2.9240    -2.5760    -2.7030 C.3   1 <1>   0.1400 
 10 C       -2.1350    -4.0820     0.0200 C.3   1 <1>  -0.1600 
 11 C       -4.5900     2.2090     0.5300 C.2   1 <1>  -0.0100 
 12 C       -5.5930     1.5950    -0.1310 C.2   1 <1>  -0.1500 
 13 N       -3.5820    -3.6980    -1.9710 N.am  1 <1>  -0.6600 
 14 C       -2.6420    -4.6430    -1.3140 C.3   1 <1>   0.1400 
 15 C       -4.9210    -3.6430    -1.6540 C.2   1 <1>   0.7150 
 16 O       -5.5730    -2.6710    -1.9930 O.2   1 <1>  -0.5700 
 17 C       -5.5550    -4.6970    -0.9100 C.2   1 <1>  -0.2370 
 18 N       -6.0830    -4.5260     0.3410 N.pl3 1 <1>   0.0480 
 19 C       -5.7560    -6.0050    -1.2680 C.2   1 <1>  -0.1500 
 20 C       -6.5920    -5.7120     0.7460 C.2   1 <1>  -0.3020 
 21 C       -6.0850    -3.2770     1.1280 C.3   1 <1>   0.0160 
 22 C       -6.4140    -6.6590    -0.2230 C.2   1 <1>   0.0190 
 23 C       -6.8030    -8.0410    -0.2090 C.1   1 <1>   0.5380 
 24 N       -7.1030    -9.1420    -0.2020 N.1   1 <1>  -0.5570 
 25 H       -1.8740    -0.7700    -2.1960 H     1 <1>   0.0800 
 26 H       -3.5780    -0.7090    -1.9330 H     1 <1>   0.0800 
 27 H       -0.9970    -2.4760     0.8670 H     1 <1>   0.0800 
 28 H       -0.7070    -2.7010    -0.8300 H     1 <1>   0.0800 
 29 H       -5.8010    -0.5250    -0.6700 H     1 <1>   0.1500 
 30 H       -1.9740    -2.9050    -3.0860 H     1 <1>   0.0800 
 31 H       -3.5280    -2.3030    -3.5520 H     1 <1>   0.0800 
 32 H       -2.9420    -4.0460     0.7300 H     1 <1>   0.0800 
 33 H       -1.4100    -4.7730     0.4110 H     1 <1>   0.0800 
 34 H       -4.4640     3.2420     0.8070 H     1 <1>   0.1500 
 35 H       -6.4970     2.0210    -0.5290 H     1 <1>   0.1500 
 36 H       -3.1260    -5.5880    -1.1410 H     1 <1>   0.0800 
 37 H       -1.8090    -4.8280    -1.9700 H     1 <1>   0.0800 
 38 H       -5.4670    -6.4660    -2.1970 H     1 <1>   0.1500 
 39 H       -7.0630    -5.8400     1.7050 H     1 <1>   0.1500 
 40 H       -6.5350    -2.4920     0.5500 H     1 <1>   0.0800 
 41 H       -5.0750    -3.0100     1.3740 H     1 <1>   0.0800 
 42 H       -6.6450    -3.4180     2.0340 H     1 <1>   0.0800 
@<TRIPOS>BOND
  1   1   2  2   
  2   2   3  am  
  3   2   4  1   
  4   3   5  1   
  5   3   6  1   
  6   4   7  1   
  7   4   8  2   
  8   5   9  1   
  9   5  25  1   
 10   5  26  1   
 11   6  10  1   
 12   6  27  1   
 13   6  28  1   
 14   7  11  1   
 15   8  12  1   
 16   8  29  1   
 17   9  13  1   
 18   9  30  1   
 19   9  31  1   
 20  10  14  1   
 21  10  32  1   
 22  10  33  1   
 23  11  12  2   
 24  11  34  1   
 25  12  35  1   
 26  13  14  1   
 27  13  15  am  
 28  14  36  1   
 29  14  37  1   
 30  15  16  2   
 31  15  17  1   
 32  17  18  1   
 33  17  19  2   
 34  18  20  1   
 35  18  21  1   
 36  19  22  1   
 37  19  38  1   
 38  20  22  2   
 39  20  39  1   
 40  21  40  1   
 41  21  41  1   
 42  21  42  1   
 43  22  23  1   
 44  23  24  3   
@<TRIPOS>SUBSTRUCTURE
  1 ****  15 GROUP 4 **** **** 0

# MOE 2024.06 (io_trps.svl 2023.06)
