@<TRIPOS>MOLECULE
NONAME
54 56 1 0 0 
SMALL
USER_CHARGES


@<TRIPOS>ATOM
  1 O        0.4650     0.8600     0.3350 O.2   1 <1>  -0.5700 
  2 C       -0.6810     1.2480     0.4750 C.2   1 <1>   0.5440 
  3 N       -1.6600     0.3250     0.7450 N.am  1 <1>  -0.6600 
  4 C       -0.9960     2.6630     0.4130 C.ar  1 <1>   0.0860 
  5 C       -1.7630    -0.9250    -0.0580 C.3   1 <1>   0.1400 
  6 C       -2.6270     0.4970     1.8550 C.3   1 <1>   0.1400 
  7 C       -0.1970     3.6110     1.0500 C.ar  1 <1>  -0.1500 
  8 C       -2.1120     3.1270    -0.2810 C.ar  1 <1>  -0.1500 
  9 C       -3.1960    -1.1560    -0.5890 C.3   1 <1>  -0.1060 
 10 C       -4.0540     0.2760     1.3610 C.3   1 <1>  -0.1600 
 11 C       -0.5090     4.9590     1.0160 C.ar  1 <1>  -0.1500 
 12 C       -2.4300     4.4720    -0.3180 C.ar  1 <1>  -0.1500 
 13 C       -3.5180    -0.1050    -1.6620 C.2   1 <1>   0.9060 
 14 C       -4.1660    -1.0570     0.6160 C.3   1 <1>   0.2000 
 15 C       -3.2830    -2.5400    -1.2870 C.3   1 <1>  -0.0650 
 16 C       -1.6330     5.3980     0.3340 C.ar  1 <1>  -0.1440 
 17 O       -4.6680     0.3590    -1.7490 O.co2 1 <1>  -0.9000 
 18 O       -2.6490     0.2230    -2.4760 O.co2 1 <1>  -0.9000 
 19 O       -5.4710    -1.1780     0.1890 O.3   1 <1>  -0.6800 
 20 C       -2.9750    -3.7630    -0.4050 C.3   1 <1>  -0.1950 
 21 C       -1.9830     6.8770     0.2900 C.3   1 <1>  -0.0170 
 22 C       -1.5820    -4.2840    -0.2360 C.3   1 <1>  -0.2000 
 23 C       -2.5820    -5.0540    -1.0490 C.3   1 <1>  -0.2000 
 24 C       -1.3390     7.5430    -0.9310 C.3   1 <1>  -0.1600 
 25 C       -1.6780     9.0370    -1.0050 C.3   1 <1>  -0.1600 
 26 C       -1.0310     9.6870    -2.2300 C.3   1 <1>  -0.2400 
 27 H       -1.0720    -0.8800    -0.8850 H     1 <1>   0.0800 
 28 H       -1.4660    -1.7410     0.5720 H     1 <1>   0.0800 
 29 H       -2.3960    -0.2210     2.6220 H     1 <1>   0.0800 
 30 H       -2.5370     1.4820     2.2780 H     1 <1>   0.0800 
 31 H        0.6800     3.2740     1.5740 H     1 <1>   0.1500 
 32 H       -2.7310     2.4170    -0.8090 H     1 <1>   0.1500 
 33 H       -4.3300     1.0920     0.7180 H     1 <1>   0.0800 
 34 H       -4.7210     0.2710     2.2030 H     1 <1>   0.0800 
 35 H        0.1280     5.6650     1.5180 H     1 <1>   0.1500 
 36 H       -3.3000     4.7860    -0.8670 H     1 <1>   0.1500 
 37 H       -3.9810    -1.8560     1.3110 H     1 <1>   0.0800 
 38 H       -4.2760    -2.6570    -1.6880 H     1 <1>   0.0800 
 39 H       -2.6120    -2.5360    -2.1300 H     1 <1>   0.0800 
 40 H       -5.5310    -0.5700    -0.6080 H     1 <1>   0.4000 
 41 H       -3.6570    -3.8550     0.4230 H     1 <1>   0.1000 
 42 H       -3.0520     6.9890     0.2440 H     1 <1>   0.0800 
 43 H       -1.6400     7.3560     1.1900 H     1 <1>   0.0800 
 44 H       -0.7750    -3.7900    -0.7490 H     1 <1>   0.1000 
 45 H       -1.2890    -4.6610     0.7280 H     1 <1>   0.1000 
 46 H       -2.9830    -5.9690    -0.6510 H     1 <1>   0.1000 
 47 H       -2.4620    -5.0860    -2.1180 H     1 <1>   0.1000 
 48 H       -0.2710     7.4160    -0.8790 H     1 <1>   0.0800 
 49 H       -1.6860     7.0490    -1.8240 H     1 <1>   0.0800 
 50 H       -2.7470     9.1640    -1.0610 H     1 <1>   0.0800 
 51 H       -1.3280     9.5330    -0.1150 H     1 <1>   0.0800 
 52 H       -1.3820     9.2200    -3.1340 H     1 <1>   0.0800 
 53 H        0.0400     9.5930    -2.1850 H     1 <1>   0.0800 
 54 H       -1.2810    10.7330    -2.2680 H     1 <1>   0.0800 
@<TRIPOS>BOND
  1   1   2  2   
  2   2   3  am  
  3   2   4  1   
  4   3   5  1   
  5   3   6  1   
  6   4   7  ar  
  7   4   8  ar  
  8   5   9  1   
  9   5  27  1   
 10   5  28  1   
 11   6  10  1   
 12   6  29  1   
 13   6  30  1   
 14   7  11  ar  
 15   7  31  1   
 16   8  12  ar  
 17   8  32  1   
 18   9  13  1   
 19   9  14  1   
 20   9  15  1   
 21  10  14  1   
 22  10  33  1   
 23  10  34  1   
 24  11  16  ar  
 25  11  35  1   
 26  12  16  ar  
 27  12  36  1   
 28  13  17  ar  
 29  13  18  ar  
 30  14  19  1   
 31  14  37  1   
 32  15  20  1   
 33  15  38  1   
 34  15  39  1   
 35  16  21  1   
 36  19  40  1   
 37  20  22  1   
 38  20  23  1   
 39  20  41  1   
 40  21  24  1   
 41  21  42  1   
 42  21  43  1   
 43  22  23  1   
 44  22  44  1   
 45  22  45  1   
 46  23  46  1   
 47  23  47  1   
 48  24  25  1   
 49  24  48  1   
 50  24  49  1   
 51  25  26  1   
 52  25  50  1   
 53  25  51  1   
 54  26  52  1   
 55  26  53  1   
 56  26  54  1   
@<TRIPOS>SUBSTRUCTURE
  1 ****   8 GROUP 4 **** **** 0

# MOE 2024.06 (io_trps.svl 2023.06)
