@<TRIPOS>MOLECULE
NONAME
49 51 1 0 0 
SMALL
USER_CHARGES


@<TRIPOS>ATOM
  1 O        1.3370     0.9840     0.4590 O.3   1 <1>  -0.3630 
  2 C        1.6820    -0.3120     0.2300 C.ar  1 <1>   0.0830 
  3 C        0.6790     1.6330    -0.6120 C.3   1 <1>   0.1200 
  4 C        0.6870    -1.2930     0.2820 C.ar  1 <1>   0.0830 
  5 C        3.0060    -0.6500    -0.0640 C.ar  1 <1>  -0.1440 
  6 C        1.6650     2.5520    -1.3550 C.3   1 <1>  -0.1600 
  7 O       -0.5840    -0.9000     0.5780 O.3   1 <1>  -0.3620 
  8 C        1.0210    -2.6170     0.0270 C.ar  1 <1>  -0.1500 
  9 C        3.3090    -1.9820    -0.3150 C.ar  1 <1>  -0.1500 
 10 C        4.1740     0.3330    -0.1150 C.3   1 <1>   0.4860 
 11 C        3.0360     1.9190    -1.6240 C.3   1 <1>   0.3430 
 12 C       -1.6040    -1.8390     0.8450 C.3   1 <1>   0.0400 
 13 C        2.3280    -2.9550    -0.2720 C.ar  1 <1>  -0.1500 
 14 N        3.7490     1.7410    -0.3280 N.4   1 <1>  -0.9590 
 15 C        4.8900     2.6860    -0.1040 C.3   1 <1>   0.3430 
 16 C        4.4540     4.1470     0.0470 C.3   1 <1>   0.0960 
 17 N        5.6490     4.9690     0.2780 N.pl3 1 <1>   0.3140 
 18 N        6.8610     4.5590    -0.1390 N.2   1 <1>  -0.7070 
 19 C        5.7180     6.1740     0.8850 C.2   1 <1>  -0.3320 
 20 C        7.6720     5.5070     0.2100 C.2   1 <1>   0.1080 
 21 C        7.0150     6.5450     0.8570 C.2   1 <1>  -0.1500 
 22 C        4.5430     6.9390     1.4720 C.3   1 <1>  -0.0600 
 23 C        9.1560     5.4570    -0.0710 C.3   1 <1>  -0.0590 
 24 H       -0.1380     2.2010    -0.2000 H     1 <1>   0.0800 
 25 H        0.2710     0.8900    -1.2780 H     1 <1>   0.0800 
 26 H        1.7750     3.4710    -0.8100 H     1 <1>   0.0800 
 27 H        1.2190     2.8090    -2.3000 H     1 <1>   0.0800 
 28 H        0.2840    -3.3980     0.0530 H     1 <1>   0.1500 
 29 H        4.3170    -2.2850    -0.5450 H     1 <1>   0.1500 
 30 H        4.8490     0.0390    -0.9020 H     1 <1>   0.0800 
 31 H        4.7090     0.2610     0.8190 H     1 <1>   0.0800 
 32 H        3.6130     2.5470    -2.2830 H     1 <1>   0.0800 
 33 H        2.8930     0.9650    -2.1080 H     1 <1>   0.0800 
 34 H       -2.4880    -1.2990     1.1330 H     1 <1>   0.0800 
 35 H       -1.2890    -2.4790     1.6500 H     1 <1>   0.0800 
 36 H       -1.7990    -2.4080    -0.0470 H     1 <1>   0.0800 
 37 H        2.5800    -3.9850    -0.4700 H     1 <1>   0.1500 
 38 H        3.0190     1.8620     0.3980 H     1 <1>   0.4500 
 39 H        5.5830     2.6140    -0.9280 H     1 <1>   0.0800 
 40 H        5.4180     2.4050     0.7940 H     1 <1>   0.0800 
 41 H        3.7950     4.2570     0.8870 H     1 <1>   0.0800 
 42 H        3.9830     4.5020    -0.8480 H     1 <1>   0.0800 
 43 H        7.4700     7.4420     1.2390 H     1 <1>   0.1500 
 44 H        4.0860     6.3770     2.2670 H     1 <1>   0.0800 
 45 H        3.8100     7.1430     0.7130 H     1 <1>   0.0800 
 46 H        4.8820     7.8780     1.8750 H     1 <1>   0.0800 
 47 H        9.3190     5.3800    -1.1300 H     1 <1>   0.0800 
 48 H        9.5860     4.6000     0.4130 H     1 <1>   0.0800 
 49 H        9.6370     6.3450     0.2950 H     1 <1>   0.0800 
@<TRIPOS>BOND
  1   1   2  1   
  2   1   3  1   
  3   2   4  ar  
  4   2   5  ar  
  5   3   6  1   
  6   3  24  1   
  7   3  25  1   
  8   4   7  1   
  9   4   8  ar  
 10   5   9  ar  
 11   5  10  1   
 12   6  11  1   
 13   6  26  1   
 14   6  27  1   
 15   7  12  1   
 16   8  13  ar  
 17   8  28  1   
 18   9  13  ar  
 19   9  29  1   
 20  10  14  1   
 21  10  30  1   
 22  10  31  1   
 23  11  14  1   
 24  11  32  1   
 25  11  33  1   
 26  12  34  1   
 27  12  35  1   
 28  12  36  1   
 29  13  37  1   
 30  14  15  1   
 31  14  38  1   
 32  15  16  1   
 33  15  39  1   
 34  15  40  1   
 35  16  17  1   
 36  16  41  1   
 37  16  42  1   
 38  17  18  1   
 39  17  19  1   
 40  18  20  2   
 41  19  21  2   
 42  19  22  1   
 43  20  21  1   
 44  20  23  1   
 45  21  43  1   
 46  22  44  1   
 47  22  45  1   
 48  22  46  1   
 49  23  47  1   
 50  23  48  1   
 51  23  49  1   
@<TRIPOS>SUBSTRUCTURE
  1 ****  14 GROUP 4 **** **** 0

# MOE 2024.06 (io_trps.svl 2023.06)
