@<TRIPOS>MOLECULE
NONAME
41 42 1 0 0 
SMALL
USER_CHARGES


@<TRIPOS>ATOM
  1 F       -2.2300    -1.6620     0.2930 F     1 <1>  -0.1900 
  2 C       -2.5490    -0.4110     0.5160 C.ar  1 <1>   0.1900 
  3 C       -1.6060     0.5700     0.2070 C.ar  1 <1>   0.0830 
  4 C       -3.7930    -0.1290     1.0640 C.ar  1 <1>  -0.1440 
  5 O       -0.4250     0.1830    -0.3520 O.3   1 <1>  -0.3630 
  6 C       -1.9130     1.9000     0.4860 C.ar  1 <1>  -0.1500 
  7 C       -4.0350     1.2080     1.3470 C.ar  1 <1>   0.1900 
  8 C       -4.8170    -1.2240     1.3790 C.3   1 <1>   0.2540 
  9 C        0.5950     1.1130    -0.6480 C.3   1 <1>   0.0400 
 10 C       -3.1310     2.2170     1.0650 C.ar  1 <1>  -0.1500 
 11 F       -5.1560     1.5570     1.9230 F     1 <1>  -0.1900 
 12 N       -5.7620    -1.5250     0.2690 N.3   1 <1>  -0.8100 
 13 C       -5.1340    -2.3230    -0.8020 C.3   1 <1>   0.2900 
 14 C       -6.4570    -0.3260    -0.2390 C.3   1 <1>   0.1100 
 15 C       -4.9150    -3.7360    -0.3010 C.2   1 <1>  -0.3320 
 16 C       -7.7500    -0.6860    -0.9820 C.3   1 <1>   0.1200 
 17 N       -5.8240    -4.3660     0.4610 N.pl3 1 <1>   0.0330 
 18 C       -3.8960    -4.6090    -0.4690 C.2   1 <1>   0.0460 
 19 O       -8.4260     0.4790    -1.3120 O.3   1 <1>  -0.6800 
 20 C       -5.3020    -5.5830     0.7100 C.2   1 <1>   0.0360 
 21 N       -4.1440    -5.7700     0.1660 N.2   1 <1>  -0.5650 
 22 C       -2.6070    -4.4390    -1.2410 C.3   1 <1>  -0.0590 
 23 H       -1.2240     2.6940     0.2670 H     1 <1>   0.1500 
 24 H       -5.3940    -0.9230     2.2360 H     1 <1>   0.0800 
 25 H       -4.3010    -2.1250     1.6650 H     1 <1>   0.0800 
 26 H        1.4280     0.5720    -1.0600 H     1 <1>   0.0800 
 27 H        0.8940     1.6050     0.2610 H     1 <1>   0.0800 
 28 H        0.2250     1.8200    -1.3690 H     1 <1>   0.0800 
 29 H       -3.3810     3.2370     1.2990 H     1 <1>   0.1500 
 30 H       -4.2150    -1.8740    -1.1320 H     1 <1>   0.0800 
 31 H       -5.7880    -2.3820    -1.6530 H     1 <1>   0.0800 
 32 H       -5.8040     0.2340    -0.8860 H     1 <1>   0.0800 
 33 H       -6.7350     0.2890     0.5970 H     1 <1>   0.0800 
 34 H       -8.3940    -1.2830    -0.3600 H     1 <1>   0.0800 
 35 H       -7.5440    -1.2060    -1.9000 H     1 <1>   0.0800 
 36 H       -6.7040    -3.9620     0.7950 H     1 <1>   0.2700 
 37 H       -8.7030     0.9590    -0.5060 H     1 <1>   0.4000 
 38 H       -5.8140    -6.3140     1.3100 H     1 <1>   0.1500 
 39 H       -2.5830    -3.4910    -1.7420 H     1 <1>   0.0800 
 40 H       -2.5190    -5.2240    -1.9690 H     1 <1>   0.0800 
 41 H       -1.7760    -4.4980    -0.5620 H     1 <1>   0.0800 
@<TRIPOS>BOND
  1   1   2  1   
  2   2   3  ar  
  3   2   4  ar  
  4   3   5  1   
  5   3   6  ar  
  6   4   7  ar  
  7   4   8  1   
  8   5   9  1   
  9   6  10  ar  
 10   6  23  1   
 11   7  10  ar  
 12   7  11  1   
 13   8  12  1   
 14   8  24  1   
 15   8  25  1   
 16   9  26  1   
 17   9  27  1   
 18   9  28  1   
 19  10  29  1   
 20  12  13  1   
 21  12  14  1   
 22  13  15  1   
 23  13  30  1   
 24  13  31  1   
 25  14  16  1   
 26  14  32  1   
 27  14  33  1   
 28  15  17  1   
 29  15  18  2   
 30  16  19  1   
 31  16  34  1   
 32  16  35  1   
 33  17  20  1   
 34  17  36  1   
 35  18  21  1   
 36  18  22  1   
 37  19  37  1   
 38  20  21  2   
 39  20  38  1   
 40  22  39  1   
 41  22  40  1   
 42  22  41  1   
@<TRIPOS>SUBSTRUCTURE
  1 ****   8 GROUP 4 **** **** 0

# MOE 2024.06 (io_trps.svl 2023.06)
