@<TRIPOS>MOLECULE
NONAME
54 58 1 0 0 
SMALL
USER_CHARGES


@<TRIPOS>ATOM
  1 O       -2.0710     0.3420    -0.2230 O.2   1 <1>  -0.5700 
  2 C       -2.4810     1.2180    -0.9660 C.2   1 <1>   0.5440 
  3 N       -3.6670     0.9560    -1.6090 N.am  1 <1>  -0.6600 
  4 C       -1.8010     2.4970    -1.0950 C.ar  1 <1>   0.0860 
  5 C       -4.9150     1.3810    -0.9020 C.3   1 <1>   0.1400 
  6 C       -3.8210    -0.3780    -2.2800 C.3   1 <1>   0.1400 
  7 C       -0.7980     2.8700    -0.2020 C.ar  1 <1>  -0.1500 
  8 C       -2.1260     3.4040    -2.1060 C.ar  1 <1>  -0.1500 
  9 C       -5.3030     0.3630     0.2080 C.3   1 <1>   0.4230 
 10 C       -4.5300    -1.4120    -1.3710 C.3   1 <1>   0.3430 
 11 C       -0.1370     4.0900    -0.2830 C.ar  1 <1>   0.0000 
 12 C       -1.4830     4.6230    -2.2090 C.ar  1 <1>  -0.1500 
 13 N       -4.5570    -0.9440     0.0570 N.4   1 <1>  -0.9590 
 14 C       -6.8300     0.1270     0.2540 C.3   1 <1>   0.1200 
 15 C        0.8940     4.4410     0.6670 C.ar  1 <1>   0.0000 
 16 C       -0.4970     4.9620    -1.3030 C.ar  1 <1>  -0.1500 
 17 C       -5.0070    -1.9370     1.0760 C.3   1 <1>   0.5180 
 18 O       -7.1580    -0.8200     1.2330 O.3   1 <1>  -0.5600 
 19 C        2.0280     3.6480     0.8200 C.ar  1 <1>  -0.1500 
 20 C        0.7820     5.5810     1.4580 C.ar  1 <1>  -0.1500 
 21 C       -4.3000    -3.2780     0.8480 C.3   1 <1>  -0.1950 
 22 C       -6.5450    -2.0750     1.0850 C.3   1 <1>   0.1200 
 23 C        3.0150     3.9800     1.7310 C.ar  1 <1>  -0.1500 
 24 C        1.7660     5.9180     2.3700 C.ar  1 <1>  -0.1500 
 25 C       -3.7860    -4.0620     2.0170 C.3   1 <1>  -0.2000 
 26 C       -2.8230    -3.4260     1.0560 C.3   1 <1>  -0.2000 
 27 C        2.8850     5.1170     2.5080 C.ar  1 <1>  -0.1500 
 28 H       -4.7740     2.3530    -0.4600 H     1 <1>   0.0800 
 29 H       -5.7090     1.4710    -1.6240 H     1 <1>   0.0800 
 30 H       -4.3700    -0.2610    -3.1980 H     1 <1>   0.0800 
 31 H       -2.8460    -0.7560    -2.5390 H     1 <1>   0.0800 
 32 H       -0.5200     2.1930     0.5870 H     1 <1>   0.1500 
 33 H       -2.8860     3.1550    -2.8250 H     1 <1>   0.1500 
 34 H       -5.0250     0.8020     1.1520 H     1 <1>   0.0800 
 35 H       -4.0050    -2.3500    -1.4480 H     1 <1>   0.0800 
 36 H       -5.5360    -1.5680    -1.7230 H     1 <1>   0.0800 
 37 H       -1.7450     5.3100    -2.9970 H     1 <1>   0.1500 
 38 H       -3.5620    -0.7080     0.2550 H     1 <1>   0.4500 
 39 H       -7.2020    -0.2200    -0.6950 H     1 <1>   0.0800 
 40 H       -7.3390     1.0410     0.5070 H     1 <1>   0.0800 
 41 H        0.0060     5.9100    -1.3860 H     1 <1>   0.1500 
 42 H       -4.7120    -1.5760     2.0480 H     1 <1>   0.0800 
 43 H        2.1380     2.7650     0.2160 H     1 <1>   0.1500 
 44 H       -0.0880     6.2060     1.3580 H     1 <1>   0.1500 
 45 H       -4.7580    -3.8640     0.0690 H     1 <1>   0.1000 
 46 H       -6.8510    -2.6870     1.9160 H     1 <1>   0.0800 
 47 H       -6.9010    -2.5290     0.1780 H     1 <1>   0.0800 
 48 H        3.8850     3.3550     1.8340 H     1 <1>   0.1500 
 49 H        1.6610     6.8030     2.9730 H     1 <1>   0.1500 
 50 H       -3.8430    -3.6580     3.0140 H     1 <1>   0.1000 
 51 H       -3.8740    -5.1360     2.0100 H     1 <1>   0.1000 
 52 H       -2.2590    -4.0720     0.4030 H     1 <1>   0.1000 
 53 H       -2.2370    -2.5910     1.4050 H     1 <1>   0.1000 
 54 H        3.6510     5.3770     3.2170 H     1 <1>   0.1500 
@<TRIPOS>BOND
  1   1   2  2   
  2   2   3  am  
  3   2   4  1   
  4   3   5  1   
  5   3   6  1   
  6   4   7  ar  
  7   4   8  ar  
  8   5   9  1   
  9   5  28  1   
 10   5  29  1   
 11   6  10  1   
 12   6  30  1   
 13   6  31  1   
 14   7  11  ar  
 15   7  32  1   
 16   8  12  ar  
 17   8  33  1   
 18   9  13  1   
 19   9  14  1   
 20   9  34  1   
 21  10  13  1   
 22  10  35  1   
 23  10  36  1   
 24  11  15  1   
 25  11  16  ar  
 26  12  16  ar  
 27  12  37  1   
 28  13  17  1   
 29  13  38  1   
 30  14  18  1   
 31  14  39  1   
 32  14  40  1   
 33  15  19  ar  
 34  15  20  ar  
 35  16  41  1   
 36  17  21  1   
 37  17  22  1   
 38  17  42  1   
 39  18  22  1   
 40  19  23  ar  
 41  19  43  1   
 42  20  24  ar  
 43  20  44  1   
 44  21  25  1   
 45  21  26  1   
 46  21  45  1   
 47  22  46  1   
 48  22  47  1   
 49  23  27  ar  
 50  23  48  1   
 51  24  27  ar  
 52  24  49  1   
 53  25  26  1   
 54  25  50  1   
 55  25  51  1   
 56  26  52  1   
 57  26  53  1   
 58  27  54  1   
@<TRIPOS>SUBSTRUCTURE
  1 ****   2 GROUP 4 **** **** 0

# MOE 2024.06 (io_trps.svl 2023.06)
