@<TRIPOS>MOLECULE
NONAME
49 50 1 0 0 
SMALL
USER_CHARGES


@<TRIPOS>ATOM
  1 O        2.5060    -0.6660    -2.1330 O.2   1 <1>  -0.5700 
  2 C        2.0030    -0.8610    -1.0440 C.2   1 <1>   0.5440 
  3 N        1.8100     0.2070    -0.2180 N.am  1 <1>  -0.7300 
  4 C        1.6520    -2.2020    -0.6140 C.ar  1 <1>   0.0860 
  5 C        2.1730     1.5920    -0.5260 C.3   1 <1>   0.4000 
  6 C        0.6130    -2.4360     0.2920 C.ar  1 <1>  -0.1500 
  7 C        2.3510    -3.3090    -1.0960 C.ar  1 <1>  -0.1500 
  8 C        3.2780     1.9650     0.4440 C.2   1 <1>  -0.3320 
  9 C        0.9140     2.4600    -0.3920 C.3   1 <1>  -0.1600 
 10 C        0.2890    -3.7210     0.7130 C.ar  1 <1>   0.0830 
 11 C        2.0430    -4.5930    -0.6870 C.ar  1 <1>  -0.1500 
 12 N        4.5580     1.5550     0.2860 N.pl3 1 <1>   0.3140 
 13 C        3.2490     2.7070     1.5760 C.2   1 <1>  -0.1500 
 14 C        1.1400     3.9130    -0.8390 C.3   1 <1>  -0.2400 
 15 O       -0.7220    -3.9780     1.5920 O.3   1 <1>  -0.3630 
 16 C        1.0120    -4.8050     0.2140 C.ar  1 <1>   0.0830 
 17 N        5.3440     2.0090     1.2780 N.2   1 <1>  -0.7070 
 18 C        5.1150     0.7120    -0.7830 C.3   1 <1>   0.0160 
 19 C        4.5560     2.6980     2.0430 C.2   1 <1>   0.1390 
 20 C       -1.5220    -2.9520     2.1340 C.3   1 <1>   0.0400 
 21 O        0.7280    -6.0630     0.6190 O.3   1 <1>  -0.3630 
 22 C        0.1910    -6.9650    -0.3220 C.3   1 <1>   0.2000 
 23 C       -1.2990    -6.6680    -0.4920 C.3   1 <1>  -0.2400 
 24 C        0.4220    -8.3740     0.2180 C.3   1 <1>  -0.2400 
 25 H        1.6640     0.0490     0.7770 H     1 <1>   0.3700 
 26 H        2.5320     1.6690    -1.5390 H     1 <1>   0.0800 
 27 H        0.0600    -1.5930     0.6530 H     1 <1>   0.1500 
 28 H        3.1500    -3.1550    -1.8010 H     1 <1>   0.1500 
 29 H        0.5710     2.4470     0.6260 H     1 <1>   0.0800 
 30 H        0.1430     2.0360    -1.0120 H     1 <1>   0.0800 
 31 H        2.6050    -5.4300    -1.0590 H     1 <1>   0.1500 
 32 H        2.4240     3.2110     2.0450 H     1 <1>   0.1500 
 33 H        1.8960     4.3880    -0.2390 H     1 <1>   0.0800 
 34 H        0.2270     4.4740    -0.7420 H     1 <1>   0.0800 
 35 H        1.4510     3.9440    -1.8690 H     1 <1>   0.0800 
 36 H        4.7430     1.0400    -1.7350 H     1 <1>   0.0800 
 37 H        4.8280    -0.3080    -0.6130 H     1 <1>   0.0800 
 38 H        6.1860     0.7900    -0.7700 H     1 <1>   0.0800 
 39 H        4.8900     3.2000     2.9350 H     1 <1>   0.1500 
 40 H       -2.2460    -3.4060     2.7870 H     1 <1>   0.0800 
 41 H       -2.0240    -2.4400     1.3330 H     1 <1>   0.0800 
 42 H       -0.8970    -2.2810     2.6950 H     1 <1>   0.0800 
 43 H        0.7090    -6.8430    -1.2580 H     1 <1>   0.0800 
 44 H       -1.8010    -6.7320     0.4570 H     1 <1>   0.0800 
 45 H       -1.7420    -7.3760    -1.1670 H     1 <1>   0.0800 
 46 H       -1.4370    -5.6820    -0.8970 H     1 <1>   0.0800 
 47 H       -0.0710    -8.4950     1.1660 H     1 <1>   0.0800 
 48 H        1.4750    -8.5500     0.3400 H     1 <1>   0.0800 
 49 H        0.0320    -9.1010    -0.4700 H     1 <1>   0.0800 
@<TRIPOS>BOND
  1   1   2  2   
  2   2   3  am  
  3   2   4  1   
  4   3   5  1   
  5   3  25  1   
  6   4   6  ar  
  7   4   7  ar  
  8   5   8  1   
  9   5   9  1   
 10   5  26  1   
 11   6  10  ar  
 12   6  27  1   
 13   7  11  ar  
 14   7  28  1   
 15   8  12  1   
 16   8  13  2   
 17   9  14  1   
 18   9  29  1   
 19   9  30  1   
 20  10  15  1   
 21  10  16  ar  
 22  11  16  ar  
 23  11  31  1   
 24  12  17  1   
 25  12  18  1   
 26  13  19  1   
 27  13  32  1   
 28  14  33  1   
 29  14  34  1   
 30  14  35  1   
 31  15  20  1   
 32  16  21  1   
 33  17  19  2   
 34  18  36  1   
 35  18  37  1   
 36  18  38  1   
 37  19  39  1   
 38  20  40  1   
 39  20  41  1   
 40  20  42  1   
 41  21  22  1   
 42  22  23  1   
 43  22  24  1   
 44  22  43  1   
 45  23  44  1   
 46  23  45  1   
 47  23  46  1   
 48  24  47  1   
 49  24  48  1   
 50  24  49  1   
@<TRIPOS>SUBSTRUCTURE
  1 ****   4 GROUP 4 **** **** 0

# MOE 2024.06 (io_trps.svl 2023.06)
