@<TRIPOS>MOLECULE
NONAME
43 46 1 0 0 
SMALL
USER_CHARGES


@<TRIPOS>ATOM
  1 O       -0.9940     0.5430     2.5390 O.2   1 <1>  -0.5700 
  2 C       -1.5060     1.0690     1.5690 C.2   1 <1>   0.5440 
  3 N       -2.3660     0.3170     0.8030 N.am  1 <1>  -0.6600 
  4 C       -1.2620     2.4680     1.3100 C.ar  1 <1>   0.0860 
  5 C       -3.1010     0.7800    -0.4000 C.3   1 <1>   0.1400 
  6 C       -2.5570    -1.1390     1.0000 C.3   1 <1>   0.1400 
  7 C       -0.5430     2.8930     0.1640 C.ar  1 <1>   0.3100 
  8 C       -1.7300     3.4100     2.2060 C.ar  1 <1>  -0.1500 
  9 C       -4.1130    -0.3320    -0.6680 C.3   1 <1>   0.2000 
 10 C       -3.3830    -1.6000    -0.2080 C.3   1 <1>  -0.0800 
 11 N       -0.0580     1.9820    -0.7300 N.ar  1 <1>  -0.6200 
 12 C       -0.3360     4.2850    -0.0330 C.ar  1 <1>   0.3100 
 13 C       -1.5270     4.7730     2.0080 C.ar  1 <1>  -0.1500 
 14 O       -5.2160    -0.1130     0.1420 O.3   1 <1>  -0.6800 
 15 C       -4.2960    -2.8070     0.0810 C.3   1 <1>   0.0200 
 16 C        0.5940     2.4920    -1.7270 C.ar  1 <1>   0.1600 
 17 N        0.3410     4.7790    -1.1030 N.ar  1 <1>  -0.6200 
 18 C       -0.8410     5.1970     0.9030 C.ar  1 <1>  -0.1500 
 19 C       -3.5240    -4.0790     0.3900 C.2   1 <1>  -0.0400 
 20 C        0.7900     3.8740    -1.9120 C.ar  1 <1>   0.1600 
 21 O       -4.1890    -5.1420     0.7570 O.3   1 <1>  -0.0190 
 22 C       -2.2200    -4.4010     0.3710 C.2   1 <1>  -0.1500 
 23 N       -3.4040    -6.1540     0.9880 N.2   1 <1>  -0.4100 
 24 C       -2.2100    -5.7360     0.7640 C.2   1 <1>   0.1080 
 25 C       -0.9690    -6.5870     0.9120 C.3   1 <1>  -0.0590 
 26 H       -3.5800     1.7310    -0.2410 H     1 <1>   0.0800 
 27 H       -2.4150     0.8510    -1.2260 H     1 <1>   0.0800 
 28 H       -1.6050    -1.6390     1.0510 H     1 <1>   0.0800 
 29 H       -3.0910    -1.3000     1.9220 H     1 <1>   0.0800 
 30 H       -2.2610     3.0840     3.0850 H     1 <1>   0.1500 
 31 H       -4.4400    -0.3710    -1.6930 H     1 <1>   0.0800 
 32 H       -2.6940    -1.8740    -0.9880 H     1 <1>   0.0800 
 33 H       -1.9080     5.4790     2.7270 H     1 <1>   0.1500 
 34 H       -4.9030     0.0690     1.0520 H     1 <1>   0.4000 
 35 H       -4.9250    -2.9900    -0.7720 H     1 <1>   0.0800 
 36 H       -4.9390    -2.5900     0.9160 H     1 <1>   0.0800 
 37 H        1.0130     1.8270    -2.4620 H     1 <1>   0.1500 
 38 H       -0.6690     6.2440     0.7250 H     1 <1>   0.1500 
 39 H        1.3450     4.1890    -2.7780 H     1 <1>   0.1500 
 40 H       -1.3580    -3.8130     0.1210 H     1 <1>   0.1500 
 41 H       -0.3200    -6.1580     1.6530 H     1 <1>   0.0800 
 42 H       -0.4490    -6.6400    -0.0270 H     1 <1>   0.0800 
 43 H       -1.2390    -7.5810     1.2180 H     1 <1>   0.0800 
@<TRIPOS>BOND
  1   1   2  2   
  2   2   3  am  
  3   2   4  1   
  4   3   5  1   
  5   3   6  1   
  6   4   7  ar  
  7   4   8  ar  
  8   5   9  1   
  9   5  26  1   
 10   5  27  1   
 11   6  10  1   
 12   6  28  1   
 13   6  29  1   
 14   7  11  ar  
 15   7  12  ar  
 16   8  13  ar  
 17   8  30  1   
 18   9  10  1   
 19   9  14  1   
 20   9  31  1   
 21  10  15  1   
 22  10  32  1   
 23  11  16  ar  
 24  12  17  ar  
 25  12  18  ar  
 26  13  18  ar  
 27  13  33  1   
 28  14  34  1   
 29  15  19  1   
 30  15  35  1   
 31  15  36  1   
 32  16  20  ar  
 33  16  37  1   
 34  17  20  ar  
 35  18  38  1   
 36  19  21  1   
 37  19  22  2   
 38  20  39  1   
 39  21  23  1   
 40  22  24  1   
 41  22  40  1   
 42  23  24  2   
 43  24  25  1   
 44  25  41  1   
 45  25  42  1   
 46  25  43  1   
@<TRIPOS>SUBSTRUCTURE
  1 ****   3 GROUP 4 **** **** 0

# MOE 2024.06 (io_trps.svl 2023.06)
