@<TRIPOS>MOLECULE
NONAME
48 50 1 0 0 
SMALL
USER_CHARGES


@<TRIPOS>ATOM
  1 S        0.7690    -0.3370     2.1920 S.o2  1 <1>   1.4470 
  2 O        0.2350     0.6170     3.1400 O.2   1 <1>  -0.6500 
  3 O        1.6840    -1.3550     2.6600 O.2   1 <1>  -0.6500 
  4 N        1.5960     0.5440     1.0010 N.am  1 <1>  -0.8490 
  5 C       -0.5980    -1.0970     1.2710 C.ar  1 <1>  -0.0090 
  6 C        2.4430     1.6100     1.5800 C.3   1 <1>   0.1960 
  7 C        2.3210    -0.3300     0.0630 C.3   1 <1>   0.1960 
  8 C       -1.2310    -0.4250     0.2300 C.ar  1 <1>  -0.1500 
  9 C       -1.0560    -2.3700     1.5900 C.ar  1 <1>  -0.1500 
 10 C        2.9870     2.6570     0.5710 C.3   1 <1>   0.2200 
 11 C        2.8000     0.3760    -1.2200 C.3   1 <1>  -0.0190 
 12 C       -2.2710    -1.0060    -0.4730 C.ar  1 <1>  -0.1500 
 13 C       -2.0970    -2.9560     0.8910 C.ar  1 <1>  -0.1500 
 14 N        2.1770     2.7390    -0.6870 N.am  1 <1>  -0.6600 
 15 C        4.4800     2.4420     0.2510 C.3   1 <1>   0.1200 
 16 C        2.0420     1.6570    -1.5160 C.2   1 <1>   0.5690 
 17 C        4.3160     0.6160    -1.2500 C.3   1 <1>   0.1200 
 18 C       -2.7100    -2.2780    -0.1480 C.ar  1 <1>  -0.1430 
 19 C        1.3950     3.9900    -0.8860 C.3   1 <1>   0.0600 
 20 O        4.7880     1.1090    -0.0340 O.3   1 <1>  -0.5600 
 21 O        1.3490     1.6850    -2.5070 O.2   1 <1>  -0.5700 
 22 C       -3.8540    -2.9170    -0.9200 C.3   1 <1>  -0.0170 
 23 C       -5.2000    -2.5720    -0.2740 C.3   1 <1>  -0.1600 
 24 C       -6.3700    -3.2050    -1.0340 C.3   1 <1>  -0.2400 
 25 H        1.8560     2.1640     2.2930 H     1 <1>   0.0800 
 26 H        3.2570     1.1680     2.1310 H     1 <1>   0.0800 
 27 H        3.1530    -0.7970     0.5660 H     1 <1>   0.0800 
 28 H        1.6560    -1.1210    -0.2430 H     1 <1>   0.0800 
 29 H       -0.9030     0.5660    -0.0370 H     1 <1>   0.1500 
 30 H       -0.5880    -2.9110     2.3950 H     1 <1>   0.1500 
 31 H        2.9310     3.6150     1.0570 H     1 <1>   0.0800 
 32 H        2.5990    -0.2920    -2.0370 H     1 <1>   0.0800 
 33 H       -2.7370    -0.4600    -1.2760 H     1 <1>   0.1500 
 34 H       -2.4300    -3.9440     1.1610 H     1 <1>   0.1500 
 35 H        5.0630     2.7090     1.1140 H     1 <1>   0.0800 
 36 H        4.7910     3.0640    -0.5710 H     1 <1>   0.0800 
 37 H        4.5900     1.2950    -2.0400 H     1 <1>   0.0800 
 38 H        4.8210    -0.3190    -1.4180 H     1 <1>   0.0800 
 39 H        2.0580     4.8360    -0.9150 H     1 <1>   0.0800 
 40 H        0.6940     4.1100    -0.0780 H     1 <1>   0.0800 
 41 H        0.8460     3.9530    -1.8120 H     1 <1>   0.0800 
 42 H       -3.8390    -2.5690    -1.9380 H     1 <1>   0.0800 
 43 H       -3.7220    -3.9850    -0.9390 H     1 <1>   0.0800 
 44 H       -5.2050    -2.9200     0.7450 H     1 <1>   0.0800 
 45 H       -5.3220    -1.5020    -0.2570 H     1 <1>   0.0800 
 46 H       -6.2800    -4.2770    -1.0430 H     1 <1>   0.0800 
 47 H       -6.3960    -2.8500    -2.0500 H     1 <1>   0.0800 
 48 H       -7.3000    -2.9450    -0.5590 H     1 <1>   0.0800 
@<TRIPOS>BOND
  1   1   2  2   
  2   1   3  2   
  3   1   4  am  
  4   1   5  1   
  5   4   6  1   
  6   4   7  1   
  7   5   8  ar  
  8   5   9  ar  
  9   6  10  1   
 10   6  25  1   
 11   6  26  1   
 12   7  11  1   
 13   7  27  1   
 14   7  28  1   
 15   8  12  ar  
 16   8  29  1   
 17   9  13  ar  
 18   9  30  1   
 19  10  14  1   
 20  10  15  1   
 21  10  31  1   
 22  11  16  1   
 23  11  17  1   
 24  11  32  1   
 25  12  18  ar  
 26  12  33  1   
 27  13  18  ar  
 28  13  34  1   
 29  14  16  am  
 30  14  19  1   
 31  15  20  1   
 32  15  35  1   
 33  15  36  1   
 34  16  21  2   
 35  17  20  1   
 36  17  37  1   
 37  17  38  1   
 38  18  22  1   
 39  19  39  1   
 40  19  40  1   
 41  19  41  1   
 42  22  23  1   
 43  22  42  1   
 44  22  43  1   
 45  23  24  1   
 46  23  44  1   
 47  23  45  1   
 48  24  46  1   
 49  24  47  1   
 50  24  48  1   
@<TRIPOS>SUBSTRUCTURE
  1 ****   4 GROUP 4 **** **** 0

# MOE 2024.06 (io_trps.svl 2023.06)
