@<TRIPOS>MOLECULE
NONAME
34 36 1 0 0 
SMALL
USER_CHARGES


@<TRIPOS>ATOM
  1 F       -2.0360    -0.2970    -2.1460 F     1 <1>  -0.1900 
  2 C       -2.3940     0.4860    -1.1610 C.ar  1 <1>   0.1900 
  3 C       -2.3470     1.8580    -1.3460 C.ar  1 <1>   0.1900 
  4 C       -2.8110    -0.0690     0.0440 C.ar  1 <1>   0.0860 
  5 F       -1.9440     2.3420    -2.4950 F     1 <1>  -0.1900 
  6 C       -2.7140     2.7400    -0.3400 C.ar  1 <1>  -0.1440 
  7 C       -2.8640    -1.4980     0.2560 C.2   1 <1>   0.5440 
  8 C       -3.1740     0.8270     1.0540 C.ar  1 <1>  -0.1500 
  9 C       -3.1300     2.2010     0.8700 C.ar  1 <1>  -0.1500 
 10 C       -2.6700     4.2470    -0.5470 C.3   1 <1>  -0.0960 
 11 O       -1.8260    -2.1330     0.2840 O.2   1 <1>  -0.5700 
 12 N       -4.0550    -2.1350     0.4950 N.am  1 <1>  -0.6600 
 13 C       -5.3750    -1.5230     0.6190 C.3   1 <1>   0.2350 
 14 C       -4.2470    -3.5830     0.5330 C.3   1 <1>   0.2350 
 15 C       -6.3810    -2.4590    -0.0410 C.3   1 <1>  -0.2420 
 16 C       -5.6120    -3.8780    -0.1000 C.3   1 <1>  -0.2420 
 17 C       -7.5110    -1.4520    -0.2650 C.2   1 <1>   0.9470 
 18 C       -6.9990    -3.6890    -0.5320 C.3   1 <1>  -0.2000 
 19 C       -5.4190    -5.3620    -0.4210 C.2   1 <1>   0.9470 
 20 O       -7.5970    -0.8500    -1.3420 O.co2 1 <1>  -0.9000 
 21 O       -8.2460    -1.1710     0.6920 O.co2 1 <1>  -0.9000 
 22 O       -5.1340    -5.7220    -1.5700 O.co2 1 <1>  -0.9000 
 23 O       -5.4940    -6.1770     0.5090 O.co2 1 <1>  -0.9000 
 24 H       -3.4990     0.4270     2.0000 H     1 <1>   0.1500 
 25 H       -3.4260     2.8510     1.6770 H     1 <1>   0.1500 
 26 H       -2.9810     4.7690     0.3390 H     1 <1>   0.0800 
 27 H       -3.3250     4.5230    -1.3550 H     1 <1>   0.0800 
 28 H       -1.6690     4.5540    -0.7940 H     1 <1>   0.0800 
 29 H       -5.6150    -1.4520     1.6660 H     1 <1>   0.0800 
 30 H       -5.4010    -0.5370     0.1850 H     1 <1>   0.0800 
 31 H       -3.4440    -4.0970     0.0290 H     1 <1>   0.0800 
 32 H       -4.2660    -3.8940     1.5630 H     1 <1>   0.0800 
 33 H       -7.2170    -3.7650    -1.5850 H     1 <1>   0.1000 
 34 H       -7.7790    -4.1350     0.0610 H     1 <1>   0.1000 
@<TRIPOS>BOND
  1   1   2  1   
  2   2   3  ar  
  3   2   4  ar  
  4   3   5  1   
  5   3   6  ar  
  6   4   7  1   
  7   4   8  ar  
  8   6   9  ar  
  9   6  10  1   
 10   7  11  2   
 11   7  12  am  
 12   8   9  ar  
 13   8  24  1   
 14   9  25  1   
 15  10  26  1   
 16  10  27  1   
 17  10  28  1   
 18  12  13  1   
 19  12  14  1   
 20  13  15  1   
 21  13  29  1   
 22  13  30  1   
 23  14  16  1   
 24  14  31  1   
 25  14  32  1   
 26  15  16  1   
 27  15  17  1   
 28  15  18  1   
 29  16  18  1   
 30  16  19  1   
 31  17  20  ar  
 32  17  21  ar  
 33  18  33  1   
 34  18  34  1   
 35  19  22  ar  
 36  19  23  ar  
@<TRIPOS>SUBSTRUCTURE
  1 ****  12 GROUP 4 **** **** 0

# MOE 2024.06 (io_trps.svl 2023.06)
