@<TRIPOS>MOLECULE
NONAME
58 61 1 0 0 
SMALL
USER_CHARGES


@<TRIPOS>ATOM
  1 O       -0.0980     0.1710     1.8030 O.2   1 <1>  -0.5700 
  2 C        0.8860    -0.4370     1.4570 C.2   1 <1>   0.5690 
  3 N        2.0160     0.1600     0.9700 N.am  1 <1>  -0.4940 
  4 C        0.8650    -1.9560     1.5520 C.3   1 <1>  -0.0990 
  5 C        2.2650     1.5380     0.7350 C.2   1 <1>  -0.0880 
  6 C       -0.5210    -2.5670     1.2440 C.3   1 <1>  -0.0800 
  7 N        3.3870     2.0550     0.1540 N.pl3 1 <1>   0.3140 
  8 C        1.4720     2.5970     1.0250 C.2   1 <1>  -0.1500 
  9 C       -0.5160    -4.0910     1.4370 C.3   1 <1>  -0.1600 
 10 C       -0.9990    -2.2300    -0.1800 C.3   1 <1>  -0.1600 
 11 N        3.3150     3.4080     0.0690 N.2   1 <1>  -0.7070 
 12 C        4.5630     1.2910    -0.3550 C.3   1 <1>   0.1760 
 13 C        2.1700     3.7140     0.5930 C.2   1 <1>   0.1390 
 14 C       -1.8830    -4.6990     1.1180 C.3   1 <1>   0.3430 
 15 C       -2.3630    -2.8540    -0.4690 C.3   1 <1>   0.3430 
 16 C        5.8900     1.7320     0.2630 C.3   1 <1>  -0.1600 
 17 C        4.7870     1.4600    -1.8590 C.3   1 <1>  -0.1600 
 18 N       -2.2920    -4.3290    -0.2710 N.4   1 <1>  -0.9590 
 19 C        6.9580     1.2510    -0.7230 C.3   1 <1>  -0.1600 
 20 C        6.2630     1.1170    -2.0840 C.3   1 <1>  -0.1600 
 21 C       -3.5700    -4.9870    -0.6550 C.3   1 <1>   0.4860 
 22 C       -3.3490    -6.4870    -0.6770 C.ar  1 <1>  -0.1440 
 23 C       -3.8650    -7.2840     0.3350 C.ar  1 <1>  -0.1500 
 24 C       -2.6240    -7.0730    -1.7060 C.ar  1 <1>  -0.1500 
 25 C       -3.6460    -8.6500     0.3260 C.ar  1 <1>  -0.1500 
 26 C       -2.4060    -8.4390    -1.7120 C.ar  1 <1>  -0.1500 
 27 C       -2.9140    -9.2270    -0.6960 C.ar  1 <1>  -0.1500 
 28 H        2.7870    -0.4730     0.7630 H     1 <1>   0.3700 
 29 H        1.1520    -2.2170     2.5540 H     1 <1>   0.0800 
 30 H        1.5960    -2.3660     0.8800 H     1 <1>   0.0800 
 31 H       -1.2260    -2.1470     1.9450 H     1 <1>   0.0800 
 32 H        0.5030     2.6020     1.4900 H     1 <1>   0.1500 
 33 H       -0.2690    -4.3230     2.4590 H     1 <1>   0.0800 
 34 H        0.2310    -4.5490     0.8120 H     1 <1>   0.0800 
 35 H       -0.2850    -2.5690    -0.9100 H     1 <1>   0.0800 
 36 H       -1.0940    -1.1630    -0.2910 H     1 <1>   0.0800 
 37 H        4.4230     0.2480    -0.1470 H     1 <1>   0.0800 
 38 H        1.8100     4.7260     0.6780 H     1 <1>   0.1500 
 39 H       -2.6120    -4.3330     1.8230 H     1 <1>   0.0800 
 40 H       -1.8270    -5.7720     1.2140 H     1 <1>   0.0800 
 41 H       -2.6530    -2.6270    -1.4830 H     1 <1>   0.0800 
 42 H       -3.0970    -2.4290     0.1980 H     1 <1>   0.0800 
 43 H        6.0340     1.3190     1.2460 H     1 <1>   0.0800 
 44 H        5.9260     2.8080     0.3170 H     1 <1>   0.0800 
 45 H        4.6240     2.4890    -2.1340 H     1 <1>   0.0800 
 46 H        4.1350     0.8290    -2.4350 H     1 <1>   0.0800 
 47 H       -1.5740    -4.7100    -0.8980 H     1 <1>   0.4500 
 48 H        7.3360     0.2900    -0.4140 H     1 <1>   0.0800 
 49 H        7.7790     1.9460    -0.7680 H     1 <1>   0.0800 
 50 H        6.6980     1.7840    -2.8100 H     1 <1>   0.0800 
 51 H        6.3590     0.1060    -2.4440 H     1 <1>   0.0800 
 52 H       -3.8770    -4.6610    -1.6360 H     1 <1>   0.0800 
 53 H       -4.3470    -4.7370     0.0480 H     1 <1>   0.0800 
 54 H       -4.4430    -6.8590     1.1390 H     1 <1>   0.1500 
 55 H       -2.2250    -6.4830    -2.5140 H     1 <1>   0.1500 
 56 H       -4.0460    -9.2700     1.1120 H     1 <1>   0.1500 
 57 H       -1.8430    -8.8950    -2.5100 H     1 <1>   0.1500 
 58 H       -2.7450   -10.2910    -0.7030 H     1 <1>   0.1500 
@<TRIPOS>BOND
  1   1   2  2   
  2   2   3  am  
  3   2   4  1   
  4   3   5  1   
  5   3  28  1   
  6   4   6  1   
  7   4  29  1   
  8   4  30  1   
  9   5   7  1   
 10   5   8  2   
 11   6   9  1   
 12   6  10  1   
 13   6  31  1   
 14   7  11  1   
 15   7  12  1   
 16   8  13  1   
 17   8  32  1   
 18   9  14  1   
 19   9  33  1   
 20   9  34  1   
 21  10  15  1   
 22  10  35  1   
 23  10  36  1   
 24  11  13  2   
 25  12  16  1   
 26  12  17  1   
 27  12  37  1   
 28  13  38  1   
 29  14  18  1   
 30  14  39  1   
 31  14  40  1   
 32  15  18  1   
 33  15  41  1   
 34  15  42  1   
 35  16  19  1   
 36  16  43  1   
 37  16  44  1   
 38  17  20  1   
 39  17  45  1   
 40  17  46  1   
 41  18  21  1   
 42  18  47  1   
 43  19  20  1   
 44  19  48  1   
 45  19  49  1   
 46  20  50  1   
 47  20  51  1   
 48  21  22  1   
 49  21  52  1   
 50  21  53  1   
 51  22  23  ar  
 52  22  24  ar  
 53  23  25  ar  
 54  23  54  1   
 55  24  26  ar  
 56  24  55  1   
 57  25  27  ar  
 58  25  56  1   
 59  26  27  ar  
 60  26  57  1   
 61  27  58  1   
@<TRIPOS>SUBSTRUCTURE
  1 ****   4 GROUP 4 **** **** 0

# MOE 2024.06 (io_trps.svl 2023.06)
