@<TRIPOS>MOLECULE
NONAME
48 51 1 0 0 
SMALL
USER_CHARGES


@<TRIPOS>ATOM
  1 O        3.8050    -1.4650    -2.2980 O.2   1 <1>  -0.5700 
  2 C        3.0500    -1.4130    -1.3430 C.2   1 <1>   0.5440 
  3 N        3.0450    -0.2410    -0.6300 N.am  1 <1>  -0.6600 
  4 C        2.2630    -2.5630    -0.9290 C.ar  1 <1>   0.0860 
  5 C        3.7810    -0.2530     0.6860 C.3   1 <1>   0.2200 
  6 C        2.9460     1.0530    -1.3820 C.3   1 <1>   0.1400 
  7 C        1.1720    -2.4300    -0.0730 C.ar  1 <1>  -0.1500 
  8 C        2.5910    -3.8560    -1.3860 C.ar  1 <1>  -0.1500 
  9 C        3.3140     0.8630     1.6350 C.3   1 <1>   0.1200 
 10 C        5.3170    -0.2130     0.4750 C.3   1 <1>   0.3430 
 11 C        3.9890     2.1240    -1.0050 C.3   1 <1>  -0.0800 
 12 C        0.4440    -3.5470     0.3270 C.ar  1 <1>   0.0000 
 13 C        1.8760    -4.9710    -0.9990 C.ar  1 <1>  -0.1500 
 14 O        4.0260     2.0420     1.4210 O.3   1 <1>  -0.5600 
 15 N        5.6990     0.2310    -0.9090 N.4   1 <1>  -0.9590 
 16 C        3.6540     2.8120     0.3280 C.3   1 <1>   0.1200 
 17 C        5.4690     1.6950    -1.0950 C.3   1 <1>   0.3430 
 18 C        0.8040    -4.7990    -0.1370 C.ar  1 <1>   0.1400 
 19 C       -0.6730    -3.7830     1.1560 C.2   1 <1>  -0.1500 
 20 C        7.1720    -0.0730    -1.1320 C.3   1 <1>   0.2370 
 21 O       -0.0070    -5.7300     0.3580 O.3   1 <1>  -0.2800 
 22 C       -0.8910    -5.1110     1.1320 C.2   1 <1>  -0.0400 
 23 C        8.1150     0.5960    -0.1280 C.2   1 <1>   0.9060 
 24 C       -1.9410    -5.9540     1.8200 C.3   1 <1>  -0.0600 
 25 O        8.3130     0.0200     0.9460 O.co2 1 <1>  -0.9000 
 26 O        8.5210     1.7330    -0.3840 O.co2 1 <1>  -0.9000 
 27 H        3.5520    -1.1800     1.1820 H     1 <1>   0.0800 
 28 H        3.0320     0.8550    -2.4380 H     1 <1>   0.0800 
 29 H        1.9590     1.4550    -1.2260 H     1 <1>   0.0800 
 30 H        0.8710    -1.4640     0.2890 H     1 <1>   0.1500 
 31 H        3.4240    -3.9720    -2.0590 H     1 <1>   0.1500 
 32 H        3.5230     0.5680     2.6480 H     1 <1>   0.0800 
 33 H        2.2580     1.0490     1.5470 H     1 <1>   0.0800 
 34 H        5.7100    -1.2010     0.6450 H     1 <1>   0.0800 
 35 H        5.7760     0.4330     1.2090 H     1 <1>   0.0800 
 36 H        3.8750     2.9030    -1.7370 H     1 <1>   0.0800 
 37 H        2.1240    -5.9590    -1.3450 H     1 <1>   0.1500 
 38 H        5.1050    -0.3020    -1.5760 H     1 <1>   0.4500 
 39 H        2.6050     3.0430     0.4060 H     1 <1>   0.0800 
 40 H        4.2050     3.7350     0.4040 H     1 <1>   0.0800 
 41 H        6.0460     2.2440    -0.3660 H     1 <1>   0.0800 
 42 H        5.8450     1.9720    -2.0660 H     1 <1>   0.0800 
 43 H       -1.2140    -3.0190     1.6830 H     1 <1>   0.1500 
 44 H        7.3370    -1.1320    -1.0630 H     1 <1>   0.0800 
 45 H        7.4670     0.2520    -2.1130 H     1 <1>   0.0800 
 46 H       -2.5900    -5.3340     2.4110 H     1 <1>   0.0800 
 47 H       -1.4660    -6.6750     2.4600 H     1 <1>   0.0800 
 48 H       -2.5270    -6.4740     1.0850 H     1 <1>   0.0800 
@<TRIPOS>BOND
  1   1   2  2   
  2   2   3  am  
  3   2   4  1   
  4   3   5  1   
  5   3   6  1   
  6   4   7  ar  
  7   4   8  ar  
  8   5   9  1   
  9   5  10  1   
 10   5  27  1   
 11   6  11  1   
 12   6  28  1   
 13   6  29  1   
 14   7  12  ar  
 15   7  30  1   
 16   8  13  ar  
 17   8  31  1   
 18   9  14  1   
 19   9  32  1   
 20   9  33  1   
 21  10  15  1   
 22  10  34  1   
 23  10  35  1   
 24  11  16  1   
 25  11  17  1   
 26  11  36  1   
 27  12  18  ar  
 28  12  19  1   
 29  13  18  ar  
 30  13  37  1   
 31  14  16  1   
 32  15  17  1   
 33  15  20  1   
 34  15  38  1   
 35  16  39  1   
 36  16  40  1   
 37  17  41  1   
 38  17  42  1   
 39  18  21  1   
 40  19  22  2   
 41  19  43  1   
 42  20  23  1   
 43  20  44  1   
 44  20  45  1   
 45  21  22  1   
 46  22  24  1   
 47  23  25  ar  
 48  23  26  ar  
 49  24  46  1   
 50  24  47  1   
 51  24  48  1   
@<TRIPOS>SUBSTRUCTURE
  1 ****   3 GROUP 4 **** **** 0

# MOE 2024.06 (io_trps.svl 2023.06)
