@<TRIPOS>MOLECULE
NONAME
43 45 1 0 0 
SMALL
USER_CHARGES


@<TRIPOS>ATOM
  1 F        0.5350     2.4620     1.0190 F     1 <1>  -0.1900 
  2 C        1.6770     2.1510     0.4670 C.ar  1 <1>   0.1900 
  3 C        2.5200     3.1690     0.0780 C.ar  1 <1>  -0.1500 
  4 C        1.9920     0.8180     0.2980 C.ar  1 <1>  -0.1500 
  5 C        3.7500     2.8660    -0.5070 C.ar  1 <1>   0.0860 
  6 C        3.2040     0.4960    -0.2880 C.ar  1 <1>  -0.1440 
  7 C        4.6780     3.9100    -0.9150 C.2   1 <1>   0.5440 
  8 C        4.0610     1.5130    -0.6830 C.ar  1 <1>  -0.1500 
  9 C        3.5820    -0.9600    -0.5010 C.3   1 <1>  -0.0960 
 10 O        5.6650     3.6700    -1.5870 O.2   1 <1>  -0.5700 
 11 N        4.5340     5.2090    -0.5030 N.am  1 <1>  -0.6600 
 12 C        5.0320     5.5480     0.8760 C.3   1 <1>   0.2200 
 13 C        4.5040     6.2800    -1.5490 C.3   1 <1>   0.1400 
 14 C        4.4180     6.8410     1.4370 C.3   1 <1>   0.1200 
 15 C        6.5820     5.6140     0.9120 C.3   1 <1>   0.3430 
 16 C        5.4580     7.4630    -1.3020 C.3   1 <1>  -0.0800 
 17 O        5.1690     7.9520     1.0480 O.3   1 <1>  -0.5600 
 18 N        7.1940     5.7700    -0.4540 N.4   1 <1>  -0.9590 
 19 C        4.9240     8.4280    -0.2320 C.3   1 <1>   0.1200 
 20 C        6.9440     7.1040    -1.0840 C.3   1 <1>   0.3430 
 21 C        8.6410     5.4180    -0.4550 C.3   1 <1>   0.2630 
 22 H        2.2130     4.1870     0.2290 H     1 <1>   0.1500 
 23 H        1.3010     0.0580     0.6150 H     1 <1>   0.1500 
 24 H        4.9990     1.2560    -1.1460 H     1 <1>   0.1500 
 25 H        4.6490    -1.0710    -0.5700 H     1 <1>   0.0800 
 26 H        3.1380    -1.3220    -1.4110 H     1 <1>   0.0800 
 27 H        3.2320    -1.5610     0.3190 H     1 <1>   0.0800 
 28 H        4.7230     4.7570     1.5380 H     1 <1>   0.0800 
 29 H        4.7430     5.8410    -2.5050 H     1 <1>   0.0800 
 30 H        3.4950     6.6490    -1.6240 H     1 <1>   0.0800 
 31 H        4.4560     6.8120     2.5120 H     1 <1>   0.0800 
 32 H        3.3890     6.9620     1.1410 H     1 <1>   0.0800 
 33 H        6.9370     4.6960     1.3490 H     1 <1>   0.0800 
 34 H        6.8960     6.4200     1.5550 H     1 <1>   0.0800 
 35 H        5.4320     8.0400    -2.2100 H     1 <1>   0.0800 
 36 H        6.6870     5.0660    -1.0400 H     1 <1>   0.4500 
 37 H        3.8670     8.6070    -0.3450 H     1 <1>   0.0800 
 38 H        5.4300     9.3760    -0.3110 H     1 <1>   0.0800 
 39 H        7.4040     7.8750    -0.4880 H     1 <1>   0.0800 
 40 H        7.4270     7.1110    -2.0480 H     1 <1>   0.0800 
 41 H        9.1960     6.1090     0.1580 H     1 <1>   0.0800 
 42 H        9.0300     5.4530    -1.4600 H     1 <1>   0.0800 
 43 H        8.7800     4.4200    -0.0710 H     1 <1>   0.0800 
@<TRIPOS>BOND
  1   1   2  1   
  2   2   3  ar  
  3   2   4  ar  
  4   3   5  ar  
  5   3  22  1   
  6   4   6  ar  
  7   4  23  1   
  8   5   7  1   
  9   5   8  ar  
 10   6   8  ar  
 11   6   9  1   
 12   7  10  2   
 13   7  11  am  
 14   8  24  1   
 15   9  25  1   
 16   9  26  1   
 17   9  27  1   
 18  11  12  1   
 19  11  13  1   
 20  12  14  1   
 21  12  15  1   
 22  12  28  1   
 23  13  16  1   
 24  13  29  1   
 25  13  30  1   
 26  14  17  1   
 27  14  31  1   
 28  14  32  1   
 29  15  18  1   
 30  15  33  1   
 31  15  34  1   
 32  16  19  1   
 33  16  20  1   
 34  16  35  1   
 35  17  19  1   
 36  18  20  1   
 37  18  21  1   
 38  18  36  1   
 39  19  37  1   
 40  19  38  1   
 41  20  39  1   
 42  20  40  1   
 43  21  41  1   
 44  21  42  1   
 45  21  43  1   
@<TRIPOS>SUBSTRUCTURE
  1 ****   7 GROUP 4 **** **** 0

# MOE 2024.06 (io_trps.svl 2023.06)
