@<TRIPOS>MOLECULE
NONAME
46 48 1 0 0 
SMALL
USER_CHARGES


@<TRIPOS>ATOM
  1 O       -0.5430     0.4160     1.4320 O.3   1 <1>  -0.5600 
  2 C        0.2290     0.8860     0.3630 C.3   1 <1>   0.1200 
  3 C       -1.7850     1.0560     1.4740 C.3   1 <1>   0.1200 
  4 C       -0.4880     2.1130    -0.1970 C.3   1 <1>   0.2890 
  5 C       -1.9350     1.8230     0.1580 C.3   1 <1>  -0.0800 
  6 N       -0.0510     3.3290     0.5350 N.pl3 1 <1>  -0.8690 
  7 C       -2.6290     0.9850    -0.9320 C.3   1 <1>  -0.0170 
  8 C        0.6170     4.3840    -0.0360 C.ar  1 <1>   0.4100 
  9 C       -4.0810     0.7010    -0.5770 C.ar  1 <1>  -0.1430 
 10 N        0.6830     4.4430    -1.3520 N.ar  1 <1>  -0.6200 
 11 C        1.1970     5.3490     0.7500 C.ar  1 <1>  -0.1500 
 12 C       -4.5020    -0.5410    -0.1480 C.ar  1 <1>  -0.1500 
 13 C       -5.0540     1.6760    -0.6670 C.ar  1 <1>  -0.1500 
 14 C        1.3390     5.4800    -1.8350 C.ar  1 <1>   0.4700 
 15 C        1.8550     6.3850     0.1340 C.ar  1 <1>   0.4100 
 16 C       -5.8370    -0.7420     0.1650 C.ar  1 <1>   0.1600 
 17 C       -6.3630     1.3710    -0.3300 C.ar  1 <1>   0.1600 
 18 N        1.9320     6.4570    -1.1800 N.ar  1 <1>  -0.6200 
 19 N        2.4470     7.3740     0.8830 N.pl3 1 <1>  -0.8690 
 20 N       -6.7770     0.1860     0.0850 N.ar  1 <1>  -0.6200 
 21 C        3.0600     8.5900     0.3350 C.3   1 <1>   0.2890 
 22 C        4.2880     8.9110     1.1780 C.3   1 <1>  -0.2400 
 23 C        2.0310     9.7120     0.4040 C.3   1 <1>  -0.2400 
 24 H        1.2230     1.1140     0.7060 H     1 <1>   0.0800 
 25 H        0.2700     0.1050    -0.3750 H     1 <1>   0.0800 
 26 H       -2.5560     0.3220     1.6310 H     1 <1>   0.0800 
 27 H       -1.7690     1.7370     2.3070 H     1 <1>   0.0800 
 28 H       -0.3330     2.2150    -1.2580 H     1 <1>   0.0800 
 29 H       -2.4870     2.7350     0.3020 H     1 <1>   0.0800 
 30 H        0.0960     3.1620     1.5330 H     1 <1>   0.4000 
 31 H       -2.1070     0.0550    -1.0770 H     1 <1>   0.0800 
 32 H       -2.6030     1.5210    -1.8640 H     1 <1>   0.0800 
 33 H        1.1390     5.2960     1.8150 H     1 <1>   0.1500 
 34 H       -3.8070    -1.3550    -0.0510 H     1 <1>   0.1500 
 35 H       -4.8070     2.6690    -0.9960 H     1 <1>   0.1500 
 36 H        1.3990     5.5370    -2.9090 H     1 <1>   0.1500 
 37 H       -6.1460    -1.7170     0.4990 H     1 <1>   0.1500 
 38 H       -7.1070     2.1450    -0.4070 H     1 <1>   0.1500 
 39 H        2.2100     7.4340     1.8710 H     1 <1>   0.4000 
 40 H        3.3620     8.4330    -0.6880 H     1 <1>   0.0800 
 41 H        4.0140     9.0810     2.2030 H     1 <1>   0.0800 
 42 H        4.7700     9.7930     0.7980 H     1 <1>   0.0800 
 43 H        4.9860     8.0950     1.1250 H     1 <1>   0.0800 
 44 H        1.7210     9.8860     1.4180 H     1 <1>   0.0800 
 45 H        1.1740     9.4510    -0.1910 H     1 <1>   0.0800 
 46 H        2.4520    10.6180     0.0100 H     1 <1>   0.0800 
@<TRIPOS>BOND
  1   1   2  1   
  2   1   3  1   
  3   2   4  1   
  4   2  24  1   
  5   2  25  1   
  6   3   5  1   
  7   3  26  1   
  8   3  27  1   
  9   4   5  1   
 10   4   6  1   
 11   4  28  1   
 12   5   7  1   
 13   5  29  1   
 14   6   8  1   
 15   6  30  1   
 16   7   9  1   
 17   7  31  1   
 18   7  32  1   
 19   8  10  ar  
 20   8  11  ar  
 21   9  12  ar  
 22   9  13  ar  
 23  10  14  ar  
 24  11  15  ar  
 25  11  33  1   
 26  12  16  ar  
 27  12  34  1   
 28  13  17  ar  
 29  13  35  1   
 30  14  18  ar  
 31  14  36  1   
 32  15  18  ar  
 33  15  19  1   
 34  16  20  ar  
 35  16  37  1   
 36  17  20  ar  
 37  17  38  1   
 38  19  21  1   
 39  19  39  1   
 40  21  22  1   
 41  21  23  1   
 42  21  40  1   
 43  22  41  1   
 44  22  42  1   
 45  22  43  1   
 46  23  44  1   
 47  23  45  1   
 48  23  46  1   
@<TRIPOS>SUBSTRUCTURE
  1 ****   6 GROUP 4 **** **** 0

# MOE 2024.06 (io_trps.svl 2023.06)
