@<TRIPOS>MOLECULE
NONAME
52 55 1 0 0 
SMALL
USER_CHARGES


@<TRIPOS>ATOM
  1 O        0.5250    -0.3330     0.7720 O.2   1 <1>  -0.5700 
  2 C        1.3040    -1.2470     0.8350 C.2   1 <1>   0.5690 
  3 N        1.1820    -2.2200     1.7610 N.am  1 <1>  -0.7300 
  4 C        2.4650    -1.3430    -0.1280 C.3   1 <1>  -0.0990 
  5 C        2.1430    -3.3290     1.9150 C.3   1 <1>   0.1400 
  6 C        2.6320    -2.7970    -0.6130 C.3   1 <1>  -0.0800 
  7 C        2.5890    -3.8460     0.5280 C.3   1 <1>  -0.0800 
  8 C        3.9470    -3.0200    -1.3760 C.3   1 <1>  -0.1600 
  9 C        3.9800    -4.4920     0.5460 C.3   1 <1>  -0.1600 
 10 C        4.4560    -4.3770    -0.9010 C.3   1 <1>   0.4230 
 11 N        5.9210    -4.5800    -1.1310 N.4   1 <1>  -0.9590 
 12 C        6.8770    -4.0510    -0.1030 C.3   1 <1>   0.4860 
 13 C        6.1980    -6.0270    -1.3780 C.3   1 <1>   0.2630 
 14 C        6.9820    -2.5410    -0.2000 C.ar  1 <1>  -0.1440 
 15 C        6.5350    -1.7400     0.8420 C.ar  1 <1>  -0.1500 
 16 C        7.5290    -1.9430    -1.3270 C.ar  1 <1>  -0.1500 
 17 C        6.6170    -0.3630     0.7490 C.ar  1 <1>  -0.1500 
 18 C        7.6080    -0.5640    -1.4170 C.ar  1 <1>  -0.1500 
 19 C        7.1510     0.2350    -0.3810 C.ar  1 <1>  -0.1440 
 20 C        7.2410     1.7570    -0.4700 C.3   1 <1>   0.2390 
 21 N        8.2630     2.3000     0.4520 N.pl3 1 <1>   0.3140 
 22 N        8.0410     3.4170     1.1740 N.2   1 <1>  -0.7070 
 23 C        9.5040     1.8180     0.6780 C.2   1 <1>  -0.3020 
 24 C        9.1390     3.6110     1.8390 C.2   1 <1>   0.1390 
 25 C       10.0940     2.6400     1.5700 C.2   1 <1>  -0.1500 
 26 H        0.4130    -2.1330     2.4310 H     1 <1>   0.3700 
 27 H        2.2890    -0.6890    -0.9630 H     1 <1>   0.0800 
 28 H        3.3460    -1.0060     0.3860 H     1 <1>   0.0800 
 29 H        2.9870    -2.9600     2.4730 H     1 <1>   0.0800 
 30 H        1.6880    -4.1270     2.4780 H     1 <1>   0.0800 
 31 H        1.8060    -3.0080    -1.2740 H     1 <1>   0.0800 
 32 H        1.8800    -4.6030     0.2320 H     1 <1>   0.0800 
 33 H        4.6340    -2.2330    -1.1390 H     1 <1>   0.0800 
 34 H        3.7720    -3.0220    -2.4380 H     1 <1>   0.0800 
 35 H        3.9300    -5.5160     0.8730 H     1 <1>   0.0800 
 36 H        4.6050    -3.9250     1.2080 H     1 <1>   0.0800 
 37 H        3.9140    -5.1160    -1.4710 H     1 <1>   0.0800 
 38 H        6.1380    -4.0570    -1.9900 H     1 <1>   0.4500 
 39 H        6.5720    -4.3440     0.8870 H     1 <1>   0.0800 
 40 H        7.8580    -4.4630    -0.2770 H     1 <1>   0.0800 
 41 H        5.9800    -6.6070    -0.4950 H     1 <1>   0.0800 
 42 H        7.2340    -6.1740    -1.6410 H     1 <1>   0.0800 
 43 H        5.5870    -6.3930    -2.1880 H     1 <1>   0.0800 
 44 H        6.1240    -2.1700     1.7390 H     1 <1>   0.1500 
 45 H        7.9050    -2.5340    -2.1440 H     1 <1>   0.1500 
 46 H        6.2690     0.2500     1.5660 H     1 <1>   0.1500 
 47 H        8.0350    -0.1150    -2.2990 H     1 <1>   0.1500 
 48 H        6.2930     2.1930    -0.2120 H     1 <1>   0.0800 
 49 H        7.4930     2.0660    -1.4660 H     1 <1>   0.0800 
 50 H        9.8880     0.9350     0.2020 H     1 <1>   0.1500 
 51 H        9.2810     4.4340     2.5190 H     1 <1>   0.1500 
 52 H       11.0800     2.5850     1.9960 H     1 <1>   0.1500 
@<TRIPOS>BOND
  1   1   2  2   
  2   2   3  am  
  3   2   4  1   
  4   3   5  1   
  5   3  26  1   
  6   4   6  1   
  7   4  27  1   
  8   4  28  1   
  9   5   7  1   
 10   5  29  1   
 11   5  30  1   
 12   6   7  1   
 13   6   8  1   
 14   6  31  1   
 15   7   9  1   
 16   7  32  1   
 17   8  10  1   
 18   8  33  1   
 19   8  34  1   
 20   9  10  1   
 21   9  35  1   
 22   9  36  1   
 23  10  11  1   
 24  10  37  1   
 25  11  12  1   
 26  11  13  1   
 27  11  38  1   
 28  12  14  1   
 29  12  39  1   
 30  12  40  1   
 31  13  41  1   
 32  13  42  1   
 33  13  43  1   
 34  14  15  ar  
 35  14  16  ar  
 36  15  17  ar  
 37  15  44  1   
 38  16  18  ar  
 39  16  45  1   
 40  17  19  ar  
 41  17  46  1   
 42  18  19  ar  
 43  18  47  1   
 44  19  20  1   
 45  20  21  1   
 46  20  48  1   
 47  20  49  1   
 48  21  22  1   
 49  21  23  1   
 50  22  24  2   
 51  23  25  2   
 52  23  50  1   
 53  24  25  1   
 54  24  51  1   
 55  25  52  1   
@<TRIPOS>SUBSTRUCTURE
  1 ****  15 GROUP 4 **** **** 0

# MOE 2024.06 (io_trps.svl 2023.06)
