@<TRIPOS>MOLECULE
NONAME
37 38 1 0 0 
SMALL
USER_CHARGES


@<TRIPOS>ATOM
  1 F       -1.3790    -0.9340     0.2500 F     1 <1>  -0.1900 
  2 C       -2.0600     0.1780     0.3380 C.ar  1 <1>   0.1900 
  3 C       -3.2190     0.3140    -0.4060 C.ar  1 <1>  -0.1440 
  4 C       -1.5960     1.1690     1.1790 C.ar  1 <1>  -0.1500 
  5 C       -3.9320     1.5010    -0.2960 C.ar  1 <1>  -0.1500 
  6 C       -3.6860    -0.8060    -1.3120 C.3   1 <1>   0.4870 
  7 C       -2.3220     2.3430     1.2800 C.ar  1 <1>  -0.1500 
  8 C       -3.4860     2.5120     0.5440 C.ar  1 <1>  -0.1440 
  9 N       -4.8160    -1.5070    -0.6590 N.4   1 <1>  -0.9590 
 10 C       -4.2700     3.8080     0.6610 C.3   1 <1>  -0.0970 
 11 C       -4.3430    -2.2790     0.5590 C.3   1 <1>   0.3430 
 12 C       -5.5540    -2.3810    -1.6130 C.3   1 <1>   0.3430 
 13 C       -5.2220    -3.4990     0.9050 C.3   1 <1>   0.2000 
 14 C       -6.8530    -2.8620    -0.9580 C.3   1 <1>  -0.1600 
 15 O       -4.7810    -4.5790     0.1590 O.3   1 <1>  -0.6800 
 16 C       -6.6860    -3.2330     0.5400 C.3   1 <1>  -0.1860 
 17 C       -7.5350    -4.4200     0.9340 C.2   1 <1>   0.9060 
 18 O       -8.5120    -4.2240     1.6510 O.co2 1 <1>  -0.9000 
 19 O       -7.1900    -5.5350     0.5230 O.co2 1 <1>  -0.9000 
 20 H       -0.6890     1.0280     1.7410 H     1 <1>   0.1500 
 21 H       -4.8350     1.6520    -0.8630 H     1 <1>   0.1500 
 22 H       -2.8810    -1.4970    -1.5030 H     1 <1>   0.0800 
 23 H       -4.0060    -0.3870    -2.2520 H     1 <1>   0.0800 
 24 H       -1.9750     3.1260     1.9340 H     1 <1>   0.1500 
 25 H       -5.4820    -0.8040    -0.3220 H     1 <1>   0.4500 
 26 H       -3.6100     4.6280     0.8840 H     1 <1>   0.0800 
 27 H       -4.9960     3.7280     1.4500 H     1 <1>   0.0800 
 28 H       -4.7790     4.0300    -0.2590 H     1 <1>   0.0800 
 29 H       -3.3370    -2.6340     0.4110 H     1 <1>   0.0800 
 30 H       -4.3330    -1.6130     1.4060 H     1 <1>   0.0800 
 31 H       -5.7820    -1.8540    -2.5240 H     1 <1>   0.0800 
 32 H       -4.9450    -3.2390    -1.8550 H     1 <1>   0.0800 
 33 H       -5.1230    -3.7630     1.9450 H     1 <1>   0.0800 
 34 H       -7.6230    -2.1180    -1.0600 H     1 <1>   0.0800 
 35 H       -7.1850    -3.7300    -1.5020 H     1 <1>   0.0800 
 36 H       -5.5260    -5.2580     0.2010 H     1 <1>   0.4000 
 37 H       -7.0260    -2.4060     1.1360 H     1 <1>   0.0800 
@<TRIPOS>BOND
  1   1   2  1   
  2   2   3  ar  
  3   2   4  ar  
  4   3   5  ar  
  5   3   6  1   
  6   4   7  ar  
  7   4  20  1   
  8   5   8  ar  
  9   5  21  1   
 10   6   9  1   
 11   6  22  1   
 12   6  23  1   
 13   7   8  ar  
 14   7  24  1   
 15   8  10  1   
 16   9  11  1   
 17   9  12  1   
 18   9  25  1   
 19  10  26  1   
 20  10  27  1   
 21  10  28  1   
 22  11  13  1   
 23  11  29  1   
 24  11  30  1   
 25  12  14  1   
 26  12  31  1   
 27  12  32  1   
 28  13  15  1   
 29  13  16  1   
 30  13  33  1   
 31  14  16  1   
 32  14  34  1   
 33  14  35  1   
 34  15  36  1   
 35  16  17  1   
 36  16  37  1   
 37  17  18  ar  
 38  17  19  ar  
@<TRIPOS>SUBSTRUCTURE
  1 ****   9 GROUP 4 **** **** 0

# MOE 2024.06 (io_trps.svl 2023.06)
