@<TRIPOS>MOLECULE
NONAME
44 47 1 0 0 
SMALL
USER_CHARGES


@<TRIPOS>ATOM
  1 O       -0.3630     0.1180     0.3910 O.2   1 <1>  -0.5700 
  2 C       -1.3440     0.7500     0.7520 C.2   1 <1>   0.7160 
  3 N       -2.5400     0.0570     0.8470 N.am  1 <1>  -0.6600 
  4 C       -1.2220     2.1810     1.0440 C.2   1 <1>   0.1410 
  5 C       -2.6090    -1.4390     0.8520 C.3   1 <1>   0.1400 
  6 C       -3.8860     0.7080     0.8500 C.3   1 <1>   0.1400 
  7 N       -1.9880     2.8300     1.9780 N.2   1 <1>  -0.5650 
  8 C       -0.3580     3.0950     0.4950 C.2   1 <1>  -0.3320 
  9 C       -3.6040    -1.9550    -0.2030 C.3   1 <1>   0.3430 
 10 C       -4.8240     0.0570    -0.1870 C.3   1 <1>   0.2950 
 11 C       -1.5740     4.0500     1.9700 C.2   1 <1>   0.0360 
 12 N       -0.5830     4.2740     1.0900 N.pl3 1 <1>   0.0330 
 13 C        0.7040     2.9300    -0.5820 C.3   1 <1>  -0.0600 
 14 O       -4.8510    -1.3320    -0.0340 O.3   1 <1>  -0.5600 
 15 C       -3.7680    -3.4690    -0.0930 C.ar  1 <1>  -0.1430 
 16 C       -6.2620     0.5630    -0.0400 C.3   1 <1>  -0.1950 
 17 C       -2.9500    -4.3020    -0.8430 C.ar  1 <1>  -0.1500 
 18 C       -4.7120    -4.0360     0.7530 C.ar  1 <1>  -0.1500 
 19 C       -7.2310     0.4890    -1.1770 C.3   1 <1>  -0.2000 
 20 C       -6.7110     1.8220    -0.7140 C.3   1 <1>  -0.2000 
 21 C       -3.0720    -5.6780    -0.7490 C.ar  1 <1>  -0.1500 
 22 C       -4.8360    -5.4110     0.8480 C.ar  1 <1>  -0.1500 
 23 C       -4.0150    -6.2340     0.0970 C.ar  1 <1>  -0.1500 
 24 H       -1.6420    -1.8700     0.6610 H     1 <1>   0.0800 
 25 H       -2.9270    -1.7720     1.8240 H     1 <1>   0.0800 
 26 H       -4.3160     0.6210     1.8320 H     1 <1>   0.0800 
 27 H       -3.8050     1.7530     0.6150 H     1 <1>   0.0800 
 28 H       -3.2430    -1.7110    -1.1870 H     1 <1>   0.0800 
 29 H       -4.4690     0.2760    -1.1800 H     1 <1>   0.0800 
 30 H       -1.9670     4.8300     2.5990 H     1 <1>   0.1500 
 31 H       -0.1030     5.1630     0.9210 H     1 <1>   0.2700 
 32 H        0.6620     1.9490    -1.0210 H     1 <1>   0.0800 
 33 H        1.6830     3.0660    -0.1580 H     1 <1>   0.0800 
 34 H        0.5580     3.6530    -1.3640 H     1 <1>   0.0800 
 35 H       -6.6520     0.3740     0.9460 H     1 <1>   0.1000 
 36 H       -2.2100    -3.8850    -1.5040 H     1 <1>   0.1500 
 37 H       -5.3570    -3.4040     1.3380 H     1 <1>   0.1500 
 38 H       -6.8910     0.0890    -2.1170 H     1 <1>   0.1000 
 39 H       -8.2500     0.2200    -0.9610 H     1 <1>   0.1000 
 40 H       -7.3800     2.4810    -0.1870 H     1 <1>   0.1000 
 41 H       -6.0300     2.3540    -1.3560 H     1 <1>   0.1000 
 42 H       -2.4340    -6.3170    -1.3340 H     1 <1>   0.1500 
 43 H       -5.5720    -5.8400     1.5050 H     1 <1>   0.1500 
 44 H       -4.1120    -7.3030     0.1700 H     1 <1>   0.1500 
@<TRIPOS>BOND
  1   1   2  2   
  2   2   3  am  
  3   2   4  1   
  4   3   5  1   
  5   3   6  1   
  6   4   7  1   
  7   4   8  2   
  8   5   9  1   
  9   5  24  1   
 10   5  25  1   
 11   6  10  1   
 12   6  26  1   
 13   6  27  1   
 14   7  11  2   
 15   8  12  1   
 16   8  13  1   
 17   9  14  1   
 18   9  15  1   
 19   9  28  1   
 20  10  14  1   
 21  10  16  1   
 22  10  29  1   
 23  11  12  1   
 24  11  30  1   
 25  12  31  1   
 26  13  32  1   
 27  13  33  1   
 28  13  34  1   
 29  15  17  ar  
 30  15  18  ar  
 31  16  19  1   
 32  16  20  1   
 33  16  35  1   
 34  17  21  ar  
 35  17  36  1   
 36  18  22  ar  
 37  18  37  1   
 38  19  20  1   
 39  19  38  1   
 40  19  39  1   
 41  20  40  1   
 42  20  41  1   
 43  21  23  ar  
 44  21  42  1   
 45  22  23  ar  
 46  22  43  1   
 47  23  44  1   
@<TRIPOS>SUBSTRUCTURE
  1 ****   3 GROUP 4 **** **** 0

# MOE 2024.06 (io_trps.svl 2023.06)
