@<TRIPOS>MOLECULE
NONAME
51 54 1 0 0 
SMALL
USER_CHARGES


@<TRIPOS>ATOM
  1 O       -1.9550     1.5040     1.9580 O.2   1 <1>  -0.5700 
  2 C       -2.2190     1.3090     0.7830 C.2   1 <1>   0.7160 
  3 N       -2.7610     0.1000     0.4060 N.am  1 <1>  -0.6600 
  4 C       -1.9240     2.3190    -0.1790 C.2   1 <1>  -0.0860 
  5 C       -3.2930    -0.1660    -0.9550 C.3   1 <1>   0.1400 
  6 C       -2.8090    -1.0590     1.3290 C.3   1 <1>   0.1400 
  7 C       -2.8060     3.2790    -0.6780 C.2   1 <1>   0.3720 
  8 C       -0.7780     2.5450    -0.8690 C.2   1 <1>   0.0870 
  9 C       -2.2590    -0.8880    -1.8270 C.3   1 <1>  -0.1600 
 10 C       -1.4810    -1.8260     1.3220 C.3   1 <1>  -0.1600 
 11 N       -2.2400     3.9920    -1.5900 N.2   1 <1>  -0.4100 
 12 N       -4.1370     3.4360    -0.2720 N.pl3 1 <1>  -0.8210 
 13 O       -1.0180     3.5380    -1.6870 O.3   1 <1>  -0.0190 
 14 C        0.5080     1.8960    -0.8470 C.ar  1 <1>   0.0530 
 15 C       -1.7120    -2.2040    -1.2400 C.3   1 <1>  -0.1600 
 16 C       -0.7760    -1.9770    -0.0410 C.3   1 <1>  -0.1600 
 17 C       -5.0030     4.2400    -1.1900 C.3   1 <1>   0.2090 
 18 C       -4.2980     3.9130     1.1370 C.3   1 <1>   0.2090 
 19 C        1.2490     1.7410    -2.0180 C.ar  1 <1>  -0.1500 
 20 C        1.0550     1.3930     0.3340 C.ar  1 <1>  -0.1500 
 21 C       -6.4580     4.2740    -0.6870 C.3   1 <1>   0.1200 
 22 C       -5.7830     3.9660     1.5360 C.3   1 <1>   0.1200 
 23 C        2.4750     1.1010    -2.0150 C.ar  1 <1>  -0.1500 
 24 C        2.2790     0.7510     0.3430 C.ar  1 <1>  -0.1500 
 25 O       -6.5210     4.7410     0.6320 O.3   1 <1>  -0.5600 
 26 C        2.9920     0.6020    -0.8330 C.ar  1 <1>  -0.1500 
 27 H       -3.5800     0.7570    -1.4290 H     1 <1>   0.0800 
 28 H       -4.1810    -0.7690    -0.8770 H     1 <1>   0.0800 
 29 H       -3.6050    -1.7190     1.0320 H     1 <1>   0.0800 
 30 H       -3.0260    -0.7210     2.3290 H     1 <1>   0.0800 
 31 H       -1.4440    -0.2170    -2.0340 H     1 <1>   0.0800 
 32 H       -2.7260    -1.1080    -2.7710 H     1 <1>   0.0800 
 33 H       -1.6690    -2.8040     1.7270 H     1 <1>   0.0800 
 34 H       -0.8040    -1.3350     2.0000 H     1 <1>   0.0800 
 35 H       -1.1410    -2.6900    -2.0130 H     1 <1>   0.0800 
 36 H       -2.5160    -2.8670    -0.9730 H     1 <1>   0.0800 
 37 H       -0.0950    -2.8070     0.0300 H     1 <1>   0.0800 
 38 H       -0.1770    -1.1030    -0.2270 H     1 <1>   0.0800 
 39 H       -4.9750     3.8080    -2.1750 H     1 <1>   0.0800 
 40 H       -4.6280     5.2470    -1.2550 H     1 <1>   0.0800 
 41 H       -3.8670     4.8950     1.2370 H     1 <1>   0.0800 
 42 H       -3.7820     3.2550     1.8130 H     1 <1>   0.0800 
 43 H        0.8560     2.1250    -2.9420 H     1 <1>   0.1500 
 44 H        0.5200     1.5070     1.2600 H     1 <1>   0.1500 
 45 H       -6.8900     3.2900    -0.7250 H     1 <1>   0.0800 
 46 H       -7.0450     4.9360    -1.2980 H     1 <1>   0.0800 
 47 H       -5.8890     4.4080     2.5110 H     1 <1>   0.0800 
 48 H       -6.1990     2.9740     1.5590 H     1 <1>   0.0800 
 49 H        3.0280     0.9910    -2.9320 H     1 <1>   0.1500 
 50 H        2.6780     0.3690     1.2670 H     1 <1>   0.1500 
 51 H        3.9450     0.1030    -0.8270 H     1 <1>   0.1500 
@<TRIPOS>BOND
  1   1   2  2   
  2   2   3  am  
  3   2   4  1   
  4   3   5  1   
  5   3   6  1   
  6   4   7  1   
  7   4   8  2   
  8   5   9  1   
  9   5  27  1   
 10   5  28  1   
 11   6  10  1   
 12   6  29  1   
 13   6  30  1   
 14   7  11  2   
 15   7  12  1   
 16   8  13  1   
 17   8  14  1   
 18   9  15  1   
 19   9  31  1   
 20   9  32  1   
 21  10  16  1   
 22  10  33  1   
 23  10  34  1   
 24  11  13  1   
 25  12  17  1   
 26  12  18  1   
 27  14  19  ar  
 28  14  20  ar  
 29  15  16  1   
 30  15  35  1   
 31  15  36  1   
 32  16  37  1   
 33  16  38  1   
 34  17  21  1   
 35  17  39  1   
 36  17  40  1   
 37  18  22  1   
 38  18  41  1   
 39  18  42  1   
 40  19  23  ar  
 41  19  43  1   
 42  20  24  ar  
 43  20  44  1   
 44  21  25  1   
 45  21  45  1   
 46  21  46  1   
 47  22  25  1   
 48  22  47  1   
 49  22  48  1   
 50  23  26  ar  
 51  23  49  1   
 52  24  26  ar  
 53  24  50  1   
 54  26  51  1   
@<TRIPOS>SUBSTRUCTURE
  1 ****   4 GROUP 4 **** **** 0

# MOE 2024.06 (io_trps.svl 2023.06)
