@<TRIPOS>MOLECULE
NONAME
43 44 1 0 0 
SMALL
USER_CHARGES


@<TRIPOS>ATOM
  1 O       -0.4740    -0.2890    -0.5060 O.2   1 <1>  -0.5700 
  2 C       -1.2320     0.1890     0.3050 C.2   1 <1>   0.5690 
  3 N       -2.2990    -0.5210     0.7950 N.am  1 <1>  -0.6600 
  4 C       -0.9660     1.6090     0.7780 C.3   1 <1>  -0.0990 
  5 C       -2.5490    -1.9040     0.3010 C.3   1 <1>   0.3200 
  6 C       -3.1750    -0.0490     1.9170 C.3   1 <1>   0.1400 
  7 C        0.0190     2.3480    -0.1270 C.3   1 <1>   0.1200 
  8 C       -3.5010    -1.8530    -0.8790 C.2   1 <1>  -0.3320 
  9 C       -4.4110     0.7280     1.4350 C.3   1 <1>   0.1200 
 10 O        0.1610     3.6640     0.3590 O.3   1 <1>  -0.3630 
 11 N       -4.6590    -2.5390    -0.9850 N.pl3 1 <1>   0.0480 
 12 C       -3.3750    -1.1360    -2.0180 C.2   1 <1>   0.0770 
 13 O       -5.2500    -0.0990     0.7110 O.3   1 <1>  -0.6800 
 14 C        0.9630     4.5580    -0.2710 C.ar  1 <1>   0.0820 
 15 C       -5.1640    -2.1710    -2.1840 C.2   1 <1>   0.0360 
 16 C       -5.2850    -3.4450    -0.0060 C.3   1 <1>   0.0160 
 17 N       -4.4260    -1.3310    -2.8330 N.2   1 <1>  -0.5650 
 18 C        1.7150     4.2610    -1.4060 C.ar  1 <1>  -0.1500 
 19 C        1.0190     5.8340     0.2670 C.ar  1 <1>  -0.1500 
 20 C        2.5070     5.2370    -1.9870 C.ar  1 <1>  -0.1500 
 21 C        1.8110     6.8080    -0.3150 C.ar  1 <1>  -0.1500 
 22 C        2.5560     6.5090    -1.4430 C.ar  1 <1>  -0.1500 
 23 H       -0.5630     1.5690     1.7720 H     1 <1>   0.0800 
 24 H       -1.8880     2.1570     0.7850 H     1 <1>   0.0800 
 25 H       -2.9530    -2.5050     1.0950 H     1 <1>   0.0800 
 26 H       -1.6240    -2.3600    -0.0120 H     1 <1>   0.0800 
 27 H       -2.6060     0.5880     2.5700 H     1 <1>   0.0800 
 28 H       -3.4990    -0.8870     2.5100 H     1 <1>   0.0800 
 29 H       -0.3560     2.3930    -1.1360 H     1 <1>   0.0800 
 30 H        0.9830     1.8690    -0.1120 H     1 <1>   0.0800 
 31 H       -4.1310     1.5580     0.8100 H     1 <1>   0.0800 
 32 H       -4.9690     1.0970     2.2780 H     1 <1>   0.0800 
 33 H       -2.5650    -0.4780    -2.2920 H     1 <1>   0.1500 
 34 H       -4.7790    -0.4170    -0.0980 H     1 <1>   0.4000 
 35 H       -6.1030    -2.5500    -2.5480 H     1 <1>   0.1500 
 36 H       -4.6130    -4.2530     0.2150 H     1 <1>   0.0800 
 37 H       -6.1980    -3.8400    -0.4120 H     1 <1>   0.0800 
 38 H       -5.5050    -2.8970     0.8920 H     1 <1>   0.0800 
 39 H        1.6970     3.2830    -1.8490 H     1 <1>   0.1500 
 40 H        0.4390     6.0590     1.1430 H     1 <1>   0.1500 
 41 H        3.0870     5.0060    -2.8630 H     1 <1>   0.1500 
 42 H        1.8480     7.7960     0.1090 H     1 <1>   0.1500 
 43 H        3.1720     7.2650    -1.8970 H     1 <1>   0.1500 
@<TRIPOS>BOND
  1   1   2  2   
  2   2   3  am  
  3   2   4  1   
  4   3   5  1   
  5   3   6  1   
  6   4   7  1   
  7   4  23  1   
  8   4  24  1   
  9   5   8  1   
 10   5  25  1   
 11   5  26  1   
 12   6   9  1   
 13   6  27  1   
 14   6  28  1   
 15   7  10  1   
 16   7  29  1   
 17   7  30  1   
 18   8  11  1   
 19   8  12  2   
 20   9  13  1   
 21   9  31  1   
 22   9  32  1   
 23  10  14  1   
 24  11  15  1   
 25  11  16  1   
 26  12  17  1   
 27  12  33  1   
 28  13  34  1   
 29  14  18  ar  
 30  14  19  ar  
 31  15  17  2   
 32  15  35  1   
 33  16  36  1   
 34  16  37  1   
 35  16  38  1   
 36  18  20  ar  
 37  18  39  1   
 38  19  21  ar  
 39  19  40  1   
 40  20  22  ar  
 41  20  41  1   
 42  21  22  ar  
 43  21  42  1   
 44  22  43  1   
@<TRIPOS>SUBSTRUCTURE
  1 ****   2 GROUP 4 **** **** 0

# MOE 2024.06 (io_trps.svl 2023.06)
