@<TRIPOS>MOLECULE
NONAME
51 53 1 0 0 
SMALL
USER_CHARGES


@<TRIPOS>ATOM
  1 CL       2.0480     1.3950    -2.4950 Cl    1 <1>  -0.1770 
  2 C        0.9530     2.0030    -1.2730 C.ar  1 <1>   0.1770 
  3 C        1.3980     2.3470     0.0020 C.ar  1 <1>  -0.1440 
  4 C       -0.3760     2.1300    -1.6330 C.ar  1 <1>  -0.1500 
  5 C        0.4630     2.8340     0.9070 C.ar  1 <1>  -0.1500 
  6 C        2.8540     2.2140     0.4490 C.3   1 <1>   0.3640 
  7 C       -1.2920     2.6130    -0.7170 C.ar  1 <1>  -0.1500 
  8 C       -0.8690     2.9660     0.5520 C.ar  1 <1>  -0.1500 
  9 N        3.2400     0.7840     0.3720 N.am  1 <1>  -0.7300 
 10 C        3.8220     3.1570    -0.3210 C.3   1 <1>   0.2610 
 11 C        4.3550     0.3420    -0.2490 C.2   1 <1>   0.5690 
 12 O        5.1530     2.6460    -0.3480 O.3   1 <1>  -0.5600 
 13 C        3.8000     4.5470     0.3230 C.2   1 <1>   0.5690 
 14 O        4.6180    -0.8340    -0.2850 O.2   1 <1>  -0.5700 
 15 C        5.2740     1.3620    -0.9220 C.3   1 <1>   0.1810 
 16 O        2.7500     5.1320     0.4470 O.2   1 <1>  -0.5700 
 17 N        4.9690     5.0920     0.7540 N.am  1 <1>  -0.7300 
 18 C        5.1470     6.4360     1.3340 C.3   1 <1>   0.1400 
 19 C        6.2810     7.1440     0.5990 C.3   1 <1>  -0.1600 
 20 C        6.4740     8.5590     1.1340 C.3   1 <1>   0.1200 
 21 O        7.5470     9.1150     0.4520 O.3   1 <1>  -0.5600 
 22 C        7.8220    10.4460     0.7630 C.3   1 <1>   0.2000 
 23 C        7.0090    11.3600    -0.1510 C.3   1 <1>  -0.1600 
 24 C        9.2610    10.7240     0.3480 C.3   1 <1>  -0.1600 
 25 C        7.7670    11.3880    -1.4820 C.3   1 <1>  -0.1600 
 26 C        9.2130    10.9870    -1.1610 C.3   1 <1>  -0.1600 
 27 H       -0.6880     1.8540    -2.6240 H     1 <1>   0.1500 
 28 H        0.7640     3.1250     1.8990 H     1 <1>   0.1500 
 29 H        2.9100     2.4910     1.4880 H     1 <1>   0.0800 
 30 H       -2.3290     2.7160    -0.9900 H     1 <1>   0.1500 
 31 H       -1.5780     3.3480     1.2670 H     1 <1>   0.1500 
 32 H        2.6000     0.0960     0.7710 H     1 <1>   0.3700 
 33 H        3.5000     3.2700    -1.3380 H     1 <1>   0.0800 
 34 H        5.0380     1.4280    -1.9680 H     1 <1>   0.0800 
 35 H        6.2960     1.0470    -0.8130 H     1 <1>   0.0800 
 36 H        5.8190     4.5360     0.6060 H     1 <1>   0.3700 
 37 H        4.2330     6.9990     1.2350 H     1 <1>   0.0800 
 38 H        5.3810     6.3420     2.3810 H     1 <1>   0.0800 
 39 H        6.0460     7.2000    -0.4490 H     1 <1>   0.0800 
 40 H        7.1950     6.5930     0.7330 H     1 <1>   0.0800 
 41 H        6.7060     8.5450     2.1850 H     1 <1>   0.0800 
 42 H        5.5940     9.1540     0.9570 H     1 <1>   0.0800 
 43 H        7.6590    10.6210     1.8130 H     1 <1>   0.0800 
 44 H        5.9910    11.0350    -0.2690 H     1 <1>   0.0800 
 45 H        7.0090    12.3490     0.2690 H     1 <1>   0.0800 
 46 H        9.5980    11.6140     0.8490 H     1 <1>   0.0800 
 47 H        9.9150     9.9090     0.6040 H     1 <1>   0.0800 
 48 H        7.3400    10.6620    -2.1530 H     1 <1>   0.0800 
 49 H        7.7160    12.3610    -1.9390 H     1 <1>   0.0800 
 50 H        9.9120    11.7560    -1.4430 H     1 <1>   0.0800 
 51 H        9.4560    10.0810    -1.6900 H     1 <1>   0.0800 
@<TRIPOS>BOND
  1   1   2  1   
  2   2   3  ar  
  3   2   4  ar  
  4   3   5  ar  
  5   3   6  1   
  6   4   7  ar  
  7   4  27  1   
  8   5   8  ar  
  9   5  28  1   
 10   6   9  1   
 11   6  10  1   
 12   6  29  1   
 13   7   8  ar  
 14   7  30  1   
 15   8  31  1   
 16   9  11  am  
 17   9  32  1   
 18  10  12  1   
 19  10  13  1   
 20  10  33  1   
 21  11  14  2   
 22  11  15  1   
 23  12  15  1   
 24  13  16  2   
 25  13  17  am  
 26  15  34  1   
 27  15  35  1   
 28  17  18  1   
 29  17  36  1   
 30  18  19  1   
 31  18  37  1   
 32  18  38  1   
 33  19  20  1   
 34  19  39  1   
 35  19  40  1   
 36  20  21  1   
 37  20  41  1   
 38  20  42  1   
 39  21  22  1   
 40  22  23  1   
 41  22  24  1   
 42  22  43  1   
 43  23  25  1   
 44  23  44  1   
 45  23  45  1   
 46  24  26  1   
 47  24  46  1   
 48  24  47  1   
 49  25  26  1   
 50  25  48  1   
 51  25  49  1   
 52  26  50  1   
 53  26  51  1   
@<TRIPOS>SUBSTRUCTURE
  1 ****  13 GROUP 4 **** **** 0

# MOE 2024.06 (io_trps.svl 2023.06)
