@<TRIPOS>MOLECULE
NONAME
19 19 1 0 0 
SMALL
USER_CHARGES


@<TRIPOS>ATOM
  1 O        0.7340     4.4690    -1.3730 O.3   1 <1>  -0.6800 
  2 C        0.3900     4.2460    -0.0490 C.3   1 <1>   0.2000 
  3 C        0.7610     5.4980     0.7410 C.3   1 <1>  -0.1600 
  4 C       -1.1360     4.1840     0.0310 C.3   1 <1>  -0.1600 
  5 C       -0.3560     6.4890     0.4370 C.3   1 <1>   0.4230 
  6 C       -1.6090     5.6140     0.3590 C.3   1 <1>  -0.1600 
  7 N       -0.0930     7.0570    -0.8890 N.4   1 <1>  -0.8530 
  8 H        0.7600     3.6120    -1.8550 H     1 <1>   0.4000 
  9 H        0.8850     3.3540     0.3030 H     1 <1>   0.0800 
 10 H        0.7310     5.2590     1.7900 H     1 <1>   0.0800 
 11 H        1.7470     5.8630     0.5090 H     1 <1>   0.0800 
 12 H       -1.5740     3.8060    -0.8780 H     1 <1>   0.0800 
 13 H       -1.4190     3.5270     0.8370 H     1 <1>   0.0800 
 14 H       -0.4440     7.2650     1.1820 H     1 <1>   0.0800 
 15 H       -2.0830     5.6040     1.3260 H     1 <1>   0.0800 
 16 H       -2.3260     5.9750    -0.3580 H     1 <1>   0.0800 
 17 H        0.1770     6.2460    -1.4790 H     1 <1>   0.4500 
 18 H        0.7010     7.7010    -0.8780 H     1 <1>   0.4500 
 19 H       -0.9160     7.5060    -1.2950 H     1 <1>   0.4500 
@<TRIPOS>BOND
  1   1   2  1   
  2   1   8  1   
  3   2   3  1   
  4   2   4  1   
  5   2   9  1   
  6   3   5  1   
  7   3  10  1   
  8   3  11  1   
  9   4   6  1   
 10   4  12  1   
 11   4  13  1   
 12   5   6  1   
 13   5   7  1   
 14   5  14  1   
 15   6  15  1   
 16   6  16  1   
 17   7  17  1   
 18   7  18  1   
 19   7  19  1   
@<TRIPOS>SUBSTRUCTURE
  1 ****   5 GROUP 4 **** **** 0

# MOE 2024.06 (io_trps.svl 2023.06)
