@<TRIPOS>MOLECULE
NONAME
52 54 1 0 0 
SMALL
USER_CHARGES


@<TRIPOS>ATOM
  1 O        4.6940    -0.9410     0.3620 O.2   1 <1>  -0.5700 
  2 C        3.6190    -1.2560    -0.1240 C.2   1 <1>   0.5440 
  3 N        3.3640    -0.7860    -1.3930 N.am  1 <1>  -0.6600 
  4 C        2.6290    -2.0010     0.6360 C.ar  1 <1>   0.0860 
  5 C        4.4500    -0.7610    -2.4310 C.3   1 <1>   0.1400 
  6 C        2.2140     0.1290    -1.6370 C.3   1 <1>   0.1400 
  7 C        1.6470    -2.7610     0.0020 C.ar  1 <1>  -0.1500 
  8 C        2.6210    -1.9820     2.0320 C.ar  1 <1>  -0.1500 
  9 C        5.2000     0.5900    -2.4860 C.3   1 <1>   0.3430 
 10 C        2.4540     1.4840    -0.9470 C.3   1 <1>  -0.1600 
 11 C        0.6870    -3.4570     0.7130 C.ar  1 <1>   0.0820 
 12 C        1.6690    -2.6760     2.7570 C.ar  1 <1>  -0.1500 
 13 N        4.9130     1.3780    -1.2570 N.4   1 <1>  -0.9590 
 14 C        3.7130     2.2490    -1.3800 C.3   1 <1>   0.3430 
 15 O       -0.2190    -4.1470    -0.0240 O.3   1 <1>  -0.3620 
 16 C        0.6990    -3.4130     2.1030 C.ar  1 <1>  -0.1500 
 17 C        6.0800     2.0580    -0.6420 C.3   1 <1>   0.5230 
 18 C       -1.1820    -5.0110     0.5370 C.3   1 <1>   0.2000 
 19 C        5.7200     2.3990     0.7920 C.2   1 <1>   0.0060 
 20 C       -0.5070    -6.3330     0.9090 C.3   1 <1>  -0.2400 
 21 C       -2.2610    -5.2250    -0.5220 C.3   1 <1>  -0.2400 
 22 N        5.4420     3.5970     1.1900 N.2   1 <1>  -0.5650 
 23 N        5.6240     1.4650     1.7670 N.pl3 1 <1>   0.0330 
 24 C        5.1620     3.4440     2.5000 C.2   1 <1>   0.0770 
 25 C        5.2640     2.1490     2.8670 C.2   1 <1>  -0.3020 
 26 H        4.0360    -0.9890    -3.3980 H     1 <1>   0.0800 
 27 H        5.1610    -1.5370    -2.2040 H     1 <1>   0.0800 
 28 H        1.3130    -0.3140    -1.2450 H     1 <1>   0.0800 
 29 H        2.0740     0.2670    -2.6960 H     1 <1>   0.0800 
 30 H        1.6240    -2.8220    -1.0700 H     1 <1>   0.1500 
 31 H        3.3700    -1.4160     2.5570 H     1 <1>   0.1500 
 32 H        4.8950     1.1420    -3.3590 H     1 <1>   0.0800 
 33 H        6.2560     0.3930    -2.5710 H     1 <1>   0.0800 
 34 H        2.4810     1.3430     0.1200 H     1 <1>   0.0800 
 35 H        1.6050     2.1130    -1.1440 H     1 <1>   0.0800 
 36 H        1.6830    -2.6450     3.8330 H     1 <1>   0.1500 
 37 H        4.6430     0.6450    -0.5700 H     1 <1>   0.4500 
 38 H        3.8200     3.1160    -0.7460 H     1 <1>   0.0800 
 39 H        3.6090     2.5920    -2.3970 H     1 <1>   0.0800 
 40 H       -0.0290    -3.9420     2.6890 H     1 <1>   0.1500 
 41 H        6.3150     2.9630    -1.1790 H     1 <1>   0.0800 
 42 H        6.9410     1.4120    -0.6490 H     1 <1>   0.0800 
 43 H       -1.6230    -4.5350     1.3960 H     1 <1>   0.0800 
 44 H       -0.0620    -6.7810     0.0390 H     1 <1>   0.0800 
 45 H       -1.2350    -7.0150     1.3100 H     1 <1>   0.0800 
 46 H        0.2520    -6.1780     1.6530 H     1 <1>   0.0800 
 47 H       -1.8360    -5.6680    -1.4050 H     1 <1>   0.0800 
 48 H       -2.7130    -4.2840    -0.7780 H     1 <1>   0.0800 
 49 H       -3.0260    -5.8770    -0.1420 H     1 <1>   0.0800 
 50 H        5.7490     0.4450     1.6810 H     1 <1>   0.2700 
 51 H        4.8970     4.2870     3.1200 H     1 <1>   0.1500 
 52 H        5.1050     1.6920     3.8280 H     1 <1>   0.1500 
@<TRIPOS>BOND
  1   1   2  2   
  2   2   3  am  
  3   2   4  1   
  4   3   5  1   
  5   3   6  1   
  6   4   7  ar  
  7   4   8  ar  
  8   5   9  1   
  9   5  26  1   
 10   5  27  1   
 11   6  10  1   
 12   6  28  1   
 13   6  29  1   
 14   7  11  ar  
 15   7  30  1   
 16   8  12  ar  
 17   8  31  1   
 18   9  13  1   
 19   9  32  1   
 20   9  33  1   
 21  10  14  1   
 22  10  34  1   
 23  10  35  1   
 24  11  15  1   
 25  11  16  ar  
 26  12  16  ar  
 27  12  36  1   
 28  13  14  1   
 29  13  17  1   
 30  13  37  1   
 31  14  38  1   
 32  14  39  1   
 33  15  18  1   
 34  16  40  1   
 35  17  19  1   
 36  17  41  1   
 37  17  42  1   
 38  18  20  1   
 39  18  21  1   
 40  18  43  1   
 41  19  22  2   
 42  19  23  1   
 43  20  44  1   
 44  20  45  1   
 45  20  46  1   
 46  21  47  1   
 47  21  48  1   
 48  21  49  1   
 49  22  24  1   
 50  23  25  1   
 51  23  50  1   
 52  24  25  2   
 53  24  51  1   
 54  25  52  1   
@<TRIPOS>SUBSTRUCTURE
  1 ****   2 GROUP 4 **** **** 0

# MOE 2024.06 (io_trps.svl 2023.06)
