@<TRIPOS>MOLECULE
NONAME
55 58 1 0 0 
SMALL
USER_CHARGES


@<TRIPOS>ATOM
  1 O       -0.8080     0.2680     1.9400 O.2   1 <1>  -0.5700 
  2 C       -1.3260     0.9030     1.0520 C.2   1 <1>   0.5690 
  3 N       -2.0970     0.2630     0.1130 N.am  1 <1>  -0.6600 
  4 C       -1.0820     2.4170     1.0660 C.3   1 <1>  -0.0190 
  5 C       -2.8450     0.8280    -1.0410 C.3   1 <1>   0.1400 
  6 C       -2.3420    -1.2020     0.1900 C.3   1 <1>   0.1400 
  7 C       -2.3220     3.2130     1.5250 C.3   1 <1>  -0.1600 
  8 C       -0.4830     2.9800    -0.2410 C.3   1 <1>  -0.1600 
  9 C       -3.9450    -0.1930    -1.3110 C.3   1 <1>   0.2000 
 10 C       -3.2730    -1.5320    -0.9860 C.3   1 <1>  -0.0800 
 11 C       -2.0440     4.7180     1.5640 C.3   1 <1>   0.1400 
 12 C       -0.2480     4.4890    -0.1420 C.3   1 <1>   0.1400 
 13 O       -4.9760     0.0450    -0.4130 O.3   1 <1>  -0.6800 
 14 C       -4.2560    -2.6900    -0.7110 C.3   1 <1>  -0.0170 
 15 N       -1.5260     5.1490     0.2380 N.am  1 <1>  -0.6600 
 16 C       -3.6470    -4.0880    -0.5370 C.ar  1 <1>  -0.1440 
 17 C       -2.1570     6.0150    -0.6180 C.2   1 <1>   0.5690 
 18 C       -4.4710    -5.1620    -0.1150 C.ar  1 <1>   0.0000 
 19 C       -2.3330    -4.3770    -0.7780 C.ar  1 <1>  -0.1500 
 20 O       -1.7160     6.2750    -1.7120 O.2   1 <1>  -0.5700 
 21 C       -3.4540     6.6810    -0.2230 C.3   1 <1>  -0.1790 
 22 C       -3.8750    -6.4370     0.0460 C.ar  1 <1>   0.3100 
 23 C       -5.8570    -5.0470     0.1500 C.ar  1 <1>  -0.1500 
 24 C       -1.8440    -5.6760    -0.5900 C.ar  1 <1>   0.1600 
 25 N       -2.5620    -6.6760    -0.1940 N.ar  1 <1>  -0.6200 
 26 C       -4.6690    -7.5140     0.4690 C.ar  1 <1>  -0.1500 
 27 C       -6.6040    -6.1180     0.5600 C.ar  1 <1>  -0.1500 
 28 C       -6.0050    -7.3690     0.7240 C.ar  1 <1>  -0.1500 
 29 H       -0.3320     2.5800     1.8210 H     1 <1>   0.0800 
 30 H       -3.2540     1.8020    -0.8470 H     1 <1>   0.0800 
 31 H       -2.1870     0.8790    -1.8910 H     1 <1>   0.0800 
 32 H       -1.4110    -1.7390     0.1300 H     1 <1>   0.0800 
 33 H       -2.8140    -1.4290     1.1320 H     1 <1>   0.0800 
 34 H       -2.6090     2.8830     2.5080 H     1 <1>   0.0800 
 35 H       -3.1550     3.0380     0.8720 H     1 <1>   0.0800 
 36 H       -1.1330     2.8120    -1.0760 H     1 <1>   0.0800 
 37 H        0.4520     2.4890    -0.4490 H     1 <1>   0.0800 
 38 H       -4.3400    -0.1390    -2.3110 H     1 <1>   0.0800 
 39 H       -2.6650    -1.7870    -1.8350 H     1 <1>   0.0800 
 40 H       -1.3030     4.9330     2.3150 H     1 <1>   0.0800 
 41 H       -2.9430     5.2450     1.8270 H     1 <1>   0.0800 
 42 H        0.1130     4.8640    -1.0850 H     1 <1>   0.0800 
 43 H        0.4970     4.7020     0.6060 H     1 <1>   0.0800 
 44 H       -4.5930     0.1220     0.4850 H     1 <1>   0.4000 
 45 H       -4.9610    -2.7350    -1.5220 H     1 <1>   0.0800 
 46 H       -4.8080    -2.4550     0.1820 H     1 <1>   0.0800 
 47 H       -1.6260    -3.6460    -1.1160 H     1 <1>   0.1500 
 48 H       -3.3080     7.2680     0.6630 H     1 <1>   0.0800 
 49 H       -4.2090     5.9370    -0.0530 H     1 <1>   0.0800 
 50 H       -3.7830     7.3290    -1.0150 H     1 <1>   0.0800 
 51 H       -6.3460    -4.0990     0.0280 H     1 <1>   0.1500 
 52 H       -0.8000    -5.8530    -0.7890 H     1 <1>   0.1500 
 53 H       -4.1860    -8.4670     0.5860 H     1 <1>   0.1500 
 54 H       -7.6570    -6.0130     0.7590 H     1 <1>   0.1500 
 55 H       -6.6020    -8.2040     1.0480 H     1 <1>   0.1500 
@<TRIPOS>BOND
  1   1   2  2   
  2   2   3  am  
  3   2   4  1   
  4   3   5  1   
  5   3   6  1   
  6   4   7  1   
  7   4   8  1   
  8   4  29  1   
  9   5   9  1   
 10   5  30  1   
 11   5  31  1   
 12   6  10  1   
 13   6  32  1   
 14   6  33  1   
 15   7  11  1   
 16   7  34  1   
 17   7  35  1   
 18   8  12  1   
 19   8  36  1   
 20   8  37  1   
 21   9  10  1   
 22   9  13  1   
 23   9  38  1   
 24  10  14  1   
 25  10  39  1   
 26  11  15  1   
 27  11  40  1   
 28  11  41  1   
 29  12  15  1   
 30  12  42  1   
 31  12  43  1   
 32  13  44  1   
 33  14  16  1   
 34  14  45  1   
 35  14  46  1   
 36  15  17  am  
 37  16  18  ar  
 38  16  19  ar  
 39  17  20  2   
 40  17  21  1   
 41  18  22  ar  
 42  18  23  ar  
 43  19  24  ar  
 44  19  47  1   
 45  21  48  1   
 46  21  49  1   
 47  21  50  1   
 48  22  25  ar  
 49  22  26  ar  
 50  23  27  ar  
 51  23  51  1   
 52  24  25  ar  
 53  24  52  1   
 54  26  28  ar  
 55  26  53  1   
 56  27  28  ar  
 57  27  54  1   
 58  28  55  1   
@<TRIPOS>SUBSTRUCTURE
  1 ****   6 GROUP 4 **** **** 0

# MOE 2024.06 (io_trps.svl 2023.06)
