@<TRIPOS>MOLECULE
NONAME
49 52 1 0 0 
SMALL
USER_CHARGES


@<TRIPOS>ATOM
  1 S       -0.4970     0.6320    -0.3060 S.3   1 <1>  -0.0800 
  2 C       -0.6160    -1.0620    -0.6340 C.2   1 <1>   0.4620 
  3 C        1.1900     0.3960     0.0650 C.2   1 <1>   0.3250 
  4 N        0.5100    -1.6630    -0.4630 N.2   1 <1>  -0.3380 
  5 N       -1.8140    -1.6350    -1.0110 N.pl3 1 <1>  -0.8220 
  6 N        1.5170    -0.8430    -0.0690 N.2   1 <1>  -0.3380 
  7 C        2.0120     1.5150     0.4660 C.ar  1 <1>   0.0530 
  8 C       -1.8520    -3.0750    -1.3700 C.3   1 <1>   0.2090 
  9 C       -3.1440    -1.0440    -0.7020 C.3   1 <1>   0.2090 
 10 C        3.3540     1.3110     0.7950 C.ar  1 <1>  -0.1500 
 11 C        1.5350     2.8290     0.5490 C.ar  1 <1>  -0.1500 
 12 C       -2.4340    -3.8770    -0.1820 C.3   1 <1>   0.4230 
 13 C       -3.7320    -1.8150     0.4860 C.3   1 <1>  -0.1600 
 14 C        4.1770     2.3500     1.1850 C.ar  1 <1>  -0.1500 
 15 C        2.3530     3.8730     0.9390 C.ar  1 <1>  -0.1500 
 16 N       -2.3600    -5.3910    -0.3480 N.4   1 <1>  -0.9590 
 17 C       -3.8400    -3.3510     0.2450 C.3   1 <1>   0.0000 
 18 C        3.6770     3.6370     1.2590 C.ar  1 <1>  -0.1500 
 19 C       -3.2690    -6.1530     0.5690 C.3   1 <1>   0.3430 
 20 C       -2.5110    -5.8950    -1.7530 C.3   1 <1>   0.2630 
 21 C       -4.2590    -4.0350     1.5800 C.3   1 <1>  -0.1600 
 22 C       -4.8830    -3.6500    -0.8700 C.3   1 <1>   0.1200 
 23 C       -3.5360    -5.3690     1.8520 C.3   1 <1>  -0.1600 
 24 O       -6.0890    -3.0160    -0.6250 O.3   1 <1>  -0.6800 
 25 H       -2.4510    -3.1910    -2.2550 H     1 <1>   0.0800 
 26 H       -0.8590    -3.4250    -1.5910 H     1 <1>   0.0800 
 27 H       -3.0620     0.0000    -0.4510 H     1 <1>   0.0800 
 28 H       -3.7870    -1.1200    -1.5630 H     1 <1>   0.0800 
 29 H        3.7610     0.3150     0.7430 H     1 <1>   0.1500 
 30 H        0.5130     3.0530     0.3080 H     1 <1>   0.1500 
 31 H       -1.7860    -3.6370     0.6460 H     1 <1>   0.0800 
 32 H       -3.0970    -1.6210     1.3340 H     1 <1>   0.0800 
 33 H       -4.6950    -1.3980     0.7240 H     1 <1>   0.0800 
 34 H        5.2070     2.1580     1.4320 H     1 <1>   0.1500 
 35 H        1.9610     4.8740     0.9950 H     1 <1>   0.1500 
 36 H       -1.4000    -5.6300    -0.0520 H     1 <1>   0.4500 
 37 H        4.3150     4.4490     1.5630 H     1 <1>   0.1500 
 38 H       -4.2120    -6.3360     0.0790 H     1 <1>   0.0800 
 39 H       -2.8310    -7.1090     0.8090 H     1 <1>   0.0800 
 40 H       -3.4820    -5.6400    -2.1440 H     1 <1>   0.0800 
 41 H       -2.4030    -6.9680    -1.7780 H     1 <1>   0.0800 
 42 H       -1.7560    -5.4670    -2.3930 H     1 <1>   0.0800 
 43 H       -4.0580    -3.3870     2.4170 H     1 <1>   0.0800 
 44 H       -5.3210    -4.2070     1.5890 H     1 <1>   0.0800 
 45 H       -5.0850    -4.7030    -0.9520 H     1 <1>   0.0800 
 46 H       -4.5480    -3.2940    -1.8270 H     1 <1>   0.0800 
 47 H       -4.1390    -5.9670     2.5140 H     1 <1>   0.0800 
 48 H       -2.6020    -5.1890     2.3560 H     1 <1>   0.0800 
 49 H       -6.5190    -3.3350     0.1940 H     1 <1>   0.4000 
@<TRIPOS>BOND
  1   1   2  1   
  2   1   3  1   
  3   2   4  2   
  4   2   5  1   
  5   3   6  2   
  6   3   7  1   
  7   4   6  1   
  8   5   8  1   
  9   5   9  1   
 10   7  10  ar  
 11   7  11  ar  
 12   8  12  1   
 13   8  25  1   
 14   8  26  1   
 15   9  13  1   
 16   9  27  1   
 17   9  28  1   
 18  10  14  ar  
 19  10  29  1   
 20  11  15  ar  
 21  11  30  1   
 22  12  16  1   
 23  12  17  1   
 24  12  31  1   
 25  13  17  1   
 26  13  32  1   
 27  13  33  1   
 28  14  18  ar  
 29  14  34  1   
 30  15  18  ar  
 31  15  35  1   
 32  16  19  1   
 33  16  20  1   
 34  16  36  1   
 35  17  21  1   
 36  17  22  1   
 37  18  37  1   
 38  19  23  1   
 39  19  38  1   
 40  19  39  1   
 41  20  40  1   
 42  20  41  1   
 43  20  42  1   
 44  21  23  1   
 45  21  43  1   
 46  21  44  1   
 47  22  24  1   
 48  22  45  1   
 49  22  46  1   
 50  23  47  1   
 51  23  48  1   
 52  24  49  1   
@<TRIPOS>SUBSTRUCTURE
  1 ****   2 GROUP 4 **** **** 0

# MOE 2024.06 (io_trps.svl 2023.06)
