@<TRIPOS>MOLECULE
NONAME
62 65 1 0 0 
SMALL
USER_CHARGES


@<TRIPOS>ATOM
  1 O       -0.4610     0.2490    -0.8250 O.2   1 <1>  -0.5700 
  2 C       -1.6310     0.0070    -0.9680 C.2   1 <1>   0.5690 
  3 N       -2.6720     0.7890    -0.6100 N.am  1 <1>  -0.6600 
  4 C       -2.1290    -1.2890    -1.5440 C.3   1 <1>  -0.0990 
  5 C       -2.5200     2.1930    -0.1350 C.3   1 <1>   0.2200 
  6 C       -3.9620     0.1600    -0.9340 C.3   1 <1>   0.1400 
  7 C       -3.5970    -1.3280    -1.0680 C.3   1 <1>  -0.0800 
  8 C       -3.2110     2.4000     1.2120 C.3   1 <1>  -0.1600 
  9 C       -3.2110     3.1790    -1.0730 C.3   1 <1>  -0.1600 
 10 C       -3.7220    -1.9770     0.3230 C.3   1 <1>   0.3430 
 11 C       -4.6140     2.9510     0.9240 C.3   1 <1>  -0.1600 
 12 C       -4.6430     3.3460    -0.5560 C.3   1 <1>  -0.1600 
 13 N       -3.9870    -3.4500     0.2520 N.4   1 <1>  -0.9590 
 14 C       -4.4030    -3.9840     1.6060 C.3   1 <1>   0.4860 
 15 C       -2.8430    -4.2580    -0.2850 C.3   1 <1>   0.2630 
 16 C       -4.9910    -5.3970     1.5170 C.ar  1 <1>   0.4770 
 17 N       -6.1190    -5.5240     0.8680 N.ar  1 <1>  -0.6200 
 18 N       -4.3000    -6.3600     2.0550 N.ar  1 <1>  -0.6200 
 19 C       -6.5590    -6.7640     0.7950 C.ar  1 <1>   0.7200 
 20 C       -4.8450    -7.5410     1.9060 C.ar  1 <1>   0.7200 
 21 N       -5.9570    -7.8090     1.2960 N.ar  1 <1>  -0.6200 
 22 N       -7.7470    -6.9070     0.1420 N.pl3 1 <1>  -0.6000 
 23 N       -4.1890    -8.5710     2.4330 N.pl3 1 <1>  -0.9000 
 24 C       -8.4620    -8.0400    -0.2660 C.ar  1 <1>   0.1000 
 25 C       -9.8510    -7.9880    -0.2850 C.ar  1 <1>  -0.1500 
 26 C       -7.8380    -9.2120    -0.6830 C.ar  1 <1>  -0.1500 
 27 C      -10.6060    -9.0730    -0.6990 C.ar  1 <1>  -0.1440 
 28 C       -8.5830   -10.3000    -1.0980 C.ar  1 <1>  -0.1500 
 29 C       -9.9650   -10.2310    -1.1060 C.ar  1 <1>  -0.1500 
 30 C      -12.1230    -9.0040    -0.7120 C.3   1 <1>  -0.0960 
 31 H       -1.5220    -2.1030    -1.1980 H     1 <1>   0.0800 
 32 H       -2.0710    -1.2240    -2.6160 H     1 <1>   0.0800 
 33 H       -1.4700     2.4260    -0.0580 H     1 <1>   0.0800 
 34 H       -4.3180     0.5530    -1.8730 H     1 <1>   0.0800 
 35 H       -4.6940     0.3430    -0.1670 H     1 <1>   0.0800 
 36 H       -4.2530    -1.8050    -1.7750 H     1 <1>   0.0800 
 37 H       -2.6590     3.1490     1.7540 H     1 <1>   0.0800 
 38 H       -3.2270     1.5030     1.8030 H     1 <1>   0.0800 
 39 H       -3.1690     2.8670    -2.1020 H     1 <1>   0.0800 
 40 H       -2.7080     4.1260    -0.9880 H     1 <1>   0.0800 
 41 H       -4.5430    -1.5070     0.8390 H     1 <1>   0.0800 
 42 H       -2.8270    -1.7800     0.8940 H     1 <1>   0.0800 
 43 H       -4.8100     3.8080     1.5470 H     1 <1>   0.0800 
 44 H       -5.3660     2.2080     1.1250 H     1 <1>   0.0800 
 45 H       -5.3080     2.6950    -1.0960 H     1 <1>   0.0800 
 46 H       -4.9820     4.3600    -0.6850 H     1 <1>   0.0800 
 47 H       -4.8040    -3.6160    -0.3590 H     1 <1>   0.4500 
 48 H       -5.1530    -3.3440     2.0360 H     1 <1>   0.0800 
 49 H       -3.5560    -4.0040     2.2710 H     1 <1>   0.0800 
 50 H       -1.9600    -4.1090     0.3150 H     1 <1>   0.0800 
 51 H       -2.6240    -3.9720    -1.3010 H     1 <1>   0.0800 
 52 H       -3.0880    -5.3090    -0.2790 H     1 <1>   0.0800 
 53 H       -8.2280    -6.0230     0.0120 H     1 <1>   0.4000 
 54 H       -4.6870    -9.4590     2.4900 H     1 <1>   0.4000 
 55 H       -3.4800    -8.4000     3.1410 H     1 <1>   0.4000 
 56 H      -10.3460    -7.0900     0.0330 H     1 <1>   0.1500 
 57 H       -6.7660    -9.2760    -0.6880 H     1 <1>   0.1500 
 58 H       -8.0880   -11.2010    -1.4160 H     1 <1>   0.1500 
 59 H      -10.5380   -11.0820    -1.4320 H     1 <1>   0.1500 
 60 H      -12.4730    -8.1990    -0.0910 H     1 <1>   0.0800 
 61 H      -12.5380    -9.9240    -0.3410 H     1 <1>   0.0800 
 62 H      -12.4710    -8.8450    -1.7160 H     1 <1>   0.0800 
@<TRIPOS>BOND
  1   1   2  2   
  2   2   3  am  
  3   2   4  1   
  4   3   5  1   
  5   3   6  1   
  6   4   7  1   
  7   4  31  1   
  8   4  32  1   
  9   5   8  1   
 10   5   9  1   
 11   5  33  1   
 12   6   7  1   
 13   6  34  1   
 14   6  35  1   
 15   7  10  1   
 16   7  36  1   
 17   8  11  1   
 18   8  37  1   
 19   8  38  1   
 20   9  12  1   
 21   9  39  1   
 22   9  40  1   
 23  10  13  1   
 24  10  41  1   
 25  10  42  1   
 26  11  12  1   
 27  11  43  1   
 28  11  44  1   
 29  12  45  1   
 30  12  46  1   
 31  13  14  1   
 32  13  15  1   
 33  13  47  1   
 34  14  16  1   
 35  14  48  1   
 36  14  49  1   
 37  15  50  1   
 38  15  51  1   
 39  15  52  1   
 40  16  17  ar  
 41  16  18  ar  
 42  17  19  ar  
 43  18  20  ar  
 44  19  21  ar  
 45  19  22  1   
 46  20  21  ar  
 47  20  23  1   
 48  22  24  1   
 49  22  53  1   
 50  23  54  1   
 51  23  55  1   
 52  24  25  ar  
 53  24  26  ar  
 54  25  27  ar  
 55  25  56  1   
 56  26  28  ar  
 57  26  57  1   
 58  27  29  ar  
 59  27  30  1   
 60  28  29  ar  
 61  28  58  1   
 62  29  59  1   
 63  30  60  1   
 64  30  61  1   
 65  30  62  1   
@<TRIPOS>SUBSTRUCTURE
  1 ****  13 GROUP 4 **** **** 0

# MOE 2024.06 (io_trps.svl 2023.06)
