@<TRIPOS>MOLECULE
NONAME
53 55 1 0 0 
SMALL
USER_CHARGES


@<TRIPOS>ATOM
  1 S        0.8120     0.1840    -0.0410 S.o2  1 <1>   1.3330 
  2 O        0.3240     0.1750     1.3190 O.2   1 <1>  -0.6500 
  3 O        2.2260     0.0140    -0.2930 O.2   1 <1>  -0.6500 
  4 N       -0.0140    -1.0170    -0.9120 N.am  1 <1>  -0.8490 
  5 C        0.2500     1.6960    -0.8240 C.3   1 <1>  -0.0550 
  6 C        0.6670    -1.4150    -2.1490 C.3   1 <1>   0.1160 
  7 C       -0.2980    -2.2020    -0.0960 C.3   1 <1>   0.1160 
  8 C        0.7590     2.9740    -0.1350 C.3   1 <1>  -0.0800 
  9 C        0.2510     4.2400    -0.8360 C.3   1 <1>   0.2000 
 10 C        2.2930     3.1030    -0.1560 C.3   1 <1>   0.1100 
 11 O       -0.4640     5.0130     0.0670 O.3   1 <1>  -0.6800 
 12 C        1.5230     4.9770    -1.2520 C.3   1 <1>   0.1100 
 13 N        2.5830     4.5290    -0.3310 N.3   1 <1>  -0.8100 
 14 C        2.5660     5.2030     0.9970 C.3   1 <1>   0.2900 
 15 C        2.4180     6.7140     0.8990 C.2   1 <1>   0.0060 
 16 N        1.2770     7.3210     1.0180 N.2   1 <1>  -0.5650 
 17 N        3.4800     7.5410     0.6850 N.pl3 1 <1>   0.3260 
 18 C        1.5950     8.6200     0.8720 C.2   1 <1>   0.0770 
 19 C        4.8650     7.2420     0.5870 C.ar  1 <1>  -0.0230 
 20 C        2.9200     8.7720     0.6720 C.2   1 <1>  -0.3020 
 21 C        5.3450     6.3940    -0.4050 C.ar  1 <1>  -0.1500 
 22 C        5.7670     7.7970     1.4880 C.ar  1 <1>  -0.1500 
 23 C        6.6940     6.0980    -0.4940 C.ar  1 <1>  -0.1500 
 24 C        7.1160     7.5060     1.4000 C.ar  1 <1>  -0.1500 
 25 C        7.5900     6.6560     0.4150 C.ar  1 <1>   0.0820 
 26 O        8.9260     6.4180     0.4020 O.3   1 <1>  -0.3620 
 27 C        9.5020     5.5490    -0.5470 C.3   1 <1>   0.0400 
 28 H        0.5600     1.6990    -1.8510 H     1 <1>   0.0800 
 29 H       -0.8230     1.7090    -0.8050 H     1 <1>   0.0800 
 30 H        0.0530    -2.1050    -2.7030 H     1 <1>   0.0800 
 31 H        1.6100    -1.8870    -1.9250 H     1 <1>   0.0800 
 32 H        0.8500    -0.5530    -2.7670 H     1 <1>   0.0800 
 33 H       -0.8340    -2.9350    -0.6750 H     1 <1>   0.0800 
 34 H       -0.9090    -1.9300     0.7490 H     1 <1>   0.0800 
 35 H        0.6200    -2.6360     0.2660 H     1 <1>   0.0800 
 36 H        0.4260     2.9620     0.8900 H     1 <1>   0.0800 
 37 H       -0.3890     4.0390    -1.6780 H     1 <1>   0.0800 
 38 H        2.6990     2.5730    -1.0020 H     1 <1>   0.0800 
 39 H        2.7460     2.7050     0.7380 H     1 <1>   0.0800 
 40 H        0.1110     5.7330     0.4270 H     1 <1>   0.4000 
 41 H        1.3940     6.0440    -1.2860 H     1 <1>   0.0800 
 42 H        1.7920     4.6530    -2.2430 H     1 <1>   0.0800 
 43 H        1.7500     4.8330     1.5920 H     1 <1>   0.0800 
 44 H        3.4760     4.9650     1.5200 H     1 <1>   0.0800 
 45 H        0.8400     9.3890     0.9210 H     1 <1>   0.1500 
 46 H        3.4980     9.6640     0.5220 H     1 <1>   0.1500 
 47 H        4.6600     5.9570    -1.1130 H     1 <1>   0.1500 
 48 H        5.4150     8.4580     2.2610 H     1 <1>   0.1500 
 49 H        7.0250     5.4370    -1.2710 H     1 <1>   0.1500 
 50 H        7.8140     7.9340     2.0970 H     1 <1>   0.1500 
 51 H       10.5610     5.5070    -0.3620 H     1 <1>   0.0800 
 52 H        9.3190     5.9370    -1.5330 H     1 <1>   0.0800 
 53 H        9.0720     4.5700    -0.4300 H     1 <1>   0.0800 
@<TRIPOS>BOND
  1   1   2  2   
  2   1   3  2   
  3   1   4  am  
  4   1   5  1   
  5   4   6  1   
  6   4   7  1   
  7   5   8  1   
  8   5  28  1   
  9   5  29  1   
 10   6  30  1   
 11   6  31  1   
 12   6  32  1   
 13   7  33  1   
 14   7  34  1   
 15   7  35  1   
 16   8   9  1   
 17   8  10  1   
 18   8  36  1   
 19   9  11  1   
 20   9  12  1   
 21   9  37  1   
 22  10  13  1   
 23  10  38  1   
 24  10  39  1   
 25  11  40  1   
 26  12  13  1   
 27  12  41  1   
 28  12  42  1   
 29  13  14  1   
 30  14  15  1   
 31  14  43  1   
 32  14  44  1   
 33  15  16  2   
 34  15  17  1   
 35  16  18  1   
 36  17  19  1   
 37  17  20  1   
 38  18  20  2   
 39  18  45  1   
 40  19  21  ar  
 41  19  22  ar  
 42  20  46  1   
 43  21  23  ar  
 44  21  47  1   
 45  22  24  ar  
 46  22  48  1   
 47  23  25  ar  
 48  23  49  1   
 49  24  25  ar  
 50  24  50  1   
 51  25  26  1   
 52  26  27  1   
 53  27  51  1   
 54  27  52  1   
 55  27  53  1   
@<TRIPOS>SUBSTRUCTURE
  1 ****  13 GROUP 4 **** **** 0

# MOE 2024.06 (io_trps.svl 2023.06)
