@<TRIPOS>MOLECULE
NONAME
39 41 1 0 0 
SMALL
USER_CHARGES


@<TRIPOS>ATOM
  1 O        1.4700     0.0850     1.6270 O.3   1 <1>  -0.6800 
  2 C        1.5530    -0.4400     0.3400 C.3   1 <1>   0.2000 
  3 C        2.5120    -1.6280     0.3710 C.3   1 <1>  -0.0800 
  4 C        2.2730     0.5720    -0.5550 C.3   1 <1>   0.3430 
  5 C        3.9090    -0.9920     0.2580 C.3   1 <1>   0.3430 
  6 C        2.2430    -2.6050    -0.7900 C.3   1 <1>   0.0210 
  7 N        3.7190     0.3970    -0.2500 N.4   1 <1>  -0.9590 
  8 C        3.1270    -3.8330    -0.6910 C.2   1 <1>   0.1080 
  9 C        4.1740     1.4210     0.7280 C.3   1 <1>   0.5240 
 10 N        4.4200    -3.7810    -0.7880 N.2   1 <1>  -0.7070 
 11 C        2.6670    -5.1300    -0.4910 C.2   1 <1>  -0.1500 
 12 C        4.2970     2.7430    -0.0180 C.2   1 <1>   0.0460 
 13 N        4.8230    -5.0630    -0.6610 N.pl3 1 <1>   0.3000 
 14 C        3.7770    -5.8950    -0.4750 C.2   1 <1>  -0.3320 
 15 N        4.8180     2.7720    -1.2650 N.2   1 <1>  -0.5650 
 16 C        3.9350     3.9840     0.3780 C.2   1 <1>  -0.3020 
 17 C        3.9060    -7.3970    -0.2960 C.3   1 <1>  -0.0600 
 18 C        4.7720     4.0240    -1.5910 C.2   1 <1>   0.0360 
 19 N        4.2440     4.8160    -0.6340 N.pl3 1 <1>   0.0330 
 20 H        0.9050    -0.4750     2.2000 H     1 <1>   0.4000 
 21 H        0.5600    -0.6730    -0.0060 H     1 <1>   0.0800 
 22 H        2.4260    -2.1770     1.2920 H     1 <1>   0.0800 
 23 H        1.9330     1.5780    -0.3710 H     1 <1>   0.0800 
 24 H        2.0950     0.3220    -1.5880 H     1 <1>   0.0800 
 25 H        4.5400    -1.5490    -0.4130 H     1 <1>   0.0800 
 26 H        4.3750    -0.9740     1.2300 H     1 <1>   0.0800 
 27 H        2.4230    -2.1330    -1.7400 H     1 <1>   0.0800 
 28 H        1.2160    -2.9240    -0.7670 H     1 <1>   0.0800 
 29 H        4.2810     0.6040    -1.0950 H     1 <1>   0.4500 
 30 H        3.4800     1.5070     1.5470 H     1 <1>   0.0800 
 31 H        5.1430     1.1530     1.1110 H     1 <1>   0.0800 
 32 H        1.6420    -5.4370    -0.3790 H     1 <1>   0.1500 
 33 H        5.8110    -5.3400    -0.7100 H     1 <1>   0.2700 
 34 H        3.4890     4.3210     1.2990 H     1 <1>   0.1500 
 35 H        2.9340    -7.8390    -0.1670 H     1 <1>   0.0800 
 36 H        4.5010    -7.6200     0.5720 H     1 <1>   0.0800 
 37 H        4.3690    -7.8370    -1.1610 H     1 <1>   0.0800 
 38 H        5.1180     4.4200    -2.5320 H     1 <1>   0.1500 
 39 H        4.1170     5.8340    -0.6760 H     1 <1>   0.2700 
@<TRIPOS>BOND
  1   1   2  1   
  2   1  20  1   
  3   2   3  1   
  4   2   4  1   
  5   2  21  1   
  6   3   5  1   
  7   3   6  1   
  8   3  22  1   
  9   4   7  1   
 10   4  23  1   
 11   4  24  1   
 12   5   7  1   
 13   5  25  1   
 14   5  26  1   
 15   6   8  1   
 16   6  27  1   
 17   6  28  1   
 18   7   9  1   
 19   7  29  1   
 20   8  10  2   
 21   8  11  1   
 22   9  12  1   
 23   9  30  1   
 24   9  31  1   
 25  10  13  1   
 26  11  14  2   
 27  11  32  1   
 28  12  15  1   
 29  12  16  2   
 30  13  14  1   
 31  13  33  1   
 32  14  17  1   
 33  15  18  2   
 34  16  19  1   
 35  16  34  1   
 36  17  35  1   
 37  17  36  1   
 38  17  37  1   
 39  18  19  1   
 40  18  38  1   
 41  19  39  1   
@<TRIPOS>SUBSTRUCTURE
  1 ****   5 GROUP 4 **** **** 0

# MOE 2024.06 (io_trps.svl 2023.06)
