@<TRIPOS>MOLECULE
NONAME
46 48 1 0 0 
SMALL
USER_CHARGES


@<TRIPOS>ATOM
  1 S       -0.0400     0.1470     1.6960 S.o2  1 <1>   1.4470 
  2 O        0.7990     0.9440     2.5630 O.2   1 <1>  -0.6500 
  3 O       -0.9380    -0.8270     2.2790 O.2   1 <1>  -0.6500 
  4 N       -1.0010     1.2180     0.7970 N.am  1 <1>  -0.8490 
  5 C        1.0050    -0.6440     0.4360 C.ar  1 <1>  -0.0090 
  6 C       -1.6180     2.2280     1.6590 C.3   1 <1>   0.1960 
  7 C       -2.0090     0.5160    -0.0010 C.3   1 <1>   0.1960 
  8 C        1.6860     0.1150    -0.5080 C.ar  1 <1>  -0.1500 
  9 C        1.1630    -2.0240     0.3890 C.ar  1 <1>  -0.1500 
 10 C       -2.3430     3.2740     0.8110 C.3   1 <1>  -0.1600 
 11 C       -2.7690     1.5040    -0.8900 C.3   1 <1>  -0.1600 
 12 C        2.4910    -0.4800    -1.4650 C.ar  1 <1>  -0.1500 
 13 C        1.9670    -2.6230    -0.5660 C.ar  1 <1>  -0.1500 
 14 C       -3.4190     2.6390    -0.0840 C.3   1 <1>   0.2800 
 15 C        2.6450    -1.8600    -1.5090 C.ar  1 <1>   0.0730 
 16 O       -3.8160     3.5880    -1.0410 O.3   1 <1>  -0.5600 
 17 C       -4.6520     2.1440     0.7240 C.3   1 <1>  -0.1600 
 18 C        3.4810    -2.4800    -2.4980 C.1   1 <1>   0.4840 
 19 C       -4.6960     4.5940    -0.6300 C.3   1 <1>   0.1200 
 20 C       -5.9840     2.4910     0.0530 C.3   1 <1>   0.2800 
 21 N        4.1430    -2.9740    -3.2850 N.1   1 <1>  -0.5570 
 22 C       -6.0500     3.9980    -0.2090 C.3   1 <1>  -0.1600 
 23 O       -6.0110     1.8680    -1.1660 O.3   1 <1>  -0.6800 
 24 C       -7.1900     1.9810     0.8370 C.3   1 <1>  -0.2400 
 25 H       -0.8570     2.7280     2.2360 H     1 <1>   0.0800 
 26 H       -2.3010     1.7560     2.3480 H     1 <1>   0.0800 
 27 H       -2.6940    -0.0090     0.6450 H     1 <1>   0.0800 
 28 H       -1.5280    -0.2130    -0.6320 H     1 <1>   0.0800 
 29 H        1.5820     1.1880    -0.4900 H     1 <1>   0.1500 
 30 H        0.6490    -2.6380     1.1120 H     1 <1>   0.1500 
 31 H       -1.6150     3.7710     0.1960 H     1 <1>   0.0800 
 32 H       -2.7790     4.0040     1.4670 H     1 <1>   0.0800 
 33 H       -3.5170     0.9680    -1.4440 H     1 <1>   0.0800 
 34 H       -2.0720     1.9230    -1.5930 H     1 <1>   0.0800 
 35 H        3.0060     0.1370    -2.1820 H     1 <1>   0.1500 
 36 H        2.0700    -3.6960    -0.5750 H     1 <1>   0.1500 
 37 H       -4.6460     2.6060     1.6940 H     1 <1>   0.0800 
 38 H       -4.6060     1.0860     0.9000 H     1 <1>   0.0800 
 39 H       -4.8280     5.2700    -1.4570 H     1 <1>   0.0800 
 40 H       -4.2440     5.1370     0.1820 H     1 <1>   0.0800 
 41 H       -6.7950     4.2080    -0.9550 H     1 <1>   0.0800 
 42 H       -6.3610     4.5030     0.6880 H     1 <1>   0.0800 
 43 H       -5.2880     2.2670    -1.6950 H     1 <1>   0.4000 
 44 H       -7.2180     2.4300     1.8130 H     1 <1>   0.0800 
 45 H       -7.1330     0.9140     0.9530 H     1 <1>   0.0800 
 46 H       -8.0990     2.2300     0.3200 H     1 <1>   0.0800 
@<TRIPOS>BOND
  1   1   2  2   
  2   1   3  2   
  3   1   4  am  
  4   1   5  1   
  5   4   6  1   
  6   4   7  1   
  7   5   8  ar  
  8   5   9  ar  
  9   6  10  1   
 10   6  25  1   
 11   6  26  1   
 12   7  11  1   
 13   7  27  1   
 14   7  28  1   
 15   8  12  ar  
 16   8  29  1   
 17   9  13  ar  
 18   9  30  1   
 19  10  14  1   
 20  10  31  1   
 21  10  32  1   
 22  11  14  1   
 23  11  33  1   
 24  11  34  1   
 25  12  15  ar  
 26  12  35  1   
 27  13  15  ar  
 28  13  36  1   
 29  14  16  1   
 30  14  17  1   
 31  15  18  1   
 32  16  19  1   
 33  17  20  1   
 34  17  37  1   
 35  17  38  1   
 36  18  21  3   
 37  19  22  1   
 38  19  39  1   
 39  19  40  1   
 40  20  22  1   
 41  20  23  1   
 42  20  24  1   
 43  22  41  1   
 44  22  42  1   
 45  23  43  1   
 46  24  44  1   
 47  24  45  1   
 48  24  46  1   
@<TRIPOS>SUBSTRUCTURE
  1 ****   7 GROUP 4 **** **** 0

# MOE 2024.06 (io_trps.svl 2023.06)
