@<TRIPOS>MOLECULE
NONAME
35 36 1 0 0 
SMALL
USER_CHARGES


@<TRIPOS>ATOM
  1 O       -0.3900    -0.5090     0.9370 O.2   1 <1>  -0.5700 
  2 C       -0.3240    -1.5610     0.3320 C.2   1 <1>   0.5440 
  3 N        0.8700    -1.9110    -0.2380 N.am  1 <1>  -0.7300 
  4 C       -1.4880    -2.4100     0.2090 C.ar  1 <1>   0.0860 
  5 C        2.1170    -1.1270    -0.1420 C.3   1 <1>   0.1400 
  6 C       -2.7690    -1.8790     0.3650 C.ar  1 <1>   0.1600 
  7 C       -1.4110    -3.7740    -0.0660 C.ar  1 <1>  -0.1500 
  8 C        3.2940    -2.0920    -0.0630 C.3   1 <1>  -0.2400 
  9 N       -3.9080    -2.5450     0.2660 N.ar  1 <1>  -0.6200 
 10 C       -2.5840    -4.4830    -0.1700 C.ar  1 <1>  -0.1500 
 11 C       -3.8040    -3.8340     0.0060 C.ar  1 <1>   0.4100 
 12 N       -5.0030    -4.4690    -0.0800 N.pl3 1 <1>  -0.8690 
 13 C       -5.2720    -5.7970     0.5230 C.3   1 <1>   0.2090 
 14 C       -5.7850    -6.7460    -0.5590 C.3   1 <1>   0.0960 
 15 N       -5.9300    -8.1050    -0.0140 N.pl3 1 <1>   0.3140 
 16 N       -6.6150    -8.3740     1.1020 N.2   1 <1>  -0.4180 
 17 C       -5.4210    -9.2370    -0.5040 C.2   1 <1>  -0.3020 
 18 N       -6.5500    -9.6400     1.3270 N.2   1 <1>  -0.2270 
 19 C       -5.8220   -10.1890     0.3510 C.2   1 <1>   0.0770 
 20 H        0.9100    -2.7100    -0.8700 H     1 <1>   0.3700 
 21 H        2.0920    -0.5020     0.7360 H     1 <1>   0.0800 
 22 H        2.2070    -0.4940    -1.0090 H     1 <1>   0.0800 
 23 H       -2.8470    -0.8270     0.5850 H     1 <1>   0.1500 
 24 H       -0.4610    -4.2620    -0.1860 H     1 <1>   0.1500 
 25 H        3.2000    -2.7200     0.8050 H     1 <1>   0.0800 
 26 H        4.2090    -1.5340     0.0190 H     1 <1>   0.0800 
 27 H        3.3440    -2.7000    -0.9480 H     1 <1>   0.0800 
 28 H       -2.5720    -5.5320    -0.3890 H     1 <1>   0.1500 
 29 H       -5.7630    -3.7940     0.0580 H     1 <1>   0.4000 
 30 H       -6.0120    -5.6890     1.2980 H     1 <1>   0.0800 
 31 H       -4.3720    -6.1920     0.9640 H     1 <1>   0.0800 
 32 H       -5.0910    -6.7730    -1.3780 H     1 <1>   0.0800 
 33 H       -6.7440    -6.4160    -0.9110 H     1 <1>   0.0800 
 34 H       -4.8290    -9.3000    -1.3980 H     1 <1>   0.1500 
 35 H       -5.6270   -11.2470     0.3200 H     1 <1>   0.1500 
@<TRIPOS>BOND
  1   1   2  2   
  2   2   3  am  
  3   2   4  1   
  4   3   5  1   
  5   3  20  1   
  6   4   6  ar  
  7   4   7  ar  
  8   5   8  1   
  9   5  21  1   
 10   5  22  1   
 11   6   9  ar  
 12   6  23  1   
 13   7  10  ar  
 14   7  24  1   
 15   8  25  1   
 16   8  26  1   
 17   8  27  1   
 18   9  11  ar  
 19  10  11  ar  
 20  10  28  1   
 21  11  12  1   
 22  12  13  1   
 23  12  29  1   
 24  13  14  1   
 25  13  30  1   
 26  13  31  1   
 27  14  15  1   
 28  14  32  1   
 29  14  33  1   
 30  15  16  1   
 31  15  17  1   
 32  16  18  2   
 33  17  19  2   
 34  17  34  1   
 35  18  19  1   
 36  19  35  1   
@<TRIPOS>SUBSTRUCTURE
  1 ****  10 GROUP 4 **** **** 0

# MOE 2024.06 (io_trps.svl 2023.06)
