@<TRIPOS>MOLECULE
NONAME
42 44 1 0 0 
SMALL
USER_CHARGES


@<TRIPOS>ATOM
  1 S       -0.1570     0.1850     0.3960 S.3   1 <1>  -0.0800 
  2 C        1.5130    -0.3340     0.5190 C.2   1 <1>   0.4620 
  3 C       -0.6310    -1.4850     0.2430 C.2   1 <1>  -0.1100 
  4 N        1.6780    -1.6000     0.4530 N.2   1 <1>  -0.5650 
  5 N        2.4810     0.6010     0.6710 N.pl3 1 <1>  -0.8840 
  6 C        0.4700    -2.2540     0.2970 C.2   1 <1>   0.0460 
  7 C        0.5450    -3.7720     0.2050 C.3   1 <1>   0.0210 
  8 C       -0.8300    -4.4410     0.0410 C.3   1 <1>  -0.0990 
  9 C       -0.7640    -5.9580    -0.0520 C.2   1 <1>   0.5690 
 10 O        0.3050    -6.5110     0.0370 O.2   1 <1>  -0.5700 
 11 N       -1.9200    -6.6660    -0.2330 N.am  1 <1>  -0.6600 
 12 C       -3.2940    -6.1120    -0.3090 C.3   1 <1>   0.1400 
 13 C       -1.9450    -8.1450    -0.3210 C.3   1 <1>   0.1400 
 14 C       -4.2070    -7.3310    -0.4550 C.3   1 <1>   0.2000 
 15 C       -3.3870    -8.5320     0.0120 C.3   1 <1>  -0.0800 
 16 O       -5.3470    -7.2070     0.3250 O.3   1 <1>  -0.6800 
 17 C       -3.8530    -9.8510    -0.6290 C.3   1 <1>  -0.0170 
 18 C       -3.0510   -11.0410    -0.1280 C.ar  1 <1>   0.1670 
 19 N       -1.8830   -11.2530    -0.7120 N.ar  1 <1>  -0.6200 
 20 C       -3.5550   -11.8400     0.8970 C.ar  1 <1>   0.1600 
 21 C       -1.2570   -12.3030    -0.2060 C.ar  1 <1>   0.1600 
 22 N       -2.9310   -12.8910     1.4040 N.ar  1 <1>  -0.6200 
 23 C       -1.7640   -13.0940     0.8180 C.ar  1 <1>   0.1600 
 24 H       -1.6780    -1.6940     0.1300 H     1 <1>   0.1500 
 25 H        2.2800     1.5990     0.7200 H     1 <1>   0.4000 
 26 H        3.4540     0.3020     0.7460 H     1 <1>   0.4000 
 27 H        1.1730    -4.0330    -0.6290 H     1 <1>   0.0800 
 28 H        1.0190    -4.1430     1.0970 H     1 <1>   0.0800 
 29 H       -1.2910    -4.0690    -0.8550 H     1 <1>   0.0800 
 30 H       -1.4450    -4.1830     0.8820 H     1 <1>   0.0800 
 31 H       -3.5140    -5.5710     0.5950 H     1 <1>   0.0800 
 32 H       -3.3880    -5.4660    -1.1650 H     1 <1>   0.0800 
 33 H       -1.6870    -8.4420    -1.3240 H     1 <1>   0.0800 
 34 H       -1.2450    -8.5890     0.3680 H     1 <1>   0.0800 
 35 H       -4.5090    -7.4370    -1.4830 H     1 <1>   0.0800 
 36 H       -3.4490    -8.6150     1.0830 H     1 <1>   0.0800 
 37 H       -5.1080    -7.1380     1.2690 H     1 <1>   0.4000 
 38 H       -3.7590    -9.7930    -1.7000 H     1 <1>   0.0800 
 39 H       -4.8950   -10.0020    -0.4070 H     1 <1>   0.0800 
 40 H       -4.5150   -11.6000     1.3170 H     1 <1>   0.1500 
 41 H       -0.2960   -12.5490    -0.6210 H     1 <1>   0.1500 
 42 H       -1.1790   -13.9280     1.1630 H     1 <1>   0.1500 
@<TRIPOS>BOND
  1   1   2  1   
  2   1   3  1   
  3   2   4  2   
  4   2   5  1   
  5   3   6  2   
  6   3  24  1   
  7   4   6  1   
  8   5  25  1   
  9   5  26  1   
 10   6   7  1   
 11   7   8  1   
 12   7  27  1   
 13   7  28  1   
 14   8   9  1   
 15   8  29  1   
 16   8  30  1   
 17   9  10  2   
 18   9  11  am  
 19  11  12  1   
 20  11  13  1   
 21  12  14  1   
 22  12  31  1   
 23  12  32  1   
 24  13  15  1   
 25  13  33  1   
 26  13  34  1   
 27  14  15  1   
 28  14  16  1   
 29  14  35  1   
 30  15  17  1   
 31  15  36  1   
 32  16  37  1   
 33  17  18  1   
 34  17  38  1   
 35  17  39  1   
 36  18  19  ar  
 37  18  20  ar  
 38  19  21  ar  
 39  20  22  ar  
 40  20  40  1   
 41  21  23  ar  
 42  21  41  1   
 43  22  23  ar  
 44  23  42  1   
@<TRIPOS>SUBSTRUCTURE
  1 ****  11 GROUP 4 **** **** 0

# MOE 2024.06 (io_trps.svl 2023.06)
