@<TRIPOS>MOLECULE
NONAME
55 59 1 0 0 
SMALL
USER_CHARGES


@<TRIPOS>ATOM
  1 O        1.2490    -1.0530    -2.7430 O.2   1 <1>  -0.5700 
  2 C        1.7510    -1.3880    -1.6870 C.2   1 <1>   0.5440 
  3 N        2.3740    -0.4390    -0.9000 N.am  1 <1>  -0.6600 
  4 C        1.6730    -2.7760    -1.2850 C.ar  1 <1>   0.0860 
  5 C        2.7750    -0.6680     0.5170 C.3   1 <1>   0.1400 
  6 C        2.5550     0.9660    -1.3630 C.3   1 <1>   0.1400 
  7 C        0.4700    -3.4080    -1.0390 C.ar  1 <1>  -0.1500 
  8 C        2.8000    -3.5700    -1.1190 C.ar  1 <1>  -0.1500 
  9 C        1.9780     0.2660     1.4350 C.3   1 <1>  -0.1600 
 10 C        1.7550     1.9130    -0.4620 C.3   1 <1>  -0.1600 
 11 C        0.4300    -4.7330    -0.6310 C.ar  1 <1>   0.4100 
 12 C        2.6660    -4.8820    -0.7150 C.ar  1 <1>   0.1600 
 13 C        2.1260     1.7360     1.0170 C.3   1 <1>  -0.1600 
 14 N        1.5150    -5.4780    -0.4600 N.ar  1 <1>  -0.6200 
 15 N       -0.7890    -5.3240    -0.3680 N.pl3 1 <1>  -0.8380 
 16 C       -1.4840    -4.9080     0.8730 C.3   1 <1>   0.2090 
 17 C       -0.9650    -6.7510    -0.7360 C.3   1 <1>   0.2090 
 18 C       -2.9770    -5.2070     0.7420 C.3   1 <1>  -0.1600 
 19 C       -2.4560    -7.0640    -0.8720 C.3   1 <1>  -0.1600 
 20 C       -3.2230    -6.6870     0.4050 C.3   1 <1>   0.1000 
 21 C       -4.7090    -7.0050     0.2530 C.2   1 <1>   0.0060 
 22 N       -5.6360    -6.1400    -0.0090 N.2   1 <1>  -0.3380 
 23 N       -5.2060    -8.2420     0.3780 N.pl3 1 <1>   0.3340 
 24 N       -6.7910    -6.7900    -0.0650 N.2   1 <1>  -0.3380 
 25 C       -6.5300    -8.0490     0.1660 C.2   1 <1>   0.1410 
 26 C       -4.6950    -9.5110     0.6480 C.2   1 <1>  -0.1810 
 27 C       -7.4100    -9.1610     0.2180 C.2   1 <1>  -0.1050 
 28 C       -5.5280   -10.5830     0.7000 C.2   1 <1>  -0.1500 
 29 C       -6.9200   -10.4060     0.4800 C.2   1 <1>  -0.1500 
 30 H        3.8280    -0.4660     0.6180 H     1 <1>   0.0800 
 31 H        2.5990    -1.6860     0.8140 H     1 <1>   0.0800 
 32 H        2.2310     1.0790    -2.3840 H     1 <1>   0.0800 
 33 H        3.6010     1.2160    -1.3190 H     1 <1>   0.0800 
 34 H       -0.4520    -2.8740    -1.1700 H     1 <1>   0.1500 
 35 H        3.7730    -3.1550    -1.3090 H     1 <1>   0.1500 
 36 H        2.3170     0.1430     2.4480 H     1 <1>   0.0800 
 37 H        0.9410    -0.0180     1.3990 H     1 <1>   0.0800 
 38 H        0.7060     1.7140    -0.6030 H     1 <1>   0.0800 
 39 H        1.9380     2.9280    -0.7640 H     1 <1>   0.0800 
 40 H        3.5550    -5.4790    -0.5940 H     1 <1>   0.1500 
 41 H        3.1440     2.0500     1.1690 H     1 <1>   0.0800 
 42 H        1.4900     2.3540     1.6280 H     1 <1>   0.0800 
 43 H       -1.3380    -3.8550     1.0410 H     1 <1>   0.0800 
 44 H       -1.0670    -5.4460     1.7080 H     1 <1>   0.0800 
 45 H       -0.5160    -7.3710     0.0220 H     1 <1>   0.0800 
 46 H       -0.4640    -6.9440    -1.6710 H     1 <1>   0.0800 
 47 H       -3.3850    -4.5820    -0.0330 H     1 <1>   0.0800 
 48 H       -3.4750    -4.9560     1.6610 H     1 <1>   0.0800 
 49 H       -2.5770    -8.1100    -1.0850 H     1 <1>   0.0800 
 50 H       -2.8510    -6.5100    -1.7060 H     1 <1>   0.0800 
 51 H       -2.8380    -7.2740     1.2210 H     1 <1>   0.0800 
 52 H       -3.6350    -9.5830     0.8060 H     1 <1>   0.1500 
 53 H       -8.4540    -8.9750     0.0450 H     1 <1>   0.1500 
 54 H       -5.1670   -11.5770     0.9060 H     1 <1>   0.1500 
 55 H       -7.5650   -11.2680     0.5260 H     1 <1>   0.1500 
@<TRIPOS>BOND
  1   1   2  2   
  2   2   3  am  
  3   2   4  1   
  4   3   5  1   
  5   3   6  1   
  6   4   7  ar  
  7   4   8  ar  
  8   5   9  1   
  9   5  30  1   
 10   5  31  1   
 11   6  10  1   
 12   6  32  1   
 13   6  33  1   
 14   7  11  ar  
 15   7  34  1   
 16   8  12  ar  
 17   8  35  1   
 18   9  13  1   
 19   9  36  1   
 20   9  37  1   
 21  10  13  1   
 22  10  38  1   
 23  10  39  1   
 24  11  14  ar  
 25  11  15  1   
 26  12  14  ar  
 27  12  40  1   
 28  13  41  1   
 29  13  42  1   
 30  15  16  1   
 31  15  17  1   
 32  16  18  1   
 33  16  43  1   
 34  16  44  1   
 35  17  19  1   
 36  17  45  1   
 37  17  46  1   
 38  18  20  1   
 39  18  47  1   
 40  18  48  1   
 41  19  20  1   
 42  19  49  1   
 43  19  50  1   
 44  20  21  1   
 45  20  51  1   
 46  21  22  2   
 47  21  23  1   
 48  22  24  1   
 49  23  25  1   
 50  23  26  1   
 51  24  25  2   
 52  25  27  1   
 53  26  28  2   
 54  26  52  1   
 55  27  29  2   
 56  27  53  1   
 57  28  29  1   
 58  28  54  1   
 59  29  55  1   
@<TRIPOS>SUBSTRUCTURE
  1 ****  15 GROUP 4 **** **** 0

# MOE 2024.06 (io_trps.svl 2023.06)
