@<TRIPOS>MOLECULE
NONAME
47 49 1 0 0 
SMALL
USER_CHARGES


@<TRIPOS>ATOM
  1 S        0.0940     0.6850     1.7320 S.o2  1 <1>   1.4470 
  2 O        0.9320    -0.1860     2.5270 O.2   1 <1>  -0.6500 
  3 O       -0.7130     1.6890     2.3950 O.2   1 <1>  -0.6500 
  4 N       -0.9630    -0.2830     0.8240 N.am  1 <1>  -0.8490 
  5 C        1.1210     1.5180     0.4830 C.ar  1 <1>  -0.0090 
  6 C       -0.2700    -1.3190     0.0320 C.3   1 <1>   0.1960 
  7 C       -1.9200     0.4770     0.0180 C.3   1 <1>   0.1960 
  8 C        2.2150     0.8800    -0.0950 C.ar  1 <1>  -0.1500 
  9 C        0.8230     2.8100     0.0570 C.ar  1 <1>  -0.1500 
 10 C       -1.2510    -2.3580    -0.5340 C.3   1 <1>  -0.1060 
 11 C       -2.9650    -0.4530    -0.5990 C.3   1 <1>  -0.1600 
 12 C        2.9820     1.5040    -1.0650 C.ar  1 <1>  -0.1500 
 13 C        1.5830     3.4490    -0.9090 C.ar  1 <1>  -0.1500 
 14 C       -0.5000    -3.2610    -1.5090 C.2   1 <1>   0.9060 
 15 C       -2.2840    -1.5820    -1.3730 C.3   1 <1>   0.2000 
 16 C       -1.9080    -3.1980     0.6030 C.3   1 <1>  -0.0650 
 17 C        2.6630     2.7870    -1.4660 C.ar  1 <1>   0.1020 
 18 O        0.7200    -3.1230    -1.6660 O.co2 1 <1>  -0.9000 
 19 O       -1.1550    -4.0690    -2.1860 O.co2 1 <1>  -0.9000 
 20 O       -3.2560    -2.4390    -1.8480 O.3   1 <1>  -0.6800 
 21 C       -0.9120    -3.9190     1.5260 C.3   1 <1>  -0.1950 
 22 S        3.7060     3.5380    -2.7270 S.3   1 <1>  -0.3310 
 23 C       -0.2630    -5.1990     1.1120 C.3   1 <1>  -0.2000 
 24 C       -1.2980    -5.1970     2.2000 C.3   1 <1>  -0.2000 
 25 C        3.0670     5.2490    -3.0020 C.3   1 <1>  -0.0100 
 26 H        0.2500    -0.8520    -0.7880 H     1 <1>   0.0800 
 27 H        0.4710    -1.8190     0.6320 H     1 <1>   0.0800 
 28 H       -2.4260     1.1980     0.6390 H     1 <1>   0.0800 
 29 H       -1.3990     1.0050    -0.7640 H     1 <1>   0.0800 
 30 H        2.4710    -0.1210     0.2140 H     1 <1>   0.1500 
 31 H       -0.0170     3.3260     0.4930 H     1 <1>   0.1500 
 32 H       -3.5890     0.1090    -1.2680 H     1 <1>   0.0800 
 33 H       -3.5840    -0.8550     0.1810 H     1 <1>   0.0800 
 34 H        3.8210     0.9970    -1.5080 H     1 <1>   0.1500 
 35 H        1.3240     4.4450    -1.2100 H     1 <1>   0.1500 
 36 H       -1.7880    -1.1690    -2.2360 H     1 <1>   0.0800 
 37 H       -2.5200    -2.5660     1.2180 H     1 <1>   0.0800 
 38 H       -2.5560    -3.9330     0.1580 H     1 <1>   0.0800 
 39 H       -2.7620    -3.2500    -2.1630 H     1 <1>   0.4000 
 40 H       -0.3320    -3.2350     2.1220 H     1 <1>   0.1000 
 41 H       -0.5110    -5.6040     0.1440 H     1 <1>   0.1000 
 42 H        0.7780    -5.3300     1.3530 H     1 <1>   0.1000 
 43 H       -0.9820    -5.3600     3.2150 H     1 <1>   0.1000 
 44 H       -2.2590    -5.6320     1.9890 H     1 <1>   0.1000 
 45 H        3.6950     5.7150    -3.7390 H     1 <1>   0.0800 
 46 H        3.1210     5.7780    -2.0670 H     1 <1>   0.0800 
 47 H        2.0550     5.1740    -3.3560 H     1 <1>   0.0800 
@<TRIPOS>BOND
  1   1   2  2   
  2   1   3  2   
  3   1   4  am  
  4   1   5  1   
  5   4   6  1   
  6   4   7  1   
  7   5   8  ar  
  8   5   9  ar  
  9   6  10  1   
 10   6  26  1   
 11   6  27  1   
 12   7  11  1   
 13   7  28  1   
 14   7  29  1   
 15   8  12  ar  
 16   8  30  1   
 17   9  13  ar  
 18   9  31  1   
 19  10  14  1   
 20  10  15  1   
 21  10  16  1   
 22  11  15  1   
 23  11  32  1   
 24  11  33  1   
 25  12  17  ar  
 26  12  34  1   
 27  13  17  ar  
 28  13  35  1   
 29  14  18  ar  
 30  14  19  ar  
 31  15  20  1   
 32  15  36  1   
 33  16  21  1   
 34  16  37  1   
 35  16  38  1   
 36  17  22  1   
 37  20  39  1   
 38  21  23  1   
 39  21  24  1   
 40  21  40  1   
 41  22  25  1   
 42  23  24  1   
 43  23  41  1   
 44  23  42  1   
 45  24  43  1   
 46  24  44  1   
 47  25  45  1   
 48  25  46  1   
 49  25  47  1   
@<TRIPOS>SUBSTRUCTURE
  1 ****   6 GROUP 4 **** **** 0

# MOE 2024.06 (io_trps.svl 2023.06)
