@<TRIPOS>MOLECULE
NONAME
42 43 1 0 0 
SMALL
USER_CHARGES


@<TRIPOS>ATOM
  1 O        8.2890     0.4700    -1.0220 O.2   1 <1>  -0.5700 
  2 C        8.0190    -0.1530    -0.0130 C.2   1 <1>   0.7800 
  3 O        6.7640    -0.2990     0.4040 O.3   1 <1>  -0.4300 
  4 N        8.9500    -0.7350     0.7880 N.am  1 <1>  -0.5790 
  5 C        5.5930     0.1850    -0.2190 C.3   1 <1>   0.2800 
  6 C       10.3920    -1.0050     0.5870 C.3   1 <1>   0.0540 
  7 C        4.4420    -0.2830     0.6730 C.3   1 <1>  -0.2400 
  8 C        5.4370    -0.4360    -1.6120 C.3   1 <1>  -0.2400 
  9 C        5.6100     1.7180    -0.2600 C.3   1 <1>  -0.2400 
 10 C       11.1360     0.0620    -0.2630 C.3   1 <1>   0.0150 
 11 C       11.0530    -1.6560     1.7600 C.3   1 <1>  -0.2000 
 12 C       10.7350    -2.4590     0.5310 C.3   1 <1>  -0.2000 
 13 C       12.6190    -0.2390    -0.5560 C.3   1 <1>  -0.1600 
 14 C       11.0330     1.4570     0.3830 C.3   1 <1>  -0.1600 
 15 C       13.2390     0.8520    -1.4300 C.3   1 <1>   0.3430 
 16 C       11.6590     2.5240    -0.5080 C.3   1 <1>   0.3430 
 17 N       13.0820     2.1770    -0.7710 N.4   1 <1>  -0.9060 
 18 H        8.5460    -1.2410     1.5740 H     1 <1>   0.3700 
 19 H        4.4290    -1.3570     0.7330 H     1 <1>   0.0800 
 20 H        3.5010     0.0450     0.2720 H     1 <1>   0.0800 
 21 H        4.5480     0.1230     1.6630 H     1 <1>   0.0800 
 22 H        5.5020    -1.5070    -1.5550 H     1 <1>   0.0800 
 23 H        6.1880    -0.0710    -2.2880 H     1 <1>   0.0800 
 24 H        4.4790    -0.1750    -2.0230 H     1 <1>   0.0800 
 25 H        5.7880     2.1170     0.7220 H     1 <1>   0.0800 
 26 H        4.6600     2.0840    -0.6070 H     1 <1>   0.0800 
 27 H        6.3610     2.0810    -0.9350 H     1 <1>   0.0800 
 28 H       10.6540     0.0860    -1.2250 H     1 <1>   0.0800 
 29 H       10.4800    -1.8390     2.6520 H     1 <1>   0.1000 
 30 H       12.0910    -1.4890     1.9820 H     1 <1>   0.1000 
 31 H       11.5620    -2.8210    -0.0510 H     1 <1>   0.1000 
 32 H        9.9340    -3.1770     0.5720 H     1 <1>   0.1000 
 33 H       12.7020    -1.1710    -1.0850 H     1 <1>   0.0800 
 34 H       13.1830    -0.3270     0.3550 H     1 <1>   0.0800 
 35 H       11.5060     1.4560     1.3500 H     1 <1>   0.0800 
 36 H       10.0030     1.7220     0.5370 H     1 <1>   0.0800 
 37 H       12.7440     0.8630    -2.3890 H     1 <1>   0.0800 
 38 H       14.2840     0.6380    -1.5920 H     1 <1>   0.0800 
 39 H       11.5920     3.4860    -0.0240 H     1 <1>   0.0800 
 40 H       11.1140     2.5740    -1.4380 H     1 <1>   0.0800 
 41 H       13.5120     2.9070    -1.3530 H     1 <1>   0.4500 
 42 H       13.5870     2.1660     0.1230 H     1 <1>   0.4500 
@<TRIPOS>BOND
  1   1   2  2   
  2   2   3  1   
  3   2   4  am  
  4   3   5  1   
  5   4   6  1   
  6   4  18  1   
  7   5   7  1   
  8   5   8  1   
  9   5   9  1   
 10   6  10  1   
 11   6  11  1   
 12   6  12  1   
 13   7  19  1   
 14   7  20  1   
 15   7  21  1   
 16   8  22  1   
 17   8  23  1   
 18   8  24  1   
 19   9  25  1   
 20   9  26  1   
 21   9  27  1   
 22  10  13  1   
 23  10  14  1   
 24  10  28  1   
 25  11  12  1   
 26  11  29  1   
 27  11  30  1   
 28  12  31  1   
 29  12  32  1   
 30  13  15  1   
 31  13  33  1   
 32  13  34  1   
 33  14  16  1   
 34  14  35  1   
 35  14  36  1   
 36  15  17  1   
 37  15  37  1   
 38  15  38  1   
 39  16  17  1   
 40  16  39  1   
 41  16  40  1   
 42  17  41  1   
 43  17  42  1   
@<TRIPOS>SUBSTRUCTURE
  1 ****   4 GROUP 4 **** **** 0

# MOE 2024.06 (io_trps.svl 2023.06)
