@<TRIPOS>MOLECULE
NONAME
53 56 1 0 0 
SMALL
USER_CHARGES


@<TRIPOS>ATOM
  1 O        2.6500    -0.9370     1.3060 O.2   1 <1>  -0.5700 
  2 C        2.1950    -1.0690     0.1910 C.2   1 <1>   0.5690 
  3 N        1.9300     0.0160    -0.5990 N.am  1 <1>  -0.4940 
  4 C        1.9410    -2.4930    -0.3840 C.3   1 <1>   0.2810 
  5 C        2.1110     1.3990    -0.3610 C.2   1 <1>  -0.0880 
  6 N        0.4870    -2.9370    -0.4060 N.am  1 <1>  -0.6600 
  7 C        2.8190    -3.5220     0.3690 C.3   1 <1>  -0.1600 
  8 N        3.2020     2.0380     0.1630 N.pl3 1 <1>   0.3140 
  9 C        1.2000     2.3580    -0.6480 C.2   1 <1>  -0.1810 
 10 C       -0.5080    -2.0630    -0.7420 C.2   1 <1>   0.6300 
 11 C        0.2160    -4.3830    -0.6630 C.3   1 <1>   0.1400 
 12 C        2.5780    -4.9710    -0.0520 C.3   1 <1>  -0.1600 
 13 N        2.9860     3.3820     0.2130 N.2   1 <1>  -0.7070 
 14 C        4.4980     1.4230     0.5980 C.3   1 <1>   0.1760 
 15 C        1.7970     3.5520    -0.2700 C.2   1 <1>   0.1390 
 16 C       -0.1840     2.1860    -1.2440 C.3   1 <1>  -0.0590 
 17 O       -0.3300    -1.1640    -1.5300 O.2   1 <1>  -0.5700 
 18 C       -1.9020    -2.2410    -0.1570 C.3   1 <1>  -0.1000 
 19 C        1.1050    -5.3040     0.1690 C.3   1 <1>  -0.1600 
 20 C        5.5760     2.4340     1.0140 C.3   1 <1>  -0.1600 
 21 C        5.1690     0.5810    -0.5030 C.3   1 <1>  -0.1600 
 22 C       -2.4260    -1.2420     0.8340 C.3   1 <1>  -0.2000 
 23 C       -2.1200    -2.6380     1.2760 C.3   1 <1>  -0.2000 
 24 C        6.8860     1.6680     0.8620 C.3   1 <1>  -0.1600 
 25 C        6.6820     0.8180    -0.3900 C.3   1 <1>  -0.1600 
 26 H        1.2260    -0.1920    -1.3220 H     1 <1>   0.3700 
 27 H        2.2760    -2.4780    -1.4060 H     1 <1>   0.0800 
 28 H        2.6250    -3.4400     1.4260 H     1 <1>   0.0800 
 29 H        3.8550    -3.2740     0.2190 H     1 <1>   0.0800 
 30 H        0.3870    -4.5800    -1.7080 H     1 <1>   0.0800 
 31 H       -0.8140    -4.6120    -0.4510 H     1 <1>   0.0800 
 32 H        3.1930    -5.6280     0.5390 H     1 <1>   0.0800 
 33 H        2.8390    -5.1050    -1.0890 H     1 <1>   0.0800 
 34 H        4.3010     0.7990     1.4480 H     1 <1>   0.0800 
 35 H        1.3330     4.5200    -0.3610 H     1 <1>   0.1500 
 36 H       -0.7310     1.4440    -0.6900 H     1 <1>   0.0800 
 37 H       -0.1050     1.8660    -2.2680 H     1 <1>   0.0800 
 38 H       -0.7270     3.1130    -1.2080 H     1 <1>   0.0800 
 39 H       -2.5960    -2.6030    -0.8930 H     1 <1>   0.1000 
 40 H        0.9190    -6.3250    -0.1130 H     1 <1>   0.0800 
 41 H        0.8510    -5.1990     1.2100 H     1 <1>   0.0800 
 42 H        5.4240     2.7840     2.0190 H     1 <1>   0.0800 
 43 H        5.5840     3.2700     0.3360 H     1 <1>   0.0800 
 44 H        4.8270     0.8870    -1.4760 H     1 <1>   0.0800 
 45 H        4.9430    -0.4590    -0.3550 H     1 <1>   0.0800 
 46 H       -3.4540    -0.9310     0.7580 H     1 <1>   0.1000 
 47 H       -1.7760    -0.4450     1.1550 H     1 <1>   0.1000 
 48 H       -1.2620    -2.7970     1.9080 H     1 <1>   0.1000 
 49 H       -2.9370    -3.2960     1.5150 H     1 <1>   0.1000 
 50 H        7.0270     1.0270     1.7150 H     1 <1>   0.0800 
 51 H        7.7310     2.3290     0.7710 H     1 <1>   0.0800 
 52 H        7.0200     1.3680    -1.2530 H     1 <1>   0.0800 
 53 H        7.2290    -0.1060    -0.3300 H     1 <1>   0.0800 
@<TRIPOS>BOND
  1   1   2  2   
  2   2   3  am  
  3   2   4  1   
  4   3   5  1   
  5   3  26  1   
  6   4   6  1   
  7   4   7  1   
  8   4  27  1   
  9   5   8  1   
 10   5   9  2   
 11   6  10  am  
 12   6  11  1   
 13   7  12  1   
 14   7  28  1   
 15   7  29  1   
 16   8  13  1   
 17   8  14  1   
 18   9  15  1   
 19   9  16  1   
 20  10  17  2   
 21  10  18  1   
 22  11  19  1   
 23  11  30  1   
 24  11  31  1   
 25  12  19  1   
 26  12  32  1   
 27  12  33  1   
 28  13  15  2   
 29  14  20  1   
 30  14  21  1   
 31  14  34  1   
 32  15  35  1   
 33  16  36  1   
 34  16  37  1   
 35  16  38  1   
 36  18  22  1   
 37  18  23  1   
 38  18  39  1   
 39  19  40  1   
 40  19  41  1   
 41  20  24  1   
 42  20  42  1   
 43  20  43  1   
 44  21  25  1   
 45  21  44  1   
 46  21  45  1   
 47  22  23  1   
 48  22  46  1   
 49  22  47  1   
 50  23  48  1   
 51  23  49  1   
 52  24  25  1   
 53  24  50  1   
 54  24  51  1   
 55  25  52  1   
 56  25  53  1   
@<TRIPOS>SUBSTRUCTURE
  1 ****   2 GROUP 4 **** **** 0

# MOE 2024.06 (io_trps.svl 2023.06)
