@<TRIPOS>MOLECULE
NONAME
55 57 1 0 0 
SMALL
USER_CHARGES


@<TRIPOS>ATOM
  1 O        3.5690    -0.7640    -0.4220 O.2   1 <1>  -0.5700 
  2 C        2.4250    -1.0270    -0.0900 C.2   1 <1>   0.5440 
  3 N        1.6820     0.0090     0.4040 N.am  1 <1>  -0.7300 
  4 C        1.8990    -2.3790    -0.1940 C.ar  1 <1>   0.0860 
  5 C        2.0830     1.4400     0.3460 C.3   1 <1>   0.2200 
  6 C        0.5280    -2.6960    -0.2240 C.ar  1 <1>   0.0830 
  7 C        2.7980    -3.4440    -0.2640 C.ar  1 <1>  -0.1500 
  8 C        3.3380     1.7310     1.1850 C.3   1 <1>   0.4230 
  9 C        1.0580     2.4020     0.9310 C.3   1 <1>   0.1200 
 10 O       -0.3780    -1.6790    -0.1710 O.3   1 <1>  -0.3630 
 11 C        0.1120    -4.0230    -0.3140 C.ar  1 <1>  -0.1500 
 12 C        2.3940    -4.7600    -0.3450 C.ar  1 <1>   0.0830 
 13 N        4.5970     1.6750     0.3650 N.4   1 <1>  -0.9590 
 14 C        3.0250     3.0790     1.8530 C.3   1 <1>   0.1200 
 15 O        1.8130     3.5080     1.3150 O.3   1 <1>  -0.5600 
 16 C       -1.7650    -1.8740    -0.3660 C.3   1 <1>   0.0400 
 17 C        1.0270    -5.0660    -0.3840 C.ar  1 <1>   0.0830 
 18 O        3.4000    -5.6770    -0.3920 O.3   1 <1>  -0.3620 
 19 C        5.8110     1.5400     1.2130 C.3   1 <1>   0.3430 
 20 C        4.7260     2.7490    -0.6650 C.3   1 <1>   0.3430 
 21 O        0.6310    -6.3620    -0.5050 O.3   1 <1>  -0.3620 
 22 C        3.2970    -6.8750     0.3470 C.3   1 <1>   0.0400 
 23 C        7.0180     1.2180     0.3300 C.3   1 <1>  -0.1600 
 24 C        5.9160     2.4430    -1.5750 C.3   1 <1>  -0.1600 
 25 C       -0.7080    -6.7360    -0.7460 C.3   1 <1>   0.0400 
 26 C        7.2130     2.2640    -0.7750 C.3   1 <1>  -0.1600 
 27 H        0.6750    -0.1860     0.4930 H     1 <1>   0.3700 
 28 H        2.2360     1.7130    -0.6820 H     1 <1>   0.0800 
 29 H        3.8560    -3.2470    -0.2520 H     1 <1>   0.1500 
 30 H        3.3950     0.9860     1.9600 H     1 <1>   0.0800 
 31 H        0.5840     1.9970     1.8090 H     1 <1>   0.0800 
 32 H        0.3230     2.7120     0.2080 H     1 <1>   0.0800 
 33 H       -0.9330    -4.2500    -0.3290 H     1 <1>   0.1500 
 34 H        4.5050     0.7690    -0.1480 H     1 <1>   0.4500 
 35 H        3.7710     3.8320     1.6730 H     1 <1>   0.0800 
 36 H        2.8820     2.9490     2.9120 H     1 <1>   0.0800 
 37 H       -2.2460    -0.9130    -0.3560 H     1 <1>   0.0800 
 38 H       -2.1510    -2.4810     0.4340 H     1 <1>   0.0800 
 39 H       -1.9220    -2.3480    -1.3200 H     1 <1>   0.0800 
 40 H        5.9900     2.4590     1.7470 H     1 <1>   0.0800 
 41 H        5.6740     0.7460     1.9290 H     1 <1>   0.0800 
 42 H        3.8300     2.8080    -1.2610 H     1 <1>   0.0800 
 43 H        4.8760     3.7020    -0.1850 H     1 <1>   0.0800 
 44 H        4.2900    -7.2450     0.5260 H     1 <1>   0.0800 
 45 H        2.7430    -7.5930    -0.2310 H     1 <1>   0.0800 
 46 H        2.8030    -6.6750     1.2810 H     1 <1>   0.0800 
 47 H        7.9020     1.1740     0.9420 H     1 <1>   0.0800 
 48 H        6.8830     0.2430    -0.1090 H     1 <1>   0.0800 
 49 H        5.7080     1.5500    -2.1400 H     1 <1>   0.0800 
 50 H        6.0380     3.2480    -2.2790 H     1 <1>   0.0800 
 51 H       -0.7360    -7.8020    -0.8850 H     1 <1>   0.0800 
 52 H       -1.0530    -6.2440    -1.6390 H     1 <1>   0.0800 
 53 H       -1.3070    -6.4640     0.1040 H     1 <1>   0.0800 
 54 H        8.0090     1.9560    -1.4340 H     1 <1>   0.0800 
 55 H        7.4980     3.2050    -0.3350 H     1 <1>   0.0800 
@<TRIPOS>BOND
  1   1   2  2   
  2   2   3  am  
  3   2   4  1   
  4   3   5  1   
  5   3  27  1   
  6   4   6  ar  
  7   4   7  ar  
  8   5   8  1   
  9   5   9  1   
 10   5  28  1   
 11   6  10  1   
 12   6  11  ar  
 13   7  12  ar  
 14   7  29  1   
 15   8  13  1   
 16   8  14  1   
 17   8  30  1   
 18   9  15  1   
 19   9  31  1   
 20   9  32  1   
 21  10  16  1   
 22  11  17  ar  
 23  11  33  1   
 24  12  17  ar  
 25  12  18  1   
 26  13  19  1   
 27  13  20  1   
 28  13  34  1   
 29  14  15  1   
 30  14  35  1   
 31  14  36  1   
 32  16  37  1   
 33  16  38  1   
 34  16  39  1   
 35  17  21  1   
 36  18  22  1   
 37  19  23  1   
 38  19  40  1   
 39  19  41  1   
 40  20  24  1   
 41  20  42  1   
 42  20  43  1   
 43  21  25  1   
 44  22  44  1   
 45  22  45  1   
 46  22  46  1   
 47  23  26  1   
 48  23  47  1   
 49  23  48  1   
 50  24  26  1   
 51  24  49  1   
 52  24  50  1   
 53  25  51  1   
 54  25  52  1   
 55  25  53  1   
 56  26  54  1   
 57  26  55  1   
@<TRIPOS>SUBSTRUCTURE
  1 ****   2 GROUP 4 **** **** 0

# MOE 2024.06 (io_trps.svl 2023.06)
