@<TRIPOS>MOLECULE
STOCK7S-74295
29 32 1 0 0 
SMALL
USER_CHARGES


@<TRIPOS>ATOM
  1 S        0.0020    -0.1770     0.1360 S.3   1 <1>  -0.0800 
  2 C        1.5960     0.5780     0.1960 C.2   1 <1>   0.1660 
  3 C       -0.7430     1.4060     0.0030 C.2   1 <1>  -0.1400 
  4 N        2.7370    -0.1480     0.3060 N.2   1 <1>  -0.5760 
  5 C        1.5080     1.9410     0.1160 C.2   1 <1>  -0.0860 
  6 C        0.1500     2.3830     0.0060 C.2   1 <1>  -0.1810 
  7 C       -2.1770     1.8120    -0.1100 C.3   1 <1>   0.0200 
  8 C        3.7960     0.5830     0.3290 C.2   1 <1>   0.6510 
  9 C        2.7260     2.6780     0.1570 C.2   1 <1>   0.7160 
 10 C       -0.5220     3.7240    -0.1090 C.3   1 <1>   0.0210 
 11 C       -2.0330     3.3550    -0.1840 C.3   1 <1>  -0.1600 
 12 S        5.4050    -0.1190     0.4510 S.3   1 <1>  -0.3710 
 13 N        3.8790     1.9420     0.2630 N.am  1 <1>  -0.4200 
 14 O        2.7840     3.8990     0.1090 O.2   1 <1>  -0.5700 
 15 C        6.3040     1.4640     0.2260 C.3   1 <1>   0.1500 
 16 C        5.2270     2.5520     0.4090 C.3   1 <1>   0.1400 
 17 C        6.9100     1.4350    -1.1790 C.3   1 <1>  -0.2400 
 18 H       -2.6190     1.4070    -1.0030 H     1 <1>   0.0800 
 19 H       -2.7300     1.5020     0.7600 H     1 <1>   0.0800 
 20 H       -0.3060     4.3280     0.7550 H     1 <1>   0.0800 
 21 H       -0.1960     4.2320    -1.0000 H     1 <1>   0.0800 
 22 H       -2.4520     3.7180    -1.1070 H     1 <1>   0.0800 
 23 H       -2.5610     3.8120     0.6340 H     1 <1>   0.0800 
 24 H        7.0680     1.5260     0.9810 H     1 <1>   0.0800 
 25 H        5.3550     3.3430    -0.3110 H     1 <1>   0.0800 
 26 H        5.3060     2.9750     1.3950 H     1 <1>   0.0800 
 27 H        6.1390     1.3250    -1.9210 H     1 <1>   0.0800 
 28 H        7.5950     0.6100    -1.2660 H     1 <1>   0.0800 
 29 H        7.4480     2.3460    -1.3710 H     1 <1>   0.0800 
@<TRIPOS>BOND
  1   1   2  1   
  2   1   3  1   
  3   2   4  1   
  4   2   5  2   
  5   3   6  2   
  6   3   7  1   
  7   4   8  2   
  8   5   6  1   
  9   5   9  1   
 10   6  10  1   
 11   7  11  1   
 12   7  18  1   
 13   7  19  1   
 14   8  12  1   
 15   8  13  1   
 16   9  13  am  
 17   9  14  2   
 18  10  11  1   
 19  10  20  1   
 20  10  21  1   
 21  11  22  1   
 22  11  23  1   
 23  12  15  1   
 24  13  16  1   
 25  15  16  1   
 26  15  17  1   
 27  15  24  1   
 28  16  25  1   
 29  16  26  1   
 30  17  27  1   
 31  17  28  1   
 32  17  29  1   
@<TRIPOS>SUBSTRUCTURE
  1 ****   5 GROUP 4 **** **** 0

# MOE 2024.06 (io_trps.svl 2023.06)
