@<TRIPOS>MOLECULE
NONAME
43 44 1 0 0 
SMALL
USER_CHARGES


@<TRIPOS>ATOM
  1 S       -0.6540     0.7880     1.6050 S.o2  1 <1>   1.4470 
  2 O       -0.5420    -0.4370     2.3690 O.2   1 <1>  -0.6500 
  3 O       -1.1440     1.9550     2.3120 O.2   1 <1>  -0.6500 
  4 N       -1.7030     0.5040     0.2960 N.am  1 <1>  -0.8490 
  5 C        0.9470     1.1410     0.8280 C.ar  1 <1>  -0.0090 
  6 C       -1.3630    -0.6380    -0.5770 C.3   1 <1>   0.1960 
  7 C       -3.1290     0.5950     0.6110 C.3   1 <1>   0.1960 
  8 C        1.1630     2.2960     0.0830 C.ar  1 <1>   0.0820 
  9 C        1.9960     0.2360     0.9460 C.ar  1 <1>  -0.1500 
 10 C       -1.9010    -1.9800    -0.0610 C.3   1 <1>  -0.1860 
 11 C       -3.6680    -0.7080     1.2040 C.3   1 <1>  -0.1600 
 12 O        0.1310     3.1670    -0.0480 O.3   1 <1>  -0.3620 
 13 C        2.4050     2.5280    -0.5050 C.ar  1 <1>  -0.1500 
 14 C        3.2310     0.4560     0.3590 C.ar  1 <1>  -0.1440 
 15 C       -1.6620    -3.0720    -1.0810 C.2   1 <1>   0.9060 
 16 C       -3.3910    -1.8590     0.2440 C.3   1 <1>   0.2000 
 17 C        0.2080     4.3260    -0.8460 C.3   1 <1>   0.0400 
 18 C        3.4390     1.6180    -0.3720 C.ar  1 <1>  -0.1440 
 19 C        4.3240    -0.5900     0.5280 C.3   1 <1>  -0.0960 
 20 O       -1.0010    -2.8270    -2.0950 O.co2 1 <1>  -0.9000 
 21 O       -2.1570    -4.1880    -0.8730 O.co2 1 <1>  -0.9000 
 22 O       -3.8260    -3.0300     0.8230 O.3   1 <1>  -0.6800 
 23 C        4.7780     1.9080    -1.0350 C.3   1 <1>  -0.0970 
 24 H       -1.7880    -0.4540    -1.5500 H     1 <1>   0.0800 
 25 H       -0.2970    -0.7060    -0.7120 H     1 <1>   0.0800 
 26 H       -3.3100     1.4120     1.2900 H     1 <1>   0.0800 
 27 H       -3.6630     0.8090    -0.2990 H     1 <1>   0.0800 
 28 H        1.8320    -0.6670     1.5090 H     1 <1>   0.1500 
 29 H       -1.3690    -2.2570     0.8270 H     1 <1>   0.0800 
 30 H       -4.7270    -0.6180     1.3570 H     1 <1>   0.0800 
 31 H       -3.1990    -0.8970     2.1530 H     1 <1>   0.0800 
 32 H        2.5780     3.4200    -1.0740 H     1 <1>   0.1500 
 33 H       -3.9400    -1.7270    -0.6740 H     1 <1>   0.0800 
 34 H       -0.7470     4.8190    -0.8060 H     1 <1>   0.0800 
 35 H        0.4290     4.0370    -1.8580 H     1 <1>   0.0800 
 36 H        0.9700     4.9730    -0.4490 H     1 <1>   0.0800 
 37 H        3.9760    -1.4210     1.1150 H     1 <1>   0.0800 
 38 H        5.1750    -0.1590     1.0230 H     1 <1>   0.0800 
 39 H        4.6270    -0.9630    -0.4340 H     1 <1>   0.0800 
 40 H       -3.3680    -3.7620     0.3140 H     1 <1>   0.4000 
 41 H        4.7630     2.8550    -1.5450 H     1 <1>   0.0800 
 42 H        5.0050     1.1420    -1.7540 H     1 <1>   0.0800 
 43 H        5.5570     1.9380    -0.2950 H     1 <1>   0.0800 
@<TRIPOS>BOND
  1   1   2  2   
  2   1   3  2   
  3   1   4  am  
  4   1   5  1   
  5   4   6  1   
  6   4   7  1   
  7   5   8  ar  
  8   5   9  ar  
  9   6  10  1   
 10   6  24  1   
 11   6  25  1   
 12   7  11  1   
 13   7  26  1   
 14   7  27  1   
 15   8  12  1   
 16   8  13  ar  
 17   9  14  ar  
 18   9  28  1   
 19  10  15  1   
 20  10  16  1   
 21  10  29  1   
 22  11  16  1   
 23  11  30  1   
 24  11  31  1   
 25  12  17  1   
 26  13  18  ar  
 27  13  32  1   
 28  14  18  ar  
 29  14  19  1   
 30  15  20  ar  
 31  15  21  ar  
 32  16  22  1   
 33  16  33  1   
 34  17  34  1   
 35  17  35  1   
 36  17  36  1   
 37  18  23  1   
 38  19  37  1   
 39  19  38  1   
 40  19  39  1   
 41  22  40  1   
 42  23  41  1   
 43  23  42  1   
 44  23  43  1   
@<TRIPOS>SUBSTRUCTURE
  1 ****   4 GROUP 4 **** **** 0

# MOE 2024.06 (io_trps.svl 2023.06)
