@<TRIPOS>MOLECULE
NONAME
45 47 1 0 0 
SMALL
USER_CHARGES


@<TRIPOS>ATOM
  1 O       -2.3920     0.8820    -1.9230 O.2   1 <1>  -0.5700 
  2 C       -2.0570     0.9460    -0.7570 C.2   1 <1>   0.5440 
  3 N       -1.9350    -0.2110    -0.0470 N.am  1 <1>  -0.7300 
  4 C       -1.8050     2.2170    -0.1050 C.ar  1 <1>   0.0860 
  5 C       -2.2440    -1.5600    -0.5700 C.3   1 <1>   0.2200 
  6 C       -2.7830     2.8160     0.7000 C.ar  1 <1>  -0.1440 
  7 C       -0.5720     2.8650    -0.2510 C.ar  1 <1>  -0.1430 
  8 C       -3.6970    -1.8850    -0.2740 C.3   1 <1>  -0.0800 
  9 C       -1.5120    -2.6160     0.2520 C.3   1 <1>   0.1200 
 10 C       -2.5230     4.0130     1.3440 C.ar  1 <1>  -0.1500 
 11 C       -4.1510     2.1670     0.8750 C.3   1 <1>  -0.0970 
 12 C       -0.3280     4.0630     0.3990 C.ar  1 <1>  -0.1500 
 13 C        0.5190     2.2640    -1.1300 C.3   1 <1>  -0.0970 
 14 C       -3.6210    -2.4030     1.1650 C.3   1 <1>   0.1200 
 15 C       -4.2500    -2.9400    -1.2500 C.3   1 <1>  -0.0170 
 16 O       -2.3220    -2.8870     1.3580 O.3   1 <1>  -0.5600 
 17 C       -1.2980     4.6360     1.1970 C.ar  1 <1>  -0.1500 
 18 C       -5.7220    -3.2170    -0.9860 C.ar  1 <1>  -0.1430 
 19 C       -6.1540    -4.3650    -0.3540 C.ar  1 <1>  -0.1500 
 20 C       -6.7050    -2.3270    -1.3710 C.ar  1 <1>  -0.1500 
 21 C       -7.5090    -4.5600    -0.1380 C.ar  1 <1>   0.1600 
 22 C       -8.0330    -2.6180    -1.1080 C.ar  1 <1>   0.1600 
 23 N       -8.4590    -3.7120    -0.4980 N.ar  1 <1>  -0.6200 
 24 H       -1.7210    -0.1690     0.9520 H     1 <1>   0.3700 
 25 H       -1.9990    -1.6130    -1.6180 H     1 <1>   0.0800 
 26 H       -4.3120    -1.0040    -0.3370 H     1 <1>   0.0800 
 27 H       -0.5440    -2.2860     0.5830 H     1 <1>   0.0800 
 28 H       -1.4130    -3.5290    -0.3080 H     1 <1>   0.0800 
 29 H       -3.2720     4.4740     1.9650 H     1 <1>   0.1500 
 30 H       -4.8210     2.8160     1.4100 H     1 <1>   0.0800 
 31 H       -4.0570     1.2470     1.4230 H     1 <1>   0.0800 
 32 H       -4.5850     1.9580    -0.0870 H     1 <1>   0.0800 
 33 H        0.6200     4.5610     0.2880 H     1 <1>   0.1500 
 34 H        1.3930     2.8900    -1.1480 H     1 <1>   0.0800 
 35 H        0.1590     2.1580    -2.1380 H     1 <1>   0.0800 
 36 H        0.8010     1.2950    -0.7590 H     1 <1>   0.0800 
 37 H       -4.3240    -3.1900     1.3710 H     1 <1>   0.0800 
 38 H       -3.7720    -1.5990     1.8630 H     1 <1>   0.0800 
 39 H       -3.6890    -3.8550    -1.1700 H     1 <1>   0.0800 
 40 H       -4.1450    -2.5810    -2.2590 H     1 <1>   0.0800 
 41 H       -1.1020     5.5670     1.7000 H     1 <1>   0.1500 
 42 H       -5.4520    -5.1110    -0.0250 H     1 <1>   0.1500 
 43 H       -6.4490    -1.4120    -1.8740 H     1 <1>   0.1500 
 44 H       -7.8270    -5.4610     0.3580 H     1 <1>   0.1500 
 45 H       -8.7850    -1.9120    -1.4160 H     1 <1>   0.1500 
@<TRIPOS>BOND
  1   1   2  2   
  2   2   3  am  
  3   2   4  1   
  4   3   5  1   
  5   3  24  1   
  6   4   6  ar  
  7   4   7  ar  
  8   5   8  1   
  9   5   9  1   
 10   5  25  1   
 11   6  10  ar  
 12   6  11  1   
 13   7  12  ar  
 14   7  13  1   
 15   8  14  1   
 16   8  15  1   
 17   8  26  1   
 18   9  16  1   
 19   9  27  1   
 20   9  28  1   
 21  10  17  ar  
 22  10  29  1   
 23  11  30  1   
 24  11  31  1   
 25  11  32  1   
 26  12  17  ar  
 27  12  33  1   
 28  13  34  1   
 29  13  35  1   
 30  13  36  1   
 31  14  16  1   
 32  14  37  1   
 33  14  38  1   
 34  15  18  1   
 35  15  39  1   
 36  15  40  1   
 37  17  41  1   
 38  18  19  ar  
 39  18  20  ar  
 40  19  21  ar  
 41  19  42  1   
 42  20  22  ar  
 43  20  43  1   
 44  21  23  ar  
 45  21  44  1   
 46  22  23  ar  
 47  22  45  1   
@<TRIPOS>SUBSTRUCTURE
  1 ****   3 GROUP 4 **** **** 0

# MOE 2024.06 (io_trps.svl 2023.06)
