@<TRIPOS>MOLECULE
NONAME
48 50 1 0 0 
SMALL
USER_CHARGES


@<TRIPOS>ATOM
  1 CL       0.7740     0.7210     2.7040 Cl    1 <1>  -0.1770 
  2 C        1.5680    -0.3680     1.5960 C.ar  1 <1>   0.1770 
  3 C        1.6140    -1.7170     1.8940 C.ar  1 <1>  -0.1500 
  4 C        2.1340     0.1340     0.4410 C.ar  1 <1>  -0.1500 
  5 C        2.2380    -2.6040     1.0260 C.ar  1 <1>  -0.1440 
  6 C        2.7570    -0.7400    -0.4310 C.ar  1 <1>  -0.1500 
  7 C        2.8140    -2.0960    -0.1440 C.ar  1 <1>   0.0830 
  8 C        2.2610    -4.0760     1.4220 C.3   1 <1>   0.4870 
  9 O        3.3950    -2.8830    -1.0730 O.3   1 <1>  -0.3630 
 10 N        1.7430    -4.9800     0.3620 N.4   1 <1>  -0.9590 
 11 C        4.7090    -3.3980    -0.8340 C.3   1 <1>   0.0140 
 12 C        0.5270    -4.5470    -0.3690 C.3   1 <1>   0.4230 
 13 C        1.7870    -6.4020     0.7870 C.3   1 <1>   0.3430 
 14 C        4.6430    -4.8450    -0.3850 C.2   1 <1>   0.9060 
 15 C       -0.7520    -4.7140     0.4870 C.3   1 <1>   0.1400 
 16 C        0.4750    -5.3520    -1.6790 C.3   1 <1>  -0.1600 
 17 C        0.7920    -7.2700     0.0030 C.3   1 <1>  -0.0800 
 18 O        5.0100    -5.1470     0.7520 O.co2 1 <1>  -0.9000 
 19 O        3.9870    -5.6460    -1.0620 O.co2 1 <1>  -0.9000 
 20 N       -1.4180    -6.0600     0.3570 N.am  1 <1>  -0.6600 
 21 C        0.7420    -6.8630    -1.4870 C.3   1 <1>  -0.1600 
 22 C       -0.5890    -7.2610     0.6870 C.3   1 <1>   0.1400 
 23 C       -2.7010    -6.1320    -0.1330 C.2   1 <1>   0.5690 
 24 O       -3.3010    -5.1490    -0.4930 O.2   1 <1>  -0.5700 
 25 C       -3.4250    -7.4530    -0.2500 C.3   1 <1>  -0.1790 
 26 H        1.1610    -2.0520     2.8110 H     1 <1>   0.1500 
 27 H        2.0850     1.1870     0.2300 H     1 <1>   0.1500 
 28 H        3.2010    -0.3770    -1.3420 H     1 <1>   0.1500 
 29 H        1.6590    -4.2010     2.3040 H     1 <1>   0.0800 
 30 H        3.2650    -4.3550     1.6880 H     1 <1>   0.0800 
 31 H        2.4950    -4.9820    -0.3720 H     1 <1>   0.4500 
 32 H        5.2560    -3.3480    -1.7550 H     1 <1>   0.0800 
 33 H        5.1980    -2.8020    -0.0870 H     1 <1>   0.0800 
 34 H        0.6270    -3.5030    -0.6190 H     1 <1>   0.0800 
 35 H        2.7880    -6.7710     0.6150 H     1 <1>   0.0800 
 36 H        1.5830    -6.4840     1.8410 H     1 <1>   0.0800 
 37 H       -1.4350    -3.9440     0.1730 H     1 <1>   0.0800 
 38 H       -0.5330    -4.5230     1.5200 H     1 <1>   0.0800 
 39 H       -0.4860    -5.2060    -2.1420 H     1 <1>   0.0800 
 40 H        1.2110    -4.9510    -2.3540 H     1 <1>   0.0800 
 41 H        1.1580    -8.2800     0.0630 H     1 <1>   0.0800 
 42 H        1.6980    -7.0940    -1.9300 H     1 <1>   0.0800 
 43 H       -0.0020    -7.4400    -2.0090 H     1 <1>   0.0800 
 44 H       -0.4700    -7.3190     1.7560 H     1 <1>   0.0800 
 45 H       -1.1010    -8.1550     0.3820 H     1 <1>   0.0800 
 46 H       -3.4240    -7.9600     0.6960 H     1 <1>   0.0800 
 47 H       -2.9550    -8.0630    -0.9970 H     1 <1>   0.0800 
 48 H       -4.4450    -7.2810    -0.5420 H     1 <1>   0.0800 
@<TRIPOS>BOND
  1   1   2  1   
  2   2   3  ar  
  3   2   4  ar  
  4   3   5  ar  
  5   3  26  1   
  6   4   6  ar  
  7   4  27  1   
  8   5   7  ar  
  9   5   8  1   
 10   6   7  ar  
 11   6  28  1   
 12   7   9  1   
 13   8  10  1   
 14   8  29  1   
 15   8  30  1   
 16   9  11  1   
 17  10  12  1   
 18  10  13  1   
 19  10  31  1   
 20  11  14  1   
 21  11  32  1   
 22  11  33  1   
 23  12  15  1   
 24  12  16  1   
 25  12  34  1   
 26  13  17  1   
 27  13  35  1   
 28  13  36  1   
 29  14  18  ar  
 30  14  19  ar  
 31  15  20  1   
 32  15  37  1   
 33  15  38  1   
 34  16  21  1   
 35  16  39  1   
 36  16  40  1   
 37  17  21  1   
 38  17  22  1   
 39  17  41  1   
 40  20  22  1   
 41  20  23  am  
 42  21  42  1   
 43  21  43  1   
 44  22  44  1   
 45  22  45  1   
 46  23  24  2   
 47  23  25  1   
 48  25  46  1   
 49  25  47  1   
 50  25  48  1   
@<TRIPOS>SUBSTRUCTURE
  1 ****  10 GROUP 4 **** **** 0

# MOE 2024.06 (io_trps.svl 2023.06)
