@<TRIPOS>MOLECULE
NONAME
36 37 1 0 0 
SMALL
USER_CHARGES


@<TRIPOS>ATOM
  1 S       -0.1660     0.1780    -1.2860 S.o2  1 <1>   1.4470 
  2 O       -1.2360     1.1090    -1.5750 O.2   1 <1>  -0.6500 
  3 O        0.5070    -0.4820    -2.3840 O.2   1 <1>  -0.6500 
  4 N       -0.8150    -1.0270    -0.2840 N.am  1 <1>  -0.8490 
  5 C        1.1110     0.9660    -0.2410 C.ar  1 <1>  -0.0090 
  6 C       -1.4010    -2.1400    -1.0700 C.3   1 <1>   0.1960 
  7 C       -1.6950    -0.5100     0.7850 C.3   1 <1>   0.1960 
  8 C        1.5180     2.2980    -0.4110 C.ar  1 <1>  -0.1440 
  9 C        1.7410     0.2110     0.7520 C.ar  1 <1>  -0.1500 
 10 C       -2.2150    -3.0860    -0.1740 C.3   1 <1>   0.2000 
 11 C       -3.1740    -0.8320     0.5400 C.3   1 <1>  -0.1600 
 12 C        2.4930     2.8470     0.4110 C.ar  1 <1>  -0.1500 
 13 C        0.9230     3.1880    -1.4960 C.3   1 <1>  -0.0960 
 14 C        2.7160     0.7480     1.5740 C.ar  1 <1>  -0.1500 
 15 O       -2.6060    -4.1890    -0.9060 O.3   1 <1>  -0.6800 
 16 C       -3.4340    -2.3560     0.4390 C.3   1 <1>  -0.1860 
 17 C        3.0710     2.0660     1.3890 C.ar  1 <1>   0.1900 
 18 C       -4.7610    -2.5910    -0.2680 C.2   1 <1>   0.9060 
 19 F        3.9860     2.5880     2.1590 F     1 <1>  -0.1900 
 20 O       -5.7980    -2.4300     0.3790 O.co2 1 <1>  -0.9000 
 21 O       -4.7690    -2.9240    -1.4620 O.co2 1 <1>  -0.9000 
 22 H       -2.0520    -1.7450    -1.8340 H     1 <1>   0.0800 
 23 H       -0.6100    -2.6930    -1.5470 H     1 <1>   0.0800 
 24 H       -1.4010    -0.9670     1.7140 H     1 <1>   0.0800 
 25 H       -1.5730     0.5540     0.8990 H     1 <1>   0.0800 
 26 H        1.4670    -0.8220     0.8840 H     1 <1>   0.1500 
 27 H       -1.5690    -3.4460     0.6060 H     1 <1>   0.0800 
 28 H       -3.7770    -0.4250     1.3320 H     1 <1>   0.0800 
 29 H       -3.4840    -0.3470    -0.3710 H     1 <1>   0.0800 
 30 H        2.8110     3.8680     0.3020 H     1 <1>   0.1500 
 31 H        1.4940     4.0920    -1.6120 H     1 <1>   0.0800 
 32 H       -0.0860     3.4580    -1.2410 H     1 <1>   0.0800 
 33 H        0.9180     2.6780    -2.4440 H     1 <1>   0.0800 
 34 H        3.1930     0.1610     2.3380 H     1 <1>   0.1500 
 35 H       -3.4700    -3.9250    -1.3540 H     1 <1>   0.4000 
 36 H       -3.5550    -2.7390     1.4340 H     1 <1>   0.0800 
@<TRIPOS>BOND
  1   1   2  2   
  2   1   3  2   
  3   1   4  am  
  4   1   5  1   
  5   4   6  1   
  6   4   7  1   
  7   5   8  ar  
  8   5   9  ar  
  9   6  10  1   
 10   6  22  1   
 11   6  23  1   
 12   7  11  1   
 13   7  24  1   
 14   7  25  1   
 15   8  12  ar  
 16   8  13  1   
 17   9  14  ar  
 18   9  26  1   
 19  10  15  1   
 20  10  16  1   
 21  10  27  1   
 22  11  16  1   
 23  11  28  1   
 24  11  29  1   
 25  12  17  ar  
 26  12  30  1   
 27  13  31  1   
 28  13  32  1   
 29  13  33  1   
 30  14  17  ar  
 31  14  34  1   
 32  15  35  1   
 33  16  18  1   
 34  16  36  1   
 35  17  19  1   
 36  18  20  ar  
 37  18  21  ar  
@<TRIPOS>SUBSTRUCTURE
  1 ****   4 GROUP 4 **** **** 0

# MOE 2024.06 (io_trps.svl 2023.06)
