@<TRIPOS>MOLECULE
NONAME
39 41 1 0 0 
SMALL
USER_CHARGES


@<TRIPOS>ATOM
  1 S       -0.1670     0.2110    -0.6500 S.3   1 <1>  -0.0800 
  2 C       -1.3580    -0.7380     0.2460 C.2   1 <1>  -0.0450 
  3 C       -0.6680     1.7060     0.1090 C.2   1 <1>  -0.1400 
  4 C       -1.4210    -2.1610     0.0060 C.2   1 <1>   0.7150 
  5 C       -2.0490     0.1030     1.0600 C.2   1 <1>  -0.1500 
  6 C       -1.6650     1.4740     0.9810 C.2   1 <1>  -0.1500 
  7 C        0.0570     2.9710    -0.3010 C.3   1 <1>  -0.0600 
  8 O       -0.4180    -2.7800    -0.3000 O.2   1 <1>  -0.5700 
  9 N       -2.6060    -2.8570     0.1150 N.am  1 <1>  -0.6600 
 10 C       -3.9540    -2.2440     0.0210 C.3   1 <1>   0.1400 
 11 C       -2.6850    -4.3190    -0.1360 C.3   1 <1>   0.1400 
 12 C       -4.8690    -3.3680    -0.4630 C.3   1 <1>   0.2000 
 13 C       -4.1730    -4.6640    -0.0550 C.3   1 <1>  -0.0800 
 14 O       -6.1220    -3.2940     0.1260 O.3   1 <1>  -0.6800 
 15 C       -4.5920    -5.8610    -0.9250 C.3   1 <1>  -0.0170 
 16 C       -3.9380    -7.1510    -0.4600 C.ar  1 <1>   0.1670 
 17 N       -2.7000    -7.3660    -0.8760 N.ar  1 <1>  -0.6200 
 18 C       -4.6430    -8.0230     0.3590 C.ar  1 <1>  -0.1500 
 19 C       -2.1410    -8.4910    -0.4610 C.ar  1 <1>   0.1600 
 20 C       -4.0480    -9.1910     0.7840 C.ar  1 <1>  -0.1500 
 21 C       -2.7590    -9.4220     0.3560 C.ar  1 <1>  -0.1500 
 22 H       -2.8260    -0.2010     1.7360 H     1 <1>   0.1500 
 23 H       -2.1510     2.2230     1.5810 H     1 <1>   0.1500 
 24 H       -0.3380     3.8160     0.2340 H     1 <1>   0.0800 
 25 H       -0.0660     3.1370    -1.3560 H     1 <1>   0.0800 
 26 H        1.1050     2.8780    -0.0820 H     1 <1>   0.0800 
 27 H       -4.2560    -1.9040     0.9950 H     1 <1>   0.0800 
 28 H       -3.9530    -1.4250    -0.6790 H     1 <1>   0.0800 
 29 H       -2.2940    -4.5310    -1.1180 H     1 <1>   0.0800 
 30 H       -2.1110    -4.8670     0.5930 H     1 <1>   0.0800 
 31 H       -4.9890    -3.3060    -1.5320 H     1 <1>   0.0800 
 32 H       -4.3920    -4.8800     0.9760 H     1 <1>   0.0800 
 33 H       -6.0500    -3.3980     1.0940 H     1 <1>   0.4000 
 34 H       -4.3240    -5.6840    -1.9520 H     1 <1>   0.0800 
 35 H       -5.6620    -5.9690    -0.8860 H     1 <1>   0.0800 
 36 H       -5.6480    -7.7920     0.6620 H     1 <1>   0.1500 
 37 H       -1.1330    -8.6810    -0.7900 H     1 <1>   0.1500 
 38 H       -4.5660    -9.8900     1.4190 H     1 <1>   0.1500 
 39 H       -2.2360   -10.3140     0.6500 H     1 <1>   0.1500 
@<TRIPOS>BOND
  1   1   2  1   
  2   1   3  1   
  3   2   4  1   
  4   2   5  2   
  5   3   6  2   
  6   3   7  1   
  7   4   8  2   
  8   4   9  am  
  9   5   6  1   
 10   5  22  1   
 11   6  23  1   
 12   7  24  1   
 13   7  25  1   
 14   7  26  1   
 15   9  10  1   
 16   9  11  1   
 17  10  12  1   
 18  10  27  1   
 19  10  28  1   
 20  11  13  1   
 21  11  29  1   
 22  11  30  1   
 23  12  13  1   
 24  12  14  1   
 25  12  31  1   
 26  13  15  1   
 27  13  32  1   
 28  14  33  1   
 29  15  16  1   
 30  15  34  1   
 31  15  35  1   
 32  16  17  ar  
 33  16  18  ar  
 34  17  19  ar  
 35  18  20  ar  
 36  18  36  1   
 37  19  21  ar  
 38  19  37  1   
 39  20  21  ar  
 40  20  38  1   
 41  21  39  1   
@<TRIPOS>SUBSTRUCTURE
  1 ****  11 GROUP 4 **** **** 0

# MOE 2024.06 (io_trps.svl 2023.06)
