@<TRIPOS>MOLECULE
NONAME
42 43 1 0 0 
SMALL
USER_CHARGES


@<TRIPOS>ATOM
  1 O       -3.1280     2.0880    -1.8610 O.2   1 <1>  -0.5700 
  2 C       -2.9740     1.6680    -0.7350 C.2   1 <1>   0.5690 
  3 N       -4.0160     0.9850    -0.1420 N.am  1 <1>  -0.6600 
  4 C       -1.6140     1.9880    -0.0370 C.3   1 <1>   0.0610 
  5 C       -3.9600     0.2790     1.1720 C.3   1 <1>   0.3210 
  6 C       -5.3970     1.0960    -0.7280 C.3   1 <1>   0.1400 
  7 C       -0.8740     0.7870     0.5860 C.3   1 <1>  -0.1600 
  8 C       -0.5550     2.4780    -1.0500 C.3   1 <1>  -0.1600 
  9 C       -1.8210     3.1000     1.0180 C.3   1 <1>  -0.2400 
 10 C       -3.5370    -1.1930     1.1070 C.2   1 <1>   0.0460 
 11 C       -5.7500    -0.0620    -1.6690 C.3   1 <1>   0.1200 
 12 C        0.6180     1.1340     0.6100 C.3   1 <1>  -0.1600 
 13 C        0.8150     2.2590    -0.4070 C.3   1 <1>  -0.1600 
 14 N       -3.6400    -1.8800     2.2630 N.2   1 <1>  -0.5650 
 15 C       -3.0700    -2.0060     0.1180 C.2   1 <1>  -0.3320 
 16 O       -5.8350    -1.2530    -0.9640 O.3   1 <1>  -0.6800 
 17 C       -3.2520    -3.0740     1.9680 C.2   1 <1>   0.0360 
 18 N       -2.8930    -3.2160     0.6800 N.pl3 1 <1>   0.0330 
 19 C       -2.7370    -1.8180    -1.3580 C.3   1 <1>  -0.0600 
 20 H       -4.9350     0.3090     1.6260 H     1 <1>   0.0800 
 21 H       -3.3090     0.7940     1.8470 H     1 <1>   0.0800 
 22 H       -5.4680     2.0130    -1.2880 H     1 <1>   0.0800 
 23 H       -6.1350     1.1570     0.0530 H     1 <1>   0.0800 
 24 H       -1.0070    -0.0710    -0.0480 H     1 <1>   0.0800 
 25 H       -1.2120     0.5390     1.5750 H     1 <1>   0.0800 
 26 H       -0.7080     3.5030    -1.3400 H     1 <1>   0.0800 
 27 H       -0.6050     1.8680    -1.9370 H     1 <1>   0.0800 
 28 H       -2.5070     2.7900     1.7830 H     1 <1>   0.0800 
 29 H       -2.2290     3.9770     0.5450 H     1 <1>   0.0800 
 30 H       -0.8960     3.3730     1.4920 H     1 <1>   0.0800 
 31 H       -5.0070    -0.1620    -2.4410 H     1 <1>   0.0800 
 32 H       -6.7080     0.1130    -2.1270 H     1 <1>   0.0800 
 33 H        1.2130     0.2720     0.3590 H     1 <1>   0.0800 
 34 H        0.9030     1.4770     1.5900 H     1 <1>   0.0800 
 35 H        1.1300     3.1560     0.0990 H     1 <1>   0.0800 
 36 H        1.5520     2.0000    -1.1470 H     1 <1>   0.0800 
 37 H       -4.9920    -1.4130    -0.4770 H     1 <1>   0.4000 
 38 H       -3.2120    -3.8900     2.6680 H     1 <1>   0.1500 
 39 H       -2.5580    -4.0720     0.2290 H     1 <1>   0.2700 
 40 H       -2.8590    -0.8020    -1.6730 H     1 <1>   0.0800 
 41 H       -3.3780    -2.4350    -1.9630 H     1 <1>   0.0800 
 42 H       -1.7150    -2.0990    -1.5430 H     1 <1>   0.0800 
@<TRIPOS>BOND
  1   1   2  2   
  2   2   3  am  
  3   2   4  1   
  4   3   5  1   
  5   3   6  1   
  6   4   7  1   
  7   4   8  1   
  8   4   9  1   
  9   5  10  1   
 10   5  20  1   
 11   5  21  1   
 12   6  11  1   
 13   6  22  1   
 14   6  23  1   
 15   7  12  1   
 16   7  24  1   
 17   7  25  1   
 18   8  13  1   
 19   8  26  1   
 20   8  27  1   
 21   9  28  1   
 22   9  29  1   
 23   9  30  1   
 24  10  14  1   
 25  10  15  2   
 26  11  16  1   
 27  11  31  1   
 28  11  32  1   
 29  12  13  1   
 30  12  33  1   
 31  12  34  1   
 32  13  35  1   
 33  13  36  1   
 34  14  17  2   
 35  15  18  1   
 36  15  19  1   
 37  16  37  1   
 38  17  18  1   
 39  17  38  1   
 40  18  39  1   
 41  19  40  1   
 42  19  41  1   
 43  19  42  1   
@<TRIPOS>SUBSTRUCTURE
  1 ****   3 GROUP 4 **** **** 0

# MOE 2024.06 (io_trps.svl 2023.06)
