@<TRIPOS>MOLECULE
NONAME
41 42 1 0 0 
SMALL
USER_CHARGES


@<TRIPOS>ATOM
  1 O       -0.9550    -0.6980    -0.2110 O.2   1 <1>  -0.5700 
  2 C        0.0730    -0.9520     0.3830 C.2   1 <1>   0.5440 
  3 N        0.3860    -0.1410     1.4210 N.am  1 <1>  -0.8000 
  4 C        0.9440    -2.0250    -0.0170 C.ar  1 <1>   0.0860 
  5 C        0.6010    -3.3740     0.1740 C.ar  1 <1>   0.4100 
  6 C        2.1680    -1.7480    -0.6060 C.ar  1 <1>  -0.1500 
  7 N        1.3760    -4.3920    -0.1950 N.ar  1 <1>  -0.6200 
  8 N       -0.5940    -3.7480     0.7590 N.pl3 1 <1>  -0.8380 
  9 C        2.9790    -2.7970    -0.9820 C.ar  1 <1>  -0.1430 
 10 C        2.5320    -4.0960    -0.7560 C.ar  1 <1>   0.1670 
 11 C       -1.8110    -3.7010    -0.1110 C.3   1 <1>   0.2090 
 12 C       -0.6000    -4.8920     1.7300 C.3   1 <1>   0.2090 
 13 C        4.3260    -2.4990    -1.6290 C.3   1 <1>  -0.0970 
 14 C        3.3830    -5.2890    -1.1540 C.3   1 <1>  -0.0970 
 15 C       -2.0480    -5.0520    -0.8190 C.3   1 <1>   0.3430 
 16 C       -0.8440    -6.2380     1.0160 C.3   1 <1>   0.3430 
 17 N       -2.0640    -6.2000     0.1410 N.4   1 <1>  -0.9590 
 18 C       -2.2890    -7.5560    -0.4980 C.3   1 <1>   0.2370 
 19 C       -2.8050    -8.5760     0.5200 C.2   1 <1>   0.9060 
 20 O       -3.3160    -8.1090     1.5490 O.co2 1 <1>  -0.9000 
 21 O       -2.6470    -9.7770     0.3110 O.co2 1 <1>  -0.9000 
 22 H       -0.2680     0.5980     1.6830 H     1 <1>   0.3700 
 23 H        1.1760    -0.3010     2.0440 H     1 <1>   0.3700 
 24 H        2.4620    -0.7260    -0.7660 H     1 <1>   0.1500 
 25 H       -1.6970    -2.9400    -0.8640 H     1 <1>   0.0800 
 26 H       -2.6670    -3.4420     0.4870 H     1 <1>   0.0800 
 27 H       -1.3690    -4.7310     2.4660 H     1 <1>   0.0800 
 28 H        0.3440    -4.9330     2.2460 H     1 <1>   0.0800 
 29 H        4.5180    -1.4410    -1.6500 H     1 <1>   0.0800 
 30 H        4.3390    -2.8630    -2.6410 H     1 <1>   0.0800 
 31 H        5.1180    -2.9710    -1.0760 H     1 <1>   0.0800 
 32 H        2.8360    -6.2050    -1.0190 H     1 <1>   0.0800 
 33 H        4.2650    -5.3280    -0.5430 H     1 <1>   0.0800 
 34 H        3.6660    -5.2170    -2.1870 H     1 <1>   0.0800 
 35 H       -1.2540    -5.1970    -1.5310 H     1 <1>   0.0800 
 36 H       -2.9800    -5.0120    -1.3570 H     1 <1>   0.0800 
 37 H       -0.9540    -7.0160     1.7550 H     1 <1>   0.0800 
 38 H        0.0220    -6.4630     0.4180 H     1 <1>   0.0800 
 39 H       -2.8610    -6.1400     0.8060 H     1 <1>   0.4500 
 40 H       -1.3790    -7.9330    -0.9250 H     1 <1>   0.0800 
 41 H       -3.0310    -7.4820    -1.2710 H     1 <1>   0.0800 
@<TRIPOS>BOND
  1   1   2  2   
  2   2   3  am  
  3   2   4  1   
  4   3  22  1   
  5   3  23  1   
  6   4   5  ar  
  7   4   6  ar  
  8   5   7  ar  
  9   5   8  1   
 10   6   9  ar  
 11   6  24  1   
 12   7  10  ar  
 13   8  11  1   
 14   8  12  1   
 15   9  10  ar  
 16   9  13  1   
 17  10  14  1   
 18  11  15  1   
 19  11  25  1   
 20  11  26  1   
 21  12  16  1   
 22  12  27  1   
 23  12  28  1   
 24  13  29  1   
 25  13  30  1   
 26  13  31  1   
 27  14  32  1   
 28  14  33  1   
 29  14  34  1   
 30  15  17  1   
 31  15  35  1   
 32  15  36  1   
 33  16  17  1   
 34  16  37  1   
 35  16  38  1   
 36  17  18  1   
 37  17  39  1   
 38  18  19  1   
 39  18  40  1   
 40  18  41  1   
 41  19  20  ar  
 42  19  21  ar  
@<TRIPOS>SUBSTRUCTURE
  1 ****   8 GROUP 4 **** **** 0

# MOE 2024.06 (io_trps.svl 2023.06)
