@<TRIPOS>MOLECULE
NONAME
48 50 1 0 0 
SMALL
USER_CHARGES


@<TRIPOS>ATOM
  1 CL      -1.6370    -1.1420     1.4990 Cl    1 <1>  -0.1770 
  2 C       -2.1990     0.3020     0.6780 C.ar  1 <1>   0.1770 
  3 C       -1.9210     1.5560     1.1970 C.ar  1 <1>   0.1900 
  4 C       -2.9400     0.1800    -0.4900 C.ar  1 <1>  -0.1440 
  5 F       -1.2300     1.6640     2.3000 F     1 <1>  -0.1900 
  6 C       -2.3660     2.7070     0.5760 C.ar  1 <1>  -0.1500 
  7 C       -3.3880     1.3360    -1.1200 C.ar  1 <1>  -0.1500 
  8 C       -3.2440    -1.1890    -1.0700 C.3   1 <1>   0.4870 
  9 C       -3.1040     2.5880    -0.5910 C.ar  1 <1>  -0.1500 
 10 N       -4.1400    -1.9360    -0.1350 N.4   1 <1>  -0.9590 
 11 C       -4.2500    -3.3900    -0.5260 C.3   1 <1>   0.3430 
 12 C       -5.4760    -1.2730    -0.0390 C.3   1 <1>   0.3430 
 13 C       -5.2020    -4.2170     0.3970 C.3   1 <1>   0.4230 
 14 C       -6.3570    -2.0340     0.9570 C.3   1 <1>  -0.1600 
 15 N       -5.3080    -5.7070     0.0710 N.4   1 <1>  -0.9590 
 16 C       -6.5850    -3.5280     0.5930 C.3   1 <1>   0.0000 
 17 C       -6.4720    -6.3920     0.7350 C.3   1 <1>   0.3430 
 18 C       -5.3260    -6.0410    -1.3950 C.3   1 <1>   0.2630 
 19 C       -7.3090    -4.2120     1.7870 C.3   1 <1>  -0.1600 
 20 C       -7.5140    -3.6170    -0.6540 C.3   1 <1>   0.1200 
 21 C       -6.8760    -5.6750     2.0230 C.3   1 <1>  -0.1600 
 22 O       -6.8510    -3.2480    -1.8160 O.3   1 <1>  -0.6800 
 23 H       -2.1370     3.6720     0.9970 H     1 <1>   0.1500 
 24 H       -3.9590     1.2850    -2.0340 H     1 <1>   0.1500 
 25 H       -2.3170    -1.7230    -1.2000 H     1 <1>   0.0800 
 26 H       -3.7150    -1.0840    -2.0340 H     1 <1>   0.0800 
 27 H       -3.4550     3.4780    -1.0900 H     1 <1>   0.1500 
 28 H       -3.6830    -1.8560     0.7880 H     1 <1>   0.4500 
 29 H       -4.6120    -3.4470    -1.5380 H     1 <1>   0.0800 
 30 H       -3.2690    -3.8350    -0.4970 H     1 <1>   0.0800 
 31 H       -5.3600    -0.2530     0.2950 H     1 <1>   0.0800 
 32 H       -5.9500    -1.2530    -1.0070 H     1 <1>   0.0800 
 33 H       -4.7400    -4.1700     1.3690 H     1 <1>   0.0800 
 34 H       -5.9020    -1.9470     1.9290 H     1 <1>   0.0800 
 35 H       -7.3080    -1.5310     1.0190 H     1 <1>   0.0800 
 36 H       -4.4710    -6.1590     0.4700 H     1 <1>   0.4500 
 37 H       -7.3200    -6.4000     0.0690 H     1 <1>   0.0800 
 38 H       -6.2190    -7.4180     0.9530 H     1 <1>   0.0800 
 39 H       -6.1790    -5.5920    -1.8760 H     1 <1>   0.0800 
 40 H       -5.3810    -7.1090    -1.5340 H     1 <1>   0.0800 
 41 H       -4.4310    -5.6860    -1.8800 H     1 <1>   0.0800 
 42 H       -7.1310    -3.6780     2.7060 H     1 <1>   0.0800 
 43 H       -8.3760    -4.1810     1.6330 H     1 <1>   0.0800 
 44 H       -8.3640    -2.9640    -0.5340 H     1 <1>   0.0800 
 45 H       -7.8870    -4.6160    -0.7970 H     1 <1>   0.0800 
 46 H       -7.6890    -6.2110     2.4840 H     1 <1>   0.0800 
 47 H       -6.0520    -5.7100     2.7160 H     1 <1>   0.0800 
 48 H       -7.4950    -3.1580    -2.5580 H     1 <1>   0.4000 
@<TRIPOS>BOND
  1   1   2  1   
  2   2   3  ar  
  3   2   4  ar  
  4   3   5  1   
  5   3   6  ar  
  6   4   7  ar  
  7   4   8  1   
  8   6   9  ar  
  9   6  23  1   
 10   7   9  ar  
 11   7  24  1   
 12   8  10  1   
 13   8  25  1   
 14   8  26  1   
 15   9  27  1   
 16  10  11  1   
 17  10  12  1   
 18  10  28  1   
 19  11  13  1   
 20  11  29  1   
 21  11  30  1   
 22  12  14  1   
 23  12  31  1   
 24  12  32  1   
 25  13  15  1   
 26  13  16  1   
 27  13  33  1   
 28  14  16  1   
 29  14  34  1   
 30  14  35  1   
 31  15  17  1   
 32  15  18  1   
 33  15  36  1   
 34  16  19  1   
 35  16  20  1   
 36  17  21  1   
 37  17  37  1   
 38  17  38  1   
 39  18  39  1   
 40  18  40  1   
 41  18  41  1   
 42  19  21  1   
 43  19  42  1   
 44  19  43  1   
 45  20  22  1   
 46  20  44  1   
 47  20  45  1   
 48  21  46  1   
 49  21  47  1   
 50  22  48  1   
@<TRIPOS>SUBSTRUCTURE
  1 ****  10 GROUP 4 **** **** 0

# MOE 2024.06 (io_trps.svl 2023.06)
