@<TRIPOS>MOLECULE
NONAME
45 47 1 0 0 
SMALL
USER_CHARGES


@<TRIPOS>ATOM
  1 O       -0.4690    -2.7200    -1.8480 O.co2 1 <1>  -0.9000 
  2 C       -0.4450    -2.1090    -0.7670 C.2   1 <1>   1.0330 
  3 O       -1.2110    -1.1430    -0.6060 O.co2 1 <1>  -0.9000 
  4 C        0.4310    -2.5110     0.2810 C.2   1 <1>  -0.2330 
  5 C        0.1840    -3.5360     1.1930 C.2   1 <1>   0.3720 
  6 C        1.6570    -2.0490     0.6340 C.2   1 <1>   0.0870 
  7 N        1.1740    -3.6830     2.0020 N.2   1 <1>  -0.4100 
  8 N       -0.9530    -4.3440     1.2700 N.pl3 1 <1>  -0.8210 
  9 O        2.0500    -2.7780     1.6530 O.3   1 <1>  -0.0190 
 10 C        2.5090    -1.0000     0.1220 C.ar  1 <1>   0.0530 
 11 C       -0.9730    -5.4310     0.2480 C.3   1 <1>   0.2090 
 12 C       -2.2510    -3.6180     1.2960 C.3   1 <1>   0.2090 
 13 C        2.0060     0.0680    -0.6230 C.ar  1 <1>  -0.1500 
 14 C        3.8840    -1.0150     0.3610 C.ar  1 <1>  -0.1500 
 15 C       -2.0320    -6.4730     0.6440 C.3   1 <1>   0.2000 
 16 C       -3.3510    -4.5950     1.7250 C.3   1 <1>  -0.1600 
 17 C        2.8320     1.0650    -1.1080 C.ar  1 <1>  -0.1500 
 18 C        4.7170    -0.0210    -0.1190 C.ar  1 <1>  -0.1500 
 19 O       -2.0920    -7.4660    -0.3390 O.3   1 <1>  -0.5600 
 20 C       -3.4180    -5.8180     0.7890 C.3   1 <1>  -0.1600 
 21 C        4.1910     1.0240    -0.8570 C.ar  1 <1>  -0.1500 
 22 C       -2.5130    -8.7130     0.1070 C.3   1 <1>   0.1200 
 23 C       -2.5180    -9.6590    -1.0920 C.3   1 <1>  -0.1600 
 24 C       -2.9710   -11.0680    -0.6930 C.3   1 <1>  -0.2400 
 25 H       -0.0050    -5.8970     0.2040 H     1 <1>   0.0800 
 26 H       -1.2060    -5.0150    -0.7180 H     1 <1>   0.0800 
 27 H       -2.4820    -3.2310     0.3180 H     1 <1>   0.0800 
 28 H       -2.1890    -2.7910     1.9830 H     1 <1>   0.0800 
 29 H        0.9510     0.1240    -0.8270 H     1 <1>   0.1500 
 30 H        4.3050    -1.8250     0.9300 H     1 <1>   0.1500 
 31 H       -1.7230    -6.9170     1.5750 H     1 <1>   0.0800 
 32 H       -4.2960    -4.0830     1.7190 H     1 <1>   0.0800 
 33 H       -3.1500    -4.9140     2.7320 H     1 <1>   0.0800 
 34 H        2.4100     1.8710    -1.6810 H     1 <1>   0.1500 
 35 H        5.7730    -0.0600     0.0810 H     1 <1>   0.1500 
 36 H       -4.1270    -6.5240     1.1780 H     1 <1>   0.0800 
 37 H       -3.7470    -5.4930    -0.1830 H     1 <1>   0.0800 
 38 H        4.8340     1.8000    -1.2340 H     1 <1>   0.1500 
 39 H       -3.5030    -8.6240     0.5210 H     1 <1>   0.0800 
 40 H       -1.8270    -9.0600     0.8610 H     1 <1>   0.0800 
 41 H       -1.5250    -9.7060    -1.5050 H     1 <1>   0.0800 
 42 H       -3.1830    -9.2690    -1.8430 H     1 <1>   0.0800 
 43 H       -2.3090   -11.4810     0.0470 H     1 <1>   0.0800 
 44 H       -2.9640   -11.7130    -1.5550 H     1 <1>   0.0800 
 45 H       -3.9700   -11.0440    -0.2930 H     1 <1>   0.0800 
@<TRIPOS>BOND
  1   1   2  ar  
  2   2   3  ar  
  3   2   4  1   
  4   4   5  1   
  5   4   6  2   
  6   5   7  2   
  7   5   8  1   
  8   6   9  1   
  9   6  10  1   
 10   7   9  1   
 11   8  11  1   
 12   8  12  1   
 13  10  13  ar  
 14  10  14  ar  
 15  11  15  1   
 16  11  25  1   
 17  11  26  1   
 18  12  16  1   
 19  12  27  1   
 20  12  28  1   
 21  13  17  ar  
 22  13  29  1   
 23  14  18  ar  
 24  14  30  1   
 25  15  19  1   
 26  15  20  1   
 27  15  31  1   
 28  16  20  1   
 29  16  32  1   
 30  16  33  1   
 31  17  21  ar  
 32  17  34  1   
 33  18  21  ar  
 34  18  35  1   
 35  19  22  1   
 36  20  36  1   
 37  20  37  1   
 38  21  38  1   
 39  22  23  1   
 40  22  39  1   
 41  22  40  1   
 42  23  24  1   
 43  23  41  1   
 44  23  42  1   
 45  24  43  1   
 46  24  44  1   
 47  24  45  1   
@<TRIPOS>SUBSTRUCTURE
  1 ****   5 GROUP 4 **** **** 0

# MOE 2024.06 (io_trps.svl 2023.06)
