@<TRIPOS>MOLECULE
NONAME
36 37 1 0 0 
SMALL
USER_CHARGES


@<TRIPOS>ATOM
  1 O       -0.1100     0.0310     0.3530 O.2   1 <1>  -0.5700 
  2 C       -0.1450    -1.1400     0.6420 C.2   1 <1>   0.5690 
  3 N       -1.3420    -1.7330     0.8760 N.am  1 <1>  -0.7300 
  4 C        1.1670    -1.9560     0.7670 C.3   1 <1>   0.2810 
  5 C       -1.5210    -3.1120     1.4300 C.3   1 <1>   0.2810 
  6 N        0.9900    -3.1700     1.6280 N.am  1 <1>  -0.7300 
  7 C        1.7370    -2.4010    -0.6090 C.3   1 <1>  -0.0800 
  8 C       -0.2030    -3.7430     1.9240 C.2   1 <1>   0.5690 
  9 C       -2.1890    -4.0050     0.3750 C.3   1 <1>  -0.0170 
 10 C        3.0070    -3.2650    -0.4720 C.3   1 <1>  -0.2400 
 11 C        2.0690    -1.2070    -1.5210 C.3   1 <1>  -0.2400 
 12 O       -0.2340    -4.7580     2.5730 O.2   1 <1>  -0.5700 
 13 C       -3.5420    -3.4520    -0.0530 C.ar  1 <1>  -0.1440 
 14 C       -3.6480    -2.6470    -1.1770 C.ar  1 <1>  -0.1500 
 15 C       -4.6790    -3.7450     0.6840 C.ar  1 <1>  -0.1500 
 16 C       -4.8770    -2.1360    -1.5580 C.ar  1 <1>  -0.1500 
 17 C       -5.9090    -3.2350     0.3040 C.ar  1 <1>  -0.1500 
 18 C       -6.0080    -2.4300    -0.8170 C.ar  1 <1>  -0.1500 
 19 H       -2.1940    -1.1890     0.7180 H     1 <1>   0.3700 
 20 H        1.8870    -1.3150     1.2430 H     1 <1>   0.0800 
 21 H       -2.1750    -3.0450     2.2800 H     1 <1>   0.0800 
 22 H        1.8360    -3.6380     1.9540 H     1 <1>   0.3700 
 23 H        0.9830    -2.9880    -1.1060 H     1 <1>   0.0800 
 24 H       -1.5390    -4.1020    -0.4760 H     1 <1>   0.0800 
 25 H       -2.3260    -4.9900     0.7850 H     1 <1>   0.0800 
 26 H        3.7690    -2.7360     0.0740 H     1 <1>   0.0800 
 27 H        3.3970    -3.5120    -1.4440 H     1 <1>   0.0800 
 28 H        2.7960    -4.1900     0.0330 H     1 <1>   0.0800 
 29 H        2.7680    -0.5440    -1.0410 H     1 <1>   0.0800 
 30 H        1.1820    -0.6480    -1.7640 H     1 <1>   0.0800 
 31 H        2.4990    -1.5460    -2.4460 H     1 <1>   0.0800 
 32 H       -2.7750    -2.4100    -1.7600 H     1 <1>   0.1500 
 33 H       -4.6160    -4.3710     1.5570 H     1 <1>   0.1500 
 34 H       -4.9530    -1.5110    -2.4300 H     1 <1>   0.1500 
 35 H       -6.7880    -3.4660     0.8790 H     1 <1>   0.1500 
 36 H       -6.9640    -2.0340    -1.1130 H     1 <1>   0.1500 
@<TRIPOS>BOND
  1   1   2  2   
  2   2   3  am  
  3   2   4  1   
  4   3   5  1   
  5   3  19  1   
  6   4   6  1   
  7   4   7  1   
  8   4  20  1   
  9   5   8  1   
 10   5   9  1   
 11   5  21  1   
 12   6   8  am  
 13   6  22  1   
 14   7  10  1   
 15   7  11  1   
 16   7  23  1   
 17   8  12  2   
 18   9  13  1   
 19   9  24  1   
 20   9  25  1   
 21  10  26  1   
 22  10  27  1   
 23  10  28  1   
 24  11  29  1   
 25  11  30  1   
 26  11  31  1   
 27  13  14  ar  
 28  13  15  ar  
 29  14  16  ar  
 30  14  32  1   
 31  15  17  ar  
 32  15  33  1   
 33  16  18  ar  
 34  16  34  1   
 35  17  18  ar  
 36  17  35  1   
 37  18  36  1   
@<TRIPOS>SUBSTRUCTURE
  1 ****   3 GROUP 4 **** **** 0

# MOE 2024.06 (io_trps.svl 2023.06)
