@<TRIPOS>MOLECULE
NONAME
58 61 1 0 0 
SMALL
USER_CHARGES


@<TRIPOS>ATOM
  1 O       -0.5390    -0.5510     0.7780 O.2   1 <1>  -0.5700 
  2 C       -0.1030    -1.4780     0.1370 C.2   1 <1>   0.5690 
  3 N        0.8360    -1.2710    -0.8390 N.am  1 <1>  -0.6600 
  4 C       -0.6900    -2.8380     0.4790 C.3   1 <1>  -0.0990 
  5 C        1.5480    -2.3370    -1.6080 C.3   1 <1>   0.1400 
  6 C        1.2810     0.1230    -1.1670 C.3   1 <1>   0.2840 
  7 C       -0.0370    -4.0810    -0.1220 C.3   1 <1>   0.1200 
  8 C        2.2100    -3.4450    -0.7380 C.3   1 <1>   0.2800 
  9 C        2.6700     0.4060    -0.6060 C.ar  1 <1>   0.1660 
 10 O        1.3270    -4.0680     0.1600 O.3   1 <1>  -0.5600 
 11 C        2.7820    -4.5540    -1.6350 C.3   1 <1>  -0.1600 
 12 C        3.3370    -2.8560     0.1240 C.3   1 <1>  -0.1600 
 13 N        3.6960     0.3220    -1.4470 N.ar  1 <1>  -0.6200 
 14 C        2.7930     0.7250     0.7380 C.ar  1 <1>  -0.1500 
 15 C        3.5480    -5.6020    -0.8230 C.3   1 <1>   0.2090 
 16 C        4.1140    -3.9260     0.8900 C.3   1 <1>   0.2090 
 17 C        4.8850     0.5790    -0.9230 C.ar  1 <1>   0.1600 
 18 C        4.0380     0.9810     1.2690 C.ar  1 <1>  -0.1500 
 19 N        4.6620    -4.9310    -0.0830 N.pl3 1 <1>  -0.8380 
 20 C        5.1080     0.9050     0.4040 C.ar  1 <1>  -0.1500 
 21 C        5.9990    -5.1740    -0.1860 C.ar  1 <1>   0.7710 
 22 N        6.8510    -4.5440     0.6140 N.ar  1 <1>  -0.6200 
 23 N        6.4290    -6.0560    -1.1070 N.ar  1 <1>  -0.1790 
 24 C        8.1320    -4.8100     0.5000 C.ar  1 <1>   0.4100 
 25 C        7.7430    -6.3470    -1.2640 C.ar  1 <1>   0.2110 
 26 N        8.9270    -4.1460     1.3530 N.pl3 1 <1>  -0.8690 
 27 C        8.6250    -5.7190    -0.4520 C.ar  1 <1>  -0.1500 
 28 C       10.3790    -4.2610     1.6000 C.3   1 <1>   0.2090 
 29 C       11.0840    -3.1360     0.8550 C.3   1 <1>  -0.2400 
 30 H       -1.7240    -2.8250     0.1920 H     1 <1>   0.0800 
 31 H       -0.6660    -2.9370     1.5480 H     1 <1>   0.0800 
 32 H        2.3260    -1.8820    -2.1950 H     1 <1>   0.0800 
 33 H        0.8650    -2.7720    -2.3150 H     1 <1>   0.0800 
 34 H        0.5900     0.8450    -0.7700 H     1 <1>   0.0800 
 35 H        1.2940     0.2520    -2.2350 H     1 <1>   0.0800 
 36 H       -0.2080    -4.1710    -1.1790 H     1 <1>   0.0800 
 37 H       -0.4490    -4.9550     0.3530 H     1 <1>   0.0800 
 38 H        3.4470    -4.1220    -2.3610 H     1 <1>   0.0800 
 39 H        1.9810    -5.0300    -2.1710 H     1 <1>   0.0800 
 40 H        2.9190    -2.1570     0.8260 H     1 <1>   0.0800 
 41 H        4.0270    -2.3130    -0.4950 H     1 <1>   0.0800 
 42 H        1.9160     0.7650     1.3620 H     1 <1>   0.1500 
 43 H        3.9020    -6.3750    -1.4780 H     1 <1>   0.0800 
 44 H        2.8810    -6.0620    -0.1110 H     1 <1>   0.0800 
 45 H        3.4560    -4.4220     1.5850 H     1 <1>   0.0800 
 46 H        4.8870    -3.4480     1.4650 H     1 <1>   0.0800 
 47 H        5.7300     0.5280    -1.5870 H     1 <1>   0.1500 
 48 H        4.1660     1.2300     2.3080 H     1 <1>   0.1500 
 49 H        6.1060     1.0980     0.7520 H     1 <1>   0.1500 
 50 H        5.7060    -6.4770    -1.6760 H     1 <1>   0.4570 
 51 H        8.0440    -7.0560    -2.0190 H     1 <1>   0.1500 
 52 H        8.4530    -3.4680     1.9580 H     1 <1>   0.4000 
 53 H        9.6810    -5.8930    -0.5210 H     1 <1>   0.1500 
 54 H       10.7480    -5.2180     1.2720 H     1 <1>   0.0800 
 55 H       10.5670    -4.1770     2.6580 H     1 <1>   0.0800 
 56 H       10.9030    -3.2150    -0.2010 H     1 <1>   0.0800 
 57 H       12.1430    -3.1960     1.0270 H     1 <1>   0.0800 
 58 H       10.7360    -2.1810     1.2070 H     1 <1>   0.0800 
@<TRIPOS>BOND
  1   1   2  2   
  2   2   3  am  
  3   2   4  1   
  4   3   5  1   
  5   3   6  1   
  6   4   7  1   
  7   4  30  1   
  8   4  31  1   
  9   5   8  1   
 10   5  32  1   
 11   5  33  1   
 12   6   9  1   
 13   6  34  1   
 14   6  35  1   
 15   7  10  1   
 16   7  36  1   
 17   7  37  1   
 18   8  10  1   
 19   8  11  1   
 20   8  12  1   
 21   9  13  ar  
 22   9  14  ar  
 23  11  15  1   
 24  11  38  1   
 25  11  39  1   
 26  12  16  1   
 27  12  40  1   
 28  12  41  1   
 29  13  17  ar  
 30  14  18  ar  
 31  14  42  1   
 32  15  19  1   
 33  15  43  1   
 34  15  44  1   
 35  16  19  1   
 36  16  45  1   
 37  16  46  1   
 38  17  20  ar  
 39  17  47  1   
 40  18  20  ar  
 41  18  48  1   
 42  19  21  1   
 43  20  49  1   
 44  21  22  ar  
 45  21  23  ar  
 46  22  24  ar  
 47  23  25  ar  
 48  23  50  1   
 49  24  26  1   
 50  24  27  ar  
 51  25  27  ar  
 52  25  51  1   
 53  26  28  1   
 54  26  52  1   
 55  27  53  1   
 56  28  29  1   
 57  28  54  1   
 58  28  55  1   
 59  29  56  1   
 60  29  57  1   
 61  29  58  1   
@<TRIPOS>SUBSTRUCTURE
  1 ****  12 GROUP 4 **** **** 0

# MOE 2024.06 (io_trps.svl 2023.06)
