@<TRIPOS>MOLECULE
NONAME
55 58 1 0 0 
SMALL
USER_CHARGES


@<TRIPOS>ATOM
  1 O       -2.8260     1.3020    -0.0770 O.2   1 <1>  -0.5700 
  2 C       -3.2580     0.7160     0.8900 C.2   1 <1>   0.5440 
  3 N       -2.9340     1.2300     2.0970 N.am  1 <1>  -0.8000 
  4 C       -4.0700    -0.4800     0.7470 C.ar  1 <1>   0.0860 
  5 C       -3.9210    -1.3110    -0.3630 C.ar  1 <1>  -0.1500 
  6 C       -5.0290    -0.8480     1.6920 C.ar  1 <1>  -0.1500 
  7 C       -4.6880    -2.4490    -0.5290 C.ar  1 <1>  -0.1500 
  8 C       -5.8020    -1.9840     1.5350 C.ar  1 <1>  -0.1500 
  9 C       -5.6430    -2.7900     0.4170 C.ar  1 <1>  -0.1430 
 10 C       -6.5090    -4.0180     0.2160 C.3   1 <1>   0.4860 
 11 N       -7.5390    -3.6800    -0.7990 N.4   1 <1>  -0.9590 
 12 C       -8.5370    -2.6980    -0.2480 C.3   1 <1>   0.3430 
 13 C       -8.2130    -4.8930    -1.3400 C.3   1 <1>   0.3430 
 14 C       -9.5420    -2.2350    -1.3150 C.3   1 <1>   0.1430 
 15 C       -9.1740    -4.4900    -2.4620 C.3   1 <1>  -0.1600 
 16 C      -10.5810    -1.3800    -0.6340 C.ar  1 <1>   0.1670 
 17 C      -10.2090    -3.4510    -1.9930 C.3   1 <1>  -0.1600 
 18 C       -8.9210    -1.2530    -2.3470 C.3   1 <1>  -0.1600 
 19 N      -11.1920    -1.7100     0.4740 N.ar  1 <1>  -0.6200 
 20 C      -10.7960    -0.2130    -1.2980 C.ar  1 <1>  -0.1430 
 21 C       -9.9380    -0.1080    -2.5340 C.3   1 <1>  -0.0170 
 22 C      -12.0700    -0.8050     0.9190 C.ar  1 <1>   0.7200 
 23 C      -11.7130     0.6560    -0.7640 C.ar  1 <1>   0.1600 
 24 N      -12.3510     0.3690     0.3460 N.ar  1 <1>  -0.6200 
 25 N      -12.7380    -1.1110     2.0860 N.pl3 1 <1>  -0.8380 
 26 C      -12.9860    -2.5140     2.5190 C.3   1 <1>   0.1290 
 27 C      -13.4670    -0.0700     2.8620 C.3   1 <1>   0.1290 
 28 H       -2.3290     2.0530     2.1230 H     1 <1>   0.3700 
 29 H       -3.0970     0.7590     2.9850 H     1 <1>   0.3700 
 30 H       -3.1840    -1.0490    -1.1050 H     1 <1>   0.1500 
 31 H       -5.1760    -0.2280     2.5590 H     1 <1>   0.1500 
 32 H       -4.5250    -3.0580    -1.4020 H     1 <1>   0.1500 
 33 H       -6.5300    -2.2270     2.2930 H     1 <1>   0.1500 
 34 H       -6.9730    -4.3090     1.1440 H     1 <1>   0.0800 
 35 H       -5.8930    -4.8320    -0.1320 H     1 <1>   0.0800 
 36 H       -7.0460    -3.2080    -1.5670 H     1 <1>   0.4500 
 37 H       -8.0330    -1.8320     0.1490 H     1 <1>   0.0800 
 38 H       -9.0880    -3.1560     0.5580 H     1 <1>   0.0800 
 39 H       -8.7670    -5.3840    -0.5540 H     1 <1>   0.0800 
 40 H       -7.4820    -5.5860    -1.7250 H     1 <1>   0.0800 
 41 H       -9.6940    -5.3680    -2.8060 H     1 <1>   0.0800 
 42 H       -8.6120    -4.1100    -3.2970 H     1 <1>   0.0800 
 43 H      -10.8140    -3.1260    -2.8230 H     1 <1>   0.0800 
 44 H      -10.8720    -3.9200    -1.2840 H     1 <1>   0.0800 
 45 H       -8.6900    -1.7190    -3.2880 H     1 <1>   0.0800 
 46 H       -8.0170    -0.8270    -1.9450 H     1 <1>   0.0800 
 47 H      -10.5450    -0.2720    -3.4080 H     1 <1>   0.0800 
 48 H       -9.4520     0.8500    -2.6020 H     1 <1>   0.0800 
 49 H      -11.9250     1.5950    -1.2470 H     1 <1>   0.1500 
 50 H      -12.7990    -3.2020     1.7130 H     1 <1>   0.0800 
 51 H      -14.0110    -2.6270     2.8260 H     1 <1>   0.0800 
 52 H      -12.3400    -2.7550     3.3450 H     1 <1>   0.0800 
 53 H      -12.9750     0.8830     2.7670 H     1 <1>   0.0800 
 54 H      -13.4940    -0.3350     3.9040 H     1 <1>   0.0800 
 55 H      -14.4730     0.0190     2.4900 H     1 <1>   0.0800 
@<TRIPOS>BOND
  1   1   2  2   
  2   2   3  am  
  3   2   4  1   
  4   3  28  1   
  5   3  29  1   
  6   4   5  ar  
  7   4   6  ar  
  8   5   7  ar  
  9   5  30  1   
 10   6   8  ar  
 11   6  31  1   
 12   7   9  ar  
 13   7  32  1   
 14   8   9  ar  
 15   8  33  1   
 16   9  10  1   
 17  10  11  1   
 18  10  34  1   
 19  10  35  1   
 20  11  12  1   
 21  11  13  1   
 22  11  36  1   
 23  12  14  1   
 24  12  37  1   
 25  12  38  1   
 26  13  15  1   
 27  13  39  1   
 28  13  40  1   
 29  14  16  1   
 30  14  17  1   
 31  14  18  1   
 32  15  17  1   
 33  15  41  1   
 34  15  42  1   
 35  16  19  ar  
 36  16  20  ar  
 37  17  43  1   
 38  17  44  1   
 39  18  21  1   
 40  18  45  1   
 41  18  46  1   
 42  19  22  ar  
 43  20  21  1   
 44  20  23  ar  
 45  21  47  1   
 46  21  48  1   
 47  22  24  ar  
 48  22  25  1   
 49  23  24  ar  
 50  23  49  1   
 51  25  26  1   
 52  25  27  1   
 53  26  50  1   
 54  26  51  1   
 55  26  52  1   
 56  27  53  1   
 57  27  54  1   
 58  27  55  1   
@<TRIPOS>SUBSTRUCTURE
  1 ****  12 GROUP 4 **** **** 0

# MOE 2024.06 (io_trps.svl 2023.06)
