@<TRIPOS>MOLECULE
NONAME
51 54 1 0 0 
SMALL
USER_CHARGES


@<TRIPOS>ATOM
  1 O       -2.9720     0.9770    -1.4820 O.2   1 <1>  -0.5700 
  2 C       -2.4640     0.7950    -0.4000 C.2   1 <1>   0.5690 
  3 N       -2.3210    -0.4610     0.0960 N.am  1 <1>  -0.7300 
  4 C       -2.0150     1.9930     0.4620 C.3   1 <1>   0.0610 
  5 C       -2.7220    -1.7020    -0.6020 C.3   1 <1>   0.2200 
  6 C       -1.6410     3.2250    -0.3790 C.3   1 <1>  -0.1600 
  7 C       -0.7060     1.7230     1.2250 C.3   1 <1>  -0.1600 
  8 C       -3.1380     2.3580     1.4560 C.3   1 <1>  -0.2400 
  9 C       -4.0300    -2.2490    -0.0460 C.3   1 <1>  -0.0800 
 10 C       -1.7620    -2.8170    -0.2130 C.3   1 <1>   0.1200 
 11 C       -0.6780     4.0560     0.4730 C.3   1 <1>  -0.1600 
 12 C       -0.0800     3.0930     1.5040 C.3   1 <1>  -0.1600 
 13 C       -3.5770    -3.0910     1.1530 C.3   1 <1>   0.1200 
 14 C       -5.1080    -1.2010     0.2940 C.3   1 <1>  -0.0170 
 15 O       -2.1900    -3.2340     1.0470 O.3   1 <1>  -0.5600 
 16 C       -6.4140    -1.8730     0.7050 C.ar  1 <1>  -0.1440 
 17 C       -7.3100    -2.4270    -0.2410 C.ar  1 <1>   0.0000 
 18 C       -6.7540    -1.9640     2.0230 C.ar  1 <1>  -0.1500 
 19 C       -8.4800    -3.0550     0.2510 C.ar  1 <1>   0.3100 
 20 C       -7.1150    -2.3930    -1.6420 C.ar  1 <1>  -0.1500 
 21 C       -7.9420    -2.6000     2.4030 C.ar  1 <1>   0.1600 
 22 N       -8.7800    -3.1330     1.5720 N.ar  1 <1>  -0.6200 
 23 C       -9.3790    -3.6270    -0.6630 C.ar  1 <1>  -0.1500 
 24 C       -8.0140    -2.9580    -2.5060 C.ar  1 <1>  -0.1500 
 25 C       -9.1600    -3.5860    -2.0130 C.ar  1 <1>  -0.1500 
 26 H       -1.9300    -0.6110     1.0270 H     1 <1>   0.3700 
 27 H       -2.7560    -1.5450    -1.6680 H     1 <1>   0.0800 
 28 H       -1.1220     2.9010    -1.2650 H     1 <1>   0.0800 
 29 H       -2.5060     3.7890    -0.6840 H     1 <1>   0.0800 
 30 H       -0.8620     1.1640     2.1310 H     1 <1>   0.0800 
 31 H       -0.0370     1.1680     0.5880 H     1 <1>   0.0800 
 32 H       -2.8690     3.2020     2.0640 H     1 <1>   0.0800 
 33 H       -3.3490     1.5260     2.1040 H     1 <1>   0.0800 
 34 H       -4.0370     2.6010     0.9170 H     1 <1>   0.0800 
 35 H       -4.4330    -2.9300    -0.7750 H     1 <1>   0.0800 
 36 H       -0.7390    -2.4900    -0.1630 H     1 <1>   0.0800 
 37 H       -1.8500    -3.6520    -0.8870 H     1 <1>   0.0800 
 38 H        0.0870     4.5010    -0.1400 H     1 <1>   0.0800 
 39 H       -1.2160     4.8400     0.9780 H     1 <1>   0.0800 
 40 H       -0.3390     3.4210     2.4970 H     1 <1>   0.0800 
 41 H        0.9930     3.0480     1.4240 H     1 <1>   0.0800 
 42 H       -4.0310    -4.0670     1.1470 H     1 <1>   0.0800 
 43 H       -3.7820    -2.6010     2.0890 H     1 <1>   0.0800 
 44 H       -5.2760    -0.5540    -0.5490 H     1 <1>   0.0800 
 45 H       -4.7660    -0.5750     1.0980 H     1 <1>   0.0800 
 46 H       -6.1270    -1.5600     2.7960 H     1 <1>   0.1500 
 47 H       -6.2450    -1.9100    -2.0440 H     1 <1>   0.1500 
 48 H       -8.1710    -2.6500     3.4540 H     1 <1>   0.1500 
 49 H      -10.2550    -4.1020    -0.2600 H     1 <1>   0.1500 
 50 H       -7.8530    -2.9250    -3.5700 H     1 <1>   0.1500 
 51 H       -9.8580    -4.0280    -2.7010 H     1 <1>   0.1500 
@<TRIPOS>BOND
  1   1   2  2   
  2   2   3  am  
  3   2   4  1   
  4   3   5  1   
  5   3  26  1   
  6   4   6  1   
  7   4   7  1   
  8   4   8  1   
  9   5   9  1   
 10   5  10  1   
 11   5  27  1   
 12   6  11  1   
 13   6  28  1   
 14   6  29  1   
 15   7  12  1   
 16   7  30  1   
 17   7  31  1   
 18   8  32  1   
 19   8  33  1   
 20   8  34  1   
 21   9  13  1   
 22   9  14  1   
 23   9  35  1   
 24  10  15  1   
 25  10  36  1   
 26  10  37  1   
 27  11  12  1   
 28  11  38  1   
 29  11  39  1   
 30  12  40  1   
 31  12  41  1   
 32  13  15  1   
 33  13  42  1   
 34  13  43  1   
 35  14  16  1   
 36  14  44  1   
 37  14  45  1   
 38  16  17  ar  
 39  16  18  ar  
 40  17  19  ar  
 41  17  20  ar  
 42  18  21  ar  
 43  18  46  1   
 44  19  22  ar  
 45  19  23  ar  
 46  20  24  ar  
 47  20  47  1   
 48  21  22  ar  
 49  21  48  1   
 50  23  25  ar  
 51  23  49  1   
 52  24  25  ar  
 53  24  50  1   
 54  25  51  1   
@<TRIPOS>SUBSTRUCTURE
  1 ****  14 GROUP 4 **** **** 0

# MOE 2024.06 (io_trps.svl 2023.06)
