@<TRIPOS>MOLECULE
NONAME
49 51 1 0 0 
SMALL
USER_CHARGES


@<TRIPOS>ATOM
  1 O        1.7380     0.3830    -1.2220 O.2   1 <1>  -0.5700 
  2 C        2.1870    -0.4320    -0.4380 C.2   1 <1>   0.5440 
  3 N        2.9600     0.0190     0.6130 N.am  1 <1>  -0.6600 
  4 C        1.9110    -1.8430    -0.6450 C.ar  1 <1>   0.0860 
  5 C        4.0050    -0.8170     1.2810 C.3   1 <1>   0.1400 
  6 C        2.9920     1.4570     0.9920 C.3   1 <1>   0.1400 
  7 C        2.0540    -2.4220    -1.9060 C.ar  1 <1>  -0.1500 
  8 C        1.4880    -2.6690     0.3970 C.ar  1 <1>  -0.1500 
  9 C        5.4030    -0.2500     1.0030 C.3   1 <1>   0.2000 
 10 C        4.3580     2.0430     0.6290 C.3   1 <1>  -0.1600 
 11 C        1.8040    -3.7660    -2.1160 C.ar  1 <1>  -0.1500 
 12 C        1.2360    -4.0140     0.1950 C.ar  1 <1>  -0.1500 
 13 O        6.3110    -0.9450     1.7910 O.3   1 <1>  -0.6800 
 14 C        5.4890     1.2640     1.3090 C.3   1 <1>   0.2200 
 15 C        1.3960    -4.5660    -1.0630 C.ar  1 <1>  -0.1500 
 16 N        6.7790     1.8420     0.8560 N.am  1 <1>  -0.7300 
 17 C        7.9680     1.7050     1.4880 C.2   1 <1>   0.5690 
 18 O        8.0900     1.0120     2.4670 O.2   1 <1>  -0.5700 
 19 C        9.1770     2.4070     0.9190 C.3   1 <1>  -0.0990 
 20 C        9.9280     1.4930    -0.0570 C.3   1 <1>  -0.0170 
 21 C       11.0740     2.2350    -0.7190 C.ar  1 <1>   0.1670 
 22 N       10.7340     3.1370    -1.6280 N.ar  1 <1>  -0.6200 
 23 C       12.3830     1.9520    -0.3570 C.ar  1 <1>  -0.1500 
 24 C       11.7400     3.7790    -2.2010 C.ar  1 <1>   0.1600 
 25 C       13.4200     2.6300    -0.9620 C.ar  1 <1>  -0.1500 
 26 C       13.0770     3.5690    -1.9100 C.ar  1 <1>  -0.1500 
 27 H        3.8220    -0.8190     2.3410 H     1 <1>   0.0800 
 28 H        3.9720    -1.8300     0.9240 H     1 <1>   0.0800 
 29 H        2.2140     2.0020     0.4830 H     1 <1>   0.0800 
 30 H        2.8180     1.5470     2.0510 H     1 <1>   0.0800 
 31 H        2.3630    -1.7990    -2.7280 H     1 <1>   0.1500 
 32 H        1.3530    -2.2440     1.3760 H     1 <1>   0.1500 
 33 H        5.6570    -0.4270    -0.0270 H     1 <1>   0.0800 
 34 H        4.3880     3.0710     0.9420 H     1 <1>   0.0800 
 35 H        4.4660     2.0050    -0.4400 H     1 <1>   0.0800 
 36 H        1.9230    -4.1890    -3.0980 H     1 <1>   0.1500 
 37 H        0.9140    -4.6320     1.0160 H     1 <1>   0.1500 
 38 H        7.0530    -0.3360     2.0510 H     1 <1>   0.4000 
 39 H        5.3990     1.3970     2.3750 H     1 <1>   0.0800 
 40 H        1.2010    -5.6120    -1.2240 H     1 <1>   0.1500 
 41 H        6.7360     2.3800    -0.0110 H     1 <1>   0.3700 
 42 H        8.8650     3.3040     0.4160 H     1 <1>   0.0800 
 43 H        9.8300     2.6890     1.7250 H     1 <1>   0.0800 
 44 H        9.2570     1.1470    -0.8230 H     1 <1>   0.0800 
 45 H       10.2960     0.6300     0.4700 H     1 <1>   0.0800 
 46 H       12.5930     1.2090     0.3900 H     1 <1>   0.1500 
 47 H       11.4840     4.5150    -2.9440 H     1 <1>   0.1500 
 48 H       14.4470     2.4360    -0.7060 H     1 <1>   0.1500 
 49 H       13.8350     4.1340    -2.4210 H     1 <1>   0.1500 
@<TRIPOS>BOND
  1   1   2  2   
  2   2   3  am  
  3   2   4  1   
  4   3   5  1   
  5   3   6  1   
  6   4   7  ar  
  7   4   8  ar  
  8   5   9  1   
  9   5  27  1   
 10   5  28  1   
 11   6  10  1   
 12   6  29  1   
 13   6  30  1   
 14   7  11  ar  
 15   7  31  1   
 16   8  12  ar  
 17   8  32  1   
 18   9  13  1   
 19   9  14  1   
 20   9  33  1   
 21  10  14  1   
 22  10  34  1   
 23  10  35  1   
 24  11  15  ar  
 25  11  36  1   
 26  12  15  ar  
 27  12  37  1   
 28  13  38  1   
 29  14  16  1   
 30  14  39  1   
 31  15  40  1   
 32  16  17  am  
 33  16  41  1   
 34  17  18  2   
 35  17  19  1   
 36  19  20  1   
 37  19  42  1   
 38  19  43  1   
 39  20  21  1   
 40  20  44  1   
 41  20  45  1   
 42  21  22  ar  
 43  21  23  ar  
 44  22  24  ar  
 45  23  25  ar  
 46  23  46  1   
 47  24  26  ar  
 48  24  47  1   
 49  25  26  ar  
 50  25  48  1   
 51  26  49  1   
@<TRIPOS>SUBSTRUCTURE
  1 ****   9 GROUP 4 **** **** 0

# MOE 2024.06 (io_trps.svl 2023.06)
