@<TRIPOS>MOLECULE
NONAME
47 49 1 0 0 
SMALL
USER_CHARGES


@<TRIPOS>ATOM
  1 O        1.3420     0.3330    -2.2540 O.2   1 <1>  -0.5700 
  2 C        1.8930    -0.4800    -1.5510 C.2   1 <1>   0.5690 
  3 N        2.8820    -0.0810    -0.6780 N.am  1 <1>  -0.6600 
  4 C        1.4590    -1.9310    -1.7040 C.3   1 <1>   0.0810 
  5 C        3.8450    -0.9820     0.0360 C.3   1 <1>   0.1400 
  6 C        2.9360     1.3430    -0.2480 C.3   1 <1>   0.1400 
  7 C        0.7100    -2.4310    -0.4820 C.2   1 <1>  -0.0400 
  8 C        5.3090    -0.8000    -0.4250 C.3   1 <1>   0.3430 
  9 C        3.8870     2.1410    -1.1420 C.3   1 <1>  -0.1600 
 10 O        1.3490    -2.6660     0.6320 O.3   1 <1>  -0.0190 
 11 C       -0.5860    -2.7120    -0.2770 C.2   1 <1>  -0.1500 
 12 N        5.7570     0.6280    -0.5350 N.4   1 <1>  -0.9590 
 13 C        5.0890     1.3520    -1.6560 C.3   1 <1>   0.3430 
 14 N        0.5560    -3.0860     1.5710 N.2   1 <1>  -0.4100 
 15 C       -0.6190    -3.1240     1.0530 C.2   1 <1>   0.1080 
 16 C        7.2350     0.7590    -0.6170 C.3   1 <1>   0.5230 
 17 C       -1.8640    -3.5570     1.7950 C.3   1 <1>  -0.0590 
 18 C        7.5810     2.1940    -0.2820 C.2   1 <1>  -0.0400 
 19 O        7.0540     2.7180     0.8100 O.3   1 <1>  -0.2800 
 20 C        8.3490     3.1030    -0.9210 C.2   1 <1>  -0.1500 
 21 C        7.4750     3.9630     0.8980 C.2   1 <1>  -0.0400 
 22 C        8.2790     4.2650    -0.1430 C.2   1 <1>  -0.1500 
 23 C        7.0290     4.8070     2.0730 C.3   1 <1>  -0.0600 
 24 H        2.3080    -2.5560    -1.9000 H     1 <1>   0.0800 
 25 H        0.8060    -1.9990    -2.5550 H     1 <1>   0.0800 
 26 H        3.5850    -2.0120    -0.1180 H     1 <1>   0.0800 
 27 H        3.7750    -0.8020     1.0950 H     1 <1>   0.0800 
 28 H        3.2570     1.3980     0.7790 H     1 <1>   0.0800 
 29 H        1.9490     1.7780    -0.2930 H     1 <1>   0.0800 
 30 H        5.4250    -1.2810    -1.3830 H     1 <1>   0.0800 
 31 H        5.9410    -1.3230     0.2740 H     1 <1>   0.0800 
 32 H        4.2220     3.0180    -0.6170 H     1 <1>   0.0800 
 33 H        3.3300     2.4870    -1.9960 H     1 <1>   0.0800 
 34 H       -1.4230    -2.6460    -0.9470 H     1 <1>   0.1500 
 35 H        5.5140     1.1400     0.3260 H     1 <1>   0.4500 
 36 H        5.7740     2.0400    -2.1250 H     1 <1>   0.0800 
 37 H        4.7570     0.6470    -2.4020 H     1 <1>   0.0800 
 38 H        7.5930     0.5010    -1.6000 H     1 <1>   0.0800 
 39 H        7.7040     0.1140     0.1090 H     1 <1>   0.0800 
 40 H       -2.2940    -4.4170     1.3170 H     1 <1>   0.0800 
 41 H       -2.5820    -2.7570     1.8010 H     1 <1>   0.0800 
 42 H       -1.6170    -3.8100     2.8100 H     1 <1>   0.0800 
 43 H        8.9170     3.0120    -1.8310 H     1 <1>   0.1500 
 44 H        8.7800     5.1930    -0.3580 H     1 <1>   0.1500 
 45 H        7.3490     4.3520     2.9920 H     1 <1>   0.0800 
 46 H        5.9580     4.8940     2.0790 H     1 <1>   0.0800 
 47 H        7.4570     5.7910     2.0060 H     1 <1>   0.0800 
@<TRIPOS>BOND
  1   1   2  2   
  2   2   3  am  
  3   2   4  1   
  4   3   5  1   
  5   3   6  1   
  6   4   7  1   
  7   4  24  1   
  8   4  25  1   
  9   5   8  1   
 10   5  26  1   
 11   5  27  1   
 12   6   9  1   
 13   6  28  1   
 14   6  29  1   
 15   7  10  1   
 16   7  11  2   
 17   8  12  1   
 18   8  30  1   
 19   8  31  1   
 20   9  13  1   
 21   9  32  1   
 22   9  33  1   
 23  10  14  1   
 24  11  15  1   
 25  11  34  1   
 26  12  13  1   
 27  12  16  1   
 28  12  35  1   
 29  13  36  1   
 30  13  37  1   
 31  14  15  2   
 32  15  17  1   
 33  16  18  1   
 34  16  38  1   
 35  16  39  1   
 36  17  40  1   
 37  17  41  1   
 38  17  42  1   
 39  18  19  1   
 40  18  20  2   
 41  19  21  1   
 42  20  22  1   
 43  20  43  1   
 44  21  22  2   
 45  21  23  1   
 46  22  44  1   
 47  23  45  1   
 48  23  46  1   
 49  23  47  1   
@<TRIPOS>SUBSTRUCTURE
  1 ****   3 GROUP 4 **** **** 0

# MOE 2024.06 (io_trps.svl 2023.06)
