@<TRIPOS>MOLECULE
NONAME
45 47 1 0 0 
SMALL
USER_CHARGES


@<TRIPOS>ATOM
  1 O       -0.7820    -1.0580    -1.1210 O.2   1 <1>  -0.5700 
  2 C       -1.6960    -0.6280    -0.4430 C.2   1 <1>   0.7150 
  3 N       -1.7940     0.7260    -0.2560 N.am  1 <1>  -0.7300 
  4 C       -2.6710    -1.5160     0.1570 C.2   1 <1>   0.0550 
  5 C       -0.8680     1.7480    -0.8120 C.3   1 <1>   0.0600 
  6 O       -2.5500    -2.8370     0.0440 O.3   1 <1>  -0.2800 
  7 C       -3.7960    -1.2620     0.8830 C.2   1 <1>  -0.1500 
  8 C       -3.5430    -3.4260     0.6640 C.2   1 <1>  -0.0400 
  9 C       -4.3600    -2.4960     1.2120 C.2   1 <1>  -0.1500 
 10 C       -3.5640    -4.9440     0.6380 C.3   1 <1>   0.5230 
 11 N       -4.9430    -5.4620     0.8580 N.4   1 <1>  -0.9590 
 12 C       -5.9280    -5.0590    -0.1830 C.3   1 <1>   0.3430 
 13 C       -5.0440    -6.9450     0.9690 C.3   1 <1>   0.3430 
 14 C       -7.0960    -6.0160     0.0490 C.3   1 <1>   0.2000 
 15 C       -6.4010    -7.3430     0.3600 C.3   1 <1>  -0.0800 
 16 O       -7.7590    -5.6000     1.1990 O.3   1 <1>  -0.6800 
 17 C       -6.2220    -8.2010    -0.9070 C.3   1 <1>  -0.0170 
 18 C       -5.3120    -9.3890    -0.6390 C.ar  1 <1>  -0.1430 
 19 C       -4.0820    -9.5220    -1.2550 C.ar  1 <1>  -0.1500 
 20 C       -5.6660   -10.3970     0.2370 C.ar  1 <1>  -0.1500 
 21 C       -3.2800   -10.6110    -0.9550 C.ar  1 <1>   0.1600 
 22 C       -4.7890   -11.4440     0.4680 C.ar  1 <1>   0.1600 
 23 N       -3.6010   -11.5650    -0.1000 N.ar  1 <1>  -0.6200 
 24 H       -2.5490     1.0820     0.3290 H     1 <1>   0.3700 
 25 H       -0.1070     1.2830    -1.4160 H     1 <1>   0.0800 
 26 H       -0.3910     2.2830    -0.0080 H     1 <1>   0.0800 
 27 H       -1.4170     2.4430    -1.4230 H     1 <1>   0.0800 
 28 H       -4.2000    -0.3050     1.1670 H     1 <1>   0.1500 
 29 H       -5.2590    -2.6200     1.7900 H     1 <1>   0.1500 
 30 H       -2.8970    -5.3170     1.3980 H     1 <1>   0.0800 
 31 H       -3.2020    -5.2770    -0.3200 H     1 <1>   0.0800 
 32 H       -5.3090    -5.0710     1.7380 H     1 <1>   0.4500 
 33 H       -6.2350    -4.0310    -0.0790 H     1 <1>   0.0800 
 34 H       -5.5150    -5.2160    -1.1660 H     1 <1>   0.0800 
 35 H       -4.2410    -7.4200     0.4270 H     1 <1>   0.0800 
 36 H       -4.9900    -7.2490     2.0020 H     1 <1>   0.0800 
 37 H       -7.7940    -6.0470    -0.7720 H     1 <1>   0.0800 
 38 H       -6.9670    -7.9150     1.0760 H     1 <1>   0.0800 
 39 H       -8.6180    -6.0640     1.3060 H     1 <1>   0.4000 
 40 H       -5.8090    -7.6110    -1.7070 H     1 <1>   0.0800 
 41 H       -7.1810    -8.5650    -1.2380 H     1 <1>   0.0800 
 42 H       -3.7320    -8.8000    -1.9700 H     1 <1>   0.1500 
 43 H       -6.6140   -10.3880     0.7440 H     1 <1>   0.1500 
 44 H       -2.3240   -10.7040    -1.4440 H     1 <1>   0.1500 
 45 H       -5.0790   -12.2220     1.1540 H     1 <1>   0.1500 
@<TRIPOS>BOND
  1   1   2  2   
  2   2   3  am  
  3   2   4  1   
  4   3   5  1   
  5   3  24  1   
  6   4   6  1   
  7   4   7  2   
  8   5  25  1   
  9   5  26  1   
 10   5  27  1   
 11   6   8  1   
 12   7   9  1   
 13   7  28  1   
 14   8   9  2   
 15   8  10  1   
 16   9  29  1   
 17  10  11  1   
 18  10  30  1   
 19  10  31  1   
 20  11  12  1   
 21  11  13  1   
 22  11  32  1   
 23  12  14  1   
 24  12  33  1   
 25  12  34  1   
 26  13  15  1   
 27  13  35  1   
 28  13  36  1   
 29  14  15  1   
 30  14  16  1   
 31  14  37  1   
 32  15  17  1   
 33  15  38  1   
 34  16  39  1   
 35  17  18  1   
 36  17  40  1   
 37  17  41  1   
 38  18  19  ar  
 39  18  20  ar  
 40  19  21  ar  
 41  19  42  1   
 42  20  22  ar  
 43  20  43  1   
 44  21  23  ar  
 45  21  44  1   
 46  22  23  ar  
 47  22  45  1   
@<TRIPOS>SUBSTRUCTURE
  1 ****  10 GROUP 4 **** **** 0

# MOE 2024.06 (io_trps.svl 2023.06)
