@<TRIPOS>MOLECULE
NONAME
38 40 1 0 0 
SMALL
USER_CHARGES


@<TRIPOS>ATOM
  1 S       -0.0330    -0.2880     1.9120 S.3   1 <1>  -0.0800 
  2 C        1.1330    -1.0830     0.8720 C.2   1 <1>  -0.0450 
  3 C        0.7380     1.2430     1.6020 C.2   1 <1>   0.2280 
  4 C        1.9730    -0.1220     0.4180 C.2   1 <1>   0.0460 
  5 C        1.0730    -2.5120     0.6830 C.2   1 <1>   0.7150 
  6 N        1.7410     1.1760     0.8230 N.2   1 <1>  -0.5650 
  7 C        3.1610    -0.3200    -0.5030 C.3   1 <1>  -0.0590 
  8 O        2.1050    -3.1560     0.6360 O.2   1 <1>  -0.5700 
  9 N       -0.1170    -3.1890     0.5260 N.am  1 <1>  -0.6600 
 10 C       -1.3780    -2.5780     0.0360 C.3   1 <1>   0.1400 
 11 C       -0.1640    -4.6640     0.3740 C.3   1 <1>   0.1400 
 12 C       -2.1200    -3.7160    -0.6630 C.3   1 <1>   0.2000 
 13 C       -1.6090    -4.9950    -0.0040 C.3   1 <1>  -0.0800 
 14 O       -3.4920    -3.6080    -0.5000 O.3   1 <1>  -0.6800 
 15 C       -1.7430    -6.2300    -0.9080 C.3   1 <1>  -0.0170 
 16 C       -1.2080    -7.4730    -0.2160 C.ar  1 <1>  -0.1440 
 17 C        0.0690    -7.9480    -0.4410 C.ar  1 <1>  -0.1500 
 18 C       -1.9750    -8.1900     0.6790 C.ar  1 <1>  -0.1500 
 19 C        0.5050    -9.0820     0.2250 C.ar  1 <1>   0.1600 
 20 C       -1.4440    -9.3130     1.2910 C.ar  1 <1>   0.1600 
 21 N       -0.2210    -9.7750     1.0860 N.ar  1 <1>  -0.6200 
 22 H        0.3220     2.1130     2.0780 H     1 <1>   0.1500 
 23 H        3.2540    -1.3460    -0.8080 H     1 <1>   0.0800 
 24 H        4.0610    -0.0290     0.0060 H     1 <1>   0.0800 
 25 H        3.0450     0.2920    -1.3790 H     1 <1>   0.0800 
 26 H       -1.9450    -2.2170     0.8760 H     1 <1>   0.0800 
 27 H       -1.1750    -1.7740    -0.6510 H     1 <1>   0.0800 
 28 H        0.5150    -4.9560    -0.4110 H     1 <1>   0.0800 
 29 H        0.1260    -5.1520     1.2900 H     1 <1>   0.0800 
 30 H       -1.9000    -3.7010    -1.7170 H     1 <1>   0.0800 
 31 H       -2.1450    -5.1640     0.9130 H     1 <1>   0.0800 
 32 H       -3.7310    -3.6530     0.4460 H     1 <1>   0.4000 
 33 H       -1.2120    -6.0710    -1.8310 H     1 <1>   0.0800 
 34 H       -2.7800    -6.3790    -1.1550 H     1 <1>   0.0800 
 35 H        0.7310    -7.4500    -1.1260 H     1 <1>   0.1500 
 36 H       -2.9810    -7.8880     0.9050 H     1 <1>   0.1500 
 37 H        1.5040    -9.4370     0.0380 H     1 <1>   0.1500 
 38 H       -2.0580    -9.8610     1.9860 H     1 <1>   0.1500 
@<TRIPOS>BOND
  1   1   2  1   
  2   1   3  1   
  3   2   4  2   
  4   2   5  1   
  5   3   6  2   
  6   3  22  1   
  7   4   6  1   
  8   4   7  1   
  9   5   8  2   
 10   5   9  am  
 11   7  23  1   
 12   7  24  1   
 13   7  25  1   
 14   9  10  1   
 15   9  11  1   
 16  10  12  1   
 17  10  26  1   
 18  10  27  1   
 19  11  13  1   
 20  11  28  1   
 21  11  29  1   
 22  12  13  1   
 23  12  14  1   
 24  12  30  1   
 25  13  15  1   
 26  13  31  1   
 27  14  32  1   
 28  15  16  1   
 29  15  33  1   
 30  15  34  1   
 31  16  17  ar  
 32  16  18  ar  
 33  17  19  ar  
 34  17  35  1   
 35  18  20  ar  
 36  18  36  1   
 37  19  21  ar  
 38  19  37  1   
 39  20  21  ar  
 40  20  38  1   
@<TRIPOS>SUBSTRUCTURE
  1 ****  11 GROUP 4 **** **** 0

# MOE 2024.06 (io_trps.svl 2023.06)
