@<TRIPOS>MOLECULE
NONAME
43 44 1 0 0 
SMALL
USER_CHARGES


@<TRIPOS>ATOM
  1 F        0.1920    -0.8840     2.4330 F     1 <1>  -0.3400 
  2 C        0.2270    -2.0340     1.7710 C.3   1 <1>   1.0200 
  3 F        1.3700    -2.0300     1.0910 F     1 <1>  -0.3400 
  4 F        0.3420    -2.9890     2.6840 F     1 <1>  -0.3400 
  5 C       -1.0040    -2.1950     0.8460 C.3   1 <1>   0.1400 
  6 N       -1.1070    -3.4890     0.0640 N.am  1 <1>  -0.6600 
  7 C       -1.8160    -4.5510     0.5820 C.2   1 <1>   0.5690 
  8 C       -0.3110    -3.5580    -1.1960 C.3   1 <1>   0.0600 
  9 O       -2.3370    -4.4560     1.6710 O.2   1 <1>  -0.5700 
 10 C       -1.9570    -5.8660    -0.2040 C.3   1 <1>   0.2610 
 11 O       -0.8300    -6.6910     0.0210 O.3   1 <1>  -0.5600 
 12 C       -3.2860    -6.6010     0.1220 C.3   1 <1>   0.3640 
 13 C       -0.8110    -7.8650    -0.7510 C.3   1 <1>   0.1810 
 14 N       -3.2660    -8.0520    -0.2650 N.am  1 <1>  -0.6600 
 15 C       -4.4590    -5.9100    -0.5960 C.ar  1 <1>  -0.1440 
 16 C       -2.1090    -8.6680    -0.6630 C.2   1 <1>   0.5690 
 17 C       -4.5410    -8.8040    -0.0780 C.3   1 <1>   0.0600 
 18 C       -5.4950    -5.2690     0.0850 C.ar  1 <1>  -0.1440 
 19 C       -4.4880    -5.9370    -1.9870 C.ar  1 <1>  -0.1500 
 20 O       -2.0730    -9.8350    -0.9780 O.2   1 <1>  -0.5700 
 21 C       -6.5090    -4.6520    -0.6340 C.ar  1 <1>  -0.1500 
 22 C       -5.5790    -5.2180     1.6060 C.3   1 <1>  -0.0970 
 23 C       -5.5050    -5.3240    -2.6950 C.ar  1 <1>  -0.1500 
 24 C       -6.5160    -4.6760    -2.0160 C.ar  1 <1>  -0.1500 
 25 H       -1.0070    -1.3730     0.1550 H     1 <1>   0.0800 
 26 H       -1.8780    -2.0860     1.4620 H     1 <1>   0.0800 
 27 H        0.4580    -2.8060    -1.2020 H     1 <1>   0.0800 
 28 H       -0.9570    -3.4000    -2.0430 H     1 <1>   0.0800 
 29 H        0.1640    -4.5210    -1.2850 H     1 <1>   0.0800 
 30 H       -1.9590    -5.6210    -1.2480 H     1 <1>   0.0800 
 31 H       -3.4270    -6.5670     1.1860 H     1 <1>   0.0800 
 32 H       -0.6230    -7.5990    -1.7740 H     1 <1>   0.0800 
 33 H        0.0030    -8.4720    -0.3970 H     1 <1>   0.0800 
 34 H       -4.9380    -8.6140     0.9030 H     1 <1>   0.0800 
 35 H       -4.3790    -9.8630    -0.1840 H     1 <1>   0.0800 
 36 H       -5.2610    -8.4930    -0.8160 H     1 <1>   0.0800 
 37 H       -3.7180    -6.4510    -2.5350 H     1 <1>   0.1500 
 38 H       -7.3080    -4.1470    -0.1200 H     1 <1>   0.1500 
 39 H       -6.5420    -4.8630     1.9260 H     1 <1>   0.0800 
 40 H       -4.8350    -4.5500     1.9990 H     1 <1>   0.0800 
 41 H       -5.4370    -6.1950     2.0290 H     1 <1>   0.0800 
 42 H       -5.5120    -5.3550    -3.7700 H     1 <1>   0.1500 
 43 H       -7.3100    -4.1940    -2.5590 H     1 <1>   0.1500 
@<TRIPOS>BOND
  1   1   2  1   
  2   2   3  1   
  3   2   4  1   
  4   2   5  1   
  5   5   6  1   
  6   5  25  1   
  7   5  26  1   
  8   6   7  am  
  9   6   8  1   
 10   7   9  2   
 11   7  10  1   
 12   8  27  1   
 13   8  28  1   
 14   8  29  1   
 15  10  11  1   
 16  10  12  1   
 17  10  30  1   
 18  11  13  1   
 19  12  14  1   
 20  12  15  1   
 21  12  31  1   
 22  13  16  1   
 23  13  32  1   
 24  13  33  1   
 25  14  16  am  
 26  14  17  1   
 27  15  18  ar  
 28  15  19  ar  
 29  16  20  2   
 30  17  34  1   
 31  17  35  1   
 32  17  36  1   
 33  18  21  ar  
 34  18  22  1   
 35  19  23  ar  
 36  19  37  1   
 37  21  24  ar  
 38  21  38  1   
 39  22  39  1   
 40  22  40  1   
 41  22  41  1   
 42  23  24  ar  
 43  23  42  1   
 44  24  43  1   
@<TRIPOS>SUBSTRUCTURE
  1 ****  10 GROUP 4 **** **** 0

# MOE 2024.06 (io_trps.svl 2023.06)
