@<TRIPOS>MOLECULE
NONAME
58 60 1 0 0 
SMALL
USER_CHARGES


@<TRIPOS>ATOM
  1 N       -0.5290     0.1650     0.4270 N.ar  1 <1>  -0.6200 
  2 C       -1.3590     0.9040    -0.2790 C.ar  1 <1>   0.4100 
  3 C        0.4660     0.8060     1.0040 C.ar  1 <1>   0.4760 
  4 N       -2.4060     0.2500    -0.8870 N.pl3 1 <1>  -0.8690 
  5 C       -1.1940     2.2800    -0.3970 C.ar  1 <1>  -0.1430 
  6 N        0.7280     2.0960     0.9640 N.ar  1 <1>  -0.6200 
  7 C        1.4280    -0.0290     1.8150 C.3   1 <1>  -0.0970 
  8 C       -2.5190    -1.2410    -0.9840 C.3   1 <1>   0.2090 
  9 C       -0.1140     2.8210     0.2580 C.ar  1 <1>   0.1600 
 10 C       -2.1850     3.1120    -1.2190 C.3   1 <1>  -0.0170 
 11 C       -3.5290    -1.9130     0.0090 C.3   1 <1>   0.5030 
 12 C       -1.9320     4.6270    -1.2180 C.3   1 <1>  -0.1600 
 13 N       -3.3910    -3.4180    -0.0760 N.4   1 <1>  -0.9590 
 14 C       -4.9780    -1.4820    -0.2820 C.3   1 <1>  -0.1600 
 15 C       -3.3270    -1.4680     1.4720 C.3   1 <1>  -0.1600 
 16 C       -2.9850     5.3690    -2.0480 C.3   1 <1>  -0.2400 
 17 C       -3.5330    -4.0180    -1.4510 C.3   1 <1>   0.3430 
 18 C       -4.1640    -4.2510     0.9100 C.3   1 <1>   0.3430 
 19 C       -5.7520    -1.5200     1.0410 C.3   1 <1>  -0.1600 
 20 C       -4.7050    -1.4030     2.1520 C.3   1 <1>  -0.1600 
 21 C       -3.1420    -5.5160    -1.4630 C.3   1 <1>   0.1100 
 22 C       -3.6900    -5.7250     0.8940 C.3   1 <1>   0.1100 
 23 N       -2.6610    -5.9730    -0.1420 N.3   1 <1>  -0.8100 
 24 C       -2.2660    -7.3880    -0.1730 C.3   1 <1>   0.0300 
 25 H       -2.9570     0.7950    -1.5540 H     1 <1>   0.4000 
 26 H        1.2110    -1.0750     1.7040 H     1 <1>   0.0800 
 27 H        1.3460     0.2400     2.8510 H     1 <1>   0.0800 
 28 H        2.4320     0.1570     1.4820 H     1 <1>   0.0800 
 29 H       -1.5480    -1.6770    -0.8290 H     1 <1>   0.0800 
 30 H       -2.8130    -1.4680    -1.9920 H     1 <1>   0.0800 
 31 H        0.0890     3.8760     0.2180 H     1 <1>   0.1500 
 32 H       -3.1750     2.9350    -0.8330 H     1 <1>   0.0800 
 33 H       -2.1590     2.7620    -2.2360 H     1 <1>   0.0800 
 34 H       -0.9580     4.8320    -1.6310 H     1 <1>   0.0800 
 35 H       -1.9610     4.9980    -0.2080 H     1 <1>   0.0800 
 36 H       -2.4170    -3.6460     0.1760 H     1 <1>   0.4500 
 37 H       -5.4540    -2.0660    -1.0480 H     1 <1>   0.0800 
 38 H       -4.9720    -0.4570    -0.6100 H     1 <1>   0.0800 
 39 H       -2.9360    -0.4680     1.4990 H     1 <1>   0.0800 
 40 H       -2.6280    -2.0880     2.0030 H     1 <1>   0.0800 
 41 H       -2.9660     5.0340    -3.0710 H     1 <1>   0.0800 
 42 H       -2.7860     6.4260    -2.0330 H     1 <1>   0.0800 
 43 H       -3.9690     5.2040    -1.6470 H     1 <1>   0.0800 
 44 H       -2.8950    -3.5030    -2.1490 H     1 <1>   0.0800 
 45 H       -4.5470    -3.9160    -1.7970 H     1 <1>   0.0800 
 46 H       -5.2140    -4.2150     0.6780 H     1 <1>   0.0800 
 47 H       -4.0330    -3.8680     1.9060 H     1 <1>   0.0800 
 48 H       -6.2960    -2.4430     1.1380 H     1 <1>   0.0800 
 49 H       -6.4610    -0.7100     1.0930 H     1 <1>   0.0800 
 50 H       -4.8130    -0.4620     2.6670 H     1 <1>   0.0800 
 51 H       -4.8260    -2.1910     2.8760 H     1 <1>   0.0800 
 52 H       -2.3680    -5.6680    -2.1970 H     1 <1>   0.0800 
 53 H       -3.9940    -6.1030    -1.7660 H     1 <1>   0.0800 
 54 H       -4.5400    -6.3670     0.7320 H     1 <1>   0.0800 
 55 H       -3.2820    -5.9690     1.8610 H     1 <1>   0.0800 
 56 H       -1.4860    -7.5370    -0.9020 H     1 <1>   0.0800 
 57 H       -3.1050    -8.0140    -0.4260 H     1 <1>   0.0800 
 58 H       -1.8850    -7.6850     0.7900 H     1 <1>   0.0800 
@<TRIPOS>BOND
  1   1   2  ar  
  2   1   3  ar  
  3   2   4  1   
  4   2   5  ar  
  5   3   6  ar  
  6   3   7  1   
  7   4   8  1   
  8   4  25  1   
  9   5   9  ar  
 10   5  10  1   
 11   6   9  ar  
 12   7  26  1   
 13   7  27  1   
 14   7  28  1   
 15   8  11  1   
 16   8  29  1   
 17   8  30  1   
 18   9  31  1   
 19  10  12  1   
 20  10  32  1   
 21  10  33  1   
 22  11  13  1   
 23  11  14  1   
 24  11  15  1   
 25  12  16  1   
 26  12  34  1   
 27  12  35  1   
 28  13  17  1   
 29  13  18  1   
 30  13  36  1   
 31  14  19  1   
 32  14  37  1   
 33  14  38  1   
 34  15  20  1   
 35  15  39  1   
 36  15  40  1   
 37  16  41  1   
 38  16  42  1   
 39  16  43  1   
 40  17  21  1   
 41  17  44  1   
 42  17  45  1   
 43  18  22  1   
 44  18  46  1   
 45  18  47  1   
 46  19  20  1   
 47  19  48  1   
 48  19  49  1   
 49  20  50  1   
 50  20  51  1   
 51  21  23  1   
 52  21  52  1   
 53  21  53  1   
 54  22  23  1   
 55  22  54  1   
 56  22  55  1   
 57  23  24  1   
 58  24  56  1   
 59  24  57  1   
 60  24  58  1   
@<TRIPOS>SUBSTRUCTURE
  1 ****   8 GROUP 4 **** **** 0

# MOE 2024.06 (io_trps.svl 2023.06)
