@<TRIPOS>MOLECULE
NONAME
48 50 1 0 0 
SMALL
USER_CHARGES


@<TRIPOS>ATOM
  1 O       -0.9150    -0.1710     0.4990 O.2   1 <1>  -0.5700 
  2 C       -2.0190    -0.6220     0.7510 C.2   1 <1>   0.6900 
  3 N       -2.4470    -1.8700     0.4860 N.am  1 <1>  -0.5390 
  4 N       -3.0200     0.0510     1.3560 N.am  1 <1>  -0.5390 
  5 C       -3.7640    -2.0140     0.9490 C.2   1 <1>   0.1230 
  6 C       -4.0890    -0.8110     1.4890 C.2   1 <1>  -0.0410 
  7 C       -4.5040    -3.2570     0.8350 C.2   1 <1>   0.6160 
  8 O       -3.8840    -4.2990     0.7040 O.2   1 <1>  -0.5700 
  9 N       -5.8860    -3.3200     0.8690 N.am  1 <1>  -0.6600 
 10 C       -6.5550    -4.6160     1.2070 C.3   1 <1>   0.1400 
 11 C       -6.7570    -2.1840     0.4460 C.3   1 <1>   0.1400 
 12 C       -6.7350    -5.5010    -0.0350 C.3   1 <1>   0.1400 
 13 C       -7.9290    -2.5780    -0.4640 C.3   1 <1>  -0.1600 
 14 N       -7.8260    -4.9940    -0.9210 N.am  1 <1>  -0.6600 
 15 C       -7.5970    -3.6490    -1.5090 C.3   1 <1>   0.1400 
 16 C       -9.0290    -5.6550    -1.0850 C.2   1 <1>   0.5440 
 17 O       -9.8900    -5.1530    -1.7870 O.2   1 <1>  -0.5700 
 18 C       -9.2950    -6.9270    -0.4450 C.ar  1 <1>   0.0860 
 19 C       -9.6320    -6.9900     0.9140 C.ar  1 <1>   0.0830 
 20 C       -9.1990    -8.1330    -1.1530 C.ar  1 <1>  -0.1430 
 21 O       -9.7470    -5.8780     1.6690 O.3   1 <1>  -0.3620 
 22 C       -9.8360    -8.2060     1.5450 C.ar  1 <1>  -0.1500 
 23 C       -9.4170    -9.3430    -0.5150 C.ar  1 <1>  -0.1500 
 24 C       -8.8490    -8.1270    -2.6360 C.3   1 <1>  -0.0970 
 25 C      -10.9050    -5.0910     1.4890 C.3   1 <1>   0.0400 
 26 C       -9.7310    -9.3830     0.8320 C.ar  1 <1>  -0.1500 
 27 H       -1.8610    -2.6140     0.1070 H     1 <1>   0.3700 
 28 H       -2.9010     1.0150     1.6670 H     1 <1>   0.3700 
 29 H       -5.0060    -0.5150     1.9700 H     1 <1>   0.1500 
 30 H       -7.5060    -4.4390     1.6770 H     1 <1>   0.0800 
 31 H       -5.9400    -5.1470     1.9140 H     1 <1>   0.0800 
 32 H       -6.1570    -1.4720    -0.0950 H     1 <1>   0.0800 
 33 H       -7.1420    -1.6930     1.3230 H     1 <1>   0.0800 
 34 H       -6.9520    -6.5010     0.2910 H     1 <1>   0.0800 
 35 H       -5.8120    -5.5420    -0.5870 H     1 <1>   0.0800 
 36 H       -8.2470    -1.6920    -0.9820 H     1 <1>   0.0800 
 37 H       -8.7660    -2.9010     0.1290 H     1 <1>   0.0800 
 38 H       -6.5770    -3.5590    -1.8430 H     1 <1>   0.0800 
 39 H       -8.2340    -3.5200    -2.3670 H     1 <1>   0.0800 
 40 H      -10.0780    -8.2230     2.5920 H     1 <1>   0.1500 
 41 H       -9.3420   -10.2670    -1.0620 H     1 <1>   0.1500 
 42 H       -7.8970    -7.6520    -2.7900 H     1 <1>   0.0800 
 43 H       -9.5980    -7.5840    -3.1870 H     1 <1>   0.0800 
 44 H       -8.7980    -9.1260    -3.0290 H     1 <1>   0.0800 
 45 H      -10.9270    -4.3440     2.2610 H     1 <1>   0.0800 
 46 H      -11.7720    -5.7230     1.5610 H     1 <1>   0.0800 
 47 H      -10.8700    -4.6160     0.5250 H     1 <1>   0.0800 
 48 H       -9.8930   -10.3280     1.3200 H     1 <1>   0.1500 
@<TRIPOS>BOND
  1   1   2  2   
  2   2   3  am  
  3   2   4  am  
  4   3   5  1   
  5   3  27  1   
  6   4   6  1   
  7   4  28  1   
  8   5   6  2   
  9   5   7  1   
 10   6  29  1   
 11   7   8  2   
 12   7   9  am  
 13   9  10  1   
 14   9  11  1   
 15  10  12  1   
 16  10  30  1   
 17  10  31  1   
 18  11  13  1   
 19  11  32  1   
 20  11  33  1   
 21  12  14  1   
 22  12  34  1   
 23  12  35  1   
 24  13  15  1   
 25  13  36  1   
 26  13  37  1   
 27  14  15  1   
 28  14  16  am  
 29  15  38  1   
 30  15  39  1   
 31  16  17  2   
 32  16  18  1   
 33  18  19  ar  
 34  18  20  ar  
 35  19  21  1   
 36  19  22  ar  
 37  20  23  ar  
 38  20  24  1   
 39  21  25  1   
 40  22  26  ar  
 41  22  40  1   
 42  23  26  ar  
 43  23  41  1   
 44  24  42  1   
 45  24  43  1   
 46  24  44  1   
 47  25  45  1   
 48  25  46  1   
 49  25  47  1   
 50  26  48  1   
@<TRIPOS>SUBSTRUCTURE
  1 ****  12 GROUP 4 **** **** 0

# MOE 2024.06 (io_trps.svl 2023.06)
