@<TRIPOS>MOLECULE
NONAME
42 44 1 0 0 
SMALL
USER_CHARGES


@<TRIPOS>ATOM
  1 S        0.1720     0.7370    -0.0370 S.3   1 <1>  -0.2420 
  2 C        1.6840    -0.1480    -0.2350 C.2   1 <1>   0.6410 
  3 C       -0.6960    -0.7510     0.3970 C.2   1 <1>  -0.0490 
  4 N        2.7890     0.4070    -0.5720 N.2   1 <1>  -0.6610 
  5 N        1.4760    -1.4940     0.0270 N.pl3 1 <1>  -0.1080 
  6 C        0.1410    -1.8050     0.3780 C.2   1 <1>   0.2090 
  7 C        3.8230    -0.4860    -0.6610 C.2   1 <1>   0.7810 
  8 N        2.4920    -2.4170    -0.0530 N.2   1 <1>  -0.4920 
  9 N       -0.1410    -3.1490     0.6560 N.am  1 <1>  -0.5390 
 10 O        4.9190    -0.0380    -0.9790 O.2   1 <1>  -0.5700 
 11 C        3.6310    -1.9000    -0.3920 C.2   1 <1>   0.3890 
 12 C       -1.3230    -3.7250     1.0100 C.2   1 <1>   0.5690 
 13 C        4.8210    -2.8410    -0.5090 C.3   1 <1>  -0.1790 
 14 O       -2.3460    -3.0990     1.1370 O.2   1 <1>  -0.5700 
 15 C       -1.3400    -5.2220     1.2520 C.3   1 <1>  -0.0990 
 16 C       -1.2840    -6.0170    -0.0650 C.3   1 <1>  -0.1600 
 17 C       -1.4170    -7.5390     0.1310 C.3   1 <1>  -0.0800 
 18 C       -0.2250    -8.1340     0.9060 C.3   1 <1>  -0.1600 
 19 C       -1.5560    -8.2260    -1.2390 C.3   1 <1>  -0.1600 
 20 C       -0.3370    -9.6590     1.0370 C.3   1 <1>  -0.1600 
 21 C       -1.6750    -9.7500    -1.1030 C.3   1 <1>  -0.1600 
 22 C       -0.4830   -10.3290    -0.3340 C.3   1 <1>  -0.1600 
 23 H       -1.7450    -0.6690     0.6190 H     1 <1>   0.1500 
 24 H        0.6710    -3.7610     0.5630 H     1 <1>   0.3700 
 25 H        5.5930    -2.5390     0.1760 H     1 <1>   0.0800 
 26 H        5.2150    -2.8080    -1.5090 H     1 <1>   0.0800 
 27 H        4.5340    -3.8520    -0.2830 H     1 <1>   0.0800 
 28 H       -2.2430    -5.4690     1.7810 H     1 <1>   0.0800 
 29 H       -0.5090    -5.4710     1.8840 H     1 <1>   0.0800 
 30 H       -0.3650    -5.8010    -0.5830 H     1 <1>   0.0800 
 31 H       -2.0940    -5.6790    -0.6900 H     1 <1>   0.0800 
 32 H       -2.3180    -7.7340     0.6910 H     1 <1>   0.0800 
 33 H       -0.1760    -7.7160     1.8950 H     1 <1>   0.0800 
 34 H        0.6920    -7.8930     0.3970 H     1 <1>   0.0800 
 35 H       -0.6980    -7.9950    -1.8470 H     1 <1>   0.0800 
 36 H       -2.4290    -7.8520    -1.7460 H     1 <1>   0.0800 
 37 H       -1.1940    -9.9020     1.6430 H     1 <1>   0.0800 
 38 H        0.5360   -10.0440     1.5340 H     1 <1>   0.0800 
 39 H       -1.7250   -10.1960    -2.0810 H     1 <1>   0.0800 
 40 H       -2.5870    -9.9910    -0.5840 H     1 <1>   0.0800 
 41 H       -0.6170   -11.3890    -0.2060 H     1 <1>   0.0800 
 42 H        0.4180   -10.1760    -0.9040 H     1 <1>   0.0800 
@<TRIPOS>BOND
  1   1   2  1   
  2   1   3  1   
  3   2   4  2   
  4   2   5  1   
  5   3   6  2   
  6   3  23  1   
  7   4   7  1   
  8   5   6  1   
  9   5   8  1   
 10   6   9  1   
 11   7  10  2   
 12   7  11  1   
 13   8  11  2   
 14   9  12  am  
 15   9  24  1   
 16  11  13  1   
 17  12  14  2   
 18  12  15  1   
 19  13  25  1   
 20  13  26  1   
 21  13  27  1   
 22  15  16  1   
 23  15  28  1   
 24  15  29  1   
 25  16  17  1   
 26  16  30  1   
 27  16  31  1   
 28  17  18  1   
 29  17  19  1   
 30  17  32  1   
 31  18  20  1   
 32  18  33  1   
 33  18  34  1   
 34  19  21  1   
 35  19  35  1   
 36  19  36  1   
 37  20  22  1   
 38  20  37  1   
 39  20  38  1   
 40  21  22  1   
 41  21  39  1   
 42  21  40  1   
 43  22  41  1   
 44  22  42  1   
@<TRIPOS>SUBSTRUCTURE
  1 ****   9 GROUP 4 **** **** 0

# MOE 2024.06 (io_trps.svl 2023.06)
