@<TRIPOS>MOLECULE
NONAME
64 67 1 0 0 
SMALL
USER_CHARGES


@<TRIPOS>ATOM
  1 S       -1.6930     0.3480    -0.3640 S.o2  1 <1>   1.0900 
  2 O       -1.8320    -1.0650    -0.1180 O.2   1 <1>  -0.6500 
  3 O       -2.6400     1.0920    -1.1580 O.2   1 <1>  -0.6500 
  4 C       -0.0640     0.6680    -1.0230 C.3   1 <1>  -0.0550 
  5 C       -1.5090     1.1970     1.1960 C.3   1 <1>  -0.0550 
  6 C        0.2590     2.1740    -1.0940 C.3   1 <1>  -0.1600 
  7 C       -1.1170     2.6780     1.0200 C.3   1 <1>  -0.1600 
  8 C        0.2180     2.9120     0.2680 C.3   1 <1>   0.4230 
  9 N        0.4190     4.3890     0.0470 N.4   1 <1>  -0.9590 
 10 C        1.6780     4.7090    -0.7080 C.3   1 <1>   0.3430 
 11 C        0.3600     5.1920     1.3160 C.3   1 <1>   0.3430 
 12 C        1.7430     6.1960    -1.0430 C.3   1 <1>  -0.1600 
 13 C        0.4050     6.6870     1.0120 C.3   1 <1>  -0.1600 
 14 C        1.6530     7.0470     0.2170 C.3   1 <1>   0.2890 
 15 N        1.5550     8.4560    -0.1830 N.pl3 1 <1>  -0.8690 
 16 C        2.3300     9.5200     0.0830 C.ar  1 <1>   0.4100 
 17 N        1.9170    10.6290    -0.4820 N.ar  1 <1>  -0.6200 
 18 C        3.4810     9.4760     0.8900 C.ar  1 <1>  -0.1500 
 19 C        2.6140    11.7400    -0.2780 C.ar  1 <1>   0.7710 
 20 C        4.1870    10.6170     1.0840 C.ar  1 <1>   0.2170 
 21 N        3.7250    11.7390     0.4810 N.ar  1 <1>  -0.1790 
 22 N        2.2040    12.9030    -0.8520 N.pl3 1 <1>  -0.8380 
 23 C        5.4530    10.6970     1.9290 C.3   1 <1>  -0.0170 
 24 C        2.7500    14.2870    -0.6160 C.3   1 <1>   0.2090 
 25 C        1.0620    12.9450    -1.8420 C.3   1 <1>   0.2090 
 26 C        6.6840    11.0600     1.0890 C.3   1 <1>  -0.2400 
 27 C        1.6200    15.2840    -0.2940 C.3   1 <1>   0.1200 
 28 C        0.0280    14.0190    -1.4590 C.3   1 <1>   0.1200 
 29 O        0.6490    15.2620    -1.2950 O.3   1 <1>  -0.5600 
 30 H       -0.0040     0.2510    -2.0120 H     1 <1>   0.0800 
 31 H        0.6720     0.1670    -0.4220 H     1 <1>   0.0800 
 32 H       -0.7700     0.6950     1.7940 H     1 <1>   0.0800 
 33 H       -2.4400     1.1430     1.7300 H     1 <1>   0.0800 
 34 H       -0.4440     2.6320    -1.7700 H     1 <1>   0.0800 
 35 H        1.2400     2.2450    -1.5260 H     1 <1>   0.0800 
 36 H       -1.0630     3.0880     2.0110 H     1 <1>   0.0800 
 37 H       -1.9170     3.1710     0.4920 H     1 <1>   0.0800 
 38 H        1.0220     2.5350     0.8820 H     1 <1>   0.0800 
 39 H       -0.3690     4.7010    -0.5400 H     1 <1>   0.4500 
 40 H        1.7140     4.1600    -1.6340 H     1 <1>   0.0800 
 41 H        2.5380     4.4320    -0.1190 H     1 <1>   0.0800 
 42 H        1.1870     4.9270     1.9560 H     1 <1>   0.0800 
 43 H       -0.5550     4.9900     1.8490 H     1 <1>   0.0800 
 44 H        0.9440     6.4410    -1.7210 H     1 <1>   0.0800 
 45 H        2.6750     6.4010    -1.5410 H     1 <1>   0.0800 
 46 H        0.4080     7.2310     1.9400 H     1 <1>   0.0800 
 47 H       -0.4810     6.9640     0.4680 H     1 <1>   0.0800 
 48 H        2.5280     6.8860     0.8240 H     1 <1>   0.0800 
 49 H        0.7530     8.6740    -0.7860 H     1 <1>   0.4000 
 50 H        3.7830     8.5490     1.3340 H     1 <1>   0.1500 
 51 H        4.2170    12.6190     0.5500 H     1 <1>   0.4570 
 52 H        5.6290     9.7460     2.4020 H     1 <1>   0.0800 
 53 H        5.3220    11.4230     2.7140 H     1 <1>   0.0800 
 54 H        3.2570    14.6250    -1.5050 H     1 <1>   0.0800 
 55 H        3.4530    14.3040     0.1950 H     1 <1>   0.0800 
 56 H        0.5540    12.0000    -1.9160 H     1 <1>   0.0800 
 57 H        1.4500    13.1760    -2.8190 H     1 <1>   0.0800 
 58 H        6.8300    10.3410     0.3010 H     1 <1>   0.0800 
 59 H        7.5640    11.0530     1.7120 H     1 <1>   0.0800 
 60 H        6.5940    12.0390     0.6530 H     1 <1>   0.0800 
 61 H        2.0090    16.2860    -0.2420 H     1 <1>   0.0800 
 62 H        1.1510    15.0470     0.6460 H     1 <1>   0.0800 
 63 H       -0.4740    13.7570    -0.5450 H     1 <1>   0.0800 
 64 H       -0.7060    14.1210    -2.2390 H     1 <1>   0.0800 
@<TRIPOS>BOND
  1   1   2  2   
  2   1   3  2   
  3   1   4  1   
  4   1   5  1   
  5   4   6  1   
  6   4  30  1   
  7   4  31  1   
  8   5   7  1   
  9   5  32  1   
 10   5  33  1   
 11   6   8  1   
 12   6  34  1   
 13   6  35  1   
 14   7   8  1   
 15   7  36  1   
 16   7  37  1   
 17   8   9  1   
 18   8  38  1   
 19   9  10  1   
 20   9  11  1   
 21   9  39  1   
 22  10  12  1   
 23  10  40  1   
 24  10  41  1   
 25  11  13  1   
 26  11  42  1   
 27  11  43  1   
 28  12  14  1   
 29  12  44  1   
 30  12  45  1   
 31  13  14  1   
 32  13  46  1   
 33  13  47  1   
 34  14  15  1   
 35  14  48  1   
 36  15  16  1   
 37  15  49  1   
 38  16  17  ar  
 39  16  18  ar  
 40  17  19  ar  
 41  18  20  ar  
 42  18  50  1   
 43  19  21  ar  
 44  19  22  1   
 45  20  21  ar  
 46  20  23  1   
 47  21  51  1   
 48  22  24  1   
 49  22  25  1   
 50  23  26  1   
 51  23  52  1   
 52  23  53  1   
 53  24  27  1   
 54  24  54  1   
 55  24  55  1   
 56  25  28  1   
 57  25  56  1   
 58  25  57  1   
 59  26  58  1   
 60  26  59  1   
 61  26  60  1   
 62  27  29  1   
 63  27  61  1   
 64  27  62  1   
 65  28  29  1   
 66  28  63  1   
 67  28  64  1   
@<TRIPOS>SUBSTRUCTURE
  1 ****  14 GROUP 4 **** **** 0

# MOE 2024.06 (io_trps.svl 2023.06)
