@<TRIPOS>MOLECULE
NONAME
56 58 1 0 0 
SMALL
USER_CHARGES


@<TRIPOS>ATOM
  1 O       -0.2800     0.2700     0.0650 O.2   1 <1>  -0.5700 
  2 C       -1.3490     0.8090    -0.0960 C.2   1 <1>   0.5690 
  3 N       -2.4880     0.0800    -0.2970 N.am  1 <1>  -0.6600 
  4 C       -1.4350     2.3320    -0.0690 C.3   1 <1>  -0.0990 
  5 C       -3.8660     0.6110    -0.4400 C.3   1 <1>   0.1400 
  6 C       -2.4930    -1.4020    -0.3250 C.3   1 <1>   0.1400 
  7 C       -0.0740     3.0490     0.0200 C.3   1 <1>  -0.1600 
  8 C       -4.7590    -0.6260    -0.5660 C.3   1 <1>   0.2000 
  9 C       -3.9400    -1.7950    -0.0220 C.3   1 <1>  -0.0800 
 10 C       -0.2360     4.5740     0.0330 C.3   1 <1>  -0.0160 
 11 O       -5.9260    -0.4860     0.1690 O.3   1 <1>  -0.6800 
 12 C       -4.3680    -3.1450    -0.6230 C.3   1 <1>  -0.0170 
 13 C        1.1170     5.2600     0.1130 C.ar  1 <1>  -0.1440 
 14 C       -3.5640    -4.3010    -0.0490 C.ar  1 <1>   0.1670 
 15 C        1.6840     5.5550     1.3420 C.ar  1 <1>  -0.1500 
 16 C        1.8010     5.6000    -1.0420 C.ar  1 <1>  -0.1500 
 17 N       -2.3860    -4.5340    -0.6040 N.ar  1 <1>  -0.6200 
 18 C       -4.0770    -5.0490     1.0100 C.ar  1 <1>   0.1600 
 19 C        2.9140     6.1850     1.4140 C.ar  1 <1>  -0.1500 
 20 C        3.0310     6.2300    -0.9690 C.ar  1 <1>  -0.1500 
 21 C       -1.7590    -5.5490    -0.0340 C.ar  1 <1>   0.1600 
 22 N       -3.4530    -6.0660     1.5810 N.ar  1 <1>  -0.6200 
 23 C        3.6010     6.5300     0.2600 C.ar  1 <1>  -0.1440 
 24 C       -2.2750    -6.2900     1.0230 C.ar  1 <1>   0.1600 
 25 C        4.9570     7.2260     0.3590 C.3   1 <1>   0.0630 
 26 C        4.9080     8.6150    -0.2880 C.3   1 <1>  -0.2400 
 27 C        6.0600     6.3710    -0.2730 C.3   1 <1>  -0.2400 
 28 H       -1.9360     2.6540    -0.9630 H     1 <1>   0.0800 
 29 H       -2.0350     2.6130     0.7760 H     1 <1>   0.0800 
 30 H       -4.1220     1.1850     0.4330 H     1 <1>   0.0800 
 31 H       -3.9400     1.2190    -1.3250 H     1 <1>   0.0800 
 32 H       -2.1980    -1.7360    -1.3060 H     1 <1>   0.0800 
 33 H       -1.8100    -1.8080     0.4040 H     1 <1>   0.0800 
 34 H        0.4380     2.7380     0.9160 H     1 <1>   0.0800 
 35 H        0.5370     2.7620    -0.8190 H     1 <1>   0.0800 
 36 H       -5.0240    -0.7780    -1.5990 H     1 <1>   0.0800 
 37 H       -4.0360    -1.8340     1.0490 H     1 <1>   0.0800 
 38 H       -0.8360     4.8700     0.8760 H     1 <1>   0.0800 
 39 H       -0.7450     4.8940    -0.8590 H     1 <1>   0.0800 
 40 H       -5.7210    -0.3760     1.1180 H     1 <1>   0.4000 
 41 H       -4.2420    -3.1290    -1.6910 H     1 <1>   0.0800 
 42 H       -5.4140    -3.3030    -0.4250 H     1 <1>   0.0800 
 43 H        1.1700     5.2930     2.2500 H     1 <1>   0.1500 
 44 H        1.3800     5.3750    -2.0060 H     1 <1>   0.1500 
 45 H       -5.0450    -4.7950     1.4030 H     1 <1>   0.1500 
 46 H        3.3340     6.4030     2.3800 H     1 <1>   0.1500 
 47 H        3.5440     6.4850    -1.8790 H     1 <1>   0.1500 
 48 H       -0.7900    -5.8080    -0.4210 H     1 <1>   0.1500 
 49 H       -1.6890    -7.0990     1.4210 H     1 <1>   0.1500 
 50 H        5.2020     7.3590     1.3990 H     1 <1>   0.0800 
 51 H        4.7140     8.5390    -1.3420 H     1 <1>   0.0800 
 52 H        5.8420     9.1260    -0.1440 H     1 <1>   0.0800 
 53 H        4.1240     9.1980     0.1630 H     1 <1>   0.0800 
 54 H        5.8900     6.2450    -1.3270 H     1 <1>   0.0800 
 55 H        6.0760     5.4000     0.1890 H     1 <1>   0.0800 
 56 H        7.0190     6.8340    -0.1310 H     1 <1>   0.0800 
@<TRIPOS>BOND
  1   1   2  2   
  2   2   3  am  
  3   2   4  1   
  4   3   5  1   
  5   3   6  1   
  6   4   7  1   
  7   4  28  1   
  8   4  29  1   
  9   5   8  1   
 10   5  30  1   
 11   5  31  1   
 12   6   9  1   
 13   6  32  1   
 14   6  33  1   
 15   7  10  1   
 16   7  34  1   
 17   7  35  1   
 18   8   9  1   
 19   8  11  1   
 20   8  36  1   
 21   9  12  1   
 22   9  37  1   
 23  10  13  1   
 24  10  38  1   
 25  10  39  1   
 26  11  40  1   
 27  12  14  1   
 28  12  41  1   
 29  12  42  1   
 30  13  15  ar  
 31  13  16  ar  
 32  14  17  ar  
 33  14  18  ar  
 34  15  19  ar  
 35  15  43  1   
 36  16  20  ar  
 37  16  44  1   
 38  17  21  ar  
 39  18  22  ar  
 40  18  45  1   
 41  19  23  ar  
 42  19  46  1   
 43  20  23  ar  
 44  20  47  1   
 45  21  24  ar  
 46  21  48  1   
 47  22  24  ar  
 48  23  25  1   
 49  24  49  1   
 50  25  26  1   
 51  25  27  1   
 52  25  50  1   
 53  26  51  1   
 54  26  52  1   
 55  26  53  1   
 56  27  54  1   
 57  27  55  1   
 58  27  56  1   
@<TRIPOS>SUBSTRUCTURE
  1 ****   2 GROUP 4 **** **** 0

# MOE 2024.06 (io_trps.svl 2023.06)
