@<TRIPOS>MOLECULE
NONAME
54 57 1 0 0 
SMALL
USER_CHARGES


@<TRIPOS>ATOM
  1 S       -0.9500     1.0620     1.5520 S.o2  1 <1>   1.4470 
  2 O       -0.8990    -0.1620     2.3250 O.2   1 <1>  -0.6500 
  3 O       -1.6730     2.1990     2.0780 O.2   1 <1>  -0.6500 
  4 N       -1.6200     0.6930     0.0350 N.am  1 <1>  -0.8490 
  5 C        0.7350     1.5820     1.1240 C.ar  1 <1>  -0.0090 
  6 C       -3.0780     0.5920     0.0570 C.3   1 <1>   0.1960 
  7 C       -1.1560    -0.5810    -0.5130 C.3   1 <1>   0.1960 
  8 C        0.9770     2.4930     0.1260 C.ar  1 <1>  -0.1500 
  9 C        1.8430     1.0600     1.8160 C.ar  1 <1>  -0.1500 
 10 C       -3.3880    -0.8570     0.4390 C.3   1 <1>  -0.0800 
 11 C       -2.2280    -1.6370    -0.2050 C.3   1 <1>  -0.0800 
 12 C        2.2760     2.9060    -0.2270 C.ar  1 <1>   0.0000 
 13 C        3.1190     1.4390     1.5030 C.ar  1 <1>  -0.1500 
 14 C       -4.8160    -1.3780     0.1130 C.3   1 <1>   0.2800 
 15 C       -2.6550    -2.3940    -1.4750 C.3   1 <1>  -0.1600 
 16 C        3.3750     2.3680     0.4750 C.ar  1 <1>   0.0000 
 17 C        2.5220     3.8370    -1.2560 C.ar  1 <1>  -0.1500 
 18 O       -5.2650    -0.8160    -1.0670 O.3   1 <1>  -0.6800 
 19 C       -4.7690    -2.9040    -0.0940 C.3   1 <1>  -0.1600 
 20 C       -5.8580    -1.0420     1.2050 C.3   1 <1>  -0.1600 
 21 C       -3.8140    -3.3690    -1.2110 C.3   1 <1>  -0.1600 
 22 C        4.6770     2.7760     0.1250 C.ar  1 <1>  -0.1500 
 23 C        3.7950     4.2170    -1.5760 C.ar  1 <1>  -0.1500 
 24 C       -6.0800     0.4510     1.5030 C.3   1 <1>  -0.2400 
 25 C        4.8910     3.6860    -0.8840 C.ar  1 <1>   0.0830 
 26 O        6.1100     4.1250    -1.2770 O.3   1 <1>  -0.3620 
 27 C        7.2920     3.6700    -0.6560 C.3   1 <1>   0.0400 
 28 H       -3.5210     1.3050     0.7290 H     1 <1>   0.0800 
 29 H       -3.4400     0.7980    -0.9360 H     1 <1>   0.0800 
 30 H       -1.0490    -0.4670    -1.5790 H     1 <1>   0.0800 
 31 H       -0.1990    -0.8660    -0.1100 H     1 <1>   0.0800 
 32 H        0.1470     2.9130    -0.4160 H     1 <1>   0.1500 
 33 H        1.6660     0.3480     2.6060 H     1 <1>   0.1500 
 34 H       -3.2600    -0.9410     1.5040 H     1 <1>   0.0800 
 35 H       -1.8350    -2.3450     0.5050 H     1 <1>   0.0800 
 36 H        3.9540     1.0300     2.0420 H     1 <1>   0.1500 
 37 H       -2.9770    -1.6750    -2.2110 H     1 <1>   0.0800 
 38 H       -1.8190    -2.9290    -1.8900 H     1 <1>   0.0800 
 39 H        1.6830     4.2470    -1.7890 H     1 <1>   0.1500 
 40 H       -6.1360    -1.1900    -1.2890 H     1 <1>   0.4000 
 41 H       -4.4340    -3.3440     0.8300 H     1 <1>   0.0800 
 42 H       -5.7560    -3.2900    -0.2800 H     1 <1>   0.0800 
 43 H       -6.8020    -1.4730     0.9230 H     1 <1>   0.0800 
 44 H       -5.5620    -1.5220     2.1210 H     1 <1>   0.0800 
 45 H       -3.4180    -4.3340    -0.9450 H     1 <1>   0.0800 
 46 H       -4.3670    -3.4900    -2.1270 H     1 <1>   0.0800 
 47 H        5.4920     2.3510     0.6760 H     1 <1>   0.1500 
 48 H        3.9860     4.9270    -2.3610 H     1 <1>   0.1500 
 49 H       -6.2600     1.0030     0.5970 H     1 <1>   0.0800 
 50 H       -5.2290     0.8700     2.0080 H     1 <1>   0.0800 
 51 H       -6.9330     0.5690     2.1460 H     1 <1>   0.0800 
 52 H        8.1260     4.1540    -1.1310 H     1 <1>   0.0800 
 53 H        7.3660     2.6050    -0.7850 H     1 <1>   0.0800 
 54 H        7.2620     3.9330     0.3860 H     1 <1>   0.0800 
@<TRIPOS>BOND
  1   1   2  2   
  2   1   3  2   
  3   1   4  am  
  4   1   5  1   
  5   4   6  1   
  6   4   7  1   
  7   5   8  ar  
  8   5   9  ar  
  9   6  10  1   
 10   6  28  1   
 11   6  29  1   
 12   7  11  1   
 13   7  30  1   
 14   7  31  1   
 15   8  12  ar  
 16   8  32  1   
 17   9  13  ar  
 18   9  33  1   
 19  10  11  1   
 20  10  14  1   
 21  10  34  1   
 22  11  15  1   
 23  11  35  1   
 24  12  16  ar  
 25  12  17  ar  
 26  13  16  ar  
 27  13  36  1   
 28  14  18  1   
 29  14  19  1   
 30  14  20  1   
 31  15  21  1   
 32  15  37  1   
 33  15  38  1   
 34  16  22  ar  
 35  17  23  ar  
 36  17  39  1   
 37  18  40  1   
 38  19  21  1   
 39  19  41  1   
 40  19  42  1   
 41  20  24  1   
 42  20  43  1   
 43  20  44  1   
 44  21  45  1   
 45  21  46  1   
 46  22  25  ar  
 47  22  47  1   
 48  23  25  ar  
 49  23  48  1   
 50  24  49  1   
 51  24  50  1   
 52  24  51  1   
 53  25  26  1   
 54  26  27  1   
 55  27  52  1   
 56  27  53  1   
 57  27  54  1   
@<TRIPOS>SUBSTRUCTURE
  1 ****   4 GROUP 4 **** **** 0

# MOE 2024.06 (io_trps.svl 2023.06)
