@<TRIPOS>MOLECULE
NONAME
46 48 1 0 0 
SMALL
USER_CHARGES


@<TRIPOS>ATOM
  1 S       -0.0270    -1.2230     0.6960 S.3   1 <1>  -0.0800 
  2 C       -0.6290    -2.5060    -0.2960 C.2   1 <1>   0.4420 
  3 C       -0.7910    -0.1220    -0.4000 C.2   1 <1>   0.1980 
  4 N       -1.3020    -2.0770    -1.2990 N.2   1 <1>  -0.3380 
  5 N       -0.3060    -3.7930     0.0700 N.am  1 <1>  -0.4940 
  6 N       -1.3910    -0.7140    -1.3530 N.2   1 <1>  -0.3380 
  7 C       -0.6750     1.3640    -0.1260 C.3   1 <1>   0.1640 
  8 C       -0.8280    -4.9940    -0.3060 C.2   1 <1>   0.5690 
  9 C        0.7810     1.8090    -0.1080 C.ar  1 <1>  -0.1440 
 10 O       -0.2090    -5.9880    -0.0110 O.2   1 <1>  -0.5700 
 11 C       -2.1620    -5.1180    -1.0470 C.3   1 <1>   0.2370 
 12 C        1.3840     2.2170     1.0730 C.ar  1 <1>  -0.1500 
 13 C        1.5190     1.8020    -1.2810 C.ar  1 <1>  -0.1500 
 14 N       -3.2800    -4.8640    -0.1020 N.pl3 1 <1>   0.3140 
 15 C       -2.3660    -6.4600    -1.7820 C.3   1 <1>  -0.2400 
 16 C        2.7110     2.6170     1.0870 C.ar  1 <1>  -0.1440 
 17 C        2.8440     2.1990    -1.2730 C.ar  1 <1>  -0.1500 
 18 N       -4.2460    -3.9860    -0.4430 N.2   1 <1>  -0.7070 
 19 C       -3.5410    -5.4070     1.1190 C.2   1 <1>  -0.3320 
 20 C        3.4380     2.6050    -0.0920 C.ar  1 <1>  -0.1500 
 21 C        3.3680     3.0610     2.3810 C.3   1 <1>  -0.0970 
 22 C       -5.0760    -3.9830     0.5460 C.2   1 <1>   0.1080 
 23 C       -4.6910    -4.8530     1.5550 C.2   1 <1>  -0.1500 
 24 C       -2.7080    -6.4450     1.8570 C.3   1 <1>  -0.0600 
 25 C       -6.3130    -3.1160     0.5590 C.3   1 <1>  -0.0590 
 26 H        0.4850    -3.8870     0.7030 H     1 <1>   0.3700 
 27 H       -1.1480     1.5840     0.8130 H     1 <1>   0.0800 
 28 H       -1.2010     1.9040    -0.8930 H     1 <1>   0.0800 
 29 H       -2.2020    -4.3500    -1.7950 H     1 <1>   0.0800 
 30 H        0.8220     2.2230     1.9910 H     1 <1>   0.1500 
 31 H        1.0670     1.4840    -2.2060 H     1 <1>   0.1500 
 32 H       -2.3460    -7.2830    -1.0920 H     1 <1>   0.0800 
 33 H       -1.5820    -6.6020    -2.5030 H     1 <1>   0.0800 
 34 H       -3.3100    -6.4530    -2.2980 H     1 <1>   0.0800 
 35 H        3.4130     2.1920    -2.1860 H     1 <1>   0.1500 
 36 H        4.4690     2.9100    -0.0940 H     1 <1>   0.1500 
 37 H        2.6310     3.4220     3.0760 H     1 <1>   0.0800 
 38 H        4.0700     3.8520     2.1910 H     1 <1>   0.0800 
 39 H        3.8900     2.2330     2.8270 H     1 <1>   0.0800 
 40 H       -5.2190    -5.0280     2.4750 H     1 <1>   0.1500 
 41 H       -2.5180    -7.2980     1.2330 H     1 <1>   0.0800 
 42 H       -3.2330    -6.7800     2.7340 H     1 <1>   0.0800 
 43 H       -1.7710    -6.0220     2.1720 H     1 <1>   0.0800 
 44 H       -6.9490    -3.3910    -0.2620 H     1 <1>   0.0800 
 45 H       -6.0270    -2.0860     0.4470 H     1 <1>   0.0800 
 46 H       -6.8490    -3.2380     1.4810 H     1 <1>   0.0800 
@<TRIPOS>BOND
  1   1   2  1   
  2   1   3  1   
  3   2   4  2   
  4   2   5  1   
  5   3   6  2   
  6   3   7  1   
  7   4   6  1   
  8   5   8  am  
  9   5  26  1   
 10   7   9  1   
 11   7  27  1   
 12   7  28  1   
 13   8  10  2   
 14   8  11  1   
 15   9  12  ar  
 16   9  13  ar  
 17  11  14  1   
 18  11  15  1   
 19  11  29  1   
 20  12  16  ar  
 21  12  30  1   
 22  13  17  ar  
 23  13  31  1   
 24  14  18  1   
 25  14  19  1   
 26  15  32  1   
 27  15  33  1   
 28  15  34  1   
 29  16  20  ar  
 30  16  21  1   
 31  17  20  ar  
 32  17  35  1   
 33  18  22  2   
 34  19  23  2   
 35  19  24  1   
 36  20  36  1   
 37  21  37  1   
 38  21  38  1   
 39  21  39  1   
 40  22  23  1   
 41  22  25  1   
 42  23  40  1   
 43  24  41  1   
 44  24  42  1   
 45  24  43  1   
 46  25  44  1   
 47  25  45  1   
 48  25  46  1   
@<TRIPOS>SUBSTRUCTURE
  1 ****   2 GROUP 4 **** **** 0

# MOE 2024.06 (io_trps.svl 2023.06)
