@<TRIPOS>MOLECULE
NONAME
57 59 1 0 0 
SMALL
USER_CHARGES


@<TRIPOS>ATOM
  1 O        0.1460     0.5700    -0.5300 O.2   1 <1>  -0.5700 
  2 C        0.0570     1.7550    -0.3080 C.2   1 <1>   0.5690 
  3 N       -1.1140     2.3400     0.0940 N.am  1 <1>  -0.6600 
  4 C        1.3020     2.6170    -0.5210 C.3   1 <1>   0.1810 
  5 C       -1.2030     3.8160     0.3600 C.3   1 <1>   0.3640 
  6 C       -2.3360     1.5410     0.4020 C.3   1 <1>   0.0600 
  7 O        1.2500     3.8470     0.1590 O.3   1 <1>  -0.5600 
  8 C       -2.4390     4.3780    -0.3630 C.ar  1 <1>  -0.1430 
  9 C        0.0700     4.5910    -0.0800 C.3   1 <1>   0.2610 
 10 C       -3.4870     5.0150     0.3050 C.ar  1 <1>  -0.1430 
 11 C       -2.5150     4.2350    -1.7450 C.ar  1 <1>  -0.1500 
 12 C        0.1620     5.9770     0.5840 C.2   1 <1>   0.5690 
 13 C       -4.5580     5.5140    -0.4210 C.ar  1 <1>  -0.1500 
 14 C       -3.5200     5.1880     1.8190 C.3   1 <1>  -0.0960 
 15 C       -3.5890     4.7330    -2.4590 C.ar  1 <1>  -0.1500 
 16 O       -0.3350     6.1250     1.6800 O.2   1 <1>  -0.5700 
 17 N        0.7860     7.0300    -0.0510 N.am  1 <1>  -0.6600 
 18 C       -4.6120     5.3780    -1.7950 C.ar  1 <1>  -0.1500 
 19 C        0.7080     8.4140     0.4930 C.3   1 <1>   0.1400 
 20 C        1.6670     6.9030    -1.2470 C.3   1 <1>   0.1400 
 21 C        2.1100     8.9220     0.8450 C.3   1 <1>  -0.1600 
 22 C        3.0740     7.4020    -0.9070 C.3   1 <1>  -0.1600 
 23 C        3.0640     8.8400    -0.3610 C.3   1 <1>  -0.0800 
 24 C        4.4980     9.2760    -0.0030 C.3   1 <1>  -0.1600 
 25 C        4.5920    10.7440     0.4160 C.3   1 <1>   0.1200 
 26 O        5.9360    11.0560     0.5710 O.3   1 <1>  -0.5600 
 27 C        6.1720    12.3710     0.9570 C.3   1 <1>   0.0400 
 28 H        1.4280     2.8110    -1.5700 H     1 <1>   0.0800 
 29 H        2.1640     2.0850    -0.1620 H     1 <1>   0.0800 
 30 H       -1.3060     3.9320     1.4230 H     1 <1>   0.0800 
 31 H       -2.7000     1.7910     1.3830 H     1 <1>   0.0800 
 32 H       -2.1190     0.4870     0.3760 H     1 <1>   0.0800 
 33 H       -3.1030     1.7510    -0.3230 H     1 <1>   0.0800 
 34 H        0.0070     4.7470    -1.1390 H     1 <1>   0.0800 
 35 H       -1.7360     3.7220    -2.2810 H     1 <1>   0.1500 
 36 H       -5.3670     6.0150     0.0820 H     1 <1>   0.1500 
 37 H       -4.4920     5.5070     2.1480 H     1 <1>   0.0800 
 38 H       -2.8080     5.9320     2.1240 H     1 <1>   0.0800 
 39 H       -3.2980     4.2600     2.3140 H     1 <1>   0.0800 
 40 H       -3.6300     4.6150    -3.5280 H     1 <1>   0.1500 
 41 H       -5.4500     5.7710    -2.3440 H     1 <1>   0.1500 
 42 H        0.2630     9.0550    -0.2480 H     1 <1>   0.0800 
 43 H        0.0850     8.4460     1.3710 H     1 <1>   0.0800 
 44 H        1.7370     5.8830    -1.5760 H     1 <1>   0.0800 
 45 H        1.2540     7.4900    -2.0490 H     1 <1>   0.0800 
 46 H        2.0240     9.9370     1.1860 H     1 <1>   0.0800 
 47 H        2.4930     8.3310     1.6590 H     1 <1>   0.0800 
 48 H        3.5060     6.7370    -0.1780 H     1 <1>   0.0800 
 49 H        3.6830     7.3540    -1.7930 H     1 <1>   0.0800 
 50 H        2.6940     9.4900    -1.1370 H     1 <1>   0.0800 
 51 H        5.1290     9.1360    -0.8640 H     1 <1>   0.0800 
 52 H        4.8760     8.6610     0.7940 H     1 <1>   0.0800 
 53 H        4.0920    10.9100     1.3550 H     1 <1>   0.0800 
 54 H        4.1770    11.3840    -0.3440 H     1 <1>   0.0800 
 55 H        7.2350    12.5060     1.0480 H     1 <1>   0.0800 
 56 H        5.7010    12.5520     1.9070 H     1 <1>   0.0800 
 57 H        5.7840    13.0370     0.2060 H     1 <1>   0.0800 
@<TRIPOS>BOND
  1   1   2  2   
  2   2   3  am  
  3   2   4  1   
  4   3   5  1   
  5   3   6  1   
  6   4   7  1   
  7   4  28  1   
  8   4  29  1   
  9   5   8  1   
 10   5   9  1   
 11   5  30  1   
 12   6  31  1   
 13   6  32  1   
 14   6  33  1   
 15   7   9  1   
 16   8  10  ar  
 17   8  11  ar  
 18   9  12  1   
 19   9  34  1   
 20  10  13  ar  
 21  10  14  1   
 22  11  15  ar  
 23  11  35  1   
 24  12  16  2   
 25  12  17  am  
 26  13  18  ar  
 27  13  36  1   
 28  14  37  1   
 29  14  38  1   
 30  14  39  1   
 31  15  18  ar  
 32  15  40  1   
 33  17  19  1   
 34  17  20  1   
 35  18  41  1   
 36  19  21  1   
 37  19  42  1   
 38  19  43  1   
 39  20  22  1   
 40  20  44  1   
 41  20  45  1   
 42  21  23  1   
 43  21  46  1   
 44  21  47  1   
 45  22  23  1   
 46  22  48  1   
 47  22  49  1   
 48  23  24  1   
 49  23  50  1   
 50  24  25  1   
 51  24  51  1   
 52  24  52  1   
 53  25  26  1   
 54  25  53  1   
 55  25  54  1   
 56  26  27  1   
 57  27  55  1   
 58  27  56  1   
 59  27  57  1   
@<TRIPOS>SUBSTRUCTURE
  1 ****  12 GROUP 4 **** **** 0

# MOE 2024.06 (io_trps.svl 2023.06)
