@<TRIPOS>MOLECULE
NONAME
45 46 1 0 0 
SMALL
USER_CHARGES


@<TRIPOS>ATOM
  1 S        0.0360     0.3300     0.1050 S.3   1 <1>  -0.0800 
  2 C        1.4490    -0.5880     0.5700 C.2   1 <1>   0.1980 
  3 C        1.0610     1.4000    -0.8070 C.2   1 <1>  -0.1400 
  4 N        2.5430    -0.1430     0.1020 N.2   1 <1>  -0.5650 
  5 C        1.2330    -1.7890     1.4590 C.3   1 <1>  -0.0600 
  6 C        2.3380     0.9890    -0.6840 C.2   1 <1>   0.0460 
  7 C        0.3820     2.5420    -1.5390 C.3   1 <1>  -0.0600 
  8 C        3.5850     1.6230    -1.3160 C.3   1 <1>   0.3710 
  9 N        3.6310     3.1040    -1.1430 N.3   1 <1>  -0.8100 
 10 C        3.6190     1.2280    -2.7970 C.3   1 <1>  -0.2400 
 11 C        4.8280     3.7290    -1.7950 C.3   1 <1>   0.1710 
 12 C        3.5080     3.4740     0.2810 C.3   1 <1>   0.0300 
 13 C        4.9960     5.2480    -1.6450 C.2   1 <1>   0.5690 
 14 O        4.6530     5.9640    -2.5590 O.2   1 <1>  -0.5700 
 15 N        5.5730     5.7190    -0.4990 N.am  1 <1>  -0.4930 
 16 C        5.8420     7.0560    -0.1100 C.2   1 <1>   0.0630 
 17 C        6.3640     7.4850     1.1130 C.2   1 <1>   0.1080 
 18 C        5.6600     8.1930    -0.8110 C.2   1 <1>  -0.3020 
 19 N        6.4940     8.7740     1.1680 N.2   1 <1>  -0.7070 
 20 C        6.7460     6.5900     2.2700 C.3   1 <1>  -0.0590 
 21 N        6.0580     9.2120    -0.0250 N.pl3 1 <1>   0.3140 
 22 C        6.0330    10.6370    -0.3700 C.3   1 <1>   0.0160 
 23 H        0.7800    -1.4810     2.3830 H     1 <1>   0.0800 
 24 H        2.1760    -2.2590     1.6700 H     1 <1>   0.0800 
 25 H        0.5920    -2.4950     0.9650 H     1 <1>   0.0800 
 26 H       -0.1240     3.1770    -0.8350 H     1 <1>   0.0800 
 27 H       -0.3350     2.1530    -2.2390 H     1 <1>   0.0800 
 28 H        1.1030     3.1310    -2.0750 H     1 <1>   0.0800 
 29 H        4.4460     1.1960    -0.8290 H     1 <1>   0.0800 
 30 H        2.8660     1.7660    -3.3420 H     1 <1>   0.0800 
 31 H        3.4160     0.1760    -2.8860 H     1 <1>   0.0800 
 32 H        4.5850     1.4060    -3.2280 H     1 <1>   0.0800 
 33 H        4.7780     3.5500    -2.8530 H     1 <1>   0.0800 
 34 H        5.7190     3.2530    -1.4280 H     1 <1>   0.0800 
 35 H        2.6240     3.0410     0.7160 H     1 <1>   0.0800 
 36 H        3.4090     4.5400     0.3840 H     1 <1>   0.0800 
 37 H        4.3640     3.1310     0.8370 H     1 <1>   0.0800 
 38 H        5.7970     5.0210     0.2040 H     1 <1>   0.3700 
 39 H        5.2740     8.3220    -1.8050 H     1 <1>   0.1500 
 40 H        7.5100     5.9010     1.9630 H     1 <1>   0.0800 
 41 H        5.8840     6.0490     2.6130 H     1 <1>   0.0800 
 42 H        7.1240     7.1880     3.0800 H     1 <1>   0.0800 
 43 H        6.4450    10.7700    -1.3520 H     1 <1>   0.0800 
 44 H        6.6200    11.1820     0.3460 H     1 <1>   0.0800 
 45 H        5.0180    10.9850    -0.3460 H     1 <1>   0.0800 
@<TRIPOS>BOND
  1   1   2  1   
  2   1   3  1   
  3   2   4  2   
  4   2   5  1   
  5   3   6  2   
  6   3   7  1   
  7   4   6  1   
  8   5  23  1   
  9   5  24  1   
 10   5  25  1   
 11   6   8  1   
 12   7  26  1   
 13   7  27  1   
 14   7  28  1   
 15   8   9  1   
 16   8  10  1   
 17   8  29  1   
 18   9  11  1   
 19   9  12  1   
 20  10  30  1   
 21  10  31  1   
 22  10  32  1   
 23  11  13  1   
 24  11  33  1   
 25  11  34  1   
 26  12  35  1   
 27  12  36  1   
 28  12  37  1   
 29  13  14  2   
 30  13  15  am  
 31  15  16  1   
 32  15  38  1   
 33  16  17  1   
 34  16  18  2   
 35  17  19  2   
 36  17  20  1   
 37  18  21  1   
 38  18  39  1   
 39  19  21  1   
 40  20  40  1   
 41  20  41  1   
 42  20  42  1   
 43  21  22  1   
 44  22  43  1   
 45  22  44  1   
 46  22  45  1   
@<TRIPOS>SUBSTRUCTURE
  1 ****  12 GROUP 4 **** **** 0

# MOE 2024.06 (io_trps.svl 2023.06)
