@<TRIPOS>MOLECULE
NONAME
57 61 1 0 0 
SMALL
USER_CHARGES


@<TRIPOS>ATOM
  1 O        0.3970     0.1580     0.1060 O.2   1 <1>  -0.5700 
  2 C        1.3950    -0.4160     0.5060 C.2   1 <1>   0.7160 
  3 N        2.3720     0.3610     1.1270 N.am  1 <1>  -0.6600 
  4 C        1.5120    -1.8610     0.2940 C.2   1 <1>   0.2030 
  5 C        3.5110    -0.2320     1.8840 C.3   1 <1>   0.1400 
  6 C        2.2690     1.8480     1.1680 C.3   1 <1>   0.1400 
  7 N        2.6160    -2.6000     0.2840 N.2   1 <1>  -0.7070 
  8 C        0.4020    -2.6730     0.0480 C.2   1 <1>  -0.1500 
  9 C        4.7190    -0.4610     0.9570 C.3   1 <1>   0.3430 
 10 C        3.6000     2.5210     0.8120 C.3   1 <1>  -0.1600 
 11 N        2.1910    -3.8530     0.0410 N.pl3 1 <1>   0.3000 
 12 C        0.8530    -3.9400    -0.1100 C.2   1 <1>  -0.2050 
 13 N        5.3600     0.7990     0.4340 N.4   1 <1>  -0.9590 
 14 C        4.4140     1.7530    -0.2310 C.3   1 <1>   0.3430 
 15 C        0.1380    -5.1650    -0.3670 C.ar  1 <1>   0.0530 
 16 C        6.4780     0.4480    -0.4820 C.3   1 <1>   0.4860 
 17 C        0.6510    -6.1510    -1.2070 C.ar  1 <1>  -0.1500 
 18 C       -1.1000    -5.3960     0.2260 C.ar  1 <1>  -0.1500 
 19 C        7.3240     1.6850    -0.7060 C.ar  1 <1>  -0.1440 
 20 C       -0.0400    -7.3280    -1.4350 C.ar  1 <1>  -0.1500 
 21 C       -1.7960    -6.5700     0.0020 C.ar  1 <1>  -0.1500 
 22 C        8.1510     2.1580     0.3100 C.ar  1 <1>  -0.1500 
 23 C        7.2700     2.3530    -1.9290 C.ar  1 <1>  -0.1500 
 24 C       -1.2650    -7.5400    -0.8290 C.ar  1 <1>  -0.1500 
 25 C        8.8960     3.3010     0.0870 C.ar  1 <1>  -0.1440 
 26 C        8.0220     3.4970    -2.1390 C.ar  1 <1>  -0.1500 
 27 C        8.8260     3.9540    -1.1140 C.ar  1 <1>   0.0820 
 28 C        9.8590     4.0360     0.9720 C.3   1 <1>  -0.0170 
 29 O        9.6070     5.0430    -1.1670 O.3   1 <1>  -0.3620 
 30 C       10.3140     5.1880     0.0570 C.3   1 <1>   0.1200 
 31 H        3.2060    -1.1740     2.3070 H     1 <1>   0.0800 
 32 H        3.7850     0.4040     2.7070 H     1 <1>   0.0800 
 33 H        1.9450     2.1590     2.1470 H     1 <1>   0.0800 
 34 H        1.5240     2.1830     0.4640 H     1 <1>   0.0800 
 35 H       -0.6160    -2.3260    -0.0060 H     1 <1>   0.1500 
 36 H        4.3950    -1.0660     0.1270 H     1 <1>   0.0800 
 37 H        5.4550    -1.0310     1.5000 H     1 <1>   0.0800 
 38 H        4.1820     2.6960     1.6990 H     1 <1>   0.0800 
 39 H        3.3640     3.4900     0.4080 H     1 <1>   0.0800 
 40 H        2.8220    -4.6640    -0.0090 H     1 <1>   0.2700 
 41 H        5.7880     1.3120     1.2130 H     1 <1>   0.4500 
 42 H        4.9780     2.4740    -0.8020 H     1 <1>   0.0800 
 43 H        3.7570     1.2300    -0.9080 H     1 <1>   0.0800 
 44 H        6.0930     0.0840    -1.4210 H     1 <1>   0.0800 
 45 H        7.0920    -0.3210    -0.0440 H     1 <1>   0.0800 
 46 H        1.5940    -5.9990    -1.6980 H     1 <1>   0.1500 
 47 H       -1.5190    -4.6480     0.8750 H     1 <1>   0.1500 
 48 H        0.3720    -8.0800    -2.0860 H     1 <1>   0.1500 
 49 H       -2.7510    -6.7290     0.4730 H     1 <1>   0.1500 
 50 H        8.2300     1.6570     1.2590 H     1 <1>   0.1500 
 51 H        6.6480     1.9930    -2.7300 H     1 <1>   0.1500 
 52 H       -1.8050    -8.4550    -1.0050 H     1 <1>   0.1500 
 53 H        7.9980     4.0310    -3.0730 H     1 <1>   0.1500 
 54 H       10.6930     3.4160     1.2500 H     1 <1>   0.0800 
 55 H        9.3750     4.4170     1.8530 H     1 <1>   0.0800 
 56 H       11.3670     5.1310    -0.1580 H     1 <1>   0.0800 
 57 H       10.0710     6.1490     0.4740 H     1 <1>   0.0800 
@<TRIPOS>BOND
  1   1   2  2   
  2   2   3  am  
  3   2   4  1   
  4   3   5  1   
  5   3   6  1   
  6   4   7  2   
  7   4   8  1   
  8   5   9  1   
  9   5  31  1   
 10   5  32  1   
 11   6  10  1   
 12   6  33  1   
 13   6  34  1   
 14   7  11  1   
 15   8  12  2   
 16   8  35  1   
 17   9  13  1   
 18   9  36  1   
 19   9  37  1   
 20  10  14  1   
 21  10  38  1   
 22  10  39  1   
 23  11  12  1   
 24  11  40  1   
 25  12  15  1   
 26  13  14  1   
 27  13  16  1   
 28  13  41  1   
 29  14  42  1   
 30  14  43  1   
 31  15  17  ar  
 32  15  18  ar  
 33  16  19  1   
 34  16  44  1   
 35  16  45  1   
 36  17  20  ar  
 37  17  46  1   
 38  18  21  ar  
 39  18  47  1   
 40  19  22  ar  
 41  19  23  ar  
 42  20  24  ar  
 43  20  48  1   
 44  21  24  ar  
 45  21  49  1   
 46  22  25  ar  
 47  22  50  1   
 48  23  26  ar  
 49  23  51  1   
 50  24  52  1   
 51  25  27  ar  
 52  25  28  1   
 53  26  27  ar  
 54  26  53  1   
 55  27  29  1   
 56  28  30  1   
 57  28  54  1   
 58  28  55  1   
 59  29  30  1   
 60  30  56  1   
 61  30  57  1   
@<TRIPOS>SUBSTRUCTURE
  1 ****   9 GROUP 4 **** **** 0

# MOE 2024.06 (io_trps.svl 2023.06)
