@<TRIPOS>MOLECULE
NONAME
55 57 1 0 0 
SMALL
USER_CHARGES


@<TRIPOS>ATOM
  1 O       -0.4110    -0.1670     2.2870 O.2   1 <1>  -0.5700 
  2 C       -0.9890     0.6210     1.5790 C.2   1 <1>   0.5690 
  3 N       -1.8740     0.2330     0.6110 N.am  1 <1>  -0.6600 
  4 C       -0.6570     2.0830     1.7730 C.3   1 <1>  -0.0990 
  5 C       -2.0540    -1.2310     0.3170 C.3   1 <1>   0.3640 
  6 C       -2.7060     1.1980    -0.1830 C.3   1 <1>   0.1400 
  7 C        0.3780     2.5060     0.7250 C.3   1 <1>   0.0960 
  8 C       -1.0230    -1.7200    -0.7100 C.ar  1 <1>  -0.1440 
  9 C       -3.4960    -1.6190    -0.1400 C.3   1 <1>   0.2000 
 10 C       -3.6660     0.5010    -1.1550 C.3   1 <1>   0.1200 
 11 N        0.1730     3.9140     0.3390 N.pl3 1 <1>   0.3140 
 12 C       -0.6020    -3.0410    -0.6310 C.ar  1 <1>  -0.1500 
 13 C       -0.4950    -0.9150    -1.7130 C.ar  1 <1>  -0.1500 
 14 O       -4.3190    -0.5300    -0.4890 O.3   1 <1>  -0.5600 
 15 C       -4.2440    -2.4020     0.9460 C.3   1 <1>   0.1200 
 16 N       -0.7770     4.2220    -0.5540 N.2   1 <1>  -0.7070 
 17 C        0.8020     5.0150     0.7910 C.2   1 <1>  -0.3320 
 18 C        0.3130    -3.5510    -1.5350 C.ar  1 <1>  -0.1500 
 19 C        0.4210    -1.4220    -2.6190 C.ar  1 <1>  -0.1500 
 20 O       -3.6640    -3.6560     1.1260 O.3   1 <1>  -0.6800 
 21 C       -0.7300     5.5080    -0.6630 C.2   1 <1>   0.1080 
 22 C        0.2550     6.0950     0.1460 C.2   1 <1>  -0.0860 
 23 C        1.8920     4.9590     1.8570 C.3   1 <1>  -0.0600 
 24 C        0.8250    -2.7410    -2.5320 C.ar  1 <1>  -0.1500 
 25 C       -1.6660     6.2480    -1.5970 C.3   1 <1>  -0.0590 
 26 C        0.5420     7.5080     0.1990 C.2   1 <1>   0.5950 
 27 O       -0.2730     8.3660    -0.0250 O.2   1 <1>  -0.5700 
 28 C        1.9420     7.9830     0.5190 C.3   1 <1>  -0.1790 
 29 H       -1.5530     2.6710     1.6970 H     1 <1>   0.0800 
 30 H       -0.2530     2.2260     2.7580 H     1 <1>   0.0800 
 31 H       -1.8520    -1.7750     1.2240 H     1 <1>   0.0800 
 32 H       -3.2920     1.7940     0.4940 H     1 <1>   0.0800 
 33 H       -2.0680     1.8630    -0.7390 H     1 <1>   0.0800 
 34 H        0.2710     1.9130    -0.1650 H     1 <1>   0.0800 
 35 H        1.3750     2.3650     1.0980 H     1 <1>   0.0800 
 36 H       -3.4320    -2.2410    -1.0150 H     1 <1>   0.0800 
 37 H       -3.1460     0.0970    -2.0070 H     1 <1>   0.0800 
 38 H       -4.4090     1.1960    -1.5030 H     1 <1>   0.0800 
 39 H       -0.9870    -3.6840     0.1430 H     1 <1>   0.1500 
 40 H       -0.7820     0.1150    -1.8030 H     1 <1>   0.1500 
 41 H       -5.2730    -2.5470     0.6690 H     1 <1>   0.0800 
 42 H       -4.1940    -1.8750     1.8840 H     1 <1>   0.0800 
 43 H        0.6290    -4.5770    -1.4590 H     1 <1>   0.1500 
 44 H        0.8220    -0.7880    -3.3910 H     1 <1>   0.1500 
 45 H       -3.9050    -4.2570     0.3940 H     1 <1>   0.4000 
 46 H        2.0670     5.9260     2.2880 H     1 <1>   0.0800 
 47 H        2.8100     4.5980     1.4290 H     1 <1>   0.0800 
 48 H        1.6000     4.3010     2.6560 H     1 <1>   0.0800 
 49 H        1.5380    -3.1360    -3.2350 H     1 <1>   0.1500 
 50 H       -1.1020     6.8790    -2.2580 H     1 <1>   0.0800 
 51 H       -2.3430     6.8540    -1.0240 H     1 <1>   0.0800 
 52 H       -2.2340     5.5490    -2.1820 H     1 <1>   0.0800 
 53 H        2.6630     7.2330     0.2520 H     1 <1>   0.0800 
 54 H        2.0150     8.2080     1.5650 H     1 <1>   0.0800 
 55 H        2.1530     8.8750    -0.0420 H     1 <1>   0.0800 
@<TRIPOS>BOND
  1   1   2  2   
  2   2   3  am  
  3   2   4  1   
  4   3   5  1   
  5   3   6  1   
  6   4   7  1   
  7   4  29  1   
  8   4  30  1   
  9   5   8  1   
 10   5   9  1   
 11   5  31  1   
 12   6  10  1   
 13   6  32  1   
 14   6  33  1   
 15   7  11  1   
 16   7  34  1   
 17   7  35  1   
 18   8  12  ar  
 19   8  13  ar  
 20   9  14  1   
 21   9  15  1   
 22   9  36  1   
 23  10  14  1   
 24  10  37  1   
 25  10  38  1   
 26  11  16  1   
 27  11  17  1   
 28  12  18  ar  
 29  12  39  1   
 30  13  19  ar  
 31  13  40  1   
 32  15  20  1   
 33  15  41  1   
 34  15  42  1   
 35  16  21  2   
 36  17  22  2   
 37  17  23  1   
 38  18  24  ar  
 39  18  43  1   
 40  19  24  ar  
 41  19  44  1   
 42  20  45  1   
 43  21  22  1   
 44  21  25  1   
 45  22  26  1   
 46  23  46  1   
 47  23  47  1   
 48  23  48  1   
 49  24  49  1   
 50  25  50  1   
 51  25  51  1   
 52  25  52  1   
 53  26  27  2   
 54  26  28  1   
 55  28  53  1   
 56  28  54  1   
 57  28  55  1   
@<TRIPOS>SUBSTRUCTURE
  1 ****   3 GROUP 4 **** **** 0

# MOE 2024.06 (io_trps.svl 2023.06)
