@<TRIPOS>MOLECULE
NONAME
64 66 1 0 0 
SMALL
USER_CHARGES


@<TRIPOS>ATOM
  1 O        2.1030    -0.8260    -3.2250 O.2   1 <1>  -0.5700 
  2 C        1.9520    -1.5170    -2.2500 C.2   1 <1>   0.5690 
  3 N        2.3860    -1.2720    -0.9790 N.am  1 <1>  -0.4770 
  4 C        1.1850    -2.8060    -2.3210 C.3   1 <1>  -0.0990 
  5 C        3.0850    -0.1510    -0.4860 C.ar  1 <1>   0.1170 
  6 C        1.9730    -2.3660    -0.0790 C.3   1 <1>   0.1400 
  7 C        0.8550    -3.0870    -0.8480 C.3   1 <1>  -0.0190 
  8 C        2.8560     1.1220    -0.9940 C.ar  1 <1>  -0.1500 
  9 C        4.0180    -0.2850     0.5380 C.ar  1 <1>  -0.1500 
 10 C        0.7290    -4.5720    -0.5190 C.2   1 <1>   0.5690 
 11 C        3.5250     2.2240    -0.4920 C.ar  1 <1>  -0.1500 
 12 C        4.6870     0.8160     1.0430 C.ar  1 <1>  -0.1500 
 13 O        1.4500    -5.0390     0.3270 O.2   1 <1>  -0.5700 
 14 N       -0.2090    -5.3550    -1.1370 N.am  1 <1>  -0.6600 
 15 C        4.4460     2.0850     0.5350 C.ar  1 <1>  -0.1430 
 16 C        0.0900    -6.8030    -1.3510 C.3   1 <1>   0.3200 
 17 C       -1.5530    -4.8560    -1.5820 C.3   1 <1>   0.1400 
 18 C        5.1760     3.3120     1.0780 C.3   1 <1>   0.0630 
 19 C       -0.8620    -7.6140    -0.5030 C.2   1 <1>  -0.3320 
 20 C       -2.4490    -4.3690    -0.4140 C.3   1 <1>   0.3430 
 21 C        6.6870     3.1920     0.8570 C.3   1 <1>  -0.2400 
 22 C        4.8580     3.5250     2.5610 C.3   1 <1>  -0.2400 
 23 N       -1.9510    -8.2650    -0.9580 N.pl3 1 <1>   0.0330 
 24 C       -0.8120    -7.8290     0.8280 C.2   1 <1>   0.0770 
 25 N       -2.4400    -5.2990     0.7610 N.4   1 <1>  -0.9590 
 26 C       -2.5330    -8.7810     0.1460 C.2   1 <1>   0.0060 
 27 N       -1.8950    -8.5120     1.2370 N.2   1 <1>  -0.5650 
 28 C       -3.8030    -5.7040     1.2140 C.3   1 <1>   0.2630 
 29 C       -1.6420    -4.7830     1.9140 C.3   1 <1>   0.2630 
 30 C       -3.7990    -9.6120     0.0970 C.3   1 <1>  -0.0600 
 31 H        1.8280    -3.5620    -2.7340 H     1 <1>   0.0800 
 32 H        0.3100    -2.6900    -2.9310 H     1 <1>   0.0800 
 33 H        1.6250    -1.9790     0.8630 H     1 <1>   0.0800 
 34 H        2.8200    -3.0120     0.0840 H     1 <1>   0.0800 
 35 H       -0.0640    -2.5930    -0.5970 H     1 <1>   0.0800 
 36 H        2.1480     1.2570    -1.7910 H     1 <1>   0.1500 
 37 H        4.2350    -1.2540     0.9450 H     1 <1>   0.1500 
 38 H        3.3210     3.1940    -0.9110 H     1 <1>   0.1500 
 39 H        5.4010     0.6790     1.8350 H     1 <1>   0.1500 
 40 H        1.1050    -7.0240    -1.0600 H     1 <1>   0.0800 
 41 H       -0.0130    -7.0520    -2.3930 H     1 <1>   0.0800 
 42 H       -2.0700    -5.6410    -2.1040 H     1 <1>   0.0800 
 43 H       -1.4260    -4.0520    -2.2860 H     1 <1>   0.0800 
 44 H        4.8340     4.1810     0.5420 H     1 <1>   0.0800 
 45 H       -3.4560    -4.2590    -0.7820 H     1 <1>   0.0800 
 46 H       -2.1190    -3.3930    -0.0990 H     1 <1>   0.0800 
 47 H        7.0910     2.3640     1.4110 H     1 <1>   0.0800 
 48 H        7.1820     4.0930     1.1710 H     1 <1>   0.0800 
 49 H        6.8900     3.0350    -0.1880 H     1 <1>   0.0800 
 50 H        5.2220     2.7050     3.1530 H     1 <1>   0.0800 
 51 H        3.7940     3.6000     2.6980 H     1 <1>   0.0800 
 52 H        5.3140     4.4330     2.9130 H     1 <1>   0.0800 
 53 H       -2.2640    -8.3950    -1.9260 H     1 <1>   0.2700 
 54 H       -0.0530    -7.5020     1.5250 H     1 <1>   0.1500 
 55 H       -1.9600    -6.1760     0.4620 H     1 <1>   0.4500 
 56 H       -4.3430    -4.8550     1.6000 H     1 <1>   0.0800 
 57 H       -3.7240    -6.4500     1.9900 H     1 <1>   0.0800 
 58 H       -4.3580    -6.1310     0.3950 H     1 <1>   0.0800 
 59 H       -2.0650    -3.8650     2.2880 H     1 <1>   0.0800 
 60 H       -0.6220    -4.6050     1.6170 H     1 <1>   0.0800 
 61 H       -1.6350    -5.5110     2.7100 H     1 <1>   0.0800 
 62 H       -4.6020    -9.0540    -0.3480 H     1 <1>   0.0800 
 63 H       -4.0860    -9.8980     1.0930 H     1 <1>   0.0800 
 64 H       -3.6290   -10.5060    -0.4750 H     1 <1>   0.0800 
@<TRIPOS>BOND
  1   1   2  2   
  2   2   3  am  
  3   2   4  1   
  4   3   5  1   
  5   3   6  1   
  6   4   7  1   
  7   4  31  1   
  8   4  32  1   
  9   5   8  ar  
 10   5   9  ar  
 11   6   7  1   
 12   6  33  1   
 13   6  34  1   
 14   7  10  1   
 15   7  35  1   
 16   8  11  ar  
 17   8  36  1   
 18   9  12  ar  
 19   9  37  1   
 20  10  13  2   
 21  10  14  am  
 22  11  15  ar  
 23  11  38  1   
 24  12  15  ar  
 25  12  39  1   
 26  14  16  1   
 27  14  17  1   
 28  15  18  1   
 29  16  19  1   
 30  16  40  1   
 31  16  41  1   
 32  17  20  1   
 33  17  42  1   
 34  17  43  1   
 35  18  21  1   
 36  18  22  1   
 37  18  44  1   
 38  19  23  1   
 39  19  24  2   
 40  20  25  1   
 41  20  45  1   
 42  20  46  1   
 43  21  47  1   
 44  21  48  1   
 45  21  49  1   
 46  22  50  1   
 47  22  51  1   
 48  22  52  1   
 49  23  26  1   
 50  23  53  1   
 51  24  27  1   
 52  24  54  1   
 53  25  28  1   
 54  25  29  1   
 55  25  55  1   
 56  26  27  2   
 57  26  30  1   
 58  28  56  1   
 59  28  57  1   
 60  28  58  1   
 61  29  59  1   
 62  29  60  1   
 63  29  61  1   
 64  30  62  1   
 65  30  63  1   
 66  30  64  1   
@<TRIPOS>SUBSTRUCTURE
  1 ****   7 GROUP 4 **** **** 0

# MOE 2024.06 (io_trps.svl 2023.06)
