@<TRIPOS>MOLECULE
NONAME
48 51 1 0 0 
SMALL
USER_CHARGES


@<TRIPOS>ATOM
  1 O        0.4570     1.1060     0.1000 O.2   1 <1>  -0.5750 
  2 C        1.6510     1.0110    -0.0570 C.2   1 <1>   0.6860 
  3 N        2.5320     1.9770     0.4000 N.am  1 <1>  -0.4420 
  4 N        2.1420    -0.0840    -0.7060 N.am  1 <1>  -0.4950 
  5 C        3.8850     1.7820     0.1590 C.2   1 <1>   0.4200 
  6 C        2.0090     3.1760     1.1170 C.3   1 <1>   0.0520 
  7 C        3.4700    -0.2900    -0.9510 C.2   1 <1>   0.6990 
  8 N        4.9120     2.5930     0.5050 N.pl3 1 <1>  -0.7040 
  9 C        4.3910     0.7150    -0.4970 C.2   1 <1>   0.2700 
 10 O        3.8030    -1.3020    -1.5340 O.2   1 <1>  -0.5750 
 11 C        6.0600     2.0660     0.0770 C.cat 1 <1>   1.0690 
 12 N        5.7890     0.9100    -0.5630 N.pl3 1 <1>  -0.7680 
 13 N        7.2700     2.6370     0.2980 N.pl3 1 <1>  -0.5970 
 14 C        6.6700    -0.0380    -1.3080 C.3   1 <1>   0.2670 
 15 C        7.4970     3.8420     1.1700 C.3   1 <1>   0.4220 
 16 C        8.5840     2.0880    -0.1290 C.3   1 <1>   0.1600 
 17 C        6.6130     5.0640     0.8960 C.2   1 <1>   0.2910 
 18 C        8.9750     4.1810     0.9880 C.3   1 <1>  -0.1680 
 19 C        9.6370     2.8510     0.6630 C.3   1 <1>  -0.1680 
 20 O        6.6610     6.0470     1.7550 O.3   1 <1>  -0.0280 
 21 N        5.7960     5.2240    -0.0710 N.2   1 <1>  -0.5700 
 22 N        5.8090     6.9070     1.2950 N.2   1 <1>  -0.4160 
 23 C        5.3170     6.4300     0.2200 C.2   1 <1>   0.3280 
 24 C        4.2790     7.1020    -0.6840 C.3   1 <1>   0.0930 
 25 C        4.0310     8.5740    -0.3150 C.3   1 <1>  -0.2470 
 26 C        2.9490     6.3330    -0.6580 C.3   1 <1>  -0.2470 
 27 H        1.4720    -0.7810    -1.0230 H     1 <1>   0.3640 
 28 H        2.7970     3.7040     1.6230 H     1 <1>   0.0720 
 29 H        1.2770     2.8720     1.8460 H     1 <1>   0.0720 
 30 H        1.5340     3.8370     0.4120 H     1 <1>   0.0720 
 31 H        4.8330     3.5750     0.7770 H     1 <1>   0.4440 
 32 H        6.0980    -0.6210    -2.0090 H     1 <1>   0.0720 
 33 H        7.1540    -0.7110    -0.6210 H     1 <1>   0.0720 
 34 H        7.4120     0.4980    -1.8720 H     1 <1>   0.0720 
 35 H        7.3440     3.5390     2.1920 H     1 <1>   0.0720 
 36 H        8.6620     1.0350     0.0790 H     1 <1>   0.0720 
 37 H        8.7200     2.2710    -1.1820 H     1 <1>   0.0720 
 38 H        9.0910     4.8570     0.1560 H     1 <1>   0.0720 
 39 H        9.3920     4.6420     1.8670 H     1 <1>   0.0720 
 40 H        9.8610     2.3170     1.5720 H     1 <1>   0.0720 
 41 H       10.5480     2.9750     0.1030 H     1 <1>   0.0720 
 42 H        4.6640     7.0770    -1.6890 H     1 <1>   0.0720 
 43 H        3.6310     8.6510     0.6810 H     1 <1>   0.0720 
 44 H        3.3360     9.0220    -1.0030 H     1 <1>   0.0720 
 45 H        4.9540     9.1250    -0.3570 H     1 <1>   0.0720 
 46 H        2.5440     6.3240     0.3380 H     1 <1>   0.0720 
 47 H        3.1000     5.3210    -0.9870 H     1 <1>   0.0720 
 48 H        2.2370     6.7990    -1.3160 H     1 <1>   0.0720 
@<TRIPOS>BOND
  1   1   2  2   
  2   2   3  am  
  3   2   4  am  
  4   3   5  1   
  5   3   6  1   
  6   4   7  am  
  7   4  27  1   
  8   5   8  1   
  9   5   9  2   
 10   6  28  1   
 11   6  29  1   
 12   6  30  1   
 13   7   9  1   
 14   7  10  2   
 15   8  11  ar  
 16   8  31  1   
 17   9  12  1   
 18  11  12  ar  
 19  11  13  ar  
 20  12  14  1   
 21  13  15  1   
 22  13  16  1   
 23  14  32  1   
 24  14  33  1   
 25  14  34  1   
 26  15  17  1   
 27  15  18  1   
 28  15  35  1   
 29  16  19  1   
 30  16  36  1   
 31  16  37  1   
 32  17  20  1   
 33  17  21  2   
 34  18  19  1   
 35  18  38  1   
 36  18  39  1   
 37  19  40  1   
 38  19  41  1   
 39  20  22  1   
 40  21  23  1   
 41  22  23  2   
 42  23  24  1   
 43  24  25  1   
 44  24  26  1   
 45  24  42  1   
 46  25  43  1   
 47  25  44  1   
 48  25  45  1   
 49  26  46  1   
 50  26  47  1   
 51  26  48  1   
@<TRIPOS>SUBSTRUCTURE
  1 ****   8 GROUP 4 **** **** 0

# MOE 2024.06 (io_trps.svl 2023.06)
