@<TRIPOS>MOLECULE
NONAME
38 40 1 0 0 
SMALL
USER_CHARGES


@<TRIPOS>ATOM
  1 S       -1.5570    -0.3870     1.8170 S.3   1 <1>  -0.0800 
  2 C       -1.4750    -0.9100     0.1380 C.2   1 <1>  -0.1400 
  3 C       -1.4670     1.3010     1.3480 C.2   1 <1>  -0.1100 
  4 C       -1.3780     0.1610    -0.6750 C.2   1 <1>  -0.1500 
  5 C       -1.5150    -2.4110    -0.1240 C.3   1 <1>   0.3800 
  6 C       -1.3770     1.4170     0.0120 C.2   1 <1>  -0.1500 
  7 O       -1.3750    -2.6120    -1.4850 O.3   1 <1>  -0.6800 
  8 C       -2.8280    -3.0720     0.3590 C.3   1 <1>  -0.0800 
  9 C       -2.8440    -4.5930     0.0970 C.3   1 <1>  -0.1600 
 10 C       -4.0990    -2.4240    -0.2370 C.3   1 <1>  -0.1600 
 11 C       -4.1360    -5.2440     0.5960 C.3   1 <1>   0.2090 
 12 C       -5.3680    -3.1010     0.2870 C.3   1 <1>   0.2090 
 13 N       -5.3030    -4.5510    -0.0080 N.pl3 1 <1>  -0.8380 
 14 C       -6.5010    -5.2390    -0.1310 C.ar  1 <1>   0.4100 
 15 N       -6.7670    -6.1550     0.7880 N.ar  1 <1>  -0.6200 
 16 C       -7.3910    -4.9590    -1.1780 C.ar  1 <1>   0.1600 
 17 C       -7.9420    -6.7390     0.6040 C.ar  1 <1>   0.1600 
 18 N       -8.5580    -5.5320    -1.3590 N.ar  1 <1>  -0.6200 
 19 C       -8.8540    -6.4680    -0.4240 C.ar  1 <1>   0.1310 
 20 C      -10.1050    -7.2390    -0.4200 C.2   1 <1>   0.9790 
 21 O      -11.0580    -7.0030    -1.1910 O.co2 1 <1>  -0.9000 
 22 O      -10.2600    -8.1770     0.3930 O.co2 1 <1>  -0.9000 
 23 H       -1.4900     2.0350     2.1340 H     1 <1>   0.1500 
 24 H       -1.3000     0.1260    -1.7480 H     1 <1>   0.1500 
 25 H       -0.6720    -2.8770     0.3560 H     1 <1>   0.0800 
 26 H       -1.3060     2.3430    -0.5320 H     1 <1>   0.1500 
 27 H       -2.1410    -2.2110    -1.9320 H     1 <1>   0.4000 
 28 H       -2.8700    -2.9380     1.4260 H     1 <1>   0.0800 
 29 H       -2.0070    -5.0580     0.5860 H     1 <1>   0.0800 
 30 H       -2.7570    -4.7910    -0.9580 H     1 <1>   0.0800 
 31 H       -4.0950    -2.5050    -1.3090 H     1 <1>   0.0800 
 32 H       -4.1400    -1.3810     0.0190 H     1 <1>   0.0800 
 33 H       -4.2020    -5.1790     1.6690 H     1 <1>   0.0800 
 34 H       -4.1510    -6.2860     0.3190 H     1 <1>   0.0800 
 35 H       -6.2360    -2.6650    -0.1770 H     1 <1>   0.0800 
 36 H       -5.4500    -2.9620     1.3520 H     1 <1>   0.0800 
 37 H       -7.0900    -4.2160    -1.8890 H     1 <1>   0.1500 
 38 H       -8.2130    -7.4940     1.3220 H     1 <1>   0.1500 
@<TRIPOS>BOND
  1   1   2  1   
  2   1   3  1   
  3   2   4  2   
  4   2   5  1   
  5   3   6  2   
  6   3  23  1   
  7   4   6  1   
  8   4  24  1   
  9   5   7  1   
 10   5   8  1   
 11   5  25  1   
 12   6  26  1   
 13   7  27  1   
 14   8   9  1   
 15   8  10  1   
 16   8  28  1   
 17   9  11  1   
 18   9  29  1   
 19   9  30  1   
 20  10  12  1   
 21  10  31  1   
 22  10  32  1   
 23  11  13  1   
 24  11  33  1   
 25  11  34  1   
 26  12  13  1   
 27  12  35  1   
 28  12  36  1   
 29  13  14  1   
 30  14  15  ar  
 31  14  16  ar  
 32  15  17  ar  
 33  16  18  ar  
 34  16  37  1   
 35  17  19  ar  
 36  17  38  1   
 37  18  19  ar  
 38  19  20  1   
 39  20  21  ar  
 40  20  22  ar  
@<TRIPOS>SUBSTRUCTURE
  1 ****  13 GROUP 4 **** **** 0

# MOE 2024.06 (io_trps.svl 2023.06)
