@<TRIPOS>MOLECULE
NONAME
51 53 1 0 0 
SMALL
USER_CHARGES


@<TRIPOS>ATOM
  1 O       -3.3020    -0.7030    -2.1270 O.2   1 <1>  -0.5700 
  2 C       -3.1930     0.1340    -1.2540 C.2   1 <1>   0.7060 
  3 O       -3.2540     1.4170    -1.6300 O.3   1 <1>  -0.2320 
  4 C       -3.0270    -0.1640     0.1380 C.2   1 <1>   0.0290 
  5 C       -3.1650     2.4510    -0.7650 C.ar  1 <1>   0.0830 
  6 C       -2.9560    -1.5480     0.5070 C.2   1 <1>   0.6160 
  7 C       -2.9240     0.8540     1.0360 C.2   1 <1>  -0.1780 
  8 C       -2.9960     2.2050     0.6030 C.ar  1 <1>   0.0280 
  9 C       -3.2420     3.7450    -1.2480 C.ar  1 <1>  -0.1500 
 10 O       -1.8740    -2.0080     0.8170 O.2   1 <1>  -0.5700 
 11 N       -4.0740    -2.3500     0.5980 N.am  1 <1>  -0.6600 
 12 C       -2.9080     3.3000     1.4640 C.ar  1 <1>  -0.1500 
 13 C       -3.1530     4.8240    -0.3870 C.ar  1 <1>   0.0830 
 14 C       -3.9010    -3.8110     0.8570 C.3   1 <1>   0.3200 
 15 C       -5.4570    -1.7830     0.6970 C.3   1 <1>   0.1400 
 16 C       -2.9850     4.5900     0.9810 C.ar  1 <1>  -0.1500 
 17 O       -3.2400     6.0540    -0.9420 O.3   1 <1>  -0.3620 
 18 C       -4.9460    -4.6350     0.1330 C.2   1 <1>  -0.3320 
 19 C       -6.1850    -1.7700    -0.6530 C.3   1 <1>   0.1200 
 20 C       -3.1280     7.2600    -0.2190 C.3   1 <1>   0.2000 
 21 N       -6.1230    -5.0220     0.6610 N.pl3 1 <1>   0.0330 
 22 C       -4.9170    -5.1290    -1.1240 C.2   1 <1>   0.0770 
 23 O       -7.4410    -1.2170    -0.4610 O.3   1 <1>  -0.6800 
 24 C       -3.7760     8.3500    -1.0680 C.3   1 <1>  -0.2400 
 25 C       -1.6460     7.5570     0.0220 C.3   1 <1>  -0.2400 
 26 C       -6.7400    -5.7200    -0.3170 C.2   1 <1>   0.0060 
 27 N       -6.0470    -5.8050    -1.4040 N.2   1 <1>  -0.5650 
 28 C       -8.1110    -6.3350    -0.1450 C.3   1 <1>  -0.0600 
 29 H       -2.7790     0.6620     2.0850 H     1 <1>   0.1500 
 30 H       -3.3710     3.9190    -2.3010 H     1 <1>   0.1500 
 31 H       -2.7760     3.1310     2.5190 H     1 <1>   0.1500 
 32 H       -3.9460    -3.9950     1.9170 H     1 <1>   0.0800 
 33 H       -2.9310    -4.1280     0.5110 H     1 <1>   0.0800 
 34 H       -5.4090    -0.7750     1.0710 H     1 <1>   0.0800 
 35 H       -6.0290    -2.3610     1.4010 H     1 <1>   0.0800 
 36 H       -2.9120     5.4060     1.6740 H     1 <1>   0.1500 
 37 H       -6.3160    -2.7630    -1.0430 H     1 <1>   0.0800 
 38 H       -5.6630    -1.1680    -1.3730 H     1 <1>   0.0800 
 39 H       -3.6700     7.1650     0.7060 H     1 <1>   0.0800 
 40 H       -6.4900    -4.8320     1.5980 H     1 <1>   0.2700 
 41 H       -4.1330    -5.0250    -1.8570 H     1 <1>   0.1500 
 42 H       -7.9360    -1.2080    -1.3050 H     1 <1>   0.4000 
 43 H       -3.2710     8.4400    -2.0130 H     1 <1>   0.0800 
 44 H       -3.7230     9.2950    -0.5570 H     1 <1>   0.0800 
 45 H       -4.8110     8.1140    -1.2390 H     1 <1>   0.0800 
 46 H       -1.1260     7.6320    -0.9160 H     1 <1>   0.0800 
 47 H       -1.1930     6.7830     0.6130 H     1 <1>   0.0800 
 48 H       -1.5400     8.4880     0.5480 H     1 <1>   0.0800 
 49 H       -8.8360    -5.5700     0.0660 H     1 <1>   0.0800 
 50 H       -8.0980    -7.0490     0.6570 H     1 <1>   0.0800 
 51 H       -8.3970    -6.8400    -1.0510 H     1 <1>   0.0800 
@<TRIPOS>BOND
  1   1   2  2   
  2   2   3  1   
  3   2   4  1   
  4   3   5  1   
  5   4   6  1   
  6   4   7  2   
  7   5   8  ar  
  8   5   9  ar  
  9   6  10  2   
 10   6  11  am  
 11   7   8  1   
 12   7  29  1   
 13   8  12  ar  
 14   9  13  ar  
 15   9  30  1   
 16  11  14  1   
 17  11  15  1   
 18  12  16  ar  
 19  12  31  1   
 20  13  16  ar  
 21  13  17  1   
 22  14  18  1   
 23  14  32  1   
 24  14  33  1   
 25  15  19  1   
 26  15  34  1   
 27  15  35  1   
 28  16  36  1   
 29  17  20  1   
 30  18  21  1   
 31  18  22  2   
 32  19  23  1   
 33  19  37  1   
 34  19  38  1   
 35  20  24  1   
 36  20  25  1   
 37  20  39  1   
 38  21  26  1   
 39  21  40  1   
 40  22  27  1   
 41  22  41  1   
 42  23  42  1   
 43  24  43  1   
 44  24  44  1   
 45  24  45  1   
 46  25  46  1   
 47  25  47  1   
 48  25  48  1   
 49  26  27  2   
 50  26  28  1   
 51  28  49  1   
 52  28  50  1   
 53  28  51  1   
@<TRIPOS>SUBSTRUCTURE
  1 ****   4 GROUP 4 **** **** 0

# MOE 2024.06 (io_trps.svl 2023.06)
