@<TRIPOS>MOLECULE
NONAME
49 51 1 0 0 
SMALL
USER_CHARGES


@<TRIPOS>ATOM
  1 O       -3.9980    -2.0280     0.8260 O.3   1 <1>  -0.5600 
  2 C       -2.9100    -1.3390     1.3680 C.3   1 <1>   0.1200 
  3 C       -4.3080    -3.1890     1.5360 C.3   1 <1>   0.0400 
  4 C       -2.5600    -0.1390     0.4850 C.3   1 <1>   0.0960 
  5 N       -3.6620     0.8500     0.4490 N.pl3 1 <1>   0.0480 
  6 C       -4.7880     0.8800    -0.3070 C.2   1 <1>   0.0060 
  7 C       -3.7320     1.9630     1.2010 C.2   1 <1>  -0.3020 
  8 N       -5.5420     1.9150    -0.0820 N.2   1 <1>  -0.5650 
  9 C       -5.1570    -0.1940    -1.3210 C.3   1 <1>   0.5230 
 10 C       -4.8750     2.5980     0.8670 C.2   1 <1>   0.0770 
 11 N       -6.6380    -0.1660    -1.4490 N.4   1 <1>  -0.9590 
 12 C       -7.2620    -0.8570    -0.2850 C.3   1 <1>   0.4230 
 13 C       -7.1110    -0.5250    -2.8160 C.3   1 <1>   0.2630 
 14 C       -7.2890    -2.3780    -0.4340 C.3   1 <1>  -0.1600 
 15 C       -8.7300    -0.4650    -0.1400 C.3   1 <1>  -0.1600 
 16 C       -8.6380    -2.7450    -1.0730 C.3   1 <1>  -0.0800 
 17 C       -9.5610    -1.5330    -0.8720 C.3   1 <1>  -0.0800 
 18 C       -9.3350    -3.9400    -0.4050 C.3   1 <1>  -0.1600 
 19 C      -10.7770    -2.0360    -0.0760 C.3   1 <1>  -0.1600 
 20 C      -10.3540    -3.3530     0.5640 C.3   1 <1>   0.2000 
 21 O       -9.7150    -3.0710     1.7510 O.3   1 <1>  -0.6800 
 22 H       -3.1610    -1.0140     2.3640 H     1 <1>   0.0800 
 23 H       -2.0680    -2.0100     1.4150 H     1 <1>   0.0800 
 24 H       -5.1100    -3.6980     1.0330 H     1 <1>   0.0800 
 25 H       -4.6160    -2.9260     2.5350 H     1 <1>   0.0800 
 26 H       -3.4460    -3.8340     1.5680 H     1 <1>   0.0800 
 27 H       -2.3350    -0.4690    -0.5120 H     1 <1>   0.0800 
 28 H       -1.6850     0.3450     0.8800 H     1 <1>   0.0800 
 29 H       -2.9850     2.2470     1.9200 H     1 <1>   0.1500 
 30 H       -4.8220    -1.1660    -1.0090 H     1 <1>   0.0800 
 31 H       -4.6970     0.0510    -2.2630 H     1 <1>   0.0800 
 32 H       -5.2550     3.5250     1.2670 H     1 <1>   0.1500 
 33 H       -6.8170     0.8420    -1.2710 H     1 <1>   0.4500 
 34 H       -6.7260    -0.5810     0.6120 H     1 <1>   0.0800 
 35 H       -6.8950    -1.5590    -3.0280 H     1 <1>   0.0800 
 36 H       -6.6250     0.0910    -3.5540 H     1 <1>   0.0800 
 37 H       -8.1750    -0.3710    -2.8920 H     1 <1>   0.0800 
 38 H       -6.4540    -2.7620    -0.9920 H     1 <1>   0.0800 
 39 H       -7.2420    -2.7950     0.5560 H     1 <1>   0.0800 
 40 H       -8.9670    -0.4780     0.9090 H     1 <1>   0.0800 
 41 H       -8.9290     0.5270    -0.5060 H     1 <1>   0.0800 
 42 H       -8.5060    -2.9450    -2.1230 H     1 <1>   0.0800 
 43 H       -9.8880    -1.1500    -1.8250 H     1 <1>   0.0800 
 44 H       -8.6600    -4.6270     0.0780 H     1 <1>   0.0800 
 45 H       -9.8760    -4.4840    -1.1590 H     1 <1>   0.0800 
 46 H      -11.5700    -2.2510    -0.7710 H     1 <1>   0.0800 
 47 H      -11.1520    -1.3290     0.6440 H     1 <1>   0.0800 
 48 H      -11.1790    -4.0170     0.7700 H     1 <1>   0.0800 
 49 H       -9.0670    -2.3630     1.6070 H     1 <1>   0.4000 
@<TRIPOS>BOND
  1   1   2  1   
  2   1   3  1   
  3   2   4  1   
  4   2  22  1   
  5   2  23  1   
  6   3  24  1   
  7   3  25  1   
  8   3  26  1   
  9   4   5  1   
 10   4  27  1   
 11   4  28  1   
 12   5   6  1   
 13   5   7  1   
 14   6   8  2   
 15   6   9  1   
 16   7  10  2   
 17   7  29  1   
 18   8  10  1   
 19   9  11  1   
 20   9  30  1   
 21   9  31  1   
 22  10  32  1   
 23  11  12  1   
 24  11  13  1   
 25  11  33  1   
 26  12  14  1   
 27  12  15  1   
 28  12  34  1   
 29  13  35  1   
 30  13  36  1   
 31  13  37  1   
 32  14  16  1   
 33  14  38  1   
 34  14  39  1   
 35  15  17  1   
 36  15  40  1   
 37  15  41  1   
 38  16  17  1   
 39  16  18  1   
 40  16  42  1   
 41  17  19  1   
 42  17  43  1   
 43  18  20  1   
 44  18  44  1   
 45  18  45  1   
 46  19  20  1   
 47  19  46  1   
 48  19  47  1   
 49  20  21  1   
 50  20  48  1   
 51  21  49  1   
@<TRIPOS>SUBSTRUCTURE
  1 ****  12 GROUP 4 **** **** 0

# MOE 2024.06 (io_trps.svl 2023.06)
