@<TRIPOS>MOLECULE
NONAME
50 52 1 0 0 
SMALL
USER_CHARGES


@<TRIPOS>ATOM
  1 F       -1.9420    -2.2470     1.1250 F     1 <1>  -0.1900 
  2 C       -2.4600    -1.0550     0.9790 C.ar  1 <1>   0.1900 
  3 C       -3.7660    -0.8420     1.3770 C.ar  1 <1>  -0.1440 
  4 C       -1.6760    -0.0640     0.4240 C.ar  1 <1>  -0.1500 
  5 C       -4.2910     0.4290     1.2100 C.ar  1 <1>  -0.1500 
  6 C       -4.5930    -1.9600     1.9780 C.3   1 <1>   0.4870 
  7 C       -2.2110     1.2110     0.2480 C.ar  1 <1>   0.0830 
  8 C       -3.5390     1.4540     0.6540 C.ar  1 <1>   0.0830 
  9 N       -5.1290    -2.8150     0.8910 N.4   1 <1>  -0.9590 
 10 O       -1.4710     2.2060    -0.3190 O.3   1 <1>  -0.3620 
 11 O       -4.2160     2.6340     0.5600 O.3   1 <1>  -0.3620 
 12 C       -5.8920    -2.1160    -0.1850 C.3   1 <1>   0.3430 
 13 C       -5.9280    -3.9880     1.3090 C.3   1 <1>   0.3430 
 14 C       -0.1220     2.0340    -0.7010 C.3   1 <1>   0.0400 
 15 C       -3.5750     3.8780     0.3780 C.3   1 <1>   0.0400 
 16 C       -6.8680    -3.1550    -0.7540 C.3   1 <1>   0.2000 
 17 C       -6.6370    -4.4510     0.0350 C.3   1 <1>  -0.0800 
 18 O       -8.1750    -2.7280    -0.5440 O.3   1 <1>  -0.6800 
 19 C       -5.8190    -5.4960    -0.7600 C.3   1 <1>   0.0210 
 20 C       -4.3170    -5.2510    -0.8310 C.2   1 <1>   0.1080 
 21 N       -3.7720    -4.1370    -1.2190 N.2   1 <1>  -0.7070 
 22 C       -3.3650    -6.2050    -0.4900 C.2   1 <1>  -0.1500 
 23 N       -2.4400    -4.3710    -1.1690 N.pl3 1 <1>   0.3000 
 24 C       -2.1750    -5.6100    -0.7130 C.2   1 <1>  -0.3320 
 25 C       -0.7750    -6.1670    -0.5290 C.3   1 <1>  -0.0600 
 26 H       -0.6710    -0.3080     0.1410 H     1 <1>   0.1500 
 27 H       -5.3000     0.6550     1.5100 H     1 <1>   0.1500 
 28 H       -5.4020    -1.5420     2.5520 H     1 <1>   0.0800 
 29 H       -3.9740    -2.5490     2.6360 H     1 <1>   0.0800 
 30 H       -4.3170    -3.2170     0.3690 H     1 <1>   0.4500 
 31 H       -6.4380    -1.2740     0.2070 H     1 <1>   0.0800 
 32 H       -5.2150    -1.7800    -0.9540 H     1 <1>   0.0800 
 33 H       -5.3030    -4.7650     1.7190 H     1 <1>   0.0800 
 34 H       -6.6590    -3.6890     2.0420 H     1 <1>   0.0800 
 35 H        0.2330     2.9680    -1.0970 H     1 <1>   0.0800 
 36 H       -0.0670     1.2750    -1.4610 H     1 <1>   0.0800 
 37 H        0.4560     1.7620     0.1640 H     1 <1>   0.0800 
 38 H       -4.2960     4.6560     0.5500 H     1 <1>   0.0800 
 39 H       -3.2110     3.9380    -0.6320 H     1 <1>   0.0800 
 40 H       -2.7670     3.9640     1.0830 H     1 <1>   0.0800 
 41 H       -6.7300    -3.2780    -1.8160 H     1 <1>   0.0800 
 42 H       -7.5780    -4.9100     0.2840 H     1 <1>   0.0800 
 43 H       -8.4180    -2.6830     0.4010 H     1 <1>   0.4000 
 44 H       -6.2000    -5.5670    -1.7640 H     1 <1>   0.0800 
 45 H       -5.9710    -6.4600    -0.3060 H     1 <1>   0.0800 
 46 H       -3.5530    -7.2050    -0.1370 H     1 <1>   0.1500 
 47 H       -1.7370    -3.6760    -1.4560 H     1 <1>   0.2700 
 48 H       -0.8210    -7.1760    -0.1600 H     1 <1>   0.0800 
 49 H       -0.2230    -5.5700     0.1770 H     1 <1>   0.0800 
 50 H       -0.2490    -6.1730    -1.4680 H     1 <1>   0.0800 
@<TRIPOS>BOND
  1   1   2  1   
  2   2   3  ar  
  3   2   4  ar  
  4   3   5  ar  
  5   3   6  1   
  6   4   7  ar  
  7   4  26  1   
  8   5   8  ar  
  9   5  27  1   
 10   6   9  1   
 11   6  28  1   
 12   6  29  1   
 13   7   8  ar  
 14   7  10  1   
 15   8  11  1   
 16   9  12  1   
 17   9  13  1   
 18   9  30  1   
 19  10  14  1   
 20  11  15  1   
 21  12  16  1   
 22  12  31  1   
 23  12  32  1   
 24  13  17  1   
 25  13  33  1   
 26  13  34  1   
 27  14  35  1   
 28  14  36  1   
 29  14  37  1   
 30  15  38  1   
 31  15  39  1   
 32  15  40  1   
 33  16  17  1   
 34  16  18  1   
 35  16  41  1   
 36  17  19  1   
 37  17  42  1   
 38  18  43  1   
 39  19  20  1   
 40  19  44  1   
 41  19  45  1   
 42  20  21  2   
 43  20  22  1   
 44  21  23  1   
 45  22  24  2   
 46  22  46  1   
 47  23  24  1   
 48  23  47  1   
 49  24  25  1   
 50  25  48  1   
 51  25  49  1   
 52  25  50  1   
@<TRIPOS>SUBSTRUCTURE
  1 ****   3 GROUP 4 **** **** 0

# MOE 2024.06 (io_trps.svl 2023.06)
