@<TRIPOS>MOLECULE
NONAME
37 38 1 0 0 
SMALL
USER_CHARGES


@<TRIPOS>ATOM
  1 F        2.0470     0.0170     0.6390 F     1 <1>  -0.1900 
  2 C        2.7160     1.0140     0.1270 C.ar  1 <1>   0.1900 
  3 C        3.9030     0.7680    -0.5420 C.ar  1 <1>   0.1600 
  4 C        2.2260     2.2910     0.2660 C.ar  1 <1>  -0.1500 
  5 N        4.6390     1.7250    -1.0930 N.ar  1 <1>  -0.6200 
  6 C        2.9830     3.3140    -0.2920 C.ar  1 <1>   0.0860 
  7 C        4.1550     2.9540    -0.9640 C.ar  1 <1>   0.1600 
  8 C        2.5780     4.6970    -0.1860 C.2   1 <1>   0.5440 
  9 O        1.4070     4.9920    -0.3070 O.2   1 <1>  -0.5700 
 10 N        3.5230     5.6630     0.0770 N.am  1 <1>  -0.4940 
 11 C        3.3920     7.0750     0.0800 C.2   1 <1>  -0.0880 
 12 N        4.3680     7.9490     0.4520 N.pl3 1 <1>   0.3140 
 13 C        2.3310     7.8360    -0.2750 C.2   1 <1>  -0.1500 
 14 N        3.9580     9.2310     0.3410 N.2   1 <1>  -0.7070 
 15 C        5.7200     7.6270     0.9510 C.3   1 <1>   0.0960 
 16 C        2.7410     9.1500    -0.0930 C.2   1 <1>   0.1080 
 17 C        6.6500     7.2160    -0.2000 C.3   1 <1>  -0.1600 
 18 C        1.8940    10.3720    -0.3580 C.3   1 <1>  -0.0590 
 19 C        8.0350     6.8140     0.3230 C.3   1 <1>  -0.1600 
 20 C        8.9520     6.3880    -0.8260 C.3   1 <1>  -0.2400 
 21 H        4.2510    -0.2480    -0.6240 H     1 <1>   0.1500 
 22 H        1.3030     2.4890     0.7820 H     1 <1>   0.1500 
 23 H        4.7290     3.7370    -1.4310 H     1 <1>   0.1500 
 24 H        4.4450     5.3100     0.3310 H     1 <1>   0.3700 
 25 H        1.3670     7.5120    -0.6240 H     1 <1>   0.1500 
 26 H        5.6360     6.8390     1.6740 H     1 <1>   0.0800 
 27 H        6.1100     8.5000     1.4430 H     1 <1>   0.0800 
 28 H        6.7520     8.0480    -0.8770 H     1 <1>   0.0800 
 29 H        6.2220     6.3910    -0.7400 H     1 <1>   0.0800 
 30 H        0.9200    10.0840    -0.7060 H     1 <1>   0.0800 
 31 H        2.3700    10.9820    -1.1030 H     1 <1>   0.0800 
 32 H        1.7930    10.9400     0.5480 H     1 <1>   0.0800 
 33 H        7.9430     5.9990     1.0210 H     1 <1>   0.0800 
 34 H        8.4830     7.6470     0.8400 H     1 <1>   0.0800 
 35 H        8.5410     5.5400    -1.3460 H     1 <1>   0.0800 
 36 H        9.9200     6.1160    -0.4440 H     1 <1>   0.0800 
 37 H        9.0780     7.1950    -1.5270 H     1 <1>   0.0800 
@<TRIPOS>BOND
  1   1   2  1   
  2   2   3  ar  
  3   2   4  ar  
  4   3   5  ar  
  5   3  21  1   
  6   4   6  ar  
  7   4  22  1   
  8   5   7  ar  
  9   6   7  ar  
 10   6   8  1   
 11   7  23  1   
 12   8   9  2   
 13   8  10  am  
 14  10  11  1   
 15  10  24  1   
 16  11  12  1   
 17  11  13  2   
 18  12  14  1   
 19  12  15  1   
 20  13  16  1   
 21  13  25  1   
 22  14  16  2   
 23  15  17  1   
 24  15  26  1   
 25  15  27  1   
 26  16  18  1   
 27  17  19  1   
 28  17  28  1   
 29  17  29  1   
 30  18  30  1   
 31  18  31  1   
 32  18  32  1   
 33  19  20  1   
 34  19  33  1   
 35  19  34  1   
 36  20  35  1   
 37  20  36  1   
 38  20  37  1   
@<TRIPOS>SUBSTRUCTURE
  1 ****  10 GROUP 4 **** **** 0

# MOE 2024.06 (io_trps.svl 2023.06)
