@<TRIPOS>MOLECULE
NONAME
47 50 1 0 0 
SMALL
USER_CHARGES


@<TRIPOS>ATOM
  1 S       -0.6490     1.6250     0.1620 S.3   1 <1>  -0.0800 
  2 C       -0.9950     3.3220    -0.1880 C.2   1 <1>   0.0410 
  3 C       -2.3540     1.2190     0.2420 C.2   1 <1>  -0.1100 
  4 C        0.0900     4.2510    -0.3760 C.2   1 <1>   0.2880 
  5 C       -2.3400     3.4910    -0.2260 C.2   1 <1>  -0.1500 
  6 C       -3.1060     2.3110     0.0160 C.2   1 <1>  -0.1500 
  7 N       -0.0880     5.5270    -0.6250 N.2   1 <1>  -0.7070 
  8 C        1.4560     3.9460    -0.3190 C.2   1 <1>  -0.1500 
  9 N        1.1510     6.0390    -0.7320 N.pl3 1 <1>   0.3000 
 10 C        2.1010     5.1080    -0.5480 C.2   1 <1>  -0.3320 
 11 C        3.5700     5.4570    -0.6040 C.3   1 <1>   0.3890 
 12 N        3.8210     6.5400     0.3790 N.pl3 1 <1>  -0.8380 
 13 C        4.6840     7.5630     0.0260 C.ar  1 <1>   0.4100 
 14 C        3.7360     6.1010     1.8030 C.3   1 <1>   0.1290 
 15 N        5.8320     7.5860     0.7030 N.ar  1 <1>  -0.6200 
 16 C        4.3590     8.4980    -0.9770 C.ar  1 <1>   0.0860 
 17 C        6.6950     8.5280     0.3810 C.ar  1 <1>   0.1600 
 18 C        3.0990     8.4710    -1.6720 C.2   1 <1>   0.5440 
 19 C        5.2960     9.4710    -1.2920 C.ar  1 <1>  -0.1500 
 20 C        6.4830     9.4820    -0.5970 C.ar  1 <1>  -0.1500 
 21 O        3.0470     8.0370    -2.8080 O.2   1 <1>  -0.5700 
 22 N        1.9340     8.9330    -1.1040 N.am  1 <1>  -0.6600 
 23 C        0.6780     9.1360    -1.8670 C.3   1 <1>   0.1400 
 24 C        1.7690     9.3190     0.3140 C.3   1 <1>   0.1400 
 25 C       -0.2960     9.7460    -0.8640 C.3   1 <1>  -0.1600 
 26 C        0.2590     9.3760     0.5090 C.3   1 <1>  -0.1600 
 27 H       -2.6140     0.1970     0.4530 H     1 <1>   0.1500 
 28 H       -2.8140     4.4370    -0.4220 H     1 <1>   0.1500 
 29 H       -4.1820     2.3390     0.0080 H     1 <1>   0.1500 
 30 H        1.8710     2.9750    -0.1260 H     1 <1>   0.1500 
 31 H        1.3430     7.0380    -0.9150 H     1 <1>   0.2700 
 32 H        3.8360     5.7770    -1.5980 H     1 <1>   0.0800 
 33 H        4.1690     4.5970    -0.3570 H     1 <1>   0.0800 
 34 H        2.7510     5.7220     2.0150 H     1 <1>   0.0800 
 35 H        3.9330     6.9310     2.4580 H     1 <1>   0.0800 
 36 H        4.4630     5.3310     1.9930 H     1 <1>   0.0800 
 37 H        7.6250     8.5430     0.9240 H     1 <1>   0.1500 
 38 H        5.0900    10.1930    -2.0630 H     1 <1>   0.1500 
 39 H        7.2390    10.2170    -0.8080 H     1 <1>   0.1500 
 40 H        0.3130     8.1890    -2.2260 H     1 <1>   0.0800 
 41 H        0.8470     9.7920    -2.7050 H     1 <1>   0.0800 
 42 H        2.2060    10.2900     0.4690 H     1 <1>   0.0800 
 43 H        2.2230     8.6030     0.9770 H     1 <1>   0.0800 
 44 H       -1.2970     9.3780    -1.0110 H     1 <1>   0.0800 
 45 H       -0.2960    10.8150    -0.9840 H     1 <1>   0.0800 
 46 H       -0.0200    10.0820     1.2700 H     1 <1>   0.0800 
 47 H       -0.0940     8.3990     0.7940 H     1 <1>   0.0800 
@<TRIPOS>BOND
  1   1   2  1   
  2   1   3  1   
  3   2   4  1   
  4   2   5  2   
  5   3   6  2   
  6   3  27  1   
  7   4   7  2   
  8   4   8  1   
  9   5   6  1   
 10   5  28  1   
 11   6  29  1   
 12   7   9  1   
 13   8  10  2   
 14   8  30  1   
 15   9  10  1   
 16   9  31  1   
 17  10  11  1   
 18  11  12  1   
 19  11  32  1   
 20  11  33  1   
 21  12  13  1   
 22  12  14  1   
 23  13  15  ar  
 24  13  16  ar  
 25  14  34  1   
 26  14  35  1   
 27  14  36  1   
 28  15  17  ar  
 29  16  18  1   
 30  16  19  ar  
 31  17  20  ar  
 32  17  37  1   
 33  18  21  2   
 34  18  22  am  
 35  19  20  ar  
 36  19  38  1   
 37  20  39  1   
 38  22  23  1   
 39  22  24  1   
 40  23  25  1   
 41  23  40  1   
 42  23  41  1   
 43  24  26  1   
 44  24  42  1   
 45  24  43  1   
 46  25  26  1   
 47  25  44  1   
 48  25  45  1   
 49  26  46  1   
 50  26  47  1   
@<TRIPOS>SUBSTRUCTURE
  1 ****   9 GROUP 4 **** **** 0

# MOE 2024.06 (io_trps.svl 2023.06)
