@<TRIPOS>MOLECULE
NONAME
49 52 1 0 0 
SMALL
USER_CHARGES


@<TRIPOS>ATOM
  1 F       -0.0690     2.4620     2.4710 F     1 <1>  -0.1900 
  2 C        1.1850     2.7360     2.2110 C.ar  1 <1>   0.1900 
  3 C        1.5030     3.3960     0.9970 C.ar  1 <1>   0.3100 
  4 C        2.1140     2.3580     3.1400 C.ar  1 <1>  -0.1500 
  5 N        0.5240     3.6980     0.1020 N.ar  1 <1>  -0.6200 
  6 C        2.8680     3.7010     0.7640 C.ar  1 <1>   0.0000 
  7 C        3.4450     2.6410     2.8560 C.ar  1 <1>   0.1900 
  8 C        0.8730     4.2910    -0.9980 C.ar  1 <1>   0.1660 
  9 C        3.2050     4.3950    -0.4270 C.ar  1 <1>   0.1000 
 10 C        3.8290     3.2820     1.7110 C.ar  1 <1>  -0.1500 
 11 F        4.3490     2.2730     3.7230 F     1 <1>  -0.1900 
 12 C        2.1830     4.6520    -1.3010 C.ar  1 <1>  -0.1500 
 13 C       -0.2370     4.6020    -1.9800 C.3   1 <1>  -0.0960 
 14 N        4.5010     4.8210    -0.6960 N.pl3 1 <1>  -0.8380 
 15 C        5.1710     5.8220     0.1870 C.3   1 <1>   0.2090 
 16 C        5.1450     4.6060    -2.0170 C.3   1 <1>   0.2090 
 17 C        5.2950     7.2000    -0.5070 C.3   1 <1>   0.0000 
 18 C        5.3200     5.9420    -2.7490 C.3   1 <1>  -0.1600 
 19 C        6.1580     8.1270     0.3710 C.3   1 <1>   0.1400 
 20 C        3.9210     7.8840    -0.7030 C.3   1 <1>  -0.1600 
 21 C        6.0020     7.0090    -1.8710 C.3   1 <1>  -0.1600 
 22 N        5.4750     8.5350     1.6310 N.am  1 <1>  -0.6600 
 23 C        3.2020     8.1320     0.6340 C.3   1 <1>  -0.0990 
 24 C        4.1090     8.6180     1.7530 C.2   1 <1>   0.5690 
 25 C        6.3840     8.9980     2.7150 C.3   1 <1>   0.0600 
 26 O        3.5770     9.0550     2.7450 O.2   1 <1>  -0.5700 
 27 H        1.8420     1.8590     4.0510 H     1 <1>   0.1500 
 28 H        4.8710     3.4640     1.5260 H     1 <1>   0.1500 
 29 H        2.3870     5.1530    -2.2250 H     1 <1>   0.1500 
 30 H       -0.7290     3.6890    -2.2630 H     1 <1>   0.0800 
 31 H        0.1430     5.0810    -2.8620 H     1 <1>   0.0800 
 32 H       -0.9560     5.2500    -1.5130 H     1 <1>   0.0800 
 33 H        6.1520     5.4530     0.4290 H     1 <1>   0.0800 
 34 H        4.6280     5.9140     1.1110 H     1 <1>   0.0800 
 35 H        4.5510     3.9320    -2.6110 H     1 <1>   0.0800 
 36 H        6.1080     4.1490    -1.8600 H     1 <1>   0.0800 
 37 H        4.3580     6.2900    -3.0740 H     1 <1>   0.0800 
 38 H        5.9100     5.7780    -3.6330 H     1 <1>   0.0800 
 39 H        6.4000     9.0200    -0.1800 H     1 <1>   0.0800 
 40 H        7.0820     7.6310     0.6130 H     1 <1>   0.0800 
 41 H        3.2810     7.2930    -1.3300 H     1 <1>   0.0800 
 42 H        4.0680     8.8320    -1.1910 H     1 <1>   0.0800 
 43 H        7.0190     6.7000    -1.7000 H     1 <1>   0.0800 
 44 H        6.0340     7.9430    -2.4060 H     1 <1>   0.0800 
 45 H        2.7380     7.2210     0.9650 H     1 <1>   0.0800 
 46 H        2.4190     8.8530     0.4910 H     1 <1>   0.0800 
 47 H        7.0550     8.2050     2.9930 H     1 <1>   0.0800 
 48 H        5.8230     9.2900     3.5870 H     1 <1>   0.0800 
 49 H        6.9540     9.8450     2.3750 H     1 <1>   0.0800 
@<TRIPOS>BOND
  1   1   2  1   
  2   2   3  ar  
  3   2   4  ar  
  4   3   5  ar  
  5   3   6  ar  
  6   4   7  ar  
  7   4  27  1   
  8   5   8  ar  
  9   6   9  ar  
 10   6  10  ar  
 11   7  10  ar  
 12   7  11  1   
 13   8  12  ar  
 14   8  13  1   
 15   9  12  ar  
 16   9  14  1   
 17  10  28  1   
 18  12  29  1   
 19  13  30  1   
 20  13  31  1   
 21  13  32  1   
 22  14  15  1   
 23  14  16  1   
 24  15  17  1   
 25  15  33  1   
 26  15  34  1   
 27  16  18  1   
 28  16  35  1   
 29  16  36  1   
 30  17  19  1   
 31  17  20  1   
 32  17  21  1   
 33  18  21  1   
 34  18  37  1   
 35  18  38  1   
 36  19  22  1   
 37  19  39  1   
 38  19  40  1   
 39  20  23  1   
 40  20  41  1   
 41  20  42  1   
 42  21  43  1   
 43  21  44  1   
 44  22  24  am  
 45  22  25  1   
 46  23  24  1   
 47  23  45  1   
 48  23  46  1   
 49  24  26  2   
 50  25  47  1   
 51  25  48  1   
 52  25  49  1   
@<TRIPOS>SUBSTRUCTURE
  1 ****   9 GROUP 4 **** **** 0

# MOE 2024.06 (io_trps.svl 2023.06)
