@<TRIPOS>MOLECULE
NONAME
36 37 1 0 0 
SMALL
USER_CHARGES


@<TRIPOS>ATOM
  1 N        3.3070    -2.1540     0.1530 N.2   1 <1>  -0.5650 
  2 C        1.9610    -2.3090     0.2830 C.ar  1 <1>   0.2270 
  3 C        3.7860    -3.3420     0.3250 C.2   1 <1>   0.0060 
  4 C        1.6530    -3.6290     0.5500 C.ar  1 <1>  -0.1520 
  5 C        0.9500    -1.3540     0.1890 C.ar  1 <1>  -0.1500 
  6 N        2.8390    -4.2970     0.5740 N.pl3 1 <1>   0.0480 
  7 C        5.2850    -3.6050     0.2680 C.3   1 <1>   0.6030 
  8 C        0.3240    -4.0280     0.7340 C.ar  1 <1>  -0.1500 
  9 C       -0.3590    -1.7430     0.3680 C.ar  1 <1>  -0.1500 
 10 C        2.9960    -5.7260     0.9550 C.3   1 <1>   0.0960 
 11 N        5.9100    -2.3720     0.7420 N.4   1 <1>  -0.8530 
 12 C        5.7540    -3.8280    -1.1650 C.3   1 <1>  -0.2400 
 13 C       -0.6700    -3.0800     0.6410 C.ar  1 <1>  -0.1500 
 14 C        3.1390    -6.6620    -0.2600 C.3   1 <1>  -0.0800 
 15 C        1.9410    -6.5730    -1.2170 C.3   1 <1>  -0.2400 
 16 C        3.2960    -8.1110     0.2200 C.3   1 <1>  -0.2400 
 17 H        1.2110    -0.3340    -0.0230 H     1 <1>   0.1500 
 18 H        5.5580    -4.4390     0.8950 H     1 <1>   0.0800 
 19 H        0.0820    -5.0550     0.9410 H     1 <1>   0.1500 
 20 H       -1.1550    -1.0220     0.2990 H     1 <1>   0.1500 
 21 H        2.1360    -6.0190     1.5300 H     1 <1>   0.0800 
 22 H        3.8550    -5.8230     1.5930 H     1 <1>   0.0800 
 23 H        5.2520    -1.6420     0.4160 H     1 <1>   0.4500 
 24 H        6.8360    -2.2130     0.3460 H     1 <1>   0.4500 
 25 H        5.9070    -2.3210     1.7620 H     1 <1>   0.4500 
 26 H        5.5000    -2.9860    -1.7860 H     1 <1>   0.0800 
 27 H        5.2690    -4.6910    -1.5800 H     1 <1>   0.0800 
 28 H        6.8150    -3.9980    -1.2000 H     1 <1>   0.0800 
 29 H       -1.7010    -3.3590     0.7770 H     1 <1>   0.1500 
 30 H        4.0290    -6.4060    -0.8030 H     1 <1>   0.0800 
 31 H        1.0250    -6.8200    -0.7090 H     1 <1>   0.0800 
 32 H        2.0660    -7.2580    -2.0380 H     1 <1>   0.0800 
 33 H        1.8460    -5.5830    -1.6290 H     1 <1>   0.0800 
 34 H        2.4210    -8.4320     0.7590 H     1 <1>   0.0800 
 35 H        4.1510    -8.2100     0.8650 H     1 <1>   0.0800 
 36 H        3.4340    -8.7700    -0.6200 H     1 <1>   0.0800 
@<TRIPOS>BOND
  1   1   2  1   
  2   1   3  2   
  3   2   4  ar  
  4   2   5  ar  
  5   3   6  1   
  6   3   7  1   
  7   4   6  1   
  8   4   8  ar  
  9   5   9  ar  
 10   5  17  1   
 11   6  10  1   
 12   7  11  1   
 13   7  12  1   
 14   7  18  1   
 15   8  13  ar  
 16   8  19  1   
 17   9  13  ar  
 18   9  20  1   
 19  10  14  1   
 20  10  21  1   
 21  10  22  1   
 22  11  23  1   
 23  11  24  1   
 24  11  25  1   
 25  12  26  1   
 26  12  27  1   
 27  12  28  1   
 28  13  29  1   
 29  14  15  1   
 30  14  16  1   
 31  14  30  1   
 32  15  31  1   
 33  15  32  1   
 34  15  33  1   
 35  16  34  1   
 36  16  35  1   
 37  16  36  1   
@<TRIPOS>SUBSTRUCTURE
  1 ****   6 GROUP 4 **** **** 0

# MOE 2024.06 (io_trps.svl 2023.06)
