@<TRIPOS>MOLECULE
NONAME
48 52 1 0 0 
SMALL
USER_CHARGES


@<TRIPOS>ATOM
  1 O       -0.3870     0.1490    -0.2790 O.2   1 <1>  -0.5700 
  2 C       -1.4250     0.7830    -0.3530 C.2   1 <1>   0.7150 
  3 N       -2.6040     0.0710    -0.4780 N.am  1 <1>  -0.6600 
  4 C       -1.3500     2.2260    -0.3010 C.2   1 <1>   0.0550 
  5 C       -3.9820     0.6250    -0.5310 C.3   1 <1>   0.1400 
  6 C       -2.6450    -1.4120    -0.4960 C.3   1 <1>   0.1400 
  7 O       -2.3990     3.0120    -0.4100 O.3   1 <1>  -0.0190 
  8 C       -0.2900     3.0500    -0.1440 C.2   1 <1>  -0.1500 
  9 C       -4.9070    -0.5920    -0.5930 C.3   1 <1>   0.2000 
 10 C       -4.0760    -1.7730    -0.0960 C.3   1 <1>  -0.0800 
 11 N       -2.1060     4.2740    -0.3330 N.2   1 <1>  -0.4100 
 12 C       -0.8310     4.3250    -0.1700 C.2   1 <1>   0.2030 
 13 O       -6.0210    -0.4270     0.2140 O.3   1 <1>  -0.6800 
 14 C       -4.5600    -3.1190    -0.6590 C.3   1 <1>  -0.0170 
 15 C       -0.0410     5.6140    -0.0290 C.3   1 <1>  -0.0140 
 16 C       -3.6970    -4.2660    -0.1630 C.ar  1 <1>   0.1670 
 17 C        1.0250     5.7490     1.0170 C.3   1 <1>  -0.2000 
 18 C       -0.2640     6.4950     1.1620 C.3   1 <1>  -0.2000 
 19 N       -2.6450    -4.5670    -0.8610 N.ar  1 <1>  -0.6200 
 20 C       -4.0640    -4.9330     1.0170 C.ar  1 <1>  -0.1500 
 21 C       -1.8580    -5.5800    -0.4160 C.ar  1 <1>   0.3100 
 22 C       -3.2950    -5.9540     1.4850 C.ar  1 <1>  -0.1500 
 23 C       -2.1440    -6.3060     0.7610 C.ar  1 <1>   0.0000 
 24 C       -0.7100    -5.9210    -1.1490 C.ar  1 <1>  -0.1500 
 25 C       -1.2730    -7.3410     1.1560 C.ar  1 <1>  -0.1500 
 26 C        0.1240    -6.9300    -0.7480 C.ar  1 <1>  -0.1500 
 27 C       -0.1620    -7.6480     0.4180 C.ar  1 <1>  -0.1500 
 28 H       -4.1700     1.2070     0.3550 H     1 <1>   0.0800 
 29 H       -4.1050     1.2350    -1.4090 H     1 <1>   0.0800 
 30 H       -2.4250    -1.7580    -1.4920 H     1 <1>   0.0800 
 31 H       -1.9270    -1.8350     0.1880 H     1 <1>   0.0800 
 32 H        0.7460     2.7890    -0.0250 H     1 <1>   0.1500 
 33 H       -5.2400    -0.7450    -1.6060 H     1 <1>   0.0800 
 34 H       -4.1040    -1.8060     0.9790 H     1 <1>   0.0800 
 35 H       -5.7510    -0.2680     1.1390 H     1 <1>   0.4000 
 36 H       -4.5300    -3.1000    -1.7350 H     1 <1>   0.0800 
 37 H       -5.5820    -3.2850    -0.3680 H     1 <1>   0.0800 
 38 H        0.1160     6.0990    -0.9760 H     1 <1>   0.1000 
 39 H        1.2150     4.9270     1.6860 H     1 <1>   0.1000 
 40 H        1.9180     6.2990     0.7750 H     1 <1>   0.1000 
 41 H       -0.2750     7.5610     1.0140 H     1 <1>   0.1000 
 42 H       -0.9760     6.1740     1.9030 H     1 <1>   0.1000 
 43 H       -4.9520    -4.6270     1.5390 H     1 <1>   0.1500 
 44 H       -3.5430    -6.4880     2.3850 H     1 <1>   0.1500 
 45 H       -0.5080    -5.3570    -2.0400 H     1 <1>   0.1500 
 46 H       -1.4980    -7.8880     2.0530 H     1 <1>   0.1500 
 47 H        1.0020    -7.1800    -1.3190 H     1 <1>   0.1500 
 48 H        0.5030    -8.4380     0.7220 H     1 <1>   0.1500 
@<TRIPOS>BOND
  1   1   2  2   
  2   2   3  am  
  3   2   4  1   
  4   3   5  1   
  5   3   6  1   
  6   4   7  1   
  7   4   8  2   
  8   5   9  1   
  9   5  28  1   
 10   5  29  1   
 11   6  10  1   
 12   6  30  1   
 13   6  31  1   
 14   7  11  1   
 15   8  12  1   
 16   8  32  1   
 17   9  10  1   
 18   9  13  1   
 19   9  33  1   
 20  10  14  1   
 21  10  34  1   
 22  11  12  2   
 23  12  15  1   
 24  13  35  1   
 25  14  16  1   
 26  14  36  1   
 27  14  37  1   
 28  15  17  1   
 29  15  18  1   
 30  15  38  1   
 31  16  19  ar  
 32  16  20  ar  
 33  17  18  1   
 34  17  39  1   
 35  17  40  1   
 36  18  41  1   
 37  18  42  1   
 38  19  21  ar  
 39  20  22  ar  
 40  20  43  1   
 41  21  23  ar  
 42  21  24  ar  
 43  22  23  ar  
 44  22  44  1   
 45  23  25  ar  
 46  24  26  ar  
 47  24  45  1   
 48  25  27  ar  
 49  25  46  1   
 50  26  27  ar  
 51  26  47  1   
 52  27  48  1   
@<TRIPOS>SUBSTRUCTURE
  1 ****   6 GROUP 4 **** **** 0

# MOE 2024.06 (io_trps.svl 2023.06)
