@<TRIPOS>MOLECULE
NONAME
56 58 1 0 0 
SMALL
USER_CHARGES


@<TRIPOS>ATOM
  1 O       -3.6970     1.8350    -2.0230 O.2   1 <1>  -0.5700 
  2 C       -3.1890     1.0920    -1.2040 C.2   1 <1>   0.5440 
  3 N       -3.6340    -0.2140    -1.1330 N.am  1 <1>  -0.6600 
  4 C       -2.1380     1.6110    -0.3510 C.ar  1 <1>   0.0860 
  5 C       -2.9460    -1.2560    -0.2850 C.3   1 <1>   0.3640 
  6 C       -4.8730    -0.6080    -1.8720 C.3   1 <1>   0.1400 
  7 C       -2.2840     1.6920     1.0340 C.ar  1 <1>  -0.1500 
  8 C       -0.9320     2.0480    -0.8990 C.ar  1 <1>  -0.1500 
  9 C       -1.4660    -1.3280    -0.6770 C.ar  1 <1>  -0.1430 
 10 C       -3.5440    -2.7000    -0.3400 C.3   1 <1>   0.2000 
 11 C       -4.9610    -2.1130    -2.1120 C.3   1 <1>   0.1200 
 12 C       -1.2620     2.1670     1.8350 C.ar  1 <1>  -0.1500 
 13 C        0.0930     2.5280    -0.1060 C.ar  1 <1>  -0.1500 
 14 C       -0.4880    -1.3100     0.3060 C.ar  1 <1>  -0.1500 
 15 C       -1.0770    -1.4080    -2.0080 C.ar  1 <1>  -0.1500 
 16 O       -4.8290    -2.7700    -0.8950 O.3   1 <1>  -0.5600 
 17 C       -3.6490    -3.3490     1.0500 C.3   1 <1>   0.1200 
 18 C       -0.0660     2.5870     1.2760 C.ar  1 <1>   0.0830 
 19 C        0.8550    -1.3720    -0.0300 C.ar  1 <1>   0.0830 
 20 C        0.2630    -1.4690    -2.3530 C.ar  1 <1>  -0.1500 
 21 O       -2.4370    -3.3100     1.7310 O.3   1 <1>  -0.6800 
 22 O        0.8870     3.0320     2.1240 O.3   1 <1>  -0.3630 
 23 O        1.7860    -1.3760     0.9550 O.3   1 <1>  -0.3620 
 24 C        1.2450    -1.4510    -1.3670 C.ar  1 <1>   0.0830 
 25 C        2.0680     3.6420     1.6570 C.3   1 <1>   0.1200 
 26 C        1.9030    -0.1960     1.7140 C.3   1 <1>   0.0400 
 27 O        2.5780    -1.5000    -1.6490 O.3   1 <1>  -0.3630 
 28 C        2.8920     4.0650     2.8690 C.3   1 <1>  -0.2400 
 29 C        3.0480    -1.6900    -2.9640 C.3   1 <1>   0.0400 
 30 H       -3.0080    -0.9240     0.7360 H     1 <1>   0.0800 
 31 H       -5.7310    -0.2910    -1.3050 H     1 <1>   0.0800 
 32 H       -4.9060    -0.1050    -2.8230 H     1 <1>   0.0800 
 33 H       -3.2110     1.3800     1.4810 H     1 <1>   0.1500 
 34 H       -0.8070     2.0000    -1.9670 H     1 <1>   0.1500 
 35 H       -2.9140    -3.3200    -0.9540 H     1 <1>   0.0800 
 36 H       -4.1930    -2.4490    -2.7870 H     1 <1>   0.0800 
 37 H       -5.9230    -2.3660    -2.5220 H     1 <1>   0.0800 
 38 H       -1.3850     2.2210     2.9020 H     1 <1>   0.1500 
 39 H        1.0040     2.8440    -0.5780 H     1 <1>   0.1500 
 40 H       -0.7610    -1.2530     1.3440 H     1 <1>   0.1500 
 41 H       -1.8210    -1.4140    -2.7860 H     1 <1>   0.1500 
 42 H       -3.9510    -4.3780     0.9610 H     1 <1>   0.0800 
 43 H       -4.3710    -2.8170     1.6460 H     1 <1>   0.0800 
 44 H        0.5190    -1.5240    -3.3940 H     1 <1>   0.1500 
 45 H       -1.7570    -3.8520     1.2800 H     1 <1>   0.4000 
 46 H        2.6110     2.9300     1.0600 H     1 <1>   0.0800 
 47 H        1.7960     4.4970     1.0610 H     1 <1>   0.0800 
 48 H        2.7160    -0.3200     2.4060 H     1 <1>   0.0800 
 49 H        0.9870    -0.0210     2.2500 H     1 <1>   0.0800 
 50 H        2.1090     0.6200     1.0460 H     1 <1>   0.0800 
 51 H        3.1420     3.2050     3.4640 H     1 <1>   0.0800 
 52 H        2.3370     4.7660     3.4660 H     1 <1>   0.0800 
 53 H        3.8030     4.5350     2.5450 H     1 <1>   0.0800 
 54 H        4.1210    -1.7400    -2.9300 H     1 <1>   0.0800 
 55 H        2.7400    -0.8560    -3.5690 H     1 <1>   0.0800 
 56 H        2.6520    -2.6140    -3.3460 H     1 <1>   0.0800 
@<TRIPOS>BOND
  1   1   2  2   
  2   2   3  am  
  3   2   4  1   
  4   3   5  1   
  5   3   6  1   
  6   4   7  ar  
  7   4   8  ar  
  8   5   9  1   
  9   5  10  1   
 10   5  30  1   
 11   6  11  1   
 12   6  31  1   
 13   6  32  1   
 14   7  12  ar  
 15   7  33  1   
 16   8  13  ar  
 17   8  34  1   
 18   9  14  ar  
 19   9  15  ar  
 20  10  16  1   
 21  10  17  1   
 22  10  35  1   
 23  11  16  1   
 24  11  36  1   
 25  11  37  1   
 26  12  18  ar  
 27  12  38  1   
 28  13  18  ar  
 29  13  39  1   
 30  14  19  ar  
 31  14  40  1   
 32  15  20  ar  
 33  15  41  1   
 34  17  21  1   
 35  17  42  1   
 36  17  43  1   
 37  18  22  1   
 38  19  23  1   
 39  19  24  ar  
 40  20  24  ar  
 41  20  44  1   
 42  21  45  1   
 43  22  25  1   
 44  23  26  1   
 45  24  27  1   
 46  25  28  1   
 47  25  46  1   
 48  25  47  1   
 49  26  48  1   
 50  26  49  1   
 51  26  50  1   
 52  27  29  1   
 53  28  51  1   
 54  28  52  1   
 55  28  53  1   
 56  29  54  1   
 57  29  55  1   
 58  29  56  1   
@<TRIPOS>SUBSTRUCTURE
  1 ****   9 GROUP 4 **** **** 0

# MOE 2024.06 (io_trps.svl 2023.06)
