@<TRIPOS>MOLECULE
NONAME
47 50 1 0 0 
SMALL
USER_CHARGES


@<TRIPOS>ATOM
  1 O       -1.5670    -0.5700    -0.6440 O.2   1 <1>  -0.5700 
  2 C       -2.2940    -1.3610    -0.0860 C.2   1 <1>   0.6340 
  3 O       -3.2210    -0.8600     0.7280 O.3   1 <1>  -0.4300 
  4 C       -2.2150    -2.7900    -0.2850 C.ar  1 <1>   0.0860 
  5 C       -3.7450    -1.6000     1.8060 C.3   1 <1>   0.2640 
  6 C       -3.0890    -3.6270     0.4520 C.ar  1 <1>   0.0000 
  7 C       -1.3470    -3.3650    -1.1880 C.ar  1 <1>  -0.1500 
  8 C       -3.9110    -3.0730     1.4520 C.ar  1 <1>  -0.1440 
  9 C       -3.1460    -5.0160     0.1910 C.ar  1 <1>   0.0000 
 10 C       -1.3450    -4.7400    -1.4120 C.ar  1 <1>  -0.1500 
 11 C       -4.8170    -3.8500     2.1180 C.ar  1 <1>  -0.1500 
 12 C       -4.1150    -5.7880     0.8820 C.ar  1 <1>  -0.1430 
 13 C       -2.2260    -5.5450    -0.7440 C.ar  1 <1>  -0.1500 
 14 C       -4.9250    -5.2100     1.8230 C.ar  1 <1>  -0.1500 
 15 C       -4.2940    -7.2690     0.5990 C.3   1 <1>   0.4860 
 16 N       -5.4650    -7.4480    -0.3030 N.4   1 <1>  -0.9590 
 17 C       -5.9340    -8.8620    -0.3060 C.3   1 <1>   0.5230 
 18 C       -5.3040    -6.8180    -1.6370 C.3   1 <1>   0.3430 
 19 C       -6.7050    -9.1050     0.9860 C.2   1 <1>   0.0070 
 20 C       -6.6680    -6.6480    -2.2950 C.3   1 <1>  -0.2400 
 21 N       -7.0330    -8.1500     1.8040 N.2   1 <1>  -0.5650 
 22 N       -7.1230   -10.3330     1.3880 N.pl3 1 <1>   0.0480 
 23 C       -7.6970    -8.7820     2.7890 C.2   1 <1>   0.0770 
 24 C       -7.7580   -10.1090     2.5500 C.2   1 <1>  -0.3020 
 25 C       -6.9650   -11.6520     0.7410 C.3   1 <1>   0.0160 
 26 H       -4.6900    -1.1600     2.0730 H     1 <1>   0.0800 
 27 H       -3.0640    -1.4930     2.6330 H     1 <1>   0.0800 
 28 H       -0.6600    -2.7440    -1.7410 H     1 <1>   0.1500 
 29 H       -0.6430    -5.1490    -2.1200 H     1 <1>   0.1500 
 30 H       -5.4560    -3.4350     2.8820 H     1 <1>   0.1500 
 31 H       -2.1940    -6.5980    -0.9440 H     1 <1>   0.1500 
 32 H       -5.6610    -5.7850     2.3650 H     1 <1>   0.1500 
 33 H       -4.4820    -7.7710     1.5350 H     1 <1>   0.0800 
 34 H       -3.4060    -7.6930     0.1650 H     1 <1>   0.0800 
 35 H       -6.2280    -6.9630     0.2020 H     1 <1>   0.4500 
 36 H       -5.0990    -9.5380    -0.3810 H     1 <1>   0.0800 
 37 H       -6.5970    -9.0350    -1.1360 H     1 <1>   0.0800 
 38 H       -4.6570    -7.4140    -2.2610 H     1 <1>   0.0800 
 39 H       -4.8580    -5.8420    -1.5260 H     1 <1>   0.0800 
 40 H       -7.1180    -7.5930    -2.5370 H     1 <1>   0.0800 
 41 H       -6.5470    -6.1010    -3.2130 H     1 <1>   0.0800 
 42 H       -7.3280    -6.0820    -1.6600 H     1 <1>   0.0800 
 43 H       -8.1060    -8.2470     3.6320 H     1 <1>   0.1500 
 44 H       -8.2160   -10.8840     3.1400 H     1 <1>   0.1500 
 45 H       -7.4090   -11.6320    -0.2370 H     1 <1>   0.0800 
 46 H       -7.4590   -12.4020     1.3340 H     1 <1>   0.0800 
 47 H       -5.9210   -11.8970     0.6670 H     1 <1>   0.0800 
@<TRIPOS>BOND
  1   1   2  2   
  2   2   3  1   
  3   2   4  1   
  4   3   5  1   
  5   4   6  ar  
  6   4   7  ar  
  7   5   8  1   
  8   5  26  1   
  9   5  27  1   
 10   6   8  ar  
 11   6   9  ar  
 12   7  10  ar  
 13   7  28  1   
 14   8  11  ar  
 15   9  12  ar  
 16   9  13  ar  
 17  10  13  ar  
 18  10  29  1   
 19  11  14  ar  
 20  11  30  1   
 21  12  14  ar  
 22  12  15  1   
 23  13  31  1   
 24  14  32  1   
 25  15  16  1   
 26  15  33  1   
 27  15  34  1   
 28  16  17  1   
 29  16  18  1   
 30  16  35  1   
 31  17  19  1   
 32  17  36  1   
 33  17  37  1   
 34  18  20  1   
 35  18  38  1   
 36  18  39  1   
 37  19  21  2   
 38  19  22  1   
 39  20  40  1   
 40  20  41  1   
 41  20  42  1   
 42  21  23  1   
 43  22  24  1   
 44  22  25  1   
 45  23  24  2   
 46  23  43  1   
 47  24  44  1   
 48  25  45  1   
 49  25  46  1   
 50  25  47  1   
@<TRIPOS>SUBSTRUCTURE
  1 ****  12 GROUP 4 **** **** 0

# MOE 2024.06 (io_trps.svl 2023.06)
