@<TRIPOS>MOLECULE
NONAME
54 58 1 0 0 
SMALL
USER_CHARGES


@<TRIPOS>ATOM
  1 O       -0.0350    -0.3320     1.4150 O.3   1 <1>  -0.0190 
  2 N        1.0230     0.3920     1.2410 N.2   1 <1>  -0.4100 
  3 C        0.2120    -1.6030     1.2820 C.2   1 <1>  -0.0400 
  4 C        2.0060    -0.4220     0.9990 C.2   1 <1>   0.2350 
  5 C        1.5190    -1.7370     1.0160 C.2   1 <1>  -0.1500 
  6 C       -0.9190    -2.6010     1.4260 C.3   1 <1>   0.5230 
  7 C        3.3790    -0.0250     0.7530 C.ar  1 <1>   0.0540 
  8 N       -1.9590    -2.3030     0.4000 N.4   1 <1>  -0.9590 
  9 C        3.8540     1.2110     1.1900 C.ar  1 <1>  -0.1500 
 10 C        4.2770    -0.8490     0.0740 C.ar  1 <1>  -0.1500 
 11 C       -2.9000    -1.2280     0.8800 C.3   1 <1>   0.3430 
 12 C       -2.7070    -3.5200    -0.0230 C.3   1 <1>   0.3430 
 13 C        5.1620     1.6030     0.9700 C.ar  1 <1>  -0.1500 
 14 C        5.5860    -0.4620    -0.1480 C.ar  1 <1>  -0.1500 
 15 C       -3.8840    -0.7970    -0.2200 C.3   1 <1>   0.1430 
 16 C       -3.6530    -3.1610    -1.1730 C.3   1 <1>  -0.1600 
 17 C        6.0390     0.7670     0.3010 C.ar  1 <1>  -0.1430 
 18 C       -4.8740     0.1700     0.3840 C.ar  1 <1>   0.1670 
 19 C       -4.6220    -2.0250    -0.7950 C.3   1 <1>  -0.1600 
 20 C       -3.2100     0.0570    -1.3290 C.3   1 <1>  -0.1600 
 21 C        7.4750     1.1950     0.0570 C.3   1 <1>  -0.0970 
 22 N       -5.5090    -0.0310     1.5110 N.ar  1 <1>  -0.6200 
 23 C       -5.0190     1.2910    -0.3760 C.ar  1 <1>  -0.1430 
 24 C       -4.1520     1.2460    -1.6090 C.3   1 <1>  -0.0170 
 25 C       -6.3160     0.9660     1.8510 C.ar  1 <1>   0.7200 
 26 C       -5.8900     2.2540     0.0740 C.ar  1 <1>   0.1600 
 27 N       -6.5530     2.0950     1.1980 N.ar  1 <1>  -0.6200 
 28 N       -6.9920     0.8070     2.9880 N.pl3 1 <1>  -0.9000 
 29 H        2.1070    -2.6210     0.8510 H     1 <1>   0.1500 
 30 H       -1.3390    -2.5450     2.4170 H     1 <1>   0.0800 
 31 H       -0.5240    -3.5930     1.2760 H     1 <1>   0.0800 
 32 H       -1.4600    -1.9280    -0.4170 H     1 <1>   0.4500 
 33 H        3.1890     1.8760     1.7120 H     1 <1>   0.1500 
 34 H        3.9590    -1.8050    -0.2950 H     1 <1>   0.1500 
 35 H       -2.3520    -0.3610     1.2100 H     1 <1>   0.0800 
 36 H       -3.4690    -1.5940     1.7190 H     1 <1>   0.0800 
 37 H       -3.2810    -3.9050     0.8050 H     1 <1>   0.0800 
 38 H       -2.0220    -4.2860    -0.3500 H     1 <1>   0.0800 
 39 H        5.4950     2.5640     1.3220 H     1 <1>   0.1500 
 40 H        6.2550    -1.1200    -0.6750 H     1 <1>   0.1500 
 41 H       -4.2260    -4.0340    -1.4370 H     1 <1>   0.0800 
 42 H       -3.0770    -2.8890    -2.0400 H     1 <1>   0.0800 
 43 H       -5.2100    -1.7370    -1.6500 H     1 <1>   0.0800 
 44 H       -5.3090    -2.3950    -0.0510 H     1 <1>   0.0800 
 45 H       -3.0140    -0.4980    -2.2290 H     1 <1>   0.0800 
 46 H       -2.2780     0.4560    -0.9640 H     1 <1>   0.0800 
 47 H        7.8130     1.8420     0.8470 H     1 <1>   0.0800 
 48 H        7.5430     1.7220    -0.8770 H     1 <1>   0.0800 
 49 H        8.1220     0.3380     0.0210 H     1 <1>   0.0800 
 50 H       -4.7640     1.0550    -2.4740 H     1 <1>   0.0800 
 51 H       -3.6050     2.1640    -1.7460 H     1 <1>   0.0800 
 52 H       -6.0450     3.1590    -0.4880 H     1 <1>   0.1500 
 53 H       -7.7790     1.4400     3.1090 H     1 <1>   0.4000 
 54 H       -7.1290    -0.1490     3.3010 H     1 <1>   0.4000 
@<TRIPOS>BOND
  1   1   2  1   
  2   1   3  1   
  3   2   4  2   
  4   3   5  2   
  5   3   6  1   
  6   4   5  1   
  7   4   7  1   
  8   5  29  1   
  9   6   8  1   
 10   6  30  1   
 11   6  31  1   
 12   7   9  ar  
 13   7  10  ar  
 14   8  11  1   
 15   8  12  1   
 16   8  32  1   
 17   9  13  ar  
 18   9  33  1   
 19  10  14  ar  
 20  10  34  1   
 21  11  15  1   
 22  11  35  1   
 23  11  36  1   
 24  12  16  1   
 25  12  37  1   
 26  12  38  1   
 27  13  17  ar  
 28  13  39  1   
 29  14  17  ar  
 30  14  40  1   
 31  15  18  1   
 32  15  19  1   
 33  15  20  1   
 34  16  19  1   
 35  16  41  1   
 36  16  42  1   
 37  17  21  1   
 38  18  22  ar  
 39  18  23  ar  
 40  19  43  1   
 41  19  44  1   
 42  20  24  1   
 43  20  45  1   
 44  20  46  1   
 45  21  47  1   
 46  21  48  1   
 47  21  49  1   
 48  22  25  ar  
 49  23  24  1   
 50  23  26  ar  
 51  24  50  1   
 52  24  51  1   
 53  25  27  ar  
 54  25  28  1   
 55  26  27  ar  
 56  26  52  1   
 57  28  53  1   
 58  28  54  1   
@<TRIPOS>SUBSTRUCTURE
  1 ****   1 GROUP 4 **** **** 0

# MOE 2024.06 (io_trps.svl 2023.06)
