@<TRIPOS>MOLECULE
NONAME
52 55 1 0 0 
SMALL
USER_CHARGES


@<TRIPOS>ATOM
  1 O       -1.0180     0.6850    -0.2610 O.3   1 <1>  -0.3630 
  2 C       -1.3910    -0.5950    -0.5110 C.ar  1 <1>   0.0830 
  3 C       -1.9460     1.6640     0.1540 C.3   1 <1>   0.0400 
  4 C       -0.4030    -1.4850    -0.9150 C.ar  1 <1>  -0.1440 
  5 C       -2.7010    -1.0480    -0.3710 C.ar  1 <1>  -0.1500 
  6 C       -0.7370    -2.7960    -1.1950 C.ar  1 <1>  -0.1500 
  7 C        1.0660    -1.0860    -1.0120 C.3   1 <1>   0.2390 
  8 C       -3.0130    -2.3770    -0.6030 C.ar  1 <1>  -0.1500 
  9 C       -2.0240    -3.2640    -0.9990 C.ar  1 <1>  -0.1430 
 10 N        1.8490    -1.7700     0.0510 N.pl3 1 <1>   0.3140 
 11 C       -2.2930    -4.7480    -1.1570 C.3   1 <1>   0.4870 
 12 N        2.0560    -3.1130     0.0850 N.2   1 <1>  -0.7070 
 13 C        2.4650    -1.1650     1.0860 C.2   1 <1>  -0.3020 
 14 N       -1.3340    -5.4700    -0.2710 N.4   1 <1>  -0.9590 
 15 C        2.8090    -3.3050     1.1260 C.2   1 <1>   0.1390 
 16 C        3.0940    -2.1230     1.7970 C.2   1 <1>  -0.1500 
 17 C       -1.3650    -6.9480    -0.5110 C.3   1 <1>   0.3430 
 18 C       -1.5380    -5.1250     1.1660 C.3   1 <1>   0.3430 
 19 C       -0.3080    -7.6920     0.3260 C.3   1 <1>   0.1000 
 20 C       -0.4490    -5.7940     2.0070 C.3   1 <1>  -0.1600 
 21 C       -0.4950    -9.1880     0.1310 C.2   1 <1>   0.0060 
 22 C       -0.4290    -7.3190     1.8140 C.3   1 <1>  -0.1600 
 23 N       -1.5330    -9.7030    -0.4470 N.2   1 <1>  -0.5650 
 24 N        0.4040   -10.1120     0.5420 N.pl3 1 <1>   0.0330 
 25 C       -1.3030   -11.0300    -0.4100 C.2   1 <1>   0.0770 
 26 C       -0.1240   -11.2970     0.1900 C.2   1 <1>  -0.3020 
 27 H       -1.4190     2.5910     0.2860 H     1 <1>   0.0800 
 28 H       -2.3830     1.3580     1.0880 H     1 <1>   0.0800 
 29 H       -2.6990     1.7780    -0.6060 H     1 <1>   0.0800 
 30 H       -3.4880    -0.3810    -0.0720 H     1 <1>   0.1500 
 31 H        0.0390    -3.4600    -1.5380 H     1 <1>   0.1500 
 32 H        1.1950    -0.0260    -0.9100 H     1 <1>   0.0800 
 33 H        1.4640    -1.3830    -1.9650 H     1 <1>   0.0800 
 34 H       -4.0290    -2.7080    -0.4630 H     1 <1>   0.1500 
 35 H       -2.1400    -5.0330    -2.1850 H     1 <1>   0.0800 
 36 H       -3.3080    -4.9770    -0.8780 H     1 <1>   0.0800 
 37 H        2.4260    -0.1040     1.2560 H     1 <1>   0.1500 
 38 H       -0.3980    -5.1120    -0.5090 H     1 <1>   0.4500 
 39 H        3.1730    -4.2720     1.4320 H     1 <1>   0.1500 
 40 H        3.6930    -2.0220     2.6850 H     1 <1>   0.1500 
 41 H       -1.1940    -7.1640    -1.5530 H     1 <1>   0.0800 
 42 H       -2.3370    -7.3360    -0.2510 H     1 <1>   0.0800 
 43 H       -2.5080    -5.4640     1.4920 H     1 <1>   0.0800 
 44 H       -1.4850    -4.0560     1.3020 H     1 <1>   0.0800 
 45 H        0.6660    -7.4200    -0.0390 H     1 <1>   0.0800 
 46 H       -0.6250    -5.5690     3.0450 H     1 <1>   0.0800 
 47 H        0.5070    -5.3710     1.7470 H     1 <1>   0.0800 
 48 H        0.3910    -7.7430     2.3680 H     1 <1>   0.0800 
 49 H       -1.3400    -7.7390     2.2090 H     1 <1>   0.0800 
 50 H        1.2970    -9.9550     1.0210 H     1 <1>   0.2700 
 51 H       -2.0070   -11.7350    -0.8230 H     1 <1>   0.1500 
 52 H        0.3520   -12.2430     0.3790 H     1 <1>   0.1500 
@<TRIPOS>BOND
  1   1   2  1   
  2   1   3  1   
  3   2   4  ar  
  4   2   5  ar  
  5   3  27  1   
  6   3  28  1   
  7   3  29  1   
  8   4   6  ar  
  9   4   7  1   
 10   5   8  ar  
 11   5  30  1   
 12   6   9  ar  
 13   6  31  1   
 14   7  10  1   
 15   7  32  1   
 16   7  33  1   
 17   8   9  ar  
 18   8  34  1   
 19   9  11  1   
 20  10  12  1   
 21  10  13  1   
 22  11  14  1   
 23  11  35  1   
 24  11  36  1   
 25  12  15  2   
 26  13  16  2   
 27  13  37  1   
 28  14  17  1   
 29  14  18  1   
 30  14  38  1   
 31  15  16  1   
 32  15  39  1   
 33  16  40  1   
 34  17  19  1   
 35  17  41  1   
 36  17  42  1   
 37  18  20  1   
 38  18  43  1   
 39  18  44  1   
 40  19  21  1   
 41  19  22  1   
 42  19  45  1   
 43  20  22  1   
 44  20  46  1   
 45  20  47  1   
 46  21  23  2   
 47  21  24  1   
 48  22  48  1   
 49  22  49  1   
 50  23  25  1   
 51  24  26  1   
 52  24  50  1   
 53  25  26  2   
 54  25  51  1   
 55  26  52  1   
@<TRIPOS>SUBSTRUCTURE
  1 ****  14 GROUP 4 **** **** 0

# MOE 2024.06 (io_trps.svl 2023.06)
