@<TRIPOS>MOLECULE
NONAME
45 46 1 0 0 
SMALL
USER_CHARGES


@<TRIPOS>ATOM
  1 O        2.9890     6.6620    -2.7040 O.co2 1 <1>  -0.9000 
  2 C        3.5130     6.3420    -1.6280 C.2   1 <1>   1.0320 
  3 O        3.8780     7.2510    -0.8440 O.co2 1 <1>  -0.9000 
  4 C        3.8100     4.9570    -1.3050 C.2   1 <1>  -0.0920 
  5 O        4.2330     4.6640    -0.0880 O.3   1 <1>  -0.2800 
  6 C        3.8340     3.8050    -2.0310 C.2   1 <1>  -0.1500 
  7 C        4.6410     3.4190    -0.0260 C.2   1 <1>  -0.0400 
  8 C        4.3840     2.8120    -1.2060 C.2   1 <1>  -0.1500 
  9 C        5.3250     2.9880     1.2710 C.3   1 <1>   0.3200 
 10 N        5.4720     4.2010     2.1180 N.am  1 <1>  -0.7300 
 11 C        6.4210     5.1270     1.8070 C.2   1 <1>   0.5690 
 12 O        7.5930     4.8330     1.7760 O.2   1 <1>  -0.5700 
 13 C        5.9600     6.5580     1.4180 C.3   1 <1>   0.4040 
 14 N        6.9470     7.5380     0.7990 N.4   1 <1>  -0.9590 
 15 C        6.2460     8.7640     0.2530 C.3   1 <1>   0.4230 
 16 C        7.8370     6.9100    -0.2260 C.3   1 <1>   0.5610 
 17 C        7.2890     9.8560    -0.0850 C.3   1 <1>  -0.0220 
 18 C        5.1870     9.3360     1.2250 C.3   1 <1>  -0.0220 
 19 C        8.7900     7.9710    -0.7360 C.2   1 <1>  -0.2880 
 20 C        7.0840     6.2970    -1.4020 C.3   1 <1>  -0.2400 
 21 C        8.5670     9.2860    -0.6740 C.2   1 <1>  -0.2880 
 22 C        4.5890    10.6450     0.7320 C.2   1 <1>  -0.2880 
 23 C        4.7150    11.8280     1.3400 C.2   1 <1>  -0.3000 
 24 H        3.5280     3.6900    -3.0570 H     1 <1>   0.1500 
 25 H        4.5750     1.7970    -1.5040 H     1 <1>   0.1500 
 26 H        6.2910     2.5630     1.0600 H     1 <1>   0.0800 
 27 H        4.7210     2.2590     1.7840 H     1 <1>   0.0800 
 28 H        4.5310     4.5640     2.2930 H     1 <1>   0.3700 
 29 H        5.5480     7.0030     2.3050 H     1 <1>   0.0800 
 30 H        5.1450     6.4480     0.7310 H     1 <1>   0.0800 
 31 H        7.5940     7.8510     1.5240 H     1 <1>   0.4500 
 32 H        5.7380     8.4950    -0.6590 H     1 <1>   0.0800 
 33 H        8.4290     6.1420     0.2440 H     1 <1>   0.0800 
 34 H        6.8510    10.5370    -0.7930 H     1 <1>   0.0800 
 35 H        7.5340    10.4190     0.7980 H     1 <1>   0.0800 
 36 H        4.3690     8.6440     1.3240 H     1 <1>   0.0800 
 37 H        5.6290     9.4930     2.1920 H     1 <1>   0.0800 
 38 H        9.6790     7.5490    -1.1730 H     1 <1>   0.1500 
 39 H        6.4420     7.0110    -1.8830 H     1 <1>   0.0800 
 40 H        6.5110     5.4500    -1.0850 H     1 <1>   0.0800 
 41 H        7.7900     5.9460    -2.1320 H     1 <1>   0.0800 
 42 H        9.2560    10.0320    -1.0360 H     1 <1>   0.1500 
 43 H        4.0270    10.5170    -0.1830 H     1 <1>   0.1500 
 44 H        4.2730    12.7370     0.9670 H     1 <1>   0.1500 
 45 H        5.2580    11.9960     2.2540 H     1 <1>   0.1500 
@<TRIPOS>BOND
  1   1   2  ar  
  2   2   3  ar  
  3   2   4  1   
  4   4   5  1   
  5   4   6  2   
  6   5   7  1   
  7   6   8  1   
  8   6  24  1   
  9   7   8  2   
 10   7   9  1   
 11   8  25  1   
 12   9  10  1   
 13   9  26  1   
 14   9  27  1   
 15  10  11  am  
 16  10  28  1   
 17  11  12  2   
 18  11  13  1   
 19  13  14  1   
 20  13  29  1   
 21  13  30  1   
 22  14  15  1   
 23  14  16  1   
 24  14  31  1   
 25  15  17  1   
 26  15  18  1   
 27  15  32  1   
 28  16  19  1   
 29  16  20  1   
 30  16  33  1   
 31  17  21  1   
 32  17  34  1   
 33  17  35  1   
 34  18  22  1   
 35  18  36  1   
 36  18  37  1   
 37  19  21  2   
 38  19  38  1   
 39  20  39  1   
 40  20  40  1   
 41  20  41  1   
 42  21  42  1   
 43  22  23  2   
 44  22  43  1   
 45  23  44  1   
 46  23  45  1   
@<TRIPOS>SUBSTRUCTURE
  1 ****  13 GROUP 4 **** **** 0

# MOE 2024.06 (io_trps.svl 2023.06)
