@<TRIPOS>MOLECULE
NONAME
60 62 1 0 0 
SMALL
USER_CHARGES


@<TRIPOS>ATOM
  1 F       -1.5070    -0.8750     0.6130 F     1 <1>  -0.1900 
  2 C       -2.6360    -0.2570     0.3790 C.ar  1 <1>   0.1900 
  3 C       -3.2810     0.5060     1.3590 C.ar  1 <1>   0.0830 
  4 C       -3.1640    -0.4000    -0.8900 C.ar  1 <1>  -0.1500 
  5 O       -2.8610     0.7250     2.6380 O.3   1 <1>  -0.3630 
  6 C       -4.4790     1.1110     1.0160 C.ar  1 <1>  -0.1500 
  7 C       -4.3610     0.2190    -1.1990 C.ar  1 <1>  -0.1500 
  8 C       -1.6070     0.2930     3.1180 C.3   1 <1>   0.0400 
  9 C       -5.0480     0.9780    -0.2510 C.ar  1 <1>   0.0530 
 10 C       -6.3050     1.6120    -0.5540 C.2   1 <1>   0.0870 
 11 O       -6.5370     2.8380    -0.1610 O.3   1 <1>  -0.0190 
 12 C       -7.4290     1.1810    -1.1850 C.2   1 <1>  -0.0860 
 13 N       -7.7290     3.2610    -0.4910 N.2   1 <1>  -0.4100 
 14 C       -8.2830     2.2870    -1.1240 C.2   1 <1>   0.3720 
 15 C       -7.7490    -0.0940    -1.7440 C.2   1 <1>   0.7160 
 16 N       -9.5800     2.3330    -1.6620 N.pl3 1 <1>  -0.8210 
 17 O       -7.1000    -0.5210    -2.6790 O.2   1 <1>  -0.5700 
 18 N       -8.7710    -0.8830    -1.2470 N.am  1 <1>  -0.6600 
 19 C       -9.5950     2.3400    -3.1530 C.3   1 <1>   0.1290 
 20 C      -10.4500     3.4180    -1.1190 C.3   1 <1>   0.1290 
 21 C       -9.1900    -2.1430    -1.9380 C.3   1 <1>   0.1400 
 22 C       -9.6370    -0.4690    -0.0980 C.3   1 <1>   0.1400 
 23 C       -9.4340    -3.2800    -0.9310 C.3   1 <1>   0.3430 
 24 C       -9.8910    -1.6410     0.8700 C.3   1 <1>   0.3430 
 25 N      -10.3900    -2.8730     0.1630 N.4   1 <1>  -0.9590 
 26 C      -10.6420    -3.9740     1.1350 C.3   1 <1>   0.3430 
 27 C      -11.4580    -5.0820     0.4760 C.3   1 <1>  -0.1600 
 28 C      -11.8260    -6.1650     1.4860 C.3   1 <1>   0.1200 
 29 O      -12.5390    -7.1200     0.7860 O.3   1 <1>  -0.5600 
 30 C      -12.9690    -8.1960     1.5580 C.3   1 <1>   0.0400 
 31 H       -2.6410    -0.9860    -1.6250 H     1 <1>   0.1500 
 32 H       -4.9820     1.7040     1.7600 H     1 <1>   0.1500 
 33 H       -4.7600     0.1180    -2.1940 H     1 <1>   0.1500 
 34 H       -1.4930     0.6510     4.1250 H     1 <1>   0.0800 
 35 H       -0.8320     0.7040     2.4960 H     1 <1>   0.0800 
 36 H       -1.5800    -0.7820     3.1100 H     1 <1>   0.0800 
 37 H       -9.0210     1.5170    -3.5410 H     1 <1>   0.0800 
 38 H       -9.1710     3.2590    -3.5200 H     1 <1>   0.0800 
 39 H      -10.6060     2.2510    -3.5120 H     1 <1>   0.0800 
 40 H      -10.4270     3.4040    -0.0420 H     1 <1>   0.0800 
 41 H      -11.4660     3.2770    -1.4440 H     1 <1>   0.0800 
 42 H      -10.0990     4.3790    -1.4570 H     1 <1>   0.0800 
 43 H       -8.4360    -2.4640    -2.6370 H     1 <1>   0.0800 
 44 H      -10.0890    -1.9550    -2.4990 H     1 <1>   0.0800 
 45 H      -10.5720    -0.0970    -0.4790 H     1 <1>   0.0800 
 46 H       -9.1760     0.3290     0.4570 H     1 <1>   0.0800 
 47 H       -8.4870    -3.5630    -0.5000 H     1 <1>   0.0800 
 48 H       -9.8220    -4.1330    -1.4630 H     1 <1>   0.0800 
 49 H      -10.6070    -1.3280     1.6130 H     1 <1>   0.0800 
 50 H       -8.9680    -1.8660     1.3780 H     1 <1>   0.0800 
 51 H      -11.2870    -2.6340    -0.2840 H     1 <1>   0.4500 
 52 H      -11.1960    -3.5920     1.9780 H     1 <1>   0.0800 
 53 H       -9.7070    -4.3710     1.4980 H     1 <1>   0.0800 
 54 H      -10.8940    -5.5470    -0.3120 H     1 <1>   0.0800 
 55 H      -12.3700    -4.6750     0.0740 H     1 <1>   0.0800 
 56 H      -12.4520    -5.7750     2.2720 H     1 <1>   0.0800 
 57 H      -10.9470    -6.6300     1.9030 H     1 <1>   0.0800 
 58 H      -13.5080    -8.8730     0.9170 H     1 <1>   0.0800 
 59 H      -13.6220    -7.8410     2.3360 H     1 <1>   0.0800 
 60 H      -12.1160    -8.7010     1.9770 H     1 <1>   0.0800 
@<TRIPOS>BOND
  1   1   2  1   
  2   2   3  ar  
  3   2   4  ar  
  4   3   5  1   
  5   3   6  ar  
  6   4   7  ar  
  7   4  31  1   
  8   5   8  1   
  9   6   9  ar  
 10   6  32  1   
 11   7   9  ar  
 12   7  33  1   
 13   8  34  1   
 14   8  35  1   
 15   8  36  1   
 16   9  10  1   
 17  10  11  1   
 18  10  12  2   
 19  11  13  1   
 20  12  14  1   
 21  12  15  1   
 22  13  14  2   
 23  14  16  1   
 24  15  17  2   
 25  15  18  am  
 26  16  19  1   
 27  16  20  1   
 28  18  21  1   
 29  18  22  1   
 30  19  37  1   
 31  19  38  1   
 32  19  39  1   
 33  20  40  1   
 34  20  41  1   
 35  20  42  1   
 36  21  23  1   
 37  21  43  1   
 38  21  44  1   
 39  22  24  1   
 40  22  45  1   
 41  22  46  1   
 42  23  25  1   
 43  23  47  1   
 44  23  48  1   
 45  24  25  1   
 46  24  49  1   
 47  24  50  1   
 48  25  26  1   
 49  25  51  1   
 50  26  27  1   
 51  26  52  1   
 52  26  53  1   
 53  27  28  1   
 54  27  54  1   
 55  27  55  1   
 56  28  29  1   
 57  28  56  1   
 58  28  57  1   
 59  29  30  1   
 60  30  58  1   
 61  30  59  1   
 62  30  60  1   
@<TRIPOS>SUBSTRUCTURE
  1 ****  18 GROUP 4 **** **** 0

# MOE 2024.06 (io_trps.svl 2023.06)
