@<TRIPOS>MOLECULE
NONAME
59 63 1 0 0 
SMALL
USER_CHARGES


@<TRIPOS>ATOM
  1 O        0.1520    -2.2590     3.1790 O.2   1 <1>  -0.5700 
  2 C       -0.1170    -2.3900     2.0070 C.2   1 <1>   0.5690 
  3 N        0.3970    -1.6150     1.0150 N.am  1 <1>  -0.4930 
  4 C       -1.0960    -3.4840     1.5750 C.3   1 <1>   0.1710 
  5 C        1.2750    -0.5060     1.0740 C.2   1 <1>   0.0630 
  6 N       -1.7850    -3.1800     0.2840 N.3   1 <1>  -0.8100 
  7 C        1.7820     0.1800     0.0260 C.2   1 <1>  -0.3320 
  8 C        1.8030     0.1250     2.2010 C.2   1 <1>   0.1390 
  9 C       -2.8180    -2.1320     0.4840 C.3   1 <1>   0.1100 
 10 C       -2.3920    -4.3910    -0.2890 C.3   1 <1>   0.1100 
 11 N        2.5620     1.1600     0.5500 N.pl3 1 <1>   0.3140 
 12 C        1.5820    -0.0430    -1.4660 C.3   1 <1>  -0.0600 
 13 N        2.5730     1.1250     1.8910 N.2   1 <1>  -0.7070 
 14 C       -3.4610    -1.7070    -0.8510 C.3   1 <1>   0.1430 
 15 C       -3.0120    -4.0730    -1.6560 C.3   1 <1>  -0.1600 
 16 C        3.3430     2.1640    -0.1840 C.3   1 <1>   0.0160 
 17 C       -4.4980    -0.6350    -0.5680 C.ar  1 <1>   0.1670 
 18 C       -4.0530    -2.9460    -1.5540 C.3   1 <1>  -0.1600 
 19 C       -2.4460    -0.9500    -1.7480 C.3   1 <1>  -0.1600 
 20 N       -5.6850    -0.8370    -0.0480 N.ar  1 <1>  -0.6200 
 21 C       -4.0390     0.6020    -0.9050 C.ar  1 <1>  -0.1440 
 22 C       -2.6390     0.5490    -1.4650 C.3   1 <1>  -0.0170 
 23 C       -6.4420     0.2550     0.1240 C.ar  1 <1>   0.6200 
 24 C       -4.8700     1.6700    -0.6930 C.ar  1 <1>   0.1600 
 25 N       -6.0700     1.5070    -0.1830 N.ar  1 <1>  -0.6200 
 26 C       -7.7720     0.0670     0.6900 C.ar  1 <1>   0.0000 
 27 C       -8.8170     0.9580     0.4220 C.ar  1 <1>  -0.1500 
 28 C       -8.0690    -1.0120     1.5280 C.ar  1 <1>  -0.1500 
 29 C      -10.0800     0.7840     0.9570 C.ar  1 <1>  -0.1500 
 30 C       -9.3300    -1.1940     2.0660 C.ar  1 <1>  -0.1500 
 31 C      -10.3410    -0.2940     1.7810 C.ar  1 <1>  -0.1500 
 32 H        0.0190    -1.8530     0.0960 H     1 <1>   0.3700 
 33 H       -1.8200    -3.6340     2.3560 H     1 <1>   0.0800 
 34 H       -0.5270    -4.3910     1.4720 H     1 <1>   0.0800 
 35 H        1.5980    -0.1810     3.2130 H     1 <1>   0.1500 
 36 H       -2.3810    -1.2660     0.9500 H     1 <1>   0.0800 
 37 H       -3.5890    -2.5020     1.1400 H     1 <1>   0.0800 
 38 H       -3.1490    -4.7730     0.3760 H     1 <1>   0.0800 
 39 H       -1.6360    -5.1490    -0.4150 H     1 <1>   0.0800 
 40 H        0.9940    -0.9250    -1.6420 H     1 <1>   0.0800 
 41 H        2.5330    -0.1720    -1.9510 H     1 <1>   0.0800 
 42 H        1.0780     0.8010    -1.9020 H     1 <1>   0.0800 
 43 H       -3.4820    -4.9590    -2.0460 H     1 <1>   0.0800 
 44 H       -2.2290    -3.7930    -2.3380 H     1 <1>   0.0800 
 45 H        2.6860     2.7280    -0.8190 H     1 <1>   0.0800 
 46 H        4.0910     1.6670    -0.7720 H     1 <1>   0.0800 
 47 H        3.8180     2.8220     0.5190 H     1 <1>   0.0800 
 48 H       -4.4230    -2.6840    -2.5300 H     1 <1>   0.0800 
 49 H       -4.8900    -3.3030    -0.9780 H     1 <1>   0.0800 
 50 H       -2.6850    -1.1270    -2.7820 H     1 <1>   0.0800 
 51 H       -1.4330    -1.2640    -1.5780 H     1 <1>   0.0800 
 52 H       -2.5420     1.1380    -2.3600 H     1 <1>   0.0800 
 53 H       -1.9380     0.8890    -0.7210 H     1 <1>   0.0800 
 54 H       -4.5520     2.6680    -0.9430 H     1 <1>   0.1500 
 55 H       -8.6340     1.8040    -0.2190 H     1 <1>   0.1500 
 56 H       -7.2970    -1.7240     1.7620 H     1 <1>   0.1500 
 57 H      -10.8610     1.4890     0.7300 H     1 <1>   0.1500 
 58 H       -9.5260    -2.0360     2.7060 H     1 <1>   0.1500 
 59 H      -11.3230    -0.4320     2.1990 H     1 <1>   0.1500 
@<TRIPOS>BOND
  1   1   2  2   
  2   2   3  am  
  3   2   4  1   
  4   3   5  1   
  5   3  32  1   
  6   4   6  1   
  7   4  33  1   
  8   4  34  1   
  9   5   7  2   
 10   5   8  1   
 11   6   9  1   
 12   6  10  1   
 13   7  11  1   
 14   7  12  1   
 15   8  13  2   
 16   8  35  1   
 17   9  14  1   
 18   9  36  1   
 19   9  37  1   
 20  10  15  1   
 21  10  38  1   
 22  10  39  1   
 23  11  13  1   
 24  11  16  1   
 25  12  40  1   
 26  12  41  1   
 27  12  42  1   
 28  14  17  1   
 29  14  18  1   
 30  14  19  1   
 31  15  18  1   
 32  15  43  1   
 33  15  44  1   
 34  16  45  1   
 35  16  46  1   
 36  16  47  1   
 37  17  20  ar  
 38  17  21  ar  
 39  18  48  1   
 40  18  49  1   
 41  19  22  1   
 42  19  50  1   
 43  19  51  1   
 44  20  23  ar  
 45  21  22  1   
 46  21  24  ar  
 47  22  52  1   
 48  22  53  1   
 49  23  25  ar  
 50  23  26  1   
 51  24  25  ar  
 52  24  54  1   
 53  26  27  ar  
 54  26  28  ar  
 55  27  29  ar  
 56  27  55  1   
 57  28  30  ar  
 58  28  56  1   
 59  29  31  ar  
 60  29  57  1   
 61  30  31  ar  
 62  30  58  1   
 63  31  59  1   
@<TRIPOS>SUBSTRUCTURE
  1 ****   9 GROUP 4 **** **** 0

# MOE 2024.06 (io_trps.svl 2023.06)
