@<TRIPOS>MOLECULE
NONAME
59 60 1 0 0 
SMALL
USER_CHARGES


@<TRIPOS>ATOM
  1 O       -0.2120    -0.0180    -0.5440 O.2   1 <1>  -0.5700 
  2 C       -1.0980     0.4750     0.1350 C.2   1 <1>   0.5440 
  3 N       -1.8400    -0.3520     0.9410 N.am  1 <1>  -0.6600 
  4 C       -1.3540     1.9000     0.0750 C.ar  1 <1>   0.0860 
  5 C       -2.2970    -1.6560     0.4100 C.3   1 <1>   0.3200 
  6 C       -2.3600     0.0670     2.3100 C.3   1 <1>   0.0340 
  7 C       -0.3170     2.8240     0.1000 C.ar  1 <1>  -0.1500 
  8 C       -2.6510     2.3850    -0.0240 C.ar  1 <1>  -0.1500 
  9 C       -3.4450    -1.4150    -0.5520 C.2   1 <1>  -0.3320 
 10 C       -3.8790     0.0920     2.5070 C.2   1 <1>   0.9060 
 11 C       -0.5300     4.1970     0.0600 C.ar  1 <1>  -0.1440 
 12 C       -2.9510     3.7380    -0.0840 C.ar  1 <1>  -0.1440 
 13 N       -4.6860    -1.1280    -0.1280 N.pl3 1 <1>   0.0330 
 14 C       -3.4980    -1.4080    -1.9020 C.2   1 <1>   0.0770 
 15 O       -4.4780     1.1700     2.5260 O.co2 1 <1>  -0.9000 
 16 O       -4.4960    -0.9790     2.6030 O.co2 1 <1>  -0.9000 
 17 C       -1.8660     4.6270    -0.0150 C.ar  1 <1>   0.0830 
 18 C        0.6820     5.1790     0.0990 C.3   1 <1>   0.1430 
 19 C       -4.4390     4.1940    -0.2100 C.3   1 <1>   0.1430 
 20 C       -5.4180    -0.9570    -1.2470 C.2   1 <1>   0.0060 
 21 N       -4.7440    -1.1250    -2.3390 N.2   1 <1>  -0.5650 
 22 O       -2.1350     5.9360    -0.0030 O.3   1 <1>  -0.5320 
 23 C        0.7130     6.0570    -1.1650 C.3   1 <1>  -0.2400 
 24 C        0.6290     6.0630     1.3580 C.3   1 <1>  -0.2400 
 25 C        2.0470     4.4610     0.1440 C.3   1 <1>  -0.2400 
 26 C       -4.8820     4.9090     1.0770 C.3   1 <1>  -0.2400 
 27 C       -4.6500     5.1070    -1.4360 C.3   1 <1>  -0.2400 
 28 C       -5.4250     3.0220    -0.4090 C.3   1 <1>  -0.2400 
 29 C       -6.8830    -0.5920    -1.1910 C.3   1 <1>  -0.0600 
 30 H       -2.6130    -2.2950     1.2170 H     1 <1>   0.0800 
 31 H       -1.4840    -2.1360    -0.1060 H     1 <1>   0.0800 
 32 H       -1.9960     1.0490     2.5440 H     1 <1>   0.0800 
 33 H       -1.9620    -0.6070     3.0430 H     1 <1>   0.0800 
 34 H        0.6650     2.3980     0.1540 H     1 <1>   0.1500 
 35 H       -3.4170     1.6330    -0.0460 H     1 <1>   0.1500 
 36 H       -4.9760    -1.0330     0.8650 H     1 <1>   0.2700 
 37 H       -2.6880    -1.5840    -2.5890 H     1 <1>   0.1500 
 38 H       -3.0970     6.0830    -0.0050 H     1 <1>   0.4500 
 39 H       -0.1290     6.7190    -1.2080 H     1 <1>   0.0800 
 40 H        0.6960     5.4350    -2.0410 H     1 <1>   0.0800 
 41 H        1.6010     6.6610    -1.1880 H     1 <1>   0.0800 
 42 H       -0.2180     6.7210     1.3430 H     1 <1>   0.0800 
 43 H        1.5110     6.6710     1.4350 H     1 <1>   0.0800 
 44 H        0.5570     5.4450     2.2350 H     1 <1>   0.0800 
 45 H        2.1750     3.8370    -0.7220 H     1 <1>   0.0800 
 46 H        2.1280     3.8570     1.0300 H     1 <1>   0.0800 
 47 H        2.8530     5.1730     0.1590 H     1 <1>   0.0800 
 48 H       -4.3150     5.7960     1.2770 H     1 <1>   0.0800 
 49 H       -4.7550     4.2400     1.9130 H     1 <1>   0.0800 
 50 H       -5.9210     5.1800     1.0220 H     1 <1>   0.0800 
 51 H       -4.1830     6.0660    -1.3390 H     1 <1>   0.0800 
 52 H       -5.6980     5.2860    -1.5990 H     1 <1>   0.0800 
 53 H       -4.2520     4.6260    -2.3120 H     1 <1>   0.0800 
 54 H       -5.4190     2.3720     0.4490 H     1 <1>   0.0800 
 55 H       -5.1660     2.4470    -1.2810 H     1 <1>   0.0800 
 56 H       -6.4320     3.3770    -0.5290 H     1 <1>   0.0800 
 57 H       -7.0140     0.2930    -0.5950 H     1 <1>   0.0800 
 58 H       -7.4420    -1.3980    -0.7530 H     1 <1>   0.0800 
 59 H       -7.2520    -0.4050    -2.1830 H     1 <1>   0.0800 
@<TRIPOS>BOND
  1   1   2  2   
  2   2   3  am  
  3   2   4  1   
  4   3   5  1   
  5   3   6  1   
  6   4   7  ar  
  7   4   8  ar  
  8   5   9  1   
  9   5  30  1   
 10   5  31  1   
 11   6  10  1   
 12   6  32  1   
 13   6  33  1   
 14   7  11  ar  
 15   7  34  1   
 16   8  12  ar  
 17   8  35  1   
 18   9  13  1   
 19   9  14  2   
 20  10  15  ar  
 21  10  16  ar  
 22  11  17  ar  
 23  11  18  1   
 24  12  17  ar  
 25  12  19  1   
 26  13  20  1   
 27  13  36  1   
 28  14  21  1   
 29  14  37  1   
 30  17  22  1   
 31  18  23  1   
 32  18  24  1   
 33  18  25  1   
 34  19  26  1   
 35  19  27  1   
 36  19  28  1   
 37  20  21  2   
 38  20  29  1   
 39  22  38  1   
 40  23  39  1   
 41  23  40  1   
 42  23  41  1   
 43  24  42  1   
 44  24  43  1   
 45  24  44  1   
 46  25  45  1   
 47  25  46  1   
 48  25  47  1   
 49  26  48  1   
 50  26  49  1   
 51  26  50  1   
 52  27  51  1   
 53  27  52  1   
 54  27  53  1   
 55  28  54  1   
 56  28  55  1   
 57  28  56  1   
 58  29  57  1   
 59  29  58  1   
 60  29  59  1   
@<TRIPOS>SUBSTRUCTURE
  1 ****   8 GROUP 4 **** **** 0

# MOE 2024.06 (io_trps.svl 2023.06)
