@<TRIPOS>MOLECULE
NONAME
57 59 1 0 0 
SMALL
USER_CHARGES


@<TRIPOS>ATOM
  1 O       -2.3010    -0.4000     2.0670 O.2   1 <1>  -0.5700 
  2 C       -2.1690     0.3010     1.0900 C.2   1 <1>   0.5690 
  3 N       -2.2260    -0.2210    -0.1780 N.am  1 <1>  -0.6600 
  4 C       -1.9870     1.7980     1.3370 C.3   1 <1>   0.1810 
  5 C       -2.5000    -1.6770    -0.4050 C.3   1 <1>   0.3640 
  6 C       -2.1070     0.6110    -1.4150 C.3   1 <1>   0.1400 
  7 O       -0.8280     2.3080     0.6950 O.3   1 <1>  -0.3630 
  8 C       -1.1830    -2.4100    -0.7310 C.ar  1 <1>  -0.1440 
  9 C       -3.6320    -1.8320    -1.4640 C.3   1 <1>   0.2000 
 10 C       -2.3610    -0.1870    -2.7060 C.3   1 <1>   0.1200 
 11 C       -0.5440     3.6340     0.7060 C.ar  1 <1>   0.0830 
 12 C       -0.1730    -2.3900     0.2230 C.ar  1 <1>  -0.1500 
 13 C       -0.9550    -3.1080    -1.9150 C.ar  1 <1>  -0.1500 
 14 O       -3.4950    -1.0080    -2.6090 O.3   1 <1>  -0.5600 
 15 C       -5.0080    -1.5160    -0.8630 C.3   1 <1>   0.1200 
 16 C        0.5160     4.0510    -0.0810 C.ar  1 <1>  -0.1500 
 17 C       -1.2540     4.5720     1.4520 C.ar  1 <1>  -0.1500 
 18 C        1.0330    -3.0360     0.0120 C.ar  1 <1>   0.0830 
 19 C        0.2530    -3.7470    -2.1420 C.ar  1 <1>  -0.1500 
 20 O       -5.3880    -2.5090     0.0360 O.3   1 <1>  -0.6800 
 21 C        0.8730     5.3870    -0.1420 C.ar  1 <1>   0.0830 
 22 C       -0.9010     5.9090     1.3960 C.ar  1 <1>  -0.1500 
 23 O        1.9490    -2.9990     1.0090 O.3   1 <1>  -0.3620 
 24 C        1.2600    -3.7040    -1.1950 C.ar  1 <1>   0.0830 
 25 O        1.9220     5.7050    -0.9420 O.3   1 <1>  -0.3630 
 26 C        0.1570     6.3200     0.6030 C.ar  1 <1>  -0.1500 
 27 C        2.1450    -4.2110     1.7020 C.3   1 <1>   0.0400 
 28 O        2.4290    -4.3220    -1.4980 O.3   1 <1>  -0.3630 
 29 C        2.3890     7.0320    -1.0470 C.3   1 <1>   0.0400 
 30 C        3.5870    -3.5160    -1.5320 C.3   1 <1>   0.0400 
 31 H       -1.8850     1.9720     2.3920 H     1 <1>   0.0800 
 32 H       -2.8440     2.3250     0.9620 H     1 <1>   0.0800 
 33 H       -2.8640    -2.1160     0.5080 H     1 <1>   0.0800 
 34 H       -2.8120     1.4220    -1.3670 H     1 <1>   0.0800 
 35 H       -1.1180     1.0320    -1.4650 H     1 <1>   0.0800 
 36 H       -3.6610    -2.8470    -1.8140 H     1 <1>   0.0800 
 37 H       -1.5090    -0.7960    -2.9420 H     1 <1>   0.0800 
 38 H       -2.5170     0.4890    -3.5280 H     1 <1>   0.0800 
 39 H       -0.3160    -1.8710     1.1550 H     1 <1>   0.1500 
 40 H       -1.7010    -3.1660    -2.6860 H     1 <1>   0.1500 
 41 H       -5.7560    -1.4650    -1.6350 H     1 <1>   0.0800 
 42 H       -4.9780    -0.5820    -0.3290 H     1 <1>   0.0800 
 43 H        1.0700     3.3300    -0.6520 H     1 <1>   0.1500 
 44 H       -2.0750     4.2840     2.0800 H     1 <1>   0.1500 
 45 H        0.4240    -4.2780    -3.0600 H     1 <1>   0.1500 
 46 H       -5.6570    -3.3230    -0.4340 H     1 <1>   0.4000 
 47 H       -1.4500     6.6340     1.9730 H     1 <1>   0.1500 
 48 H        0.4070     7.3640     0.5790 H     1 <1>   0.1500 
 49 H        2.8560    -4.0380     2.4890 H     1 <1>   0.0800 
 50 H        2.5210    -4.9520     1.0200 H     1 <1>   0.0800 
 51 H        1.2040    -4.5270     2.1170 H     1 <1>   0.0800 
 52 H        3.2270     7.0380    -1.7200 H     1 <1>   0.0800 
 53 H        2.6990     7.3710    -0.0740 H     1 <1>   0.0800 
 54 H        1.6010     7.6500    -1.4390 H     1 <1>   0.0800 
 55 H        4.3760    -4.0810    -1.9930 H     1 <1>   0.0800 
 56 H        3.8670    -3.2500    -0.5300 H     1 <1>   0.0800 
 57 H        3.3790    -2.6320    -2.1090 H     1 <1>   0.0800 
@<TRIPOS>BOND
  1   1   2  2   
  2   2   3  am  
  3   2   4  1   
  4   3   5  1   
  5   3   6  1   
  6   4   7  1   
  7   4  31  1   
  8   4  32  1   
  9   5   8  1   
 10   5   9  1   
 11   5  33  1   
 12   6  10  1   
 13   6  34  1   
 14   6  35  1   
 15   7  11  1   
 16   8  12  ar  
 17   8  13  ar  
 18   9  14  1   
 19   9  15  1   
 20   9  36  1   
 21  10  14  1   
 22  10  37  1   
 23  10  38  1   
 24  11  16  ar  
 25  11  17  ar  
 26  12  18  ar  
 27  12  39  1   
 28  13  19  ar  
 29  13  40  1   
 30  15  20  1   
 31  15  41  1   
 32  15  42  1   
 33  16  21  ar  
 34  16  43  1   
 35  17  22  ar  
 36  17  44  1   
 37  18  23  1   
 38  18  24  ar  
 39  19  24  ar  
 40  19  45  1   
 41  20  46  1   
 42  21  25  1   
 43  21  26  ar  
 44  22  26  ar  
 45  22  47  1   
 46  23  27  1   
 47  24  28  1   
 48  25  29  1   
 49  26  48  1   
 50  27  49  1   
 51  27  50  1   
 52  27  51  1   
 53  28  30  1   
 54  29  52  1   
 55  29  53  1   
 56  29  54  1   
 57  30  55  1   
 58  30  56  1   
 59  30  57  1   
@<TRIPOS>SUBSTRUCTURE
  1 ****   3 GROUP 4 **** **** 0

# MOE 2024.06 (io_trps.svl 2023.06)
