@<TRIPOS>MOLECULE
NONAME
43 45 1 0 0 
SMALL
USER_CHARGES


@<TRIPOS>ATOM
  1 S       -0.2430    -0.0050     0.2900 S.o2  1 <1>   1.3330 
  2 O       -0.0330    -0.8090     1.4730 O.2   1 <1>  -0.6500 
  3 O       -0.9390     1.2560     0.4010 O.2   1 <1>  -0.6500 
  4 N       -1.0540    -0.9650    -0.8510 N.am  1 <1>  -0.8490 
  5 C        1.3290     0.3100    -0.5140 C.3   1 <1>  -0.0550 
  6 C       -0.7280    -2.3920    -0.7500 C.3   1 <1>   0.1160 
  7 C       -2.5080    -0.7810    -0.8020 C.3   1 <1>   0.1160 
  8 C        2.2430     1.2670     0.2770 C.3   1 <1>  -0.0800 
  9 C        3.4520     1.6750    -0.5470 C.3   1 <1>   0.2200 
 10 C        2.8860     0.5850     1.4930 C.3   1 <1>   0.1200 
 11 N        3.9530     2.9760    -0.0520 N.am  1 <1>  -0.7300 
 12 C        4.4500     0.5790    -0.2000 C.3   1 <1>   0.1200 
 13 O        4.1890     0.2350     1.1260 O.3   1 <1>  -0.5600 
 14 C        3.9900     4.1350    -0.7720 C.2   1 <1>   0.5440 
 15 O        3.6160     4.1060    -1.9280 O.2   1 <1>  -0.5700 
 16 C        4.4730     5.3680    -0.1750 C.ar  1 <1>   0.0860 
 17 C        5.0710     6.3520    -0.9650 C.ar  1 <1>  -0.1500 
 18 C        4.3510     5.6080     1.2060 C.ar  1 <1>  -0.1500 
 19 C        5.5450     7.5260    -0.4050 C.ar  1 <1>   0.2270 
 20 C        4.8160     6.7740     1.7860 C.ar  1 <1>  -0.1500 
 21 N        6.1620     8.5660    -1.0970 N.2   1 <1>  -0.5650 
 22 C        5.4060     7.7080     0.9570 C.ar  1 <1>   0.0400 
 23 C        6.4910     9.5160    -0.3200 C.2   1 <1>   0.2280 
 24 S        6.0880     9.2640     1.3740 S.3   1 <1>  -0.0800 
 25 H        1.8380    -0.6190    -0.6840 H     1 <1>   0.0800 
 26 H        1.1230     0.7500    -1.4710 H     1 <1>   0.0800 
 27 H       -1.1950    -2.9360    -1.5540 H     1 <1>   0.0800 
 28 H       -1.0730    -2.7920     0.1900 H     1 <1>   0.0800 
 29 H        0.3360    -2.5360    -0.8160 H     1 <1>   0.0800 
 30 H       -2.9870    -1.3910    -1.5470 H     1 <1>   0.0800 
 31 H       -2.7560     0.2480    -1.0010 H     1 <1>   0.0800 
 32 H       -2.8860    -1.0450     0.1720 H     1 <1>   0.0800 
 33 H        1.6670     2.1290     0.5690 H     1 <1>   0.0800 
 34 H        3.2530     1.7220    -1.6050 H     1 <1>   0.0800 
 35 H        2.3690    -0.3040     1.8100 H     1 <1>   0.0800 
 36 H        2.9550     1.2690     2.3210 H     1 <1>   0.0800 
 37 H        4.3890     2.9300     0.8710 H     1 <1>   0.3700 
 38 H        5.4710     0.9010    -0.2990 H     1 <1>   0.0800 
 39 H        4.2820    -0.2950    -0.8050 H     1 <1>   0.0800 
 40 H        5.1720     6.2070    -2.0260 H     1 <1>   0.1500 
 41 H        3.8750     4.8720     1.8290 H     1 <1>   0.1500 
 42 H        4.7240     6.9610     2.8420 H     1 <1>   0.1500 
 43 H        6.9780    10.4430    -0.5660 H     1 <1>   0.1500 
@<TRIPOS>BOND
  1   1   2  2   
  2   1   3  2   
  3   1   4  am  
  4   1   5  1   
  5   4   6  1   
  6   4   7  1   
  7   5   8  1   
  8   5  25  1   
  9   5  26  1   
 10   6  27  1   
 11   6  28  1   
 12   6  29  1   
 13   7  30  1   
 14   7  31  1   
 15   7  32  1   
 16   8   9  1   
 17   8  10  1   
 18   8  33  1   
 19   9  11  1   
 20   9  12  1   
 21   9  34  1   
 22  10  13  1   
 23  10  35  1   
 24  10  36  1   
 25  11  14  am  
 26  11  37  1   
 27  12  13  1   
 28  12  38  1   
 29  12  39  1   
 30  14  15  2   
 31  14  16  1   
 32  16  17  ar  
 33  16  18  ar  
 34  17  19  ar  
 35  17  40  1   
 36  18  20  ar  
 37  18  41  1   
 38  19  21  1   
 39  19  22  ar  
 40  20  22  ar  
 41  20  42  1   
 42  21  23  2   
 43  22  24  1   
 44  23  24  1   
 45  23  43  1   
@<TRIPOS>SUBSTRUCTURE
  1 ****  11 GROUP 4 **** **** 0

# MOE 2024.06 (io_trps.svl 2023.06)
