@<TRIPOS>MOLECULE
NONAME
45 46 1 0 0 
SMALL
USER_CHARGES


@<TRIPOS>ATOM
  1 S       -0.7480     1.2820     1.4020 S.o2  1 <1>   1.5010 
  2 O       -1.8700     0.6720     2.0860 O.2   1 <1>  -0.6500 
  3 O       -0.7950     2.7120     1.2120 O.2   1 <1>  -0.6500 
  4 N        0.6190     0.9440     2.3740 N.am  1 <1>  -0.8490 
  5 C       -0.4860     0.3510    -0.1480 C.2   1 <1>  -0.0630 
  6 C        1.9460     1.3320     1.8650 C.3   1 <1>   0.1960 
  7 C        0.6270    -0.4410     2.8670 C.3   1 <1>   0.1160 
  8 C        0.3400     0.6620    -1.1900 C.2   1 <1>  -0.1920 
  9 C       -1.1650    -0.8980    -0.3510 C.2   1 <1>  -0.1500 
 10 C        2.3510     2.7870     2.1980 C.3   1 <1>  -0.0800 
 11 S        0.2980    -0.6080    -2.4110 S.3   1 <1>  -0.0800 
 12 C        1.2000     1.7860    -1.4260 C.2   1 <1>   1.0320 
 13 C       -0.8620    -1.5330    -1.4960 C.2   1 <1>  -0.1100 
 14 C        1.9230     3.8350     1.1670 C.3   1 <1>   0.3430 
 15 C        3.8760     2.9390     2.1620 C.3   1 <1>  -0.1600 
 16 O        2.4390     1.6800    -1.4070 O.co2 1 <1>  -0.9000 
 17 O        0.7730     2.9440    -1.4490 O.co2 1 <1>  -0.9000 
 18 N        3.0050     3.8690     0.1500 N.4   1 <1>  -0.9590 
 19 C        4.2140     3.2330     0.7040 C.3   1 <1>   0.3430 
 20 C        3.2180     5.1950    -0.4900 C.3   1 <1>   0.3430 
 21 C        2.0330     5.6260    -1.3590 C.3   1 <1>   0.1200 
 22 O        2.2370     6.9510    -1.7440 O.3   1 <1>  -0.5600 
 23 C        1.2360     7.4350    -2.5820 C.3   1 <1>   0.0400 
 24 H        2.0370     1.1130     0.8250 H     1 <1>   0.0800 
 25 H        2.6720     0.7030     2.3500 H     1 <1>   0.0800 
 26 H       -0.2950    -0.6640     3.3760 H     1 <1>   0.0800 
 27 H        1.4280    -0.5820     3.5720 H     1 <1>   0.0800 
 28 H        0.7510    -1.1320     2.0490 H     1 <1>   0.0800 
 29 H       -1.8630    -1.2660     0.3830 H     1 <1>   0.1500 
 30 H        1.9690     3.0360     3.1720 H     1 <1>   0.0800 
 31 H       -1.2010    -2.4630    -1.9180 H     1 <1>   0.1500 
 32 H        1.8500     4.7950     1.6480 H     1 <1>   0.0800 
 33 H        0.9870     3.6170     0.6950 H     1 <1>   0.0800 
 34 H        4.4070     2.0760     2.5240 H     1 <1>   0.0800 
 35 H        4.1680     3.7870     2.7570 H     1 <1>   0.0800 
 36 H        2.6580     3.2240    -0.6170 H     1 <1>   0.4500 
 37 H        4.3950     2.3120     0.1700 H     1 <1>   0.0800 
 38 H        5.0760     3.8730     0.6180 H     1 <1>   0.0800 
 39 H        4.0900     5.1500    -1.1180 H     1 <1>   0.0800 
 40 H        3.3780     5.9380     0.2730 H     1 <1>   0.0800 
 41 H        1.1080     5.5650    -0.8120 H     1 <1>   0.0800 
 42 H        1.9780     5.0100    -2.2410 H     1 <1>   0.0800 
 43 H        1.4700     8.4550    -2.8330 H     1 <1>   0.0800 
 44 H        0.2910     7.3940    -2.0680 H     1 <1>   0.0800 
 45 H        1.2030     6.8380    -3.4770 H     1 <1>   0.0800 
@<TRIPOS>BOND
  1   1   2  2   
  2   1   3  2   
  3   1   4  am  
  4   1   5  1   
  5   4   6  1   
  6   4   7  1   
  7   5   8  2   
  8   5   9  1   
  9   6  10  1   
 10   6  24  1   
 11   6  25  1   
 12   7  26  1   
 13   7  27  1   
 14   7  28  1   
 15   8  11  1   
 16   8  12  1   
 17   9  13  2   
 18   9  29  1   
 19  10  14  1   
 20  10  15  1   
 21  10  30  1   
 22  11  13  1   
 23  12  16  ar  
 24  12  17  ar  
 25  13  31  1   
 26  14  18  1   
 27  14  32  1   
 28  14  33  1   
 29  15  19  1   
 30  15  34  1   
 31  15  35  1   
 32  18  19  1   
 33  18  20  1   
 34  18  36  1   
 35  19  37  1   
 36  19  38  1   
 37  20  21  1   
 38  20  39  1   
 39  20  40  1   
 40  21  22  1   
 41  21  41  1   
 42  21  42  1   
 43  22  23  1   
 44  23  43  1   
 45  23  44  1   
 46  23  45  1   
@<TRIPOS>SUBSTRUCTURE
  1 ****  12 GROUP 4 **** **** 0

# MOE 2024.06 (io_trps.svl 2023.06)
