@<TRIPOS>MOLECULE
NONAME
53 56 1 0 0 
SMALL
USER_CHARGES


@<TRIPOS>ATOM
  1 O       -1.2590     1.9750     2.1910 O.2   1 <1>  -0.5700 
  2 C       -1.0740     2.2180     1.0120 C.2   1 <1>   0.5440 
  3 N       -1.7800     1.4840     0.0770 N.am  1 <1>  -0.6600 
  4 C       -0.1860     3.3080     0.6630 C.ar  1 <1>   0.0860 
  5 C       -2.4290     0.1910     0.4450 C.3   1 <1>   0.1400 
  6 C       -1.9630     1.9130    -1.3290 C.3   1 <1>   0.1400 
  7 C        0.8990     3.2030    -0.2060 C.ar  1 <1>   0.0830 
  8 C       -0.3710     4.5670     1.2180 C.ar  1 <1>  -0.1500 
  9 C       -3.9710     0.2580     0.4600 C.3   1 <1>   0.1900 
 10 C       -3.4440     2.0420    -1.7300 C.3   1 <1>  -0.0800 
 11 O        1.2010     2.0260    -0.7900 O.3   1 <1>  -0.5320 
 12 C        1.6820     4.3230    -0.4660 C.ar  1 <1>   0.1600 
 13 C        0.4680     5.6140     0.8910 C.ar  1 <1>   0.1600 
 14 N       -4.5590    -0.1320    -0.8640 N.3   1 <1>  -0.8100 
 15 C       -4.5140     1.5930     1.0390 C.3   1 <1>   0.1200 
 16 C       -4.2380     3.0220    -0.8300 C.3   1 <1>   0.1200 
 17 C       -4.0950     0.6710    -2.0230 C.3   1 <1>   0.1100 
 18 N        1.4890     5.5220     0.0530 N.ar  1 <1>  -0.6200 
 19 C       -6.0500    -0.2340    -0.8770 C.3   1 <1>   0.2540 
 20 O       -5.1140     2.4040     0.0660 O.3   1 <1>  -0.5600 
 21 C       -6.6730    -0.9710     0.3200 C.cat 1 <1>   0.6560 
 22 N       -6.3790    -2.2230     0.6410 N.pl3 1 <1>  -0.7000 
 23 N       -7.5610    -0.4850     1.1890 N.pl3 1 <1>  -0.7640 
 24 C       -7.1070    -2.5650     1.7500 C.2   1 <1>   0.2000 
 25 C       -7.8420    -1.4860     2.0900 C.2   1 <1>   0.2000 
 26 C       -8.1530     0.8760     1.2300 C.3   1 <1>   0.3540 
 27 C       -9.4630     0.8690     0.4520 C.3   1 <1>  -0.2400 
 28 H       -2.1060    -0.5790    -0.2320 H     1 <1>   0.0800 
 29 H       -2.0980    -0.1010     1.4260 H     1 <1>   0.0800 
 30 H       -1.4920     2.8670    -1.4820 H     1 <1>   0.0800 
 31 H       -1.4670     1.2070    -1.9730 H     1 <1>   0.0800 
 32 H       -1.1750     4.7210     1.9150 H     1 <1>   0.1500 
 33 H       -4.2480    -0.5050     1.1640 H     1 <1>   0.0800 
 34 H       -3.3950     2.5270    -2.6880 H     1 <1>   0.0800 
 35 H        2.0410     2.0080    -1.2860 H     1 <1>   0.4500 
 36 H        2.5130     4.2250    -1.1410 H     1 <1>   0.1500 
 37 H        0.2950     6.5780     1.3400 H     1 <1>   0.1500 
 38 H       -3.7540     2.1570     1.5500 H     1 <1>   0.0800 
 39 H       -5.2690     1.3690     1.7680 H     1 <1>   0.0800 
 40 H       -4.8460     3.6540    -1.4530 H     1 <1>   0.0800 
 41 H       -3.5720     3.6570    -0.2700 H     1 <1>   0.0800 
 42 H       -3.3830     0.0730    -2.5660 H     1 <1>   0.0800 
 43 H       -4.9170     0.8380    -2.6980 H     1 <1>   0.0800 
 44 H       -6.4820     0.7450    -0.9510 H     1 <1>   0.0800 
 45 H       -6.3400    -0.7650    -1.7650 H     1 <1>   0.0800 
 46 H       -5.6970    -2.7980     0.1360 H     1 <1>   0.4500 
 47 H       -7.0580    -3.5350     2.2210 H     1 <1>   0.1500 
 48 H       -8.5370    -1.3730     2.9080 H     1 <1>   0.1500 
 49 H       -8.3350     1.1610     2.2540 H     1 <1>   0.0800 
 50 H       -7.4760     1.5970     0.8040 H     1 <1>   0.0800 
 51 H      -10.1570     0.1730     0.8870 H     1 <1>   0.0800 
 52 H       -9.2900     0.6080    -0.5770 H     1 <1>   0.0800 
 53 H       -9.9030     1.8490     0.4810 H     1 <1>   0.0800 
@<TRIPOS>BOND
  1   1   2  2   
  2   2   3  am  
  3   2   4  1   
  4   3   5  1   
  5   3   6  1   
  6   4   7  ar  
  7   4   8  ar  
  8   5   9  1   
  9   5  28  1   
 10   5  29  1   
 11   6  10  1   
 12   6  30  1   
 13   6  31  1   
 14   7  11  1   
 15   7  12  ar  
 16   8  13  ar  
 17   8  32  1   
 18   9  14  1   
 19   9  15  1   
 20   9  33  1   
 21  10  16  1   
 22  10  17  1   
 23  10  34  1   
 24  11  35  1   
 25  12  18  ar  
 26  12  36  1   
 27  13  18  ar  
 28  13  37  1   
 29  14  17  1   
 30  14  19  1   
 31  15  20  1   
 32  15  38  1   
 33  15  39  1   
 34  16  20  1   
 35  16  40  1   
 36  16  41  1   
 37  17  42  1   
 38  17  43  1   
 39  19  21  1   
 40  19  44  1   
 41  19  45  1   
 42  21  22  ar  
 43  21  23  ar  
 44  22  24  1   
 45  22  46  1   
 46  23  25  1   
 47  23  26  1   
 48  24  25  2   
 49  24  47  1   
 50  25  48  1   
 51  26  27  1   
 52  26  49  1   
 53  26  50  1   
 54  27  51  1   
 55  27  52  1   
 56  27  53  1   
@<TRIPOS>SUBSTRUCTURE
  1 ****  15 GROUP 4 **** **** 0

# MOE 2024.06 (io_trps.svl 2023.06)
