@<TRIPOS>MOLECULE
NONAME
54 56 1 0 0 
SMALL
USER_CHARGES


@<TRIPOS>ATOM
  1 S       -0.3550    -0.2930    -1.4910 S.o2  1 <1>   1.4470 
  2 O       -0.1490     0.7850    -2.4370 O.2   1 <1>  -0.6500 
  3 O       -1.1730    -1.4260    -1.8730 O.2   1 <1>  -0.6500 
  4 N       -0.9940     0.3640    -0.0610 N.am  1 <1>  -0.8490 
  5 C        1.2570    -0.9120    -0.9370 C.ar  1 <1>  -0.0090 
  6 C       -2.4050     0.0800     0.2660 C.3   1 <1>   0.1960 
  7 C       -0.5640     1.7190     0.2850 C.3   1 <1>   0.1960 
  8 C        1.3570    -1.7540     0.1630 C.ar  1 <1>  -0.1500 
  9 C        2.4310    -0.5660    -1.5950 C.ar  1 <1>  -0.1500 
 10 C       -3.4180     1.1240    -0.2880 C.3   1 <1>   0.0000 
 11 C       -1.4960     2.7830    -0.3110 C.3   1 <1>  -0.1600 
 12 C        2.5770    -2.2380     0.6090 C.ar  1 <1>  -0.1430 
 13 C        3.6590    -1.0390    -1.1690 C.ar  1 <1>  -0.1500 
 14 C       -4.8380     0.8380     0.2380 C.3   1 <1>   0.2000 
 15 C       -2.9560     2.5440     0.0970 C.3   1 <1>  -0.1600 
 16 C       -3.6420     0.9770    -1.8040 C.3   1 <1>  -0.1600 
 17 C        3.7430    -1.8800    -0.0630 C.ar  1 <1>   0.0830 
 18 C        2.6050    -3.1590     1.8240 C.3   1 <1>  -0.0170 
 19 O       -4.8280     0.4580     1.5820 O.3   1 <1>  -0.5600 
 20 C       -5.3950    -0.2780    -0.6520 C.3   1 <1>  -0.1600 
 21 C       -4.6030    -0.2030    -1.9640 C.3   1 <1>  -0.1600 
 22 O        4.9220    -2.3740     0.3940 O.3   1 <1>  -0.3630 
 23 C        2.5340    -4.6240     1.3900 C.3   1 <1>  -0.2400 
 24 C       -6.0710     0.4890     2.2100 C.3   1 <1>   0.0400 
 25 C        6.1460    -2.1100    -0.2550 C.3   1 <1>   0.0400 
 26 H       -2.6740    -0.9120    -0.0530 H     1 <1>   0.0800 
 27 H       -2.4770     0.0810     1.3390 H     1 <1>   0.0800 
 28 H       -0.5730     1.8130     1.3580 H     1 <1>   0.0800 
 29 H        0.4470     1.8840    -0.0490 H     1 <1>   0.0800 
 30 H        0.4530    -2.0340     0.6770 H     1 <1>   0.1500 
 31 H        2.3810     0.0830    -2.4530 H     1 <1>   0.1500 
 32 H       -1.1840     3.7520     0.0350 H     1 <1>   0.0800 
 33 H       -1.4060     2.7830    -1.3830 H     1 <1>   0.0800 
 34 H        4.5360    -0.7420    -1.7110 H     1 <1>   0.1500 
 35 H       -5.4380     1.7260     0.1290 H     1 <1>   0.0800 
 36 H       -3.5880     3.2840    -0.3620 H     1 <1>   0.0800 
 37 H       -3.0420     2.6570     1.1650 H     1 <1>   0.0800 
 38 H       -4.1240     1.8620    -2.1820 H     1 <1>   0.0800 
 39 H       -2.7410     0.8340    -2.3670 H     1 <1>   0.0800 
 40 H        3.5030    -2.9930     2.3940 H     1 <1>   0.0800 
 41 H        1.7730    -2.9360     2.4690 H     1 <1>   0.0800 
 42 H       -5.2380    -1.2390    -0.1930 H     1 <1>   0.0800 
 43 H       -6.4450    -0.1280    -0.8310 H     1 <1>   0.0800 
 44 H       -4.0390    -1.1120    -2.1000 H     1 <1>   0.0800 
 45 H       -5.2470    -0.0660    -2.8150 H     1 <1>   0.0800 
 46 H        3.3750    -4.8620     0.7640 H     1 <1>   0.0800 
 47 H        1.6290    -4.8040     0.8360 H     1 <1>   0.0800 
 48 H        2.5500    -5.2680     2.2510 H     1 <1>   0.0800 
 49 H       -5.9330     0.1980     3.2360 H     1 <1>   0.0800 
 50 H       -6.7360    -0.2040     1.7260 H     1 <1>   0.0800 
 51 H       -6.4670     1.4890     2.1670 H     1 <1>   0.0800 
 52 H        6.9240    -2.6250     0.2790 H     1 <1>   0.0800 
 53 H        6.3290    -1.0500    -0.2350 H     1 <1>   0.0800 
 54 H        6.0910    -2.4750    -1.2650 H     1 <1>   0.0800 
@<TRIPOS>BOND
  1   1   2  2   
  2   1   3  2   
  3   1   4  am  
  4   1   5  1   
  5   4   6  1   
  6   4   7  1   
  7   5   8  ar  
  8   5   9  ar  
  9   6  10  1   
 10   6  26  1   
 11   6  27  1   
 12   7  11  1   
 13   7  28  1   
 14   7  29  1   
 15   8  12  ar  
 16   8  30  1   
 17   9  13  ar  
 18   9  31  1   
 19  10  14  1   
 20  10  15  1   
 21  10  16  1   
 22  11  15  1   
 23  11  32  1   
 24  11  33  1   
 25  12  17  ar  
 26  12  18  1   
 27  13  17  ar  
 28  13  34  1   
 29  14  19  1   
 30  14  20  1   
 31  14  35  1   
 32  15  36  1   
 33  15  37  1   
 34  16  21  1   
 35  16  38  1   
 36  16  39  1   
 37  17  22  1   
 38  18  23  1   
 39  18  40  1   
 40  18  41  1   
 41  19  24  1   
 42  20  21  1   
 43  20  42  1   
 44  20  43  1   
 45  21  44  1   
 46  21  45  1   
 47  22  25  1   
 48  23  46  1   
 49  23  47  1   
 50  23  48  1   
 51  24  49  1   
 52  24  50  1   
 53  24  51  1   
 54  25  52  1   
 55  25  53  1   
 56  25  54  1   
@<TRIPOS>SUBSTRUCTURE
  1 ****   4 GROUP 4 **** **** 0

# MOE 2024.06 (io_trps.svl 2023.06)
