@<TRIPOS>MOLECULE
NONAME
46 48 1 0 0 
SMALL
USER_CHARGES


@<TRIPOS>ATOM
  1 CL      -2.3210    -0.8830    -2.2900 Cl    1 <1>  -0.1240 
  2 C       -2.5790    -0.1350    -0.7270 C.2   1 <1>  -0.0280 
  3 N       -2.5320     1.1950    -0.5320 N.pl3 1 <1>   0.3140 
  4 C       -2.8560    -0.7350     0.4490 C.2   1 <1>  -0.1810 
  5 N       -2.7870     1.4760     0.7600 N.2   1 <1>  -0.7070 
  6 C       -2.2430     2.2460    -1.5190 C.3   1 <1>   0.0160 
  7 C       -2.9670     0.3300     1.3400 C.2   1 <1>   0.1080 
  8 C       -3.0120    -2.2060     0.7550 C.3   1 <1>   0.5240 
  9 C       -3.2630     0.2350     2.8220 C.3   1 <1>  -0.0590 
 10 N       -3.8790    -2.8060    -0.2880 N.4   1 <1>  -0.9590 
 11 C       -3.8820    -4.3010    -0.2120 C.3   1 <1>   0.5660 
 12 C       -5.2700    -2.2480    -0.2700 C.3   1 <1>   0.3430 
 13 C       -2.4650    -4.7910    -0.4770 C.ar  1 <1>  -0.1440 
 14 C       -4.9010    -4.9560    -1.1830 C.3   1 <1>   0.2000 
 15 C       -6.1600    -2.9460    -1.3130 C.3   1 <1>   0.1200 
 16 C       -1.7900    -4.4820    -1.6530 C.ar  1 <1>  -0.1500 
 17 C       -1.8280    -5.5590     0.4880 C.ar  1 <1>  -0.1500 
 18 O       -6.1590    -4.3270    -1.0990 O.3   1 <1>  -0.5600 
 19 C       -5.0790    -6.4470    -0.8490 C.3   1 <1>   0.1200 
 20 C       -0.4940    -4.9230    -1.8500 C.ar  1 <1>  -0.1500 
 21 C       -0.5320    -5.9990     0.2890 C.ar  1 <1>  -0.1500 
 22 O       -5.2620    -6.6150     0.5230 O.3   1 <1>  -0.6800 
 23 C        0.1360    -5.6790    -0.8790 C.ar  1 <1>  -0.1500 
 24 H       -2.9580     2.1920    -2.3180 H     1 <1>   0.0800 
 25 H       -1.2510     2.1050    -1.9050 H     1 <1>   0.0800 
 26 H       -2.3080     3.2060    -1.0400 H     1 <1>   0.0800 
 27 H       -3.4520    -2.3390     1.7290 H     1 <1>   0.0800 
 28 H       -2.0380    -2.6700     0.7490 H     1 <1>   0.0800 
 29 H       -2.6730    -0.5370     3.2780 H     1 <1>   0.0800 
 30 H       -4.3070     0.0350     2.9780 H     1 <1>   0.0800 
 31 H       -3.0220     1.1700     3.2970 H     1 <1>   0.0800 
 32 H       -3.4400    -2.5540    -1.1810 H     1 <1>   0.4500 
 33 H       -4.1620    -4.5940     0.7860 H     1 <1>   0.0800 
 34 H       -5.7110    -2.3900     0.7030 H     1 <1>   0.0800 
 35 H       -5.2460    -1.1890    -0.4730 H     1 <1>   0.0800 
 36 H       -4.5630    -4.8680    -2.2000 H     1 <1>   0.0800 
 37 H       -5.8220    -2.7450    -2.3150 H     1 <1>   0.0800 
 38 H       -7.1770    -2.6030    -1.2190 H     1 <1>   0.0800 
 39 H       -2.2520    -3.9020    -2.4340 H     1 <1>   0.1500 
 40 H       -2.3330    -5.8280     1.4020 H     1 <1>   0.1500 
 41 H       -4.2040    -7.0060    -1.1340 H     1 <1>   0.0800 
 42 H       -5.9360    -6.8430    -1.3670 H     1 <1>   0.0800 
 43 H        0.0300    -4.6820    -2.7600 H     1 <1>   0.1500 
 44 H       -0.0410    -6.5950     1.0400 H     1 <1>   0.1500 
 45 H       -5.6110    -7.5110     0.7150 H     1 <1>   0.4000 
 46 H        1.1450    -6.0220    -1.0330 H     1 <1>   0.1500 
@<TRIPOS>BOND
  1   1   2  1   
  2   2   3  1   
  3   2   4  2   
  4   3   5  1   
  5   3   6  1   
  6   4   7  1   
  7   4   8  1   
  8   5   7  2   
  9   6  24  1   
 10   6  25  1   
 11   6  26  1   
 12   7   9  1   
 13   8  10  1   
 14   8  27  1   
 15   8  28  1   
 16   9  29  1   
 17   9  30  1   
 18   9  31  1   
 19  10  11  1   
 20  10  12  1   
 21  10  32  1   
 22  11  13  1   
 23  11  14  1   
 24  11  33  1   
 25  12  15  1   
 26  12  34  1   
 27  12  35  1   
 28  13  16  ar  
 29  13  17  ar  
 30  14  18  1   
 31  14  19  1   
 32  14  36  1   
 33  15  18  1   
 34  15  37  1   
 35  15  38  1   
 36  16  20  ar  
 37  16  39  1   
 38  17  21  ar  
 39  17  40  1   
 40  19  22  1   
 41  19  41  1   
 42  19  42  1   
 43  20  23  ar  
 44  20  43  1   
 45  21  23  ar  
 46  21  44  1   
 47  22  45  1   
 48  23  46  1   
@<TRIPOS>SUBSTRUCTURE
  1 ****  10 GROUP 4 **** **** 0

# MOE 2024.06 (io_trps.svl 2023.06)
