@<TRIPOS>MOLECULE
NONAME
46 47 1 0 0 
SMALL
USER_CHARGES


@<TRIPOS>ATOM
  1 S       -0.0580    -0.1340    -1.0030 S.o2  1 <1>   1.3330 
  2 O        0.5660     0.0240    -2.2980 O.2   1 <1>  -0.6500 
  3 O       -0.9050    -1.2770    -0.7490 O.2   1 <1>  -0.6500 
  4 N        1.1660    -0.1350     0.1750 N.am  1 <1>  -0.8490 
  5 C       -0.9750     1.3680    -0.6530 C.3   1 <1>  -0.0550 
  6 C        2.3800    -0.8220    -0.2800 C.3   1 <1>   0.1160 
  7 C        0.7360    -0.6870     1.4640 C.3   1 <1>   0.1160 
  8 C       -0.2060     2.6710    -0.9660 C.3   1 <1>  -0.0800 
  9 C       -1.0430     3.9430    -0.8260 C.3   1 <1>   0.2000 
 10 C        1.0150     2.9280    -0.0750 C.3   1 <1>   0.1400 
 11 O       -1.7650     3.8810     0.3570 O.3   1 <1>  -0.6800 
 12 C       -0.0030     5.0530    -0.6890 C.3   1 <1>   0.1400 
 13 N        1.1430     4.4070     0.0040 N.am  1 <1>  -0.6600 
 14 C        2.3100     5.0240     0.4170 C.2   1 <1>   0.7150 
 15 O        3.1970     4.3040     0.8410 O.2   1 <1>  -0.5700 
 16 C        2.5200     6.4590     0.3590 C.2   1 <1>   0.0550 
 17 O        1.5030     7.3120     0.4080 O.3   1 <1>  -0.2800 
 18 C        3.6650     7.1720     0.2710 C.2   1 <1>   0.0460 
 19 C        2.1080     8.4800     0.3490 C.2   1 <1>   0.2980 
 20 N        3.3870     8.4700     0.2620 N.2   1 <1>  -0.5650 
 21 C        5.1110     6.7270     0.1840 C.3   1 <1>  -0.0590 
 22 C        1.2220     9.7170     0.3890 C.3   1 <1>   0.0200 
 23 C        1.9950    11.0410     0.3030 C.3   1 <1>  -0.2400 
 24 H       -1.8670     1.3600    -1.2480 H     1 <1>   0.0800 
 25 H       -1.2810     1.3640     0.3750 H     1 <1>   0.0800 
 26 H        3.1370    -0.7870     0.4840 H     1 <1>   0.0800 
 27 H        2.7700    -0.3380    -1.1600 H     1 <1>   0.0800 
 28 H        2.1610    -1.8490    -0.5180 H     1 <1>   0.0800 
 29 H        1.5180    -0.5730     2.1950 H     1 <1>   0.0800 
 30 H        0.4980    -1.7340     1.3650 H     1 <1>   0.0800 
 31 H       -0.1380    -0.1680     1.8180 H     1 <1>   0.0800 
 32 H        0.1440     2.6240    -1.9840 H     1 <1>   0.0800 
 33 H       -1.7290     4.1000    -1.6400 H     1 <1>   0.0800 
 34 H        1.9050     2.4860    -0.4920 H     1 <1>   0.0800 
 35 H        0.8610     2.5390     0.9170 H     1 <1>   0.0800 
 36 H       -1.1440     3.9720     1.1090 H     1 <1>   0.4000 
 37 H       -0.4010     5.8840    -0.1330 H     1 <1>   0.0800 
 38 H        0.3170     5.3850    -1.6620 H     1 <1>   0.0800 
 39 H        5.1910     5.6580     0.1150 H     1 <1>   0.0800 
 40 H        5.6410     7.0580     1.0580 H     1 <1>   0.0800 
 41 H        5.5690     7.1620    -0.6850 H     1 <1>   0.0800 
 42 H        0.5270     9.6610    -0.4290 H     1 <1>   0.0800 
 43 H        0.6590     9.6960     1.3050 H     1 <1>   0.0800 
 44 H        2.5540    11.0840    -0.6150 H     1 <1>   0.0800 
 45 H        2.6840    11.1210     1.1260 H     1 <1>   0.0800 
 46 H        1.3150    11.8730     0.3370 H     1 <1>   0.0800 
@<TRIPOS>BOND
  1   1   2  2   
  2   1   3  2   
  3   1   4  am  
  4   1   5  1   
  5   4   6  1   
  6   4   7  1   
  7   5   8  1   
  8   5  24  1   
  9   5  25  1   
 10   6  26  1   
 11   6  27  1   
 12   6  28  1   
 13   7  29  1   
 14   7  30  1   
 15   7  31  1   
 16   8   9  1   
 17   8  10  1   
 18   8  32  1   
 19   9  11  1   
 20   9  12  1   
 21   9  33  1   
 22  10  13  1   
 23  10  34  1   
 24  10  35  1   
 25  11  36  1   
 26  12  13  1   
 27  12  37  1   
 28  12  38  1   
 29  13  14  am  
 30  14  15  2   
 31  14  16  1   
 32  16  17  1   
 33  16  18  2   
 34  17  19  1   
 35  18  20  1   
 36  18  21  1   
 37  19  20  2   
 38  19  22  1   
 39  21  39  1   
 40  21  40  1   
 41  21  41  1   
 42  22  23  1   
 43  22  42  1   
 44  22  43  1   
 45  23  44  1   
 46  23  45  1   
 47  23  46  1   
@<TRIPOS>SUBSTRUCTURE
  1 ****  13 GROUP 4 **** **** 0

# MOE 2024.06 (io_trps.svl 2023.06)
