@<TRIPOS>MOLECULE
NONAME
51 52 1 0 0 
SMALL
USER_CHARGES


@<TRIPOS>ATOM
  1 O        0.0320    -1.0100     1.0910 O.2   1 <1>  -0.5700 
  2 C        0.1810    -1.6250     0.0510 C.2   1 <1>   0.6900 
  3 N        1.2950    -1.4510    -0.7320 N.am  1 <1>  -0.6600 
  4 N       -0.7760    -2.4960    -0.3350 N.am  1 <1>  -0.7300 
  5 C        2.3010    -0.3970    -0.4250 C.3   1 <1>   0.0600 
  6 C        1.5940    -2.2740    -1.9350 C.3   1 <1>   0.0600 
  7 C       -1.9240    -2.9170     0.5110 C.3   1 <1>   0.2010 
  8 C       -2.5890    -4.2130     0.0270 C.2   1 <1>   0.5690 
  9 O       -2.1780    -4.7250    -0.9930 O.2   1 <1>  -0.5700 
 10 N       -3.6330    -4.7640     0.7290 N.am  1 <1>  -0.6600 
 11 C       -4.2830    -6.0350     0.2750 C.3   1 <1>   0.1400 
 12 C       -4.2530    -4.1570     1.9410 C.3   1 <1>   0.1400 
 13 C       -5.6170    -5.7830    -0.4460 C.3   1 <1>   0.1400 
 14 C       -5.3310    -3.1270     1.5720 C.3   1 <1>  -0.1600 
 15 N       -6.5550    -4.9320     0.3640 N.am  1 <1>  -0.6600 
 16 C       -6.1970    -3.4870     0.3570 C.3   1 <1>   0.1400 
 17 C       -7.6780    -5.3760     1.0260 C.2   1 <1>   0.5690 
 18 O       -8.3930    -4.5940     1.6130 O.2   1 <1>  -0.5700 
 19 C       -8.0410    -6.8610     1.0720 C.3   1 <1>   0.2370 
 20 N       -8.6550    -7.2390    -0.2180 N.pl3 1 <1>   0.3140 
 21 C       -8.9610    -7.2650     2.2440 C.3   1 <1>  -0.2400 
 22 N       -8.1490    -8.2380    -0.9730 N.2   1 <1>  -0.7070 
 23 C       -9.7380    -6.6900    -0.8070 C.2   1 <1>  -0.3020 
 24 C       -8.9240    -8.2950    -2.0140 C.2   1 <1>   0.1390 
 25 C       -9.9380    -7.3480    -1.9670 C.2   1 <1>  -0.1500 
 26 H       -0.6210    -3.0870    -1.1520 H     1 <1>   0.3700 
 27 H        1.9570     0.2430     0.3680 H     1 <1>   0.0800 
 28 H        2.4750     0.2050    -1.2990 H     1 <1>   0.0800 
 29 H        3.2240    -0.8580    -0.1190 H     1 <1>   0.0800 
 30 H        1.2220    -3.2760    -1.8100 H     1 <1>   0.0800 
 31 H        2.6580    -2.3290    -2.0900 H     1 <1>   0.0800 
 32 H        1.1350    -1.8280    -2.8000 H     1 <1>   0.0800 
 33 H       -2.6530    -2.1280     0.5100 H     1 <1>   0.0800 
 34 H       -1.5750    -3.0580     1.5180 H     1 <1>   0.0800 
 35 H       -4.4510    -6.6750     1.1230 H     1 <1>   0.0800 
 36 H       -3.6270    -6.5650    -0.3940 H     1 <1>   0.0800 
 37 H       -3.5020    -3.6970     2.5590 H     1 <1>   0.0800 
 38 H       -4.7080    -4.9380     2.5270 H     1 <1>   0.0800 
 39 H       -6.0630    -6.7290    -0.6860 H     1 <1>   0.0800 
 40 H       -5.4150    -5.2950    -1.3840 H     1 <1>   0.0800 
 41 H       -4.8690    -2.1750     1.3890 H     1 <1>   0.0800 
 42 H       -5.9770    -2.9960     2.4220 H     1 <1>   0.0800 
 43 H       -5.6590    -3.2570    -0.5470 H     1 <1>   0.0800 
 44 H       -7.0910    -2.8870     0.3600 H     1 <1>   0.0800 
 45 H       -7.1310    -7.4200     1.1710 H     1 <1>   0.0800 
 46 H       -9.9010    -6.7450     2.1820 H     1 <1>   0.0800 
 47 H       -8.4940    -7.0090     3.1780 H     1 <1>   0.0800 
 48 H       -9.1380    -8.3250     2.2270 H     1 <1>   0.0800 
 49 H      -10.2910    -5.8750    -0.3720 H     1 <1>   0.1500 
 50 H       -8.7870    -9.0000    -2.8170 H     1 <1>   0.1500 
 51 H      -10.7020    -7.1960    -2.7090 H     1 <1>   0.1500 
@<TRIPOS>BOND
  1   1   2  2   
  2   2   3  am  
  3   2   4  am  
  4   3   5  1   
  5   3   6  1   
  6   4   7  1   
  7   4  26  1   
  8   5  27  1   
  9   5  28  1   
 10   5  29  1   
 11   6  30  1   
 12   6  31  1   
 13   6  32  1   
 14   7   8  1   
 15   7  33  1   
 16   7  34  1   
 17   8   9  2   
 18   8  10  am  
 19  10  11  1   
 20  10  12  1   
 21  11  13  1   
 22  11  35  1   
 23  11  36  1   
 24  12  14  1   
 25  12  37  1   
 26  12  38  1   
 27  13  15  1   
 28  13  39  1   
 29  13  40  1   
 30  14  16  1   
 31  14  41  1   
 32  14  42  1   
 33  15  16  1   
 34  15  17  am  
 35  16  43  1   
 36  16  44  1   
 37  17  18  2   
 38  17  19  1   
 39  19  20  1   
 40  19  21  1   
 41  19  45  1   
 42  20  22  1   
 43  20  23  1   
 44  21  46  1   
 45  21  47  1   
 46  21  48  1   
 47  22  24  2   
 48  23  25  2   
 49  23  49  1   
 50  24  25  1   
 51  24  50  1   
 52  25  51  1   
@<TRIPOS>SUBSTRUCTURE
  1 ****  10 GROUP 4 **** **** 0

# MOE 2024.06 (io_trps.svl 2023.06)
