@<TRIPOS>MOLECULE
NONAME
59 62 1 0 0 
SMALL
USER_CHARGES


@<TRIPOS>ATOM
  1 O        3.7000    -1.0930     2.5960 O.2   1 <1>  -0.5700 
  2 C        2.6840    -1.1820     1.9480 C.2   1 <1>   0.5690 
  3 N        2.0200    -0.0980     1.4770 N.am  1 <1>  -0.7300 
  4 C        2.1160    -2.5650     1.6130 C.3   1 <1>   0.1710 
  5 C        2.4790     1.3050     1.5190 C.3   1 <1>   0.1400 
  6 N        1.3600    -2.6180     0.3250 N.3   1 <1>  -0.8100 
  7 C        2.8040     1.7970     0.0990 C.3   1 <1>  -0.0800 
  8 C        2.2300    -2.4120    -0.8410 C.3   1 <1>   0.1100 
  9 C        0.7290    -3.9290     0.1080 C.3   1 <1>   0.1100 
 10 C        3.3740     3.2260     0.1580 C.3   1 <1>  -0.1600 
 11 C        1.5740     1.7490    -0.8330 C.3   1 <1>  -0.1600 
 12 C        1.4040    -2.9390    -2.0070 C.3   1 <1>   0.2000 
 13 C        0.7170    -4.1700    -1.4150 C.3   1 <1>  -0.0800 
 14 C        3.7080     3.7590    -1.2420 C.3   1 <1>  -0.1600 
 15 C        1.9070     2.2850    -2.2310 C.3   1 <1>  -0.1600 
 16 O        0.4260    -2.0020    -2.2810 O.3   1 <1>  -0.6800 
 17 C        1.4610    -5.4610    -1.8050 C.3   1 <1>  -0.0170 
 18 C        2.4820     3.7050    -2.1620 C.3   1 <1>  -0.1600 
 19 C        0.8110    -6.6930    -1.1970 C.ar  1 <1>   0.1670 
 20 N        1.3590    -7.1980    -0.1340 N.ar  1 <1>  -0.6200 
 21 C       -0.3430    -7.2170    -1.8010 C.ar  1 <1>  -0.1500 
 22 C        0.7760    -8.2930     0.4180 C.ar  1 <1>   0.3100 
 23 C       -0.9490    -8.3140    -1.2670 C.ar  1 <1>  -0.1500 
 24 C       -0.3870    -8.8890    -0.1160 C.ar  1 <1>   0.0000 
 25 C        1.3480    -8.8590     1.5690 C.ar  1 <1>  -0.1500 
 26 C       -0.9310   -10.0230     0.5210 C.ar  1 <1>  -0.1500 
 27 C        0.8050    -9.9610     2.1740 C.ar  1 <1>  -0.1500 
 28 C       -0.3480   -10.5490     1.6430 C.ar  1 <1>  -0.1500 
 29 H        1.2190    -0.2990     0.8720 H     1 <1>   0.3700 
 30 H        1.4590    -2.8460     2.4160 H     1 <1>   0.0800 
 31 H        2.9280    -3.2710     1.5900 H     1 <1>   0.0800 
 32 H        1.7100     1.9160     1.9580 H     1 <1>   0.0800 
 33 H        3.3580     1.3740     2.1380 H     1 <1>   0.0800 
 34 H        3.5680     1.1540    -0.3030 H     1 <1>   0.0800 
 35 H        2.4950    -1.3770    -0.9740 H     1 <1>   0.0800 
 36 H        3.1280    -3.0000    -0.7430 H     1 <1>   0.0800 
 37 H        1.2950    -4.6970     0.6080 H     1 <1>   0.0800 
 38 H       -0.2710    -3.9250     0.5060 H     1 <1>   0.0800 
 39 H        2.6570     3.8810     0.6220 H     1 <1>   0.0800 
 40 H        4.2670     3.2340     0.7590 H     1 <1>   0.0800 
 41 H        1.2200     0.7390    -0.9330 H     1 <1>   0.0800 
 42 H        0.7790     2.3380    -0.4090 H     1 <1>   0.0800 
 43 H        1.9730    -3.1230    -2.9020 H     1 <1>   0.0800 
 44 H       -0.2970    -4.2440    -1.7700 H     1 <1>   0.0800 
 45 H        4.0580     4.7740    -1.1680 H     1 <1>   0.0800 
 46 H        4.4990     3.1670    -1.6690 H     1 <1>   0.0800 
 47 H        2.6230     1.6330    -2.7010 H     1 <1>   0.0800 
 48 H        1.0170     2.2860    -2.8380 H     1 <1>   0.0800 
 49 H        0.0300    -1.7610    -1.4170 H     1 <1>   0.4000 
 50 H        2.4850    -5.4070    -1.4780 H     1 <1>   0.0800 
 51 H        1.4670    -5.5650    -2.8750 H     1 <1>   0.0800 
 52 H        2.7570     4.0310    -3.1500 H     1 <1>   0.0800 
 53 H        1.7270     4.3770    -1.7900 H     1 <1>   0.0800 
 54 H       -0.7380    -6.7420    -2.6810 H     1 <1>   0.1500 
 55 H       -1.8340    -8.7430    -1.7020 H     1 <1>   0.1500 
 56 H        2.2340    -8.3930     1.9600 H     1 <1>   0.1500 
 57 H       -1.8170   -10.4700     0.1080 H     1 <1>   0.1500 
 58 H        1.2540   -10.3850     3.0560 H     1 <1>   0.1500 
 59 H       -0.7650   -11.4150     2.1280 H     1 <1>   0.1500 
@<TRIPOS>BOND
  1   1   2  2   
  2   2   3  am  
  3   2   4  1   
  4   3   5  1   
  5   3  29  1   
  6   4   6  1   
  7   4  30  1   
  8   4  31  1   
  9   5   7  1   
 10   5  32  1   
 11   5  33  1   
 12   6   8  1   
 13   6   9  1   
 14   7  10  1   
 15   7  11  1   
 16   7  34  1   
 17   8  12  1   
 18   8  35  1   
 19   8  36  1   
 20   9  13  1   
 21   9  37  1   
 22   9  38  1   
 23  10  14  1   
 24  10  39  1   
 25  10  40  1   
 26  11  15  1   
 27  11  41  1   
 28  11  42  1   
 29  12  13  1   
 30  12  16  1   
 31  12  43  1   
 32  13  17  1   
 33  13  44  1   
 34  14  18  1   
 35  14  45  1   
 36  14  46  1   
 37  15  18  1   
 38  15  47  1   
 39  15  48  1   
 40  16  49  1   
 41  17  19  1   
 42  17  50  1   
 43  17  51  1   
 44  18  52  1   
 45  18  53  1   
 46  19  20  ar  
 47  19  21  ar  
 48  20  22  ar  
 49  21  23  ar  
 50  21  54  1   
 51  22  24  ar  
 52  22  25  ar  
 53  23  24  ar  
 54  23  55  1   
 55  24  26  ar  
 56  25  27  ar  
 57  25  56  1   
 58  26  28  ar  
 59  26  57  1   
 60  27  28  ar  
 61  27  58  1   
 62  28  59  1   
@<TRIPOS>SUBSTRUCTURE
  1 ****   9 GROUP 4 **** **** 0

# MOE 2024.06 (io_trps.svl 2023.06)
