@<TRIPOS>MOLECULE
NONAME
46 50 1 0 0 
SMALL
USER_CHARGES


@<TRIPOS>ATOM
  1 S       -0.1670    -0.2910    -0.7840 S.3   1 <1>  -0.0800 
  2 C       -1.9290    -0.3490    -0.6000 C.2   1 <1>   0.4620 
  3 C       -0.1300     1.2310     0.0750 C.ar  1 <1>   0.0400 
  4 N       -2.4160     0.6590     0.0300 N.2   1 <1>  -0.5650 
  5 N       -2.6330    -1.4130    -1.1250 N.pl3 1 <1>  -0.8220 
  6 C       -1.4290     1.5520     0.4150 C.ar  1 <1>   0.2270 
  7 C        0.9640     2.0160     0.3860 C.ar  1 <1>  -0.1500 
  8 C       -4.1250    -1.3590    -1.1480 C.3   1 <1>   0.2090 
  9 C       -1.9760    -2.6270    -1.6820 C.3   1 <1>   0.2090 
 10 C       -1.6440     2.7340     1.1110 C.ar  1 <1>  -0.1500 
 11 C        0.7290     3.1920     1.0810 C.ar  1 <1>  -0.1500 
 12 C       -4.7270    -2.0460     0.0890 C.3   1 <1>   0.1100 
 13 C       -2.7810    -3.9140    -1.4630 C.3   1 <1>  -0.1600 
 14 C       -0.5700     3.5470     1.4400 C.ar  1 <1>  -0.1500 
 15 N       -4.7120    -3.5290     0.0330 N.3   1 <1>  -0.8100 
 16 C       -3.3380    -4.0630    -0.0430 C.3   1 <1>   0.1100 
 17 C       -5.4110    -4.0770     1.2340 C.3   1 <1>   0.1710 
 18 C       -5.8600    -5.5300     1.0550 C.2   1 <1>   0.4390 
 19 N       -6.0410    -5.9320    -0.2380 N.pl3 1 <1>  -0.5330 
 20 N       -6.0460    -6.2900     2.0790 N.2   1 <1>  -0.6610 
 21 C       -6.4450    -7.2070    -0.5340 C.2   1 <1>   0.0830 
 22 C       -6.4550    -7.5860     1.8570 C.2   1 <1>   0.8660 
 23 C       -6.6490    -8.0250     0.5230 C.2   1 <1>  -0.0450 
 24 C       -6.6810    -7.8040    -1.8090 C.2   1 <1>  -0.1500 
 25 O       -6.6330    -8.3130     2.8240 O.2   1 <1>  -0.5700 
 26 S       -7.1600    -9.6200    -0.0500 S.3   1 <1>  -0.0800 
 27 C       -7.0700    -9.0920    -1.7280 C.2   1 <1>  -0.1100 
 28 H        1.9550     1.7180     0.0970 H     1 <1>   0.1500 
 29 H       -4.5060    -1.8100    -2.0470 H     1 <1>   0.0800 
 30 H       -4.4380    -0.3290    -1.1520 H     1 <1>   0.0800 
 31 H       -1.0190    -2.7610    -1.2100 H     1 <1>   0.0800 
 32 H       -1.8070    -2.4830    -2.7360 H     1 <1>   0.0800 
 33 H       -2.6490     3.0010     1.3840 H     1 <1>   0.1500 
 34 H        1.5510     3.8350     1.3440 H     1 <1>   0.1500 
 35 H       -5.7490    -1.7200     0.1650 H     1 <1>   0.0800 
 36 H       -4.2070    -1.6970     0.9660 H     1 <1>   0.0800 
 37 H       -2.1140    -4.7360    -1.6490 H     1 <1>   0.0800 
 38 H       -3.5740    -3.9890    -2.1840 H     1 <1>   0.0800 
 39 H       -0.7390     4.4630     1.9790 H     1 <1>   0.1500 
 40 H       -2.6990    -3.5720     0.6740 H     1 <1>   0.0800 
 41 H       -3.3510    -5.1130     0.1950 H     1 <1>   0.0800 
 42 H       -6.2970    -3.5000     1.4260 H     1 <1>   0.0800 
 43 H       -4.7760    -4.0010     2.1000 H     1 <1>   0.0800 
 44 H       -5.7960    -5.2320    -0.9500 H     1 <1>   0.4000 
 45 H       -6.5490    -7.2440    -2.7170 H     1 <1>   0.1500 
 46 H       -7.3220    -9.8150    -2.4850 H     1 <1>   0.1500 
@<TRIPOS>BOND
  1   1   2  1   
  2   1   3  1   
  3   2   4  2   
  4   2   5  1   
  5   3   6  ar  
  6   3   7  ar  
  7   4   6  1   
  8   5   8  1   
  9   5   9  1   
 10   6  10  ar  
 11   7  11  ar  
 12   7  28  1   
 13   8  12  1   
 14   8  29  1   
 15   8  30  1   
 16   9  13  1   
 17   9  31  1   
 18   9  32  1   
 19  10  14  ar  
 20  10  33  1   
 21  11  14  ar  
 22  11  34  1   
 23  12  15  1   
 24  12  35  1   
 25  12  36  1   
 26  13  16  1   
 27  13  37  1   
 28  13  38  1   
 29  14  39  1   
 30  15  16  1   
 31  15  17  1   
 32  16  40  1   
 33  16  41  1   
 34  17  18  1   
 35  17  42  1   
 36  17  43  1   
 37  18  19  1   
 38  18  20  2   
 39  19  21  1   
 40  19  44  1   
 41  20  22  1   
 42  21  23  2   
 43  21  24  1   
 44  22  23  1   
 45  22  25  2   
 46  23  26  1   
 47  24  27  2   
 48  24  45  1   
 49  26  27  1   
 50  27  46  1   
@<TRIPOS>SUBSTRUCTURE
  1 ****  16 GROUP 4 **** **** 0

# MOE 2024.06 (io_trps.svl 2023.06)
