@<TRIPOS>MOLECULE
NONAME
40 41 1 0 0 
SMALL
USER_CHARGES


@<TRIPOS>ATOM
  1 S       -0.1070     0.3180    -0.9800 S.o2  1 <1>   1.3330 
  2 O        0.3500     1.2930    -1.9450 O.2   1 <1>  -0.6500 
  3 O       -0.8200    -0.8540    -1.4320 O.2   1 <1>  -0.6500 
  4 N        1.2380    -0.2230    -0.0920 N.am  1 <1>  -0.8490 
  5 C       -1.0990     1.1450     0.2740 C.3   1 <1>  -0.0550 
  6 C        1.0470    -1.5430     0.5200 C.3   1 <1>   0.1160 
  7 C        2.4790    -0.2070    -0.8740 C.3   1 <1>   0.1160 
  8 C       -0.6960     2.5850     0.6640 C.3   1 <1>  -0.0800 
  9 C       -1.0530     3.6300    -0.3960 C.3   1 <1>   0.2000 
 10 C        0.7840     2.8300     0.9640 C.3   1 <1>   0.1400 
 11 O       -2.3700     4.0270    -0.2210 O.3   1 <1>  -0.6800 
 12 C       -0.0890     4.7980    -0.1780 C.3   1 <1>   0.1400 
 13 N        0.9980     4.2690     0.6890 N.am  1 <1>  -0.6600 
 14 C        2.2460     4.8380     0.7980 C.2   1 <1>   0.5440 
 15 O        3.1610     4.1630     1.2260 O.2   1 <1>  -0.5700 
 16 C        2.4960     6.2030     0.3930 C.ar  1 <1>   0.0860 
 17 C        3.5520     6.4900    -0.4690 C.ar  1 <1>   0.1600 
 18 C        1.7230     7.2730     0.8260 C.ar  1 <1>  -0.1500 
 19 N        3.8670     7.6890    -0.9360 N.ar  1 <1>  -0.6200 
 20 C        2.0370     8.5300     0.3580 C.ar  1 <1>  -0.1500 
 21 C        3.1030     8.6820    -0.5120 C.ar  1 <1>   0.1600 
 22 H       -2.1150     1.1790    -0.0710 H     1 <1>   0.0800 
 23 H       -1.0950     0.5400     1.1590 H     1 <1>   0.0800 
 24 H        1.8850    -1.7830     1.1520 H     1 <1>   0.0800 
 25 H        0.9550    -2.3000    -0.2420 H     1 <1>   0.0800 
 26 H        0.1550    -1.5490     1.1210 H     1 <1>   0.0800 
 27 H        3.3060    -0.5380    -0.2700 H     1 <1>   0.0800 
 28 H        2.6920     0.7940    -1.2110 H     1 <1>   0.0800 
 29 H        2.3870    -0.8490    -1.7350 H     1 <1>   0.0800 
 30 H       -1.2230     2.8350     1.5680 H     1 <1>   0.0800 
 31 H       -0.9490     3.2570    -1.4000 H     1 <1>   0.0800 
 32 H        1.4310     2.2750     0.3090 H     1 <1>   0.0800 
 33 H        1.0320     2.5960     1.9850 H     1 <1>   0.0800 
 34 H       -2.5020     4.3910     0.6760 H     1 <1>   0.4000 
 35 H       -0.5820     5.6150     0.3180 H     1 <1>   0.0800 
 36 H        0.3150     5.1260    -1.1200 H     1 <1>   0.0800 
 37 H        4.1670     5.6660    -0.7900 H     1 <1>   0.1500 
 38 H        0.9080     7.1180     1.5110 H     1 <1>   0.1500 
 39 H        1.4660     9.3890     0.6630 H     1 <1>   0.1500 
 40 H        3.3410     9.6680    -0.8760 H     1 <1>   0.1500 
@<TRIPOS>BOND
  1   1   2  2   
  2   1   3  2   
  3   1   4  am  
  4   1   5  1   
  5   4   6  1   
  6   4   7  1   
  7   5   8  1   
  8   5  22  1   
  9   5  23  1   
 10   6  24  1   
 11   6  25  1   
 12   6  26  1   
 13   7  27  1   
 14   7  28  1   
 15   7  29  1   
 16   8   9  1   
 17   8  10  1   
 18   8  30  1   
 19   9  11  1   
 20   9  12  1   
 21   9  31  1   
 22  10  13  1   
 23  10  32  1   
 24  10  33  1   
 25  11  34  1   
 26  12  13  1   
 27  12  35  1   
 28  12  36  1   
 29  13  14  am  
 30  14  15  2   
 31  14  16  1   
 32  16  17  ar  
 33  16  18  ar  
 34  17  19  ar  
 35  17  37  1   
 36  18  20  ar  
 37  18  38  1   
 38  19  21  ar  
 39  20  21  ar  
 40  20  39  1   
 41  21  40  1   
@<TRIPOS>SUBSTRUCTURE
  1 ****  13 GROUP 4 **** **** 0

# MOE 2024.06 (io_trps.svl 2023.06)
