@<TRIPOS>MOLECULE
NONAME
42 43 1 0 0 
SMALL
USER_CHARGES


@<TRIPOS>ATOM
  1 S        0.5510     1.2960    -1.0380 S.o2  1 <1>   1.3330 
  2 O        0.9630    -0.0600    -1.3180 O.2   1 <1>  -0.6500 
  3 O       -0.0360     2.0800    -2.1020 O.2   1 <1>  -0.6500 
  4 N        1.9360     2.1220    -0.5120 N.am  1 <1>  -0.8490 
  5 C       -0.6120     1.2440     0.3400 C.3   1 <1>  -0.0550 
  6 C        2.7980     2.4790    -1.6430 C.3   1 <1>   0.1160 
  7 C        2.7260     1.3810     0.4780 C.3   1 <1>   0.1160 
  8 C       -1.1410     2.5510     0.9860 C.3   1 <1>  -0.0800 
  9 C       -1.5590     3.6480     0.0020 C.3   1 <1>   0.2000 
 10 C       -0.1300     3.2330     1.9130 C.3   1 <1>   0.1400 
 11 O       -2.5870     4.3650     0.5930 O.3   1 <1>  -0.6800 
 12 C       -0.3450     4.5730    -0.1090 C.3   1 <1>   0.1400 
 13 N        0.4010     4.4000     1.1680 N.am  1 <1>  -0.6600 
 14 C        1.6830     4.8560     1.3770 C.2   1 <1>   0.5440 
 15 O        2.3440     4.3640     2.2720 O.2   1 <1>  -0.5700 
 16 C        2.2720     5.8920     0.5510 C.ar  1 <1>   0.0860 
 17 C        1.6170     7.0940     0.2930 C.ar  1 <1>  -0.1500 
 18 C        3.5380     5.7120    -0.0070 C.ar  1 <1>  -0.1500 
 19 C        2.2210     8.0370    -0.5100 C.ar  1 <1>   0.1900 
 20 C        4.1460     6.6630    -0.8200 C.ar  1 <1>   0.0730 
 21 F        1.5900     9.1530    -0.7490 F     1 <1>  -0.1900 
 22 C        3.4660     7.8470    -1.0740 C.ar  1 <1>  -0.1500 
 23 C        5.4430     6.4230    -1.3860 C.1   1 <1>   0.4840 
 24 N        6.4660     6.2180    -1.8440 N.1   1 <1>  -0.5570 
 25 H       -1.4730     0.7100    -0.0130 H     1 <1>   0.0800 
 26 H       -0.1900     0.6370     1.1170 H     1 <1>   0.0800 
 27 H        3.6780     2.9920    -1.2990 H     1 <1>   0.0800 
 28 H        2.2690     3.1280    -2.3200 H     1 <1>   0.0800 
 29 H        3.0960     1.5930    -2.1800 H     1 <1>   0.0800 
 30 H        3.5330     1.9960     0.8380 H     1 <1>   0.0800 
 31 H        3.1330     0.4830     0.0420 H     1 <1>   0.0800 
 32 H        2.1160     1.1090     1.3200 H     1 <1>   0.0800 
 33 H       -1.9910     2.2580     1.5780 H     1 <1>   0.0800 
 34 H       -1.9120     3.2850    -0.9490 H     1 <1>   0.0800 
 35 H        0.6610     2.5650     2.2060 H     1 <1>   0.0800 
 36 H       -0.6210     3.5910     2.8010 H     1 <1>   0.0800 
 37 H       -2.2480     4.8160     1.3910 H     1 <1>   0.4000 
 38 H       -0.6530     5.5930    -0.2590 H     1 <1>   0.0800 
 39 H        0.2810     4.2730    -0.9300 H     1 <1>   0.0800 
 40 H        0.6500     7.2910     0.7210 H     1 <1>   0.1500 
 41 H        4.0580     4.7940     0.2120 H     1 <1>   0.1500 
 42 H        3.8950     8.6130    -1.6960 H     1 <1>   0.1500 
@<TRIPOS>BOND
  1   1   2  2   
  2   1   3  2   
  3   1   4  am  
  4   1   5  1   
  5   4   6  1   
  6   4   7  1   
  7   5   8  1   
  8   5  25  1   
  9   5  26  1   
 10   6  27  1   
 11   6  28  1   
 12   6  29  1   
 13   7  30  1   
 14   7  31  1   
 15   7  32  1   
 16   8   9  1   
 17   8  10  1   
 18   8  33  1   
 19   9  11  1   
 20   9  12  1   
 21   9  34  1   
 22  10  13  1   
 23  10  35  1   
 24  10  36  1   
 25  11  37  1   
 26  12  13  1   
 27  12  38  1   
 28  12  39  1   
 29  13  14  am  
 30  14  15  2   
 31  14  16  1   
 32  16  17  ar  
 33  16  18  ar  
 34  17  19  ar  
 35  17  40  1   
 36  18  20  ar  
 37  18  41  1   
 38  19  21  1   
 39  19  22  ar  
 40  20  22  ar  
 41  20  23  1   
 42  22  42  1   
 43  23  24  3   
@<TRIPOS>SUBSTRUCTURE
  1 ****  14 GROUP 4 **** **** 0

# MOE 2024.06 (io_trps.svl 2023.06)
