@<TRIPOS>MOLECULE
NONAME
47 50 1 0 0 
SMALL
USER_CHARGES


@<TRIPOS>ATOM
  1 O       -2.1490    -0.9380    -0.5770 O.2   1 <1>  -0.5700 
  2 C       -1.9990     0.2560    -0.5590 C.2   1 <1>   0.5950 
  3 C       -2.7070     1.1650     0.2960 C.2   1 <1>  -0.0860 
  4 C       -1.0270     0.8790    -1.5580 C.3   1 <1>  -0.0990 
  5 C       -3.6870     0.9690     1.3030 C.2   1 <1>  -0.0860 
  6 C       -2.5090     2.5040     0.2610 C.2   1 <1>  -0.0400 
  7 C       -0.4420     2.2360    -1.0940 C.3   1 <1>  -0.1600 
  8 C       -3.9730     2.2220     1.7530 C.2   1 <1>  -0.0400 
  9 C       -4.2310    -0.2870     1.7600 C.2   1 <1>   0.7160 
 10 O       -3.2730     3.1280     1.1150 O.3   1 <1>  -0.2800 
 11 C       -1.5240     3.2300    -0.6280 C.3   1 <1>   0.0200 
 12 C       -4.9270     2.6810     2.8350 C.3   1 <1>  -0.0600 
 13 O       -4.0690    -0.6310     2.9150 O.2   1 <1>  -0.5700 
 14 N       -4.9860    -1.0840     0.9360 N.am  1 <1>  -0.6600 
 15 C       -5.4250    -0.7410    -0.4370 C.3   1 <1>   0.1400 
 16 C       -5.3060    -2.4980     1.2530 C.3   1 <1>   0.1400 
 17 C       -6.3520    -1.8870    -0.8340 C.3   1 <1>   0.2000 
 18 C       -5.8200    -3.1000    -0.0650 C.3   1 <1>  -0.0800 
 19 O       -7.6240    -1.6040    -0.3630 O.3   1 <1>  -0.6800 
 20 C       -4.6860    -3.8040    -0.8410 C.3   1 <1>  -0.0170 
 21 C       -4.4600    -5.2310    -0.3530 C.ar  1 <1>   0.1670 
 22 N       -3.8760    -5.3780     0.8250 N.ar  1 <1>  -0.6200 
 23 C       -4.8640    -6.3050    -1.1450 C.ar  1 <1>   0.1600 
 24 C       -3.7220    -6.6500     1.1530 C.ar  1 <1>   0.1600 
 25 N       -4.7140    -7.5790    -0.8200 N.ar  1 <1>  -0.6200 
 26 C       -4.1270    -7.7140     0.3570 C.ar  1 <1>   0.1600 
 27 H       -0.2240     0.1870    -1.7340 H     1 <1>   0.0800 
 28 H       -1.5520     1.0150    -2.4860 H     1 <1>   0.0800 
 29 H        0.2210     2.0490    -0.2660 H     1 <1>   0.0800 
 30 H        0.1410     2.6760    -1.8840 H     1 <1>   0.0800 
 31 H       -2.0490     3.6450    -1.4700 H     1 <1>   0.0800 
 32 H       -1.0670     4.0360    -0.0800 H     1 <1>   0.0800 
 33 H       -5.4240     1.8390     3.2830 H     1 <1>   0.0800 
 34 H       -5.6630     3.3410     2.4160 H     1 <1>   0.0800 
 35 H       -4.3800     3.2050     3.5980 H     1 <1>   0.0800 
 36 H       -5.9230     0.2130    -0.4710 H     1 <1>   0.0800 
 37 H       -4.5740    -0.7290    -1.0920 H     1 <1>   0.0800 
 38 H       -4.4330    -3.0040     1.6290 H     1 <1>   0.0800 
 39 H       -6.0740    -2.5240     2.0060 H     1 <1>   0.0800 
 40 H       -6.4140    -2.0320    -1.8990 H     1 <1>   0.0800 
 41 H       -6.6070    -3.8120     0.1150 H     1 <1>   0.0800 
 42 H       -7.5600    -1.3600     0.5830 H     1 <1>   0.4000 
 43 H       -3.7670    -3.2500    -0.7490 H     1 <1>   0.0800 
 44 H       -4.9350    -3.8360    -1.8860 H     1 <1>   0.0800 
 45 H       -5.3340    -6.1050    -2.0910 H     1 <1>   0.1500 
 46 H       -3.2510    -6.8590     2.0970 H     1 <1>   0.1500 
 47 H       -3.9580    -8.7160     0.7100 H     1 <1>   0.1500 
@<TRIPOS>BOND
  1   1   2  2   
  2   2   3  1   
  3   2   4  1   
  4   3   5  1   
  5   3   6  2   
  6   4   7  1   
  7   4  27  1   
  8   4  28  1   
  9   5   8  2   
 10   5   9  1   
 11   6  10  1   
 12   6  11  1   
 13   7  11  1   
 14   7  29  1   
 15   7  30  1   
 16   8  10  1   
 17   8  12  1   
 18   9  13  2   
 19   9  14  am  
 20  11  31  1   
 21  11  32  1   
 22  12  33  1   
 23  12  34  1   
 24  12  35  1   
 25  14  15  1   
 26  14  16  1   
 27  15  17  1   
 28  15  36  1   
 29  15  37  1   
 30  16  18  1   
 31  16  38  1   
 32  16  39  1   
 33  17  18  1   
 34  17  19  1   
 35  17  40  1   
 36  18  20  1   
 37  18  41  1   
 38  19  42  1   
 39  20  21  1   
 40  20  43  1   
 41  20  44  1   
 42  21  22  ar  
 43  21  23  ar  
 44  22  24  ar  
 45  23  25  ar  
 46  23  45  1   
 47  24  26  ar  
 48  24  46  1   
 49  25  26  ar  
 50  26  47  1   
@<TRIPOS>SUBSTRUCTURE
  1 ****  14 GROUP 4 **** **** 0

# MOE 2024.06 (io_trps.svl 2023.06)
