@<TRIPOS>MOLECULE
NONAME
48 50 1 0 0 
SMALL
USER_CHARGES


@<TRIPOS>ATOM
  1 S       -0.4560    -1.1670    -1.6490 S.o2  1 <1>   1.2040 
  2 O        0.2620    -0.1670    -0.8930 O.2   1 <1>  -0.6500 
  3 O       -0.2200    -1.3210    -3.0660 O.2   1 <1>  -0.6500 
  4 C       -0.2710    -2.7780    -0.8400 C.ar  1 <1>  -0.0090 
  5 C       -2.1940    -0.8360    -1.4400 C.3   1 <1>  -0.1350 
  6 C       -0.0010    -2.8720     0.5190 C.ar  1 <1>  -0.1500 
  7 C       -0.4130    -3.9620    -1.5540 C.ar  1 <1>  -0.1500 
  8 C        0.1260    -4.1000     1.1450 C.ar  1 <1>  -0.1500 
  9 C       -0.2870    -5.1950    -0.9380 C.ar  1 <1>  -0.1500 
 10 C       -0.0160    -5.2720     0.4190 C.ar  1 <1>  -0.1430 
 11 C        0.1280    -6.6170     1.1130 C.3   1 <1>   0.4860 
 12 N       -1.1720    -7.3260     1.0870 N.4   1 <1>  -0.9590 
 13 C       -2.3250    -6.5340     1.6210 C.3   1 <1>   0.3430 
 14 C       -1.1740    -8.6200     1.8100 C.3   1 <1>   0.3430 
 15 C       -3.0960    -7.4780     2.5580 C.3   1 <1>   0.2000 
 16 C       -2.6510    -8.8720     2.1170 C.3   1 <1>  -0.0800 
 17 O       -2.6320    -7.2690     3.8500 O.3   1 <1>  -0.6800 
 18 C       -3.4740    -9.3610     0.8940 C.3   1 <1>   0.0210 
 19 C       -2.6480    -9.7770    -0.3140 C.2   1 <1>   0.1080 
 20 N       -2.0650    -8.9290    -1.1110 N.2   1 <1>  -0.7070 
 21 C       -2.4390   -11.0950    -0.7010 C.2   1 <1>  -0.1500 
 22 N       -1.4910    -9.7040    -2.0620 N.pl3 1 <1>   0.3000 
 23 C       -1.6930   -11.0150    -1.8220 C.2   1 <1>  -0.3320 
 24 C       -1.1650   -12.1340    -2.7030 C.3   1 <1>  -0.0600 
 25 H       -2.4460    -0.7950    -0.3980 H     1 <1>   0.0800 
 26 H       -2.7810    -1.5990    -1.9120 H     1 <1>   0.0800 
 27 H       -2.4410     0.1080    -1.8860 H     1 <1>   0.0800 
 28 H        0.1220    -1.9680     1.0950 H     1 <1>   0.1500 
 29 H       -0.6160    -3.9160    -2.6130 H     1 <1>   0.1500 
 30 H        0.3420    -4.1260     2.2010 H     1 <1>   0.1500 
 31 H       -0.3980    -6.0890    -1.5300 H     1 <1>   0.1500 
 32 H        0.4380    -6.4640     2.1330 H     1 <1>   0.0800 
 33 H        0.8790    -7.2050     0.6110 H     1 <1>   0.0800 
 34 H       -1.4040    -7.5810     0.1030 H     1 <1>   0.4500 
 35 H       -1.9960    -5.6650     2.1660 H     1 <1>   0.0800 
 36 H       -2.9550    -6.2260     0.8030 H     1 <1>   0.0800 
 37 H       -0.7400    -9.4110     1.2190 H     1 <1>   0.0800 
 38 H       -0.6330    -8.5220     2.7380 H     1 <1>   0.0800 
 39 H       -4.1600    -7.3110     2.5400 H     1 <1>   0.0800 
 40 H       -2.7490    -9.5890     2.9130 H     1 <1>   0.0800 
 41 H       -3.2130    -7.6990     4.5130 H     1 <1>   0.4000 
 42 H       -4.1560    -8.5990     0.5600 H     1 <1>   0.0800 
 43 H       -4.0810   -10.1970     1.1960 H     1 <1>   0.0800 
 44 H       -2.8100   -11.9770    -0.2070 H     1 <1>   0.1500 
 45 H       -0.9820    -9.3220    -2.8710 H     1 <1>   0.2700 
 46 H       -1.4630   -13.0890    -2.3070 H     1 <1>   0.0800 
 47 H       -0.0910   -12.1030    -2.7460 H     1 <1>   0.0800 
 48 H       -1.5600   -12.0420    -3.6990 H     1 <1>   0.0800 
@<TRIPOS>BOND
  1   1   2  2   
  2   1   3  2   
  3   1   4  1   
  4   1   5  1   
  5   4   6  ar  
  6   4   7  ar  
  7   5  25  1   
  8   5  26  1   
  9   5  27  1   
 10   6   8  ar  
 11   6  28  1   
 12   7   9  ar  
 13   7  29  1   
 14   8  10  ar  
 15   8  30  1   
 16   9  10  ar  
 17   9  31  1   
 18  10  11  1   
 19  11  12  1   
 20  11  32  1   
 21  11  33  1   
 22  12  13  1   
 23  12  14  1   
 24  12  34  1   
 25  13  15  1   
 26  13  35  1   
 27  13  36  1   
 28  14  16  1   
 29  14  37  1   
 30  14  38  1   
 31  15  16  1   
 32  15  17  1   
 33  15  39  1   
 34  16  18  1   
 35  16  40  1   
 36  17  41  1   
 37  18  19  1   
 38  18  42  1   
 39  18  43  1   
 40  19  20  2   
 41  19  21  1   
 42  20  22  1   
 43  21  23  2   
 44  21  44  1   
 45  22  23  1   
 46  22  45  1   
 47  23  24  1   
 48  24  46  1   
 49  24  47  1   
 50  24  48  1   
@<TRIPOS>SUBSTRUCTURE
  1 ****  12 GROUP 4 **** **** 0

# MOE 2024.06 (io_trps.svl 2023.06)
