@<TRIPOS>MOLECULE
NONAME
55 57 1 0 0 
SMALL
USER_CHARGES


@<TRIPOS>ATOM
  1 O        5.3160    -2.9760    -0.8810 O.2   1 <1>  -0.5700 
  2 C        4.4950    -2.6340    -0.0500 C.2   1 <1>   0.5440 
  3 N        4.9020    -1.7140     0.8960 N.am  1 <1>  -0.6600 
  4 C        3.1450    -3.1450    -0.1120 C.ar  1 <1>   0.0860 
  5 C        6.3540    -1.5650     1.2110 C.3   1 <1>   0.1400 
  6 C        3.9950    -0.6630     1.4280 C.3   1 <1>   0.1400 
  7 C        2.5200    -3.3400    -1.3410 C.ar  1 <1>   0.1600 
  8 C        2.4030    -3.4570     1.0230 C.ar  1 <1>  -0.1500 
  9 C        7.1010    -0.8310     0.0800 C.3   1 <1>   0.3430 
 10 C        4.5010     0.7390     1.0690 C.3   1 <1>  -0.1600 
 11 N        1.2810    -3.7560    -1.5250 N.ar  1 <1>  -0.6200 
 12 C        1.1150    -3.9030     0.8490 C.ar  1 <1>  -0.1500 
 13 N        6.6800     0.5990    -0.1430 N.4   1 <1>  -0.9590 
 14 C        5.2030     0.8100    -0.2920 C.3   1 <1>   0.3430 
 15 C        0.5810    -4.0430    -0.4310 C.ar  1 <1>   0.4100 
 16 C        7.4020     1.1470    -1.3190 C.3   1 <1>   0.5240 
 17 N       -0.7130    -4.4910    -0.6020 N.pl3 1 <1>  -0.8380 
 18 C        7.2170     2.6440    -1.3040 C.2   1 <1>  -0.1810 
 19 C       -1.1780    -5.7280     0.0780 C.3   1 <1>   0.1290 
 20 C       -1.4690    -4.1370    -1.8350 C.3   1 <1>   0.1290 
 21 C        7.7220     3.5860    -0.4730 C.2   1 <1>  -0.3320 
 22 C        6.4200     3.3460    -2.1990 C.2   1 <1>   0.1390 
 23 N        7.2150     4.7730    -0.8850 N.pl3 1 <1>   0.3140 
 24 C        8.6820     3.4500     0.7010 C.3   1 <1>  -0.0600 
 25 N        6.4040     4.6120    -1.9420 N.2   1 <1>  -0.7070 
 26 C        7.4690     6.1080    -0.3240 C.3   1 <1>   0.0160 
 27 H        6.7790    -2.5500     1.3140 H     1 <1>   0.0800 
 28 H        6.4870    -1.0550     2.1490 H     1 <1>   0.0800 
 29 H        3.9070    -0.7660     2.4970 H     1 <1>   0.0800 
 30 H        3.0110    -0.7890     1.0060 H     1 <1>   0.0800 
 31 H        3.0900    -3.1300    -2.2300 H     1 <1>   0.1500 
 32 H        2.8270    -3.3540     2.0060 H     1 <1>   0.1500 
 33 H        6.9550    -1.3920    -0.8290 H     1 <1>   0.0800 
 34 H        8.1540    -0.8570     0.3030 H     1 <1>   0.0800 
 35 H        5.1400     1.1170     1.8460 H     1 <1>   0.0800 
 36 H        3.6430     1.3870     1.0380 H     1 <1>   0.0800 
 37 H        0.4980    -4.1450     1.6930 H     1 <1>   0.1500 
 38 H        6.9810     1.1830     0.6450 H     1 <1>   0.4500 
 39 H        5.0210     1.7910    -0.7010 H     1 <1>   0.0800 
 40 H        4.7830     0.0830    -0.9700 H     1 <1>   0.0800 
 41 H        7.0150     0.7270    -2.2330 H     1 <1>   0.0800 
 42 H        8.4540     0.9220    -1.2510 H     1 <1>   0.0800 
 43 H       -0.4050    -6.1290     0.7110 H     1 <1>   0.0800 
 44 H       -1.4360    -6.4740    -0.6540 H     1 <1>   0.0800 
 45 H       -2.0440    -5.5070     0.6770 H     1 <1>   0.0800 
 46 H       -1.1940    -3.1500    -2.1660 H     1 <1>   0.0800 
 47 H       -2.5260    -4.1510    -1.6370 H     1 <1>   0.0800 
 48 H       -1.2400    -4.8400    -2.6170 H     1 <1>   0.0800 
 49 H        5.8640     2.9160    -3.0170 H     1 <1>   0.1500 
 50 H        9.0050     2.4330     0.8250 H     1 <1>   0.0800 
 51 H        8.2090     3.7770     1.6110 H     1 <1>   0.0800 
 52 H        9.5550     4.0580     0.5330 H     1 <1>   0.0800 
 53 H        7.1820     6.1220     0.7100 H     1 <1>   0.0800 
 54 H        6.8910     6.8340    -0.8660 H     1 <1>   0.0800 
 55 H        8.5130     6.3400    -0.4220 H     1 <1>   0.0800 
@<TRIPOS>BOND
  1   1   2  2   
  2   2   3  am  
  3   2   4  1   
  4   3   5  1   
  5   3   6  1   
  6   4   7  ar  
  7   4   8  ar  
  8   5   9  1   
  9   5  27  1   
 10   5  28  1   
 11   6  10  1   
 12   6  29  1   
 13   6  30  1   
 14   7  11  ar  
 15   7  31  1   
 16   8  12  ar  
 17   8  32  1   
 18   9  13  1   
 19   9  33  1   
 20   9  34  1   
 21  10  14  1   
 22  10  35  1   
 23  10  36  1   
 24  11  15  ar  
 25  12  15  ar  
 26  12  37  1   
 27  13  14  1   
 28  13  16  1   
 29  13  38  1   
 30  14  39  1   
 31  14  40  1   
 32  15  17  1   
 33  16  18  1   
 34  16  41  1   
 35  16  42  1   
 36  17  19  1   
 37  17  20  1   
 38  18  21  2   
 39  18  22  1   
 40  19  43  1   
 41  19  44  1   
 42  19  45  1   
 43  20  46  1   
 44  20  47  1   
 45  20  48  1   
 46  21  23  1   
 47  21  24  1   
 48  22  25  2   
 49  22  49  1   
 50  23  25  1   
 51  23  26  1   
 52  24  50  1   
 53  24  51  1   
 54  24  52  1   
 55  26  53  1   
 56  26  54  1   
 57  26  55  1   
@<TRIPOS>SUBSTRUCTURE
  1 ****  14 GROUP 4 **** **** 0

# MOE 2024.06 (io_trps.svl 2023.06)
