@<TRIPOS>MOLECULE
NONAME
49 51 1 0 0 
SMALL
USER_CHARGES


@<TRIPOS>ATOM
  1 O       -0.9520    -0.6370     0.6560 O.3   1 <1>  -0.6800 
  2 C       -2.0470    -1.4430     0.3860 C.3   1 <1>   0.2000 
  3 C       -1.5710    -2.8090    -0.1420 C.3   1 <1>   0.2090 
  4 C       -2.9110    -0.7200    -0.6510 C.3   1 <1>  -0.1600 
  5 N       -2.7430    -3.6490    -0.5630 N.pl3 1 <1>  -0.8380 
  6 C       -4.0630    -1.6250    -1.1200 C.3   1 <1>  -0.1600 
  7 C       -2.9670    -4.9290    -0.1620 C.ar  1 <1>   0.4100 
  8 C       -3.5630    -2.9840    -1.6260 C.3   1 <1>   0.2090 
  9 N       -3.5800    -5.7400    -1.0060 N.ar  1 <1>  -0.6200 
 10 C       -2.5610    -5.3780     1.1110 C.ar  1 <1>  -0.1500 
 11 C       -3.7690    -6.9890    -0.6400 C.ar  1 <1>   0.7710 
 12 C       -2.7780    -6.6690     1.4600 C.ar  1 <1>   0.2110 
 13 N       -3.3870    -7.4700     0.5540 N.ar  1 <1>  -0.1790 
 14 N       -4.3810    -7.7780    -1.5300 N.pl3 1 <1>  -0.8690 
 15 C       -4.6980    -9.2260    -1.5450 C.3   1 <1>   0.2090 
 16 C       -5.9460    -9.4830    -0.7020 C.3   1 <1>  -0.1600 
 17 C       -6.3670   -10.9500    -0.7710 C.3   1 <1>   0.2090 
 18 N       -7.3690   -11.1830     0.2860 N.pl3 1 <1>  -0.8690 
 19 C       -7.5170   -12.4720     0.8070 C.ar  1 <1>   0.1000 
 20 C       -8.7480   -13.1360     0.7910 C.ar  1 <1>   0.1600 
 21 C       -6.4440   -13.1400     1.3740 C.ar  1 <1>  -0.1500 
 22 N       -8.9790   -14.3550     1.2530 N.ar  1 <1>  -0.6200 
 23 C       -6.6620   -14.4090     1.8630 C.ar  1 <1>  -0.1500 
 24 C       -7.9280   -14.9640     1.7780 C.ar  1 <1>   0.1600 
 25 H       -0.4980    -0.9190     1.4730 H     1 <1>   0.4000 
 26 H       -2.5990    -1.5730     1.3010 H     1 <1>   0.0800 
 27 H       -0.9840    -3.3070     0.6050 H     1 <1>   0.0800 
 28 H       -0.9450    -2.6460    -1.0030 H     1 <1>   0.0800 
 29 H       -2.3040    -0.4570    -1.5000 H     1 <1>   0.0800 
 30 H       -3.3110     0.1820    -0.2220 H     1 <1>   0.0800 
 31 H       -4.6050    -1.1340    -1.9080 H     1 <1>   0.0800 
 32 H       -4.7490    -1.7910    -0.3080 H     1 <1>   0.0800 
 33 H       -4.4120    -3.5890    -1.8950 H     1 <1>   0.0800 
 34 H       -2.9580    -2.8490    -2.5070 H     1 <1>   0.0800 
 35 H       -2.1010    -4.6880     1.7910 H     1 <1>   0.1500 
 36 H       -2.4950    -7.0730     2.4200 H     1 <1>   0.1500 
 37 H       -3.6060    -8.4440     0.7340 H     1 <1>   0.4570 
 38 H       -4.6470    -7.2830    -2.3910 H     1 <1>   0.4000 
 39 H       -3.8630    -9.7950    -1.1710 H     1 <1>   0.0800 
 40 H       -4.8770    -9.5320    -2.5640 H     1 <1>   0.0800 
 41 H       -6.7560    -8.8750    -1.0640 H     1 <1>   0.0800 
 42 H       -5.7490    -9.2310     0.3230 H     1 <1>   0.0800 
 43 H       -5.5180   -11.5940    -0.6150 H     1 <1>   0.0800 
 44 H       -6.7960   -11.1780    -1.7340 H     1 <1>   0.0800 
 45 H       -8.2640   -10.7260     0.0650 H     1 <1>   0.4000 
 46 H       -9.5880   -12.6200     0.3640 H     1 <1>   0.1500 
 47 H       -5.4780   -12.6790     1.4370 H     1 <1>   0.1500 
 48 H       -5.8610   -14.9690     2.3100 H     1 <1>   0.1500 
 49 H       -8.0850   -15.9570     2.1640 H     1 <1>   0.1500 
@<TRIPOS>BOND
  1   1   2  1   
  2   1  25  1   
  3   2   3  1   
  4   2   4  1   
  5   2  26  1   
  6   3   5  1   
  7   3  27  1   
  8   3  28  1   
  9   4   6  1   
 10   4  29  1   
 11   4  30  1   
 12   5   7  1   
 13   5   8  1   
 14   6   8  1   
 15   6  31  1   
 16   6  32  1   
 17   7   9  ar  
 18   7  10  ar  
 19   8  33  1   
 20   8  34  1   
 21   9  11  ar  
 22  10  12  ar  
 23  10  35  1   
 24  11  13  ar  
 25  11  14  1   
 26  12  13  ar  
 27  12  36  1   
 28  13  37  1   
 29  14  15  1   
 30  14  38  1   
 31  15  16  1   
 32  15  39  1   
 33  15  40  1   
 34  16  17  1   
 35  16  41  1   
 36  16  42  1   
 37  17  18  1   
 38  17  43  1   
 39  17  44  1   
 40  18  19  1   
 41  18  45  1   
 42  19  20  ar  
 43  19  21  ar  
 44  20  22  ar  
 45  20  46  1   
 46  21  23  ar  
 47  21  47  1   
 48  22  24  ar  
 49  23  24  ar  
 50  23  48  1   
 51  24  49  1   
@<TRIPOS>SUBSTRUCTURE
  1 ****  11 GROUP 4 **** **** 0

# MOE 2024.06 (io_trps.svl 2023.06)
