@<TRIPOS>MOLECULE
NONAME
38 40 1 0 0 
SMALL
USER_CHARGES


@<TRIPOS>ATOM
  1 O       -0.4280     0.2200     0.1570 O.2   1 <1>  -0.5700 
  2 C       -1.4810     0.8360     0.2010 C.2   1 <1>   0.5440 
  3 N       -2.6400     0.0820     0.1390 N.am  1 <1>  -0.6600 
  4 C       -1.4410     2.3010     0.2920 C.ar  1 <1>   0.3960 
  5 C       -4.0300     0.5940     0.0180 C.3   1 <1>   0.1400 
  6 C       -2.6280    -1.4020     0.0930 C.3   1 <1>   0.1400 
  7 N       -2.4910     3.0120     0.7470 N.ar  1 <1>  -0.6200 
  8 C       -0.2640     2.9510    -0.1060 C.ar  1 <1>   0.1600 
  9 C       -4.8690    -0.6310    -0.3430 C.3   1 <1>   0.2000 
 10 C       -4.0930    -1.8240     0.2060 C.3   1 <1>  -0.0800 
 11 C       -2.2810     4.3150     0.7670 C.ar  1 <1>   0.1600 
 12 N       -0.0540     4.2580    -0.0940 N.ar  1 <1>  -0.6200 
 13 O       -6.1310    -0.5750     0.2260 O.3   1 <1>  -0.6800 
 14 C       -4.4110    -3.1410    -0.5190 C.3   1 <1>   0.0210 
 15 C       -1.1020     4.9210     0.3590 C.ar  1 <1>   0.1600 
 16 C       -3.5120    -4.2610    -0.0320 C.2   1 <1>   0.1080 
 17 N       -3.4840    -4.6550     1.2030 N.2   1 <1>  -0.7070 
 18 C       -2.6230    -4.9720    -0.8310 C.2   1 <1>  -0.1500 
 19 N       -2.5670    -5.6400     1.2250 N.pl3 1 <1>   0.3000 
 20 C       -2.0290    -5.8490     0.0050 C.2   1 <1>  -0.3320 
 21 C       -0.9650    -6.8900    -0.2910 C.3   1 <1>  -0.0600 
 22 H       -4.3370     1.0020     0.9650 H     1 <1>   0.0800 
 23 H       -4.0940     1.3440    -0.7500 H     1 <1>   0.0800 
 24 H       -2.2030    -1.7180    -0.8440 H     1 <1>   0.0800 
 25 H       -2.0420    -1.8070     0.9020 H     1 <1>   0.0800 
 26 H        0.5510     2.3420    -0.4590 H     1 <1>   0.1500 
 27 H       -4.9800    -0.6900    -1.4120 H     1 <1>   0.0800 
 28 H       -4.3040    -1.9420     1.2550 H     1 <1>   0.0800 
 29 H       -3.0820     4.9390     1.1230 H     1 <1>   0.1500 
 30 H       -6.0640    -0.6420     1.1990 H     1 <1>   0.4000 
 31 H       -4.2830    -3.0190    -1.5790 H     1 <1>   0.0800 
 32 H       -5.4340    -3.4140    -0.3340 H     1 <1>   0.0800 
 33 H       -1.0230     5.9930     0.4090 H     1 <1>   0.1500 
 34 H       -2.4620    -4.8310    -1.8850 H     1 <1>   0.1500 
 35 H       -2.3300    -6.1470     2.0870 H     1 <1>   0.2700 
 36 H       -0.7000    -6.8610    -1.3330 H     1 <1>   0.0800 
 37 H       -1.3320    -7.8740    -0.0580 H     1 <1>   0.0800 
 38 H       -0.0830    -6.6960     0.2920 H     1 <1>   0.0800 
@<TRIPOS>BOND
  1   1   2  2   
  2   2   3  am  
  3   2   4  1   
  4   3   5  1   
  5   3   6  1   
  6   4   7  ar  
  7   4   8  ar  
  8   5   9  1   
  9   5  22  1   
 10   5  23  1   
 11   6  10  1   
 12   6  24  1   
 13   6  25  1   
 14   7  11  ar  
 15   8  12  ar  
 16   8  26  1   
 17   9  10  1   
 18   9  13  1   
 19   9  27  1   
 20  10  14  1   
 21  10  28  1   
 22  11  15  ar  
 23  11  29  1   
 24  12  15  ar  
 25  13  30  1   
 26  14  16  1   
 27  14  31  1   
 28  14  32  1   
 29  15  33  1   
 30  16  17  2   
 31  16  18  1   
 32  17  19  1   
 33  18  20  2   
 34  18  34  1   
 35  19  20  1   
 36  19  35  1   
 37  20  21  1   
 38  21  36  1   
 39  21  37  1   
 40  21  38  1   
@<TRIPOS>SUBSTRUCTURE
  1 ****   6 GROUP 4 **** **** 0

# MOE 2024.06 (io_trps.svl 2023.06)
