@<TRIPOS>MOLECULE
NONAME
51 54 1 0 0 
SMALL
USER_CHARGES


@<TRIPOS>ATOM
  1 S        0.6860    -0.0320    -1.3600 S.3   1 <1>  -0.0800 
  2 C        1.1390     0.5390     0.2510 C.ar  1 <1>   0.0400 
  3 C       -0.0250    -1.5060    -0.6960 C.2   1 <1>  -0.1400 
  4 C        0.7480    -0.3840     1.2100 C.ar  1 <1>   0.0000 
  5 C        1.7840     1.7230     0.5570 C.ar  1 <1>  -0.1500 
  6 C        0.0930    -1.5320     0.6450 C.2   1 <1>  -0.1500 
  7 C       -0.6460    -2.4640    -1.6850 C.3   1 <1>   0.5230 
  8 C        1.0210    -0.0960     2.5440 C.ar  1 <1>  -0.1500 
  9 C        2.0470     1.9900     1.8890 C.ar  1 <1>  -0.1500 
 10 N       -2.1160    -2.4340    -1.4930 N.4   1 <1>  -0.9590 
 11 C        1.6660     1.0830     2.8750 C.ar  1 <1>  -0.1500 
 12 C       -2.8400    -3.5570    -2.1710 C.3   1 <1>   0.3430 
 13 C       -2.7320    -1.1000    -1.7290 C.3   1 <1>   0.3430 
 14 C       -4.3160    -3.6470    -1.7180 C.3   1 <1>   0.1400 
 15 C       -3.5950    -0.7340    -0.5190 C.3   1 <1>  -0.1600 
 16 N       -4.4970    -3.0890    -0.3450 N.am  1 <1>  -0.6600 
 17 C       -4.8160    -1.6360    -0.2660 C.3   1 <1>   0.1400 
 18 C       -3.9150    -3.7500     0.7090 C.2   1 <1>   0.7160 
 19 O       -2.8920    -3.2590     1.1550 O.2   1 <1>  -0.5700 
 20 C       -4.3780    -5.0430     1.1430 C.2   1 <1>  -0.0860 
 21 C       -5.5540    -5.7280     1.0020 C.2   1 <1>  -0.3320 
 22 C       -3.5790    -5.9330     1.8640 C.2   1 <1>   0.1390 
 23 N       -5.3930    -6.9280     1.5950 N.pl3 1 <1>   0.3140 
 24 C       -6.8610    -5.2990     0.3460 C.3   1 <1>  -0.0600 
 25 N       -4.1680    -7.0540     2.1210 N.2   1 <1>  -0.7070 
 26 C       -6.3760    -8.0140     1.7220 C.3   1 <1>   0.0160 
 27 H        2.0700     2.4090    -0.2200 H     1 <1>   0.1500 
 28 H       -0.2580    -2.3130     1.2990 H     1 <1>   0.1500 
 29 H       -0.2710    -3.4560    -1.4940 H     1 <1>   0.0800 
 30 H       -0.3860    -2.1820    -2.6920 H     1 <1>   0.0800 
 31 H        0.7300    -0.7920     3.3110 H     1 <1>   0.1500 
 32 H        2.5480     2.9020     2.1660 H     1 <1>   0.1500 
 33 H       -2.2580    -2.5960    -0.4720 H     1 <1>   0.4500 
 34 H        1.8780     1.3060     3.9060 H     1 <1>   0.1500 
 35 H       -2.3580    -4.4880    -1.9170 H     1 <1>   0.0800 
 36 H       -2.7940    -3.4470    -3.2420 H     1 <1>   0.0800 
 37 H       -3.3280    -1.1110    -2.6270 H     1 <1>   0.0800 
 38 H       -1.9640    -0.3520    -1.8440 H     1 <1>   0.0800 
 39 H       -4.6330    -4.6760    -1.7370 H     1 <1>   0.0800 
 40 H       -4.9390    -3.1080    -2.4110 H     1 <1>   0.0800 
 41 H       -3.9520     0.2710    -0.6550 H     1 <1>   0.0800 
 42 H       -2.9770    -0.7120     0.3630 H     1 <1>   0.0800 
 43 H       -5.5900    -1.4090    -0.9810 H     1 <1>   0.0800 
 44 H       -5.2140    -1.4190     0.7120 H     1 <1>   0.0800 
 45 H       -2.5700    -5.7160     2.1760 H     1 <1>   0.1500 
 46 H       -6.8340    -4.2630     0.0640 H     1 <1>   0.0800 
 47 H       -7.6780    -5.4290     1.0330 H     1 <1>   0.0800 
 48 H       -7.0490    -5.8910    -0.5320 H     1 <1>   0.0800 
 49 H       -6.7780    -8.2460     0.7540 H     1 <1>   0.0800 
 50 H       -7.1610    -7.7010     2.3840 H     1 <1>   0.0800 
 51 H       -5.8900    -8.8820     2.1270 H     1 <1>   0.0800 
@<TRIPOS>BOND
  1   1   2  1   
  2   1   3  1   
  3   2   4  ar  
  4   2   5  ar  
  5   3   6  2   
  6   3   7  1   
  7   4   6  1   
  8   4   8  ar  
  9   5   9  ar  
 10   5  27  1   
 11   6  28  1   
 12   7  10  1   
 13   7  29  1   
 14   7  30  1   
 15   8  11  ar  
 16   8  31  1   
 17   9  11  ar  
 18   9  32  1   
 19  10  12  1   
 20  10  13  1   
 21  10  33  1   
 22  11  34  1   
 23  12  14  1   
 24  12  35  1   
 25  12  36  1   
 26  13  15  1   
 27  13  37  1   
 28  13  38  1   
 29  14  16  1   
 30  14  39  1   
 31  14  40  1   
 32  15  17  1   
 33  15  41  1   
 34  15  42  1   
 35  16  17  1   
 36  16  18  am  
 37  17  43  1   
 38  17  44  1   
 39  18  19  2   
 40  18  20  1   
 41  20  21  2   
 42  20  22  1   
 43  21  23  1   
 44  21  24  1   
 45  22  25  2   
 46  22  45  1   
 47  23  25  1   
 48  23  26  1   
 49  24  46  1   
 50  24  47  1   
 51  24  48  1   
 52  26  49  1   
 53  26  50  1   
 54  26  51  1   
@<TRIPOS>SUBSTRUCTURE
  1 ****  19 GROUP 4 **** **** 0

# MOE 2024.06 (io_trps.svl 2023.06)
