@<TRIPOS>MOLECULE
NONAME
49 51 1 0 0 
SMALL
USER_CHARGES


@<TRIPOS>ATOM
  1 O       -1.3430     0.2190    -1.9150 O.2   1 <1>  -0.5700 
  2 C       -1.9360     0.9790    -1.1640 C.2   1 <1>   0.5650 
  3 N       -3.0030     0.5740    -0.3170 N.pl3 1 <1>   0.5610 
  4 C       -1.5460     2.3500    -1.0950 C.2   1 <1>  -0.1360 
  5 N       -3.5940    -0.6520    -0.1430 N.2   1 <1>  -0.7070 
  6 C       -3.6030     1.4920     0.5140 C.2   1 <1>  -0.0680 
  7 C       -2.1430     3.2500    -0.2670 C.2   1 <1>  -0.0380 
  8 C       -4.5130    -0.4700     0.7480 C.2   1 <1>   0.1080 
  9 N       -3.1860     2.8360     0.5430 N.pl3 1 <1>  -0.5840 
 10 C       -4.5720     0.8450     1.1980 C.2   1 <1>  -0.1500 
 11 C       -1.6890     4.7050    -0.1900 C.3   1 <1>   0.4810 
 12 C       -5.4060    -1.5940     1.2210 C.3   1 <1>  -0.0590 
 13 N       -1.0450     4.9380     1.1400 N.4   1 <1>  -0.9590 
 14 C       -0.9280     6.3900     1.4880 C.3   1 <1>   0.3430 
 15 C        0.2640     4.2140     1.2520 C.3   1 <1>   0.2630 
 16 C       -0.0490     7.1630     0.4990 C.3   1 <1>  -0.1600 
 17 C        0.0710     8.6370     0.8980 C.3   1 <1>   0.0210 
 18 C        0.9480     9.3520    -0.1110 C.2   1 <1>  -0.1810 
 19 C        0.5290     9.9740    -1.2870 C.2   1 <1>   0.1080 
 20 C        2.2880     9.5250    -0.0890 C.2   1 <1>  -0.3320 
 21 N        1.5160    10.4820    -1.9500 N.2   1 <1>  -0.7070 
 22 C       -0.8940    10.0870    -1.7860 C.3   1 <1>  -0.0590 
 23 N        2.6030    10.2130    -1.2080 N.pl3 1 <1>   0.3000 
 24 C        3.3350     9.0920     0.9240 C.3   1 <1>  -0.0600 
 25 H       -0.7370     2.6190    -1.7510 H     1 <1>   0.1500 
 26 H       -3.7750     3.4800     1.0930 H     1 <1>   0.4000 
 27 H       -5.2550     1.2280     1.9330 H     1 <1>   0.1500 
 28 H       -2.5440     5.3490    -0.3100 H     1 <1>   0.0800 
 29 H       -0.9890     4.9180    -0.9820 H     1 <1>   0.0800 
 30 H       -4.8040    -2.3730     1.6520 H     1 <1>   0.0800 
 31 H       -5.9480    -1.9970     0.3850 H     1 <1>   0.0800 
 32 H       -6.1050    -1.2410     1.9570 H     1 <1>   0.0800 
 33 H       -1.6750     4.4970     1.8250 H     1 <1>   0.4500 
 34 H       -0.5080     6.4870     2.4780 H     1 <1>   0.0800 
 35 H       -1.9090     6.8370     1.5060 H     1 <1>   0.0800 
 36 H        0.9580     4.5670     0.5060 H     1 <1>   0.0800 
 37 H        0.1190     3.1540     1.1110 H     1 <1>   0.0800 
 38 H        0.6960     4.3700     2.2270 H     1 <1>   0.0800 
 39 H       -0.4640     7.1200    -0.4910 H     1 <1>   0.0800 
 40 H        0.9440     6.7490     0.4740 H     1 <1>   0.0800 
 41 H        0.5120     8.7290     1.8750 H     1 <1>   0.0800 
 42 H       -0.8960     9.1080     0.9280 H     1 <1>   0.0800 
 43 H       -1.3030     9.1110    -1.9610 H     1 <1>   0.0800 
 44 H       -0.9110    10.6390    -2.7090 H     1 <1>   0.0800 
 45 H       -1.4940    10.6090    -1.0640 H     1 <1>   0.0800 
 46 H        3.5420    10.5160    -1.4920 H     1 <1>   0.2700 
 47 H        2.8850     8.5410     1.7300 H     1 <1>   0.0800 
 48 H        3.8260     9.9550     1.3360 H     1 <1>   0.0800 
 49 H        4.0710     8.4660     0.4520 H     1 <1>   0.0800 
@<TRIPOS>BOND
  1   1   2  2   
  2   2   3  1   
  3   2   4  1   
  4   3   5  1   
  5   3   6  1   
  6   4   7  2   
  7   4  25  1   
  8   5   8  2   
  9   6   9  1   
 10   6  10  2   
 11   7   9  1   
 12   7  11  1   
 13   8  10  1   
 14   8  12  1   
 15   9  26  1   
 16  10  27  1   
 17  11  13  1   
 18  11  28  1   
 19  11  29  1   
 20  12  30  1   
 21  12  31  1   
 22  12  32  1   
 23  13  14  1   
 24  13  15  1   
 25  13  33  1   
 26  14  16  1   
 27  14  34  1   
 28  14  35  1   
 29  15  36  1   
 30  15  37  1   
 31  15  38  1   
 32  16  17  1   
 33  16  39  1   
 34  16  40  1   
 35  17  18  1   
 36  17  41  1   
 37  17  42  1   
 38  18  19  1   
 39  18  20  2   
 40  19  21  2   
 41  19  22  1   
 42  20  23  1   
 43  20  24  1   
 44  21  23  1   
 45  22  43  1   
 46  22  44  1   
 47  22  45  1   
 48  23  46  1   
 49  24  47  1   
 50  24  48  1   
 51  24  49  1   
@<TRIPOS>SUBSTRUCTURE
  1 ****  11 GROUP 4 **** **** 0

# MOE 2024.06 (io_trps.svl 2023.06)
