@<TRIPOS>MOLECULE
NONAME
42 45 1 0 0 
SMALL
USER_CHARGES


@<TRIPOS>ATOM
  1 S       -0.3900    -0.2110     2.0090 S.3   1 <1>  -0.0800 
  2 C       -1.0480     1.2490     1.2870 C.2   1 <1>  -0.1400 
  3 C       -1.9930    -0.7100     2.5340 C.2   1 <1>  -0.1100 
  4 C       -2.3730     1.3150     1.4720 C.2   1 <1>  -0.1810 
  5 C       -0.1870     2.2780     0.5690 C.3   1 <1>   0.4600 
  6 C       -2.9220     0.1970     2.1750 C.2   1 <1>  -0.1500 
  7 C       -3.1450     2.5090     0.9550 C.3   1 <1>   0.0210 
  8 O       -1.0400     3.2260    -0.0490 O.3   1 <1>  -0.5600 
  9 C        0.7590     3.0080     1.5260 C.3   1 <1>  -0.1600 
 10 C        0.6270     1.6440    -0.5700 C.3   1 <1>  -0.1600 
 11 C       -2.1640     3.6670     0.6810 C.3   1 <1>   0.1200 
 12 C        1.5290     4.1260     0.8210 C.3   1 <1>   0.3430 
 13 C        1.8110     2.5040    -1.0230 C.3   1 <1>   0.3430 
 14 N        1.5860     3.9200    -0.6650 N.4   1 <1>  -0.9590 
 15 C        2.5550     4.8430    -1.3160 C.3   1 <1>   0.5240 
 16 C        1.9670     6.2420    -1.3480 C.2   1 <1>  -0.1810 
 17 C        2.0920     7.1640    -0.2970 C.2   1 <1>   0.0560 
 18 C        1.2590     6.8650    -2.3130 C.2   1 <1>  -0.3020 
 19 N        1.4780     8.2920    -0.6230 N.2   1 <1>  -0.7070 
 20 C        2.7940     6.7920     0.9400 C.2   1 <1>   1.0330 
 21 N        0.9830     8.0990    -1.8500 N.pl3 1 <1>   0.3000 
 22 O        2.2180     6.7800     2.0430 O.co2 1 <1>  -0.9000 
 23 O        3.8750     6.1700     0.8620 O.co2 1 <1>  -0.9000 
 24 H       -2.0720    -1.6440     3.0630 H     1 <1>   0.1500 
 25 H       -3.9760     0.1260     2.3770 H     1 <1>   0.1500 
 26 H       -3.8710     2.8230     1.6820 H     1 <1>   0.0800 
 27 H       -3.6620     2.2440     0.0500 H     1 <1>   0.0800 
 28 H        1.4650     2.3050     1.9290 H     1 <1>   0.0800 
 29 H        0.2220     3.4140     2.3630 H     1 <1>   0.0800 
 30 H       -0.0270     1.4420    -1.3990 H     1 <1>   0.0800 
 31 H        1.0250     0.6990    -0.2520 H     1 <1>   0.0800 
 32 H       -1.8240     4.0970     1.6070 H     1 <1>   0.0800 
 33 H       -2.6500     4.4360     0.1060 H     1 <1>   0.0800 
 34 H        2.5240     4.2030     1.2360 H     1 <1>   0.0800 
 35 H        1.0250     5.0590     1.0220 H     1 <1>   0.0800 
 36 H        1.9410     2.4010    -2.0880 H     1 <1>   0.0800 
 37 H        2.7100     2.1600    -0.5370 H     1 <1>   0.0800 
 38 H        0.6450     4.1850    -0.9950 H     1 <1>   0.4500 
 39 H        2.7290     4.5280    -2.3300 H     1 <1>   0.0800 
 40 H        3.4990     4.8320    -0.7970 H     1 <1>   0.0800 
 41 H        0.9430     6.5250    -3.2830 H     1 <1>   0.1500 
 42 H        0.4600     8.8330    -2.3430 H     1 <1>   0.2700 
@<TRIPOS>BOND
  1   1   2  1   
  2   1   3  1   
  3   2   4  2   
  4   2   5  1   
  5   3   6  2   
  6   3  24  1   
  7   4   6  1   
  8   4   7  1   
  9   5   8  1   
 10   5   9  1   
 11   5  10  1   
 12   6  25  1   
 13   7  11  1   
 14   7  26  1   
 15   7  27  1   
 16   8  11  1   
 17   9  12  1   
 18   9  28  1   
 19   9  29  1   
 20  10  13  1   
 21  10  30  1   
 22  10  31  1   
 23  11  32  1   
 24  11  33  1   
 25  12  14  1   
 26  12  34  1   
 27  12  35  1   
 28  13  14  1   
 29  13  36  1   
 30  13  37  1   
 31  14  15  1   
 32  14  38  1   
 33  15  16  1   
 34  15  39  1   
 35  15  40  1   
 36  16  17  1   
 37  16  18  2   
 38  17  19  2   
 39  17  20  1   
 40  18  21  1   
 41  18  41  1   
 42  19  21  1   
 43  20  22  ar  
 44  20  23  ar  
 45  21  42  1   
@<TRIPOS>SUBSTRUCTURE
  1 ****  12 GROUP 4 **** **** 0

# MOE 2024.06 (io_trps.svl 2023.06)
