@<TRIPOS>MOLECULE
NONAME
45 47 1 0 0 
SMALL
USER_CHARGES


@<TRIPOS>ATOM
  1 O       -3.4370     1.4190    -2.7660 O.co2 1 <1>  -0.9000 
  2 C       -2.4850     1.6710    -2.0050 C.2   1 <1>   0.9790 
  3 O       -1.3250     1.5590    -2.4380 O.co2 1 <1>  -0.9000 
  4 C       -2.7310     2.1110    -0.6370 C.ar  1 <1>  -0.1790 
  5 C       -4.0220     2.1540    -0.1120 C.ar  1 <1>  -0.1500 
  6 C       -1.6920     2.5140     0.2020 C.ar  1 <1>  -0.1500 
  7 C       -4.3060     2.6090     1.1740 C.ar  1 <1>   0.0860 
  8 C       -1.9340     2.9450     1.4920 C.ar  1 <1>  -0.1500 
  9 C       -5.6660     2.6870     1.6780 C.2   1 <1>   0.5440 
 10 C       -3.2300     2.9920     1.9720 C.ar  1 <1>  -0.1500 
 11 O       -5.9250     2.1910     2.7600 O.2   1 <1>  -0.5700 
 12 N       -6.6760     3.3260     0.9830 N.am  1 <1>  -0.6600 
 13 C       -8.1120     3.1670     1.3510 C.3   1 <1>   0.1400 
 14 C       -6.4630     4.2180    -0.1910 C.3   1 <1>   0.1400 
 15 C       -8.8940     2.5340     0.1850 C.3   1 <1>   0.0000 
 16 C       -7.2170     3.6700    -1.4080 C.3   1 <1>  -0.1600 
 17 C      -10.3740     2.3530     0.5690 C.3   1 <1>   0.2000 
 18 C       -8.7010     3.3980    -1.0940 C.3   1 <1>  -0.1600 
 19 C       -8.4710     1.0760    -0.0690 C.3   1 <1>  -0.1600 
 20 O      -11.1050     3.5350     0.4210 O.3   1 <1>  -0.5600 
 21 C      -10.9020     1.2460    -0.3470 C.3   1 <1>  -0.1600 
 22 C       -9.6790     0.3970    -0.7240 C.3   1 <1>  -0.1600 
 23 C      -12.3580     3.5320     1.0270 C.3   1 <1>   0.0400 
 24 H       -4.8330     1.8220    -0.7360 H     1 <1>   0.1500 
 25 H       -0.6830     2.4810    -0.1790 H     1 <1>   0.1500 
 26 H       -1.1130     3.2430     2.1180 H     1 <1>   0.1500 
 27 H       -3.4230     3.3260     2.9760 H     1 <1>   0.1500 
 28 H       -8.2120     2.5560     2.2310 H     1 <1>   0.0800 
 29 H       -8.5240     4.1350     1.5750 H     1 <1>   0.0800 
 30 H       -6.8400     5.1960     0.0500 H     1 <1>   0.0800 
 31 H       -5.4170     4.3200    -0.4220 H     1 <1>   0.0800 
 32 H       -7.1480     4.3810    -2.2120 H     1 <1>   0.0800 
 33 H       -6.7340     2.7710    -1.7470 H     1 <1>   0.0800 
 34 H      -10.4330     2.0310     1.5960 H     1 <1>   0.0800 
 35 H       -9.1680     2.9280    -1.9410 H     1 <1>   0.0800 
 36 H       -9.1840     4.3480    -0.9500 H     1 <1>   0.0800 
 37 H       -7.5860     0.9880    -0.6740 H     1 <1>   0.0800 
 38 H       -8.2710     0.5940     0.8730 H     1 <1>   0.0800 
 39 H      -11.6420     0.6520     0.1580 H     1 <1>   0.0800 
 40 H      -11.3270     1.6770    -1.2370 H     1 <1>   0.0800 
 41 H       -9.7790    -0.6170    -0.3790 H     1 <1>   0.0800 
 42 H       -9.5580     0.3900    -1.7940 H     1 <1>   0.0800 
 43 H      -12.8080     4.4960     0.8660 H     1 <1>   0.0800 
 44 H      -12.2430     3.3580     2.0830 H     1 <1>   0.0800 
 45 H      -12.9720     2.7690     0.5810 H     1 <1>   0.0800 
@<TRIPOS>BOND
  1   1   2  ar  
  2   2   3  ar  
  3   2   4  1   
  4   4   5  ar  
  5   4   6  ar  
  6   5   7  ar  
  7   5  24  1   
  8   6   8  ar  
  9   6  25  1   
 10   7   9  1   
 11   7  10  ar  
 12   8  10  ar  
 13   8  26  1   
 14   9  11  2   
 15   9  12  am  
 16  10  27  1   
 17  12  13  1   
 18  12  14  1   
 19  13  15  1   
 20  13  28  1   
 21  13  29  1   
 22  14  16  1   
 23  14  30  1   
 24  14  31  1   
 25  15  17  1   
 26  15  18  1   
 27  15  19  1   
 28  16  18  1   
 29  16  32  1   
 30  16  33  1   
 31  17  20  1   
 32  17  21  1   
 33  17  34  1   
 34  18  35  1   
 35  18  36  1   
 36  19  22  1   
 37  19  37  1   
 38  19  38  1   
 39  20  23  1   
 40  21  22  1   
 41  21  39  1   
 42  21  40  1   
 43  22  41  1   
 44  22  42  1   
 45  23  43  1   
 46  23  44  1   
 47  23  45  1   
@<TRIPOS>SUBSTRUCTURE
  1 ****  12 GROUP 4 **** **** 0

# MOE 2024.06 (io_trps.svl 2023.06)
