@<TRIPOS>MOLECULE
NONAME
44 46 1 0 0 
SMALL
USER_CHARGES


@<TRIPOS>ATOM
  1 F       -0.1550    -1.2850    -0.8660 F     1 <1>  -0.3400 
  2 C       -0.1390    -1.6030     0.4210 C.3   1 <1>   1.0200 
  3 F        0.9690    -1.0850     0.9280 F     1 <1>  -0.3400 
  4 F       -1.1530    -0.9550     0.9770 F     1 <1>  -0.3400 
  5 C       -0.2300    -3.1120     0.6410 C.3   1 <1>  -0.1600 
  6 C       -1.5150    -3.7500     0.0600 C.3   1 <1>  -0.0990 
  7 C       -1.5950    -5.2570     0.2620 C.2   1 <1>   0.5690 
  8 O       -0.7730    -5.8010     0.9580 O.2   1 <1>  -0.5700 
  9 N       -2.5930    -5.9670    -0.3420 N.am  1 <1>  -0.6600 
 10 C       -3.6970    -5.4320    -1.1800 C.3   1 <1>   0.1400 
 11 C       -2.7270    -7.4380    -0.1920 C.3   1 <1>   0.1400 
 12 C       -4.7530    -6.5360    -1.1570 C.3   1 <1>   0.2000 
 13 C       -3.9280    -7.8270    -1.0660 C.3   1 <1>  -0.0800 
 14 O       -5.5100    -6.3810    -0.0050 O.3   1 <1>  -0.6800 
 15 C       -4.7130    -9.0540    -0.5540 C.3   1 <1>  -0.0170 
 16 C       -3.9860   -10.4050    -0.5880 C.ar  1 <1>  -0.1440 
 17 C       -4.5750   -11.5320     0.0390 C.ar  1 <1>   0.0000 
 18 C       -2.7830   -10.6020    -1.2080 C.ar  1 <1>  -0.1500 
 19 C       -3.8700   -12.7600     0.0000 C.ar  1 <1>   0.3100 
 20 C       -5.8280   -11.5150     0.6970 C.ar  1 <1>  -0.1500 
 21 C       -2.1720   -11.8620    -1.1900 C.ar  1 <1>   0.1600 
 22 N       -2.6720   -12.9080    -0.6160 N.ar  1 <1>  -0.6200 
 23 C       -4.4280   -13.8890     0.6210 C.ar  1 <1>  -0.1500 
 24 C       -6.3460   -12.6340     1.2910 C.ar  1 <1>  -0.1500 
 25 C       -5.6390   -13.8380     1.2560 C.ar  1 <1>  -0.1500 
 26 H        0.6320    -3.5690     0.1890 H     1 <1>   0.0800 
 27 H       -0.1840    -3.2990     1.6990 H     1 <1>   0.0800 
 28 H       -1.5620    -3.5500    -0.9950 H     1 <1>   0.0800 
 29 H       -2.3750    -3.3060     0.5270 H     1 <1>   0.0800 
 30 H       -4.0880    -4.5040    -0.7990 H     1 <1>   0.0800 
 31 H       -3.3380    -5.2910    -2.1840 H     1 <1>   0.0800 
 32 H       -1.8220    -7.9310    -0.5040 H     1 <1>   0.0800 
 33 H       -2.9120    -7.6690     0.8440 H     1 <1>   0.0800 
 34 H       -5.4130    -6.5080    -2.0070 H     1 <1>   0.0800 
 35 H       -3.5680    -8.0340    -2.0580 H     1 <1>   0.0800 
 36 H       -4.9060    -6.2830     0.7590 H     1 <1>   0.4000 
 37 H       -5.6130    -9.1470    -1.1370 H     1 <1>   0.0800 
 38 H       -5.0070    -8.8600     0.4620 H     1 <1>   0.0800 
 39 H       -2.2590    -9.8250    -1.7270 H     1 <1>   0.1500 
 40 H       -6.3970   -10.6060     0.7350 H     1 <1>   0.1500 
 41 H       -1.2230   -11.9660    -1.6880 H     1 <1>   0.1500 
 42 H       -3.8670   -14.8040     0.5790 H     1 <1>   0.1500 
 43 H       -7.3000   -12.6030     1.7890 H     1 <1>   0.1500 
 44 H       -6.0550   -14.7110     1.7280 H     1 <1>   0.1500 
@<TRIPOS>BOND
  1   1   2  1   
  2   2   3  1   
  3   2   4  1   
  4   2   5  1   
  5   5   6  1   
  6   5  26  1   
  7   5  27  1   
  8   6   7  1   
  9   6  28  1   
 10   6  29  1   
 11   7   8  2   
 12   7   9  am  
 13   9  10  1   
 14   9  11  1   
 15  10  12  1   
 16  10  30  1   
 17  10  31  1   
 18  11  13  1   
 19  11  32  1   
 20  11  33  1   
 21  12  13  1   
 22  12  14  1   
 23  12  34  1   
 24  13  15  1   
 25  13  35  1   
 26  14  36  1   
 27  15  16  1   
 28  15  37  1   
 29  15  38  1   
 30  16  17  ar  
 31  16  18  ar  
 32  17  19  ar  
 33  17  20  ar  
 34  18  21  ar  
 35  18  39  1   
 36  19  22  ar  
 37  19  23  ar  
 38  20  24  ar  
 39  20  40  1   
 40  21  22  ar  
 41  21  41  1   
 42  23  25  ar  
 43  23  42  1   
 44  24  25  ar  
 45  24  43  1   
 46  25  44  1   
@<TRIPOS>SUBSTRUCTURE
  1 ****  11 GROUP 4 **** **** 0

# MOE 2024.06 (io_trps.svl 2023.06)
