@<TRIPOS>MOLECULE
NONAME
34 34 1 0 0 
SMALL
USER_CHARGES


@<TRIPOS>ATOM
  1 F       -0.5220    -0.9050     0.1250 F     1 <1>  -0.3400 
  2 C       -1.6800    -0.7160     0.7440 C.3   1 <1>   1.0200 
  3 F       -1.9520    -1.8520     1.3750 F     1 <1>  -0.3400 
  4 F       -1.4590     0.1880     1.6870 F     1 <1>  -0.3400 
  5 C       -2.7840    -0.2930    -0.2250 C.3   1 <1>  -0.0800 
  6 C       -4.1320    -0.1590     0.4830 C.3   1 <1>   0.2200 
  7 C       -3.0120    -1.3420    -1.3290 C.3   1 <1>   0.1100 
  8 N       -4.8840     0.9450    -0.1450 N.am  1 <1>  -0.7300 
  9 C       -4.8330    -1.4700     0.1380 C.3   1 <1>   0.1100 
 10 N       -4.4110    -1.7550    -1.2330 N.3   1 <1>  -0.9000 
 11 C       -5.2930     2.0760     0.4620 C.2   1 <1>   0.7800 
 12 O       -4.9900     2.3380     1.6070 O.2   1 <1>  -0.5700 
 13 O       -6.0490     2.8810    -0.2800 O.3   1 <1>  -0.4300 
 14 C       -6.6030     4.1200     0.1060 C.3   1 <1>   0.2800 
 15 C       -7.3710     4.6140    -1.1210 C.3   1 <1>  -0.2400 
 16 C       -7.5810     3.9250     1.2700 C.3   1 <1>  -0.2400 
 17 C       -5.4880     5.1180     0.4400 C.3   1 <1>  -0.2400 
 18 H       -2.4850     0.6430    -0.6580 H     1 <1>   0.0800 
 19 H       -4.0550    -0.0050     1.5480 H     1 <1>   0.0800 
 20 H       -2.3740    -2.2020    -1.1950 H     1 <1>   0.0800 
 21 H       -2.8250    -0.9220    -2.3030 H     1 <1>   0.0800 
 22 H       -5.2300     0.7430    -1.0840 H     1 <1>   0.3700 
 23 H       -5.9040    -1.3870     0.2130 H     1 <1>   0.0800 
 24 H       -4.4910    -2.2540     0.7930 H     1 <1>   0.0800 
 25 H       -4.5130    -2.7580    -1.4430 H     1 <1>   0.3600 
 26 H       -7.8300     5.5640    -0.9170 H     1 <1>   0.0800 
 27 H       -8.1430     3.9140    -1.3850 H     1 <1>   0.0800 
 28 H       -6.7040     4.7320    -1.9560 H     1 <1>   0.0800 
 29 H       -8.1030     4.8430     1.4690 H     1 <1>   0.0800 
 30 H       -7.0640     3.6440     2.1690 H     1 <1>   0.0800 
 31 H       -8.3050     3.1680     1.0270 H     1 <1>   0.0800 
 32 H       -5.9070     6.0950     0.5990 H     1 <1>   0.0800 
 33 H       -4.7830     5.1770    -0.3690 H     1 <1>   0.0800 
 34 H       -4.9720     4.8370     1.3390 H     1 <1>   0.0800 
@<TRIPOS>BOND
  1   1   2  1   
  2   2   3  1   
  3   2   4  1   
  4   2   5  1   
  5   5   6  1   
  6   5   7  1   
  7   5  18  1   
  8   6   8  1   
  9   6   9  1   
 10   6  19  1   
 11   7  10  1   
 12   7  20  1   
 13   7  21  1   
 14   8  11  am  
 15   8  22  1   
 16   9  10  1   
 17   9  23  1   
 18   9  24  1   
 19  10  25  1   
 20  11  12  2   
 21  11  13  1   
 22  13  14  1   
 23  14  15  1   
 24  14  16  1   
 25  14  17  1   
 26  15  26  1   
 27  15  27  1   
 28  15  28  1   
 29  16  29  1   
 30  16  30  1   
 31  16  31  1   
 32  17  32  1   
 33  17  33  1   
 34  17  34  1   
@<TRIPOS>SUBSTRUCTURE
  1 ****   8 GROUP 4 **** **** 0

# MOE 2024.06 (io_trps.svl 2023.06)
