@<TRIPOS>MOLECULE
NONAME
48 50 1 0 0 
SMALL
USER_CHARGES


@<TRIPOS>ATOM
  1 O        1.9320    -1.7020     1.0920 O.3   1 <1>  -0.3630 
  2 C        0.8040    -1.0450     0.8350 C.ar  1 <1>   0.3920 
  3 C        2.6930    -1.8620    -0.0940 C.3   1 <1>   0.2000 
  4 N       -0.1050    -0.8530     1.7520 N.ar  1 <1>  -0.6200 
  5 C        0.6940    -0.6590    -0.4650 C.ar  1 <1>  -0.1440 
  6 C        1.9230    -1.1060    -1.2030 C.3   1 <1>  -0.0160 
  7 C        2.9130    -3.3720    -0.3610 C.3   1 <1>   0.3430 
  8 C       -1.1650    -0.2010     1.2990 C.ar  1 <1>   0.4760 
  9 C       -0.4510     0.0030    -0.8260 C.ar  1 <1>   0.1660 
 10 N        1.6700    -4.1840    -0.6230 N.4   1 <1>  -0.9590 
 11 N       -1.3910     0.2380     0.0670 N.ar  1 <1>  -0.6200 
 12 C       -2.2550     0.0700     2.3070 C.3   1 <1>  -0.0970 
 13 C       -0.7070     0.4890    -2.2370 C.3   1 <1>  -0.0970 
 14 C        0.7210    -4.3140     0.5360 C.3   1 <1>   0.4860 
 15 C        1.9600    -5.5180    -1.2210 C.3   1 <1>   0.2630 
 16 C       -0.6790    -3.8750     0.0940 C.ar  1 <1>   0.1670 
 17 N       -0.8590    -3.6020    -1.2000 N.ar  1 <1>  -0.6200 
 18 C       -1.6740    -3.7650     1.0530 C.ar  1 <1>  -0.1500 
 19 C       -2.0770    -3.1920    -1.5290 C.ar  1 <1>   0.1600 
 20 C       -2.9330    -3.3470     0.6850 C.ar  1 <1>  -0.1500 
 21 C       -3.1350    -3.0480    -0.6450 C.ar  1 <1>  -0.1430 
 22 C       -4.4920    -2.5580    -1.1240 C.3   1 <1>  -0.0170 
 23 C       -4.6050    -1.0420    -0.9500 C.3   1 <1>  -0.2400 
 24 H        3.6430    -1.3860     0.0780 H     1 <1>   0.0800 
 25 H        1.6730    -1.7330    -2.0400 H     1 <1>   0.0800 
 26 H        2.4890    -0.2570    -1.5470 H     1 <1>   0.0800 
 27 H        3.4460    -3.7910     0.4770 H     1 <1>   0.0800 
 28 H        3.5590    -3.4540    -1.2190 H     1 <1>   0.0800 
 29 H        1.0580    -3.6780    -1.2970 H     1 <1>   0.4500 
 30 H       -1.8230     0.2640     3.2710 H     1 <1>   0.0800 
 31 H       -2.8990    -0.7850     2.3730 H     1 <1>   0.0800 
 32 H       -2.8330     0.9250     2.0070 H     1 <1>   0.0800 
 33 H        0.1360     0.3030    -2.8750 H     1 <1>   0.0800 
 34 H       -0.9020     1.5460    -2.2200 H     1 <1>   0.0800 
 35 H       -1.5670    -0.0130    -2.6380 H     1 <1>   0.0800 
 36 H        1.0330    -3.7020     1.3640 H     1 <1>   0.0800 
 37 H        0.6810    -5.3360     0.8730 H     1 <1>   0.0800 
 38 H        2.5210    -6.1270    -0.5320 H     1 <1>   0.0800 
 39 H        2.5300    -5.4060    -2.1300 H     1 <1>   0.0800 
 40 H        1.0370    -6.0230    -1.4610 H     1 <1>   0.0800 
 41 H       -1.4740    -3.9890     2.0860 H     1 <1>   0.1500 
 42 H       -2.2460    -2.9530    -2.5650 H     1 <1>   0.1500 
 43 H       -3.7240    -3.2490     1.4090 H     1 <1>   0.1500 
 44 H       -5.2720    -3.0430    -0.5630 H     1 <1>   0.0800 
 45 H       -4.6310    -2.8120    -2.1610 H     1 <1>   0.0800 
 46 H       -4.4920    -0.7750     0.0860 H     1 <1>   0.0800 
 47 H       -5.5640    -0.6980    -1.2930 H     1 <1>   0.0800 
 48 H       -3.8360    -0.5420    -1.5130 H     1 <1>   0.0800 
@<TRIPOS>BOND
  1   1   2  1   
  2   1   3  1   
  3   2   4  ar  
  4   2   5  ar  
  5   3   6  1   
  6   3   7  1   
  7   3  24  1   
  8   4   8  ar  
  9   5   6  1   
 10   5   9  ar  
 11   6  25  1   
 12   6  26  1   
 13   7  10  1   
 14   7  27  1   
 15   7  28  1   
 16   8  11  ar  
 17   8  12  1   
 18   9  11  ar  
 19   9  13  1   
 20  10  14  1   
 21  10  15  1   
 22  10  29  1   
 23  12  30  1   
 24  12  31  1   
 25  12  32  1   
 26  13  33  1   
 27  13  34  1   
 28  13  35  1   
 29  14  16  1   
 30  14  36  1   
 31  14  37  1   
 32  15  38  1   
 33  15  39  1   
 34  15  40  1   
 35  16  17  ar  
 36  16  18  ar  
 37  17  19  ar  
 38  18  20  ar  
 39  18  41  1   
 40  19  21  ar  
 41  19  42  1   
 42  20  21  ar  
 43  20  43  1   
 44  21  22  1   
 45  22  23  1   
 46  22  44  1   
 47  22  45  1   
 48  23  46  1   
 49  23  47  1   
 50  23  48  1   
@<TRIPOS>SUBSTRUCTURE
  1 ****  16 GROUP 4 **** **** 0

# MOE 2024.06 (io_trps.svl 2023.06)
