@<TRIPOS>MOLECULE
NONAME
58 61 1 0 0 
SMALL
USER_CHARGES


@<TRIPOS>ATOM
  1 O       -0.1720    -1.4620    -2.4240 O.2   1 <1>  -0.5700 
  2 C        0.0980    -1.8060    -1.2980 C.2   1 <1>   0.5690 
  3 N        1.2460    -1.4100    -0.6920 N.am  1 <1>  -0.7300 
  4 C       -0.9090    -2.7030    -0.5540 C.3   1 <1>   0.4040 
  5 C        2.3140    -0.6430    -1.3610 C.3   1 <1>   0.2840 
  6 N       -2.2780    -2.7680    -1.2020 N.4   1 <1>  -0.9590 
  7 C        3.6020    -0.9500    -0.6250 C.ar  1 <1>  -0.1430 
  8 C       -2.9840    -1.4340    -1.2260 C.3   1 <1>   0.3430 
  9 C       -3.1340    -3.8590    -0.6340 C.3   1 <1>   0.3430 
 10 C        4.3630    -2.0540    -0.9810 C.ar  1 <1>  -0.1500 
 11 C        4.0230    -0.1410     0.4200 C.ar  1 <1>  -0.1500 
 12 C       -3.4140    -0.9230     0.1690 C.3   1 <1>   0.1430 
 13 C       -4.0880    -3.3700     0.4690 C.3   1 <1>  -0.1600 
 14 C        5.5310    -2.3460    -0.2990 C.ar  1 <1>  -0.1500 
 15 C        5.1910    -0.4340     1.1020 C.ar  1 <1>  -0.1500 
 16 C       -4.6850    -0.1380    -0.0740 C.ar  1 <1>   0.1670 
 17 C       -3.6310    -2.0810     1.1750 C.3   1 <1>  -0.1600 
 18 C       -2.4540     0.1570     0.7420 C.3   1 <1>  -0.1600 
 19 C        5.9450    -1.5370     0.7440 C.ar  1 <1>  -0.1500 
 20 N       -5.8230    -0.6690    -0.4350 N.ar  1 <1>  -0.6200 
 21 C       -4.5020     1.2000     0.0870 C.ar  1 <1>  -0.1430 
 22 C       -3.0830     1.5360     0.4640 C.3   1 <1>  -0.0170 
 23 C       -6.8220     0.1990    -0.6180 C.ar  1 <1>   0.7200 
 24 C       -5.5830     2.0190    -0.1250 C.ar  1 <1>   0.1600 
 25 N       -6.7460     1.5260    -0.4790 N.ar  1 <1>  -0.6200 
 26 N       -8.0390    -0.3260    -0.9970 N.pl3 1 <1>  -0.8380 
 27 C       -8.4500    -1.7140    -0.6550 C.3   1 <1>   0.1290 
 28 C       -9.1140     0.5330    -1.5680 C.3   1 <1>   0.1290 
 29 H        1.5450    -1.7470     0.2280 H     1 <1>   0.3700 
 30 H       -1.0020    -2.3460     0.4560 H     1 <1>   0.0800 
 31 H       -0.4900    -3.6940    -0.5170 H     1 <1>   0.0800 
 32 H        2.0940     0.4100    -1.3140 H     1 <1>   0.0800 
 33 H        2.3920    -0.9330    -2.3970 H     1 <1>   0.0800 
 34 H       -2.0840    -2.9830    -2.1940 H     1 <1>   0.4500 
 35 H       -3.8770    -1.5400    -1.8210 H     1 <1>   0.0800 
 36 H       -2.3710    -0.6910    -1.7090 H     1 <1>   0.0800 
 37 H       -2.5030    -4.6390    -0.2390 H     1 <1>   0.0800 
 38 H       -3.7290    -4.2950    -1.4220 H     1 <1>   0.0800 
 39 H        4.0530    -2.6900    -1.7920 H     1 <1>   0.1500 
 40 H        3.4490     0.7220     0.7090 H     1 <1>   0.1500 
 41 H       -4.2170    -4.1560     1.1930 H     1 <1>   0.0800 
 42 H       -5.0560    -3.2050     0.0280 H     1 <1>   0.0800 
 43 H        6.1190    -3.2030    -0.5800 H     1 <1>   0.1500 
 44 H        5.5160     0.1970     1.9120 H     1 <1>   0.1500 
 45 H       -4.3680    -1.7890     1.9060 H     1 <1>   0.0800 
 46 H       -2.7210    -2.2880     1.7090 H     1 <1>   0.0800 
 47 H       -1.4650     0.0980     0.3240 H     1 <1>   0.0800 
 48 H       -2.3770     0.0460     1.8100 H     1 <1>   0.0800 
 49 H        6.8540    -1.7640     1.2740 H     1 <1>   0.1500 
 50 H       -2.5940     2.0270    -0.3610 H     1 <1>   0.0800 
 51 H       -3.0490     2.1700     1.3340 H     1 <1>   0.0800 
 52 H       -5.4950     3.0860    -0.0080 H     1 <1>   0.1500 
 53 H       -7.8010    -2.1330     0.0950 H     1 <1>   0.0800 
 54 H       -8.4100    -2.3290    -1.5360 H     1 <1>   0.0800 
 55 H       -9.4540    -1.7140    -0.2670 H     1 <1>   0.0800 
 56 H       -8.6860     1.3460    -2.1300 H     1 <1>   0.0800 
 57 H       -9.7130     0.9380    -0.7710 H     1 <1>   0.0800 
 58 H       -9.7380    -0.0430    -2.2270 H     1 <1>   0.0800 
@<TRIPOS>BOND
  1   1   2  2   
  2   2   3  am  
  3   2   4  1   
  4   3   5  1   
  5   3  29  1   
  6   4   6  1   
  7   4  30  1   
  8   4  31  1   
  9   5   7  1   
 10   5  32  1   
 11   5  33  1   
 12   6   8  1   
 13   6   9  1   
 14   6  34  1   
 15   7  10  ar  
 16   7  11  ar  
 17   8  12  1   
 18   8  35  1   
 19   8  36  1   
 20   9  13  1   
 21   9  37  1   
 22   9  38  1   
 23  10  14  ar  
 24  10  39  1   
 25  11  15  ar  
 26  11  40  1   
 27  12  16  1   
 28  12  17  1   
 29  12  18  1   
 30  13  17  1   
 31  13  41  1   
 32  13  42  1   
 33  14  19  ar  
 34  14  43  1   
 35  15  19  ar  
 36  15  44  1   
 37  16  20  ar  
 38  16  21  ar  
 39  17  45  1   
 40  17  46  1   
 41  18  22  1   
 42  18  47  1   
 43  18  48  1   
 44  19  49  1   
 45  20  23  ar  
 46  21  22  1   
 47  21  24  ar  
 48  22  50  1   
 49  22  51  1   
 50  23  25  ar  
 51  23  26  1   
 52  24  25  ar  
 53  24  52  1   
 54  26  27  1   
 55  26  28  1   
 56  27  53  1   
 57  27  54  1   
 58  27  55  1   
 59  28  56  1   
 60  28  57  1   
 61  28  58  1   
@<TRIPOS>SUBSTRUCTURE
  1 ****   8 GROUP 4 **** **** 0

# MOE 2024.06 (io_trps.svl 2023.06)
