@<TRIPOS>MOLECULE
NONAME
45 46 1 0 0 
SMALL
USER_CHARGES


@<TRIPOS>ATOM
  1 CL       0.3180     0.0250    -1.0970 Cl    1 <1>  -0.1770 
  2 C       -1.1600     0.9430    -0.9590 C.ar  1 <1>   0.1770 
  3 C       -2.3160     0.4590    -1.5360 C.ar  1 <1>  -0.1500 
  4 C       -1.1530     2.1440    -0.2790 C.ar  1 <1>  -0.1500 
  5 C       -3.4860     1.1910    -1.4200 C.ar  1 <1>  -0.1500 
  6 C       -2.3270     2.8690    -0.1690 C.ar  1 <1>  -0.1500 
  7 C       -3.5140     2.3960    -0.7250 C.ar  1 <1>  -0.1430 
  8 C       -4.8440     3.1730    -0.6300 C.3   1 <1>   0.1250 
  9 C       -4.6490     4.7040    -0.7150 C.2   1 <1>   0.5690 
 10 C       -5.8030     2.6700     0.4940 C.3   1 <1>  -0.0800 
 11 O       -4.7630     5.1840    -1.8210 O.2   1 <1>  -0.5700 
 12 N       -4.3680     5.5340     0.3590 N.am  1 <1>  -0.6600 
 13 C       -6.1400     1.1740     0.3730 C.3   1 <1>  -0.2400 
 14 C       -7.1270     3.4560     0.5040 C.3   1 <1>  -0.2400 
 15 C       -4.2990     7.0130     0.1440 C.3   1 <1>   0.1400 
 16 C       -4.1690     5.1330     1.7820 C.3   1 <1>   0.0600 
 17 C       -2.8970     7.4210    -0.3160 C.3   1 <1>   0.0210 
 18 C       -2.7300     8.9260    -0.3960 C.2   1 <1>   0.3350 
 19 N       -3.6210     9.7990    -0.1340 N.2   1 <1>  -0.4100 
 20 N       -1.5690     9.4520    -0.7590 N.2   1 <1>  -0.5650 
 21 O       -3.0810    10.9650    -0.3210 O.3   1 <1>  -0.0190 
 22 C       -1.8570    10.6880    -0.6930 C.2   1 <1>   0.2980 
 23 C       -0.9150    11.8270    -1.0050 C.3   1 <1>  -0.0600 
 24 H       -2.2980    -0.4740    -2.0690 H     1 <1>   0.1500 
 25 H       -0.2370     2.5060     0.1520 H     1 <1>   0.1500 
 26 H       -4.3810     0.8100    -1.8820 H     1 <1>   0.1500 
 27 H       -2.2880     3.8100     0.3430 H     1 <1>   0.1500 
 28 H       -5.3630     2.9390    -1.5420 H     1 <1>   0.0800 
 29 H       -5.3330     2.7920     1.4500 H     1 <1>   0.0800 
 30 H       -6.5700     0.9540    -0.5890 H     1 <1>   0.0800 
 31 H       -6.8450     0.8860     1.1330 H     1 <1>   0.0800 
 32 H       -5.2590     0.5730     0.5090 H     1 <1>   0.0800 
 33 H       -7.6330     3.3540    -0.4400 H     1 <1>   0.0800 
 34 H       -6.9600     4.5020     0.6860 H     1 <1>   0.0800 
 35 H       -7.7770     3.0900     1.2790 H     1 <1>   0.0800 
 36 H       -4.5500     7.5240     1.0580 H     1 <1>   0.0800 
 37 H       -5.0190     7.3100    -0.6010 H     1 <1>   0.0800 
 38 H       -3.7720     4.1390     1.8570 H     1 <1>   0.0800 
 39 H       -5.1090     5.1810     2.3050 H     1 <1>   0.0800 
 40 H       -3.4730     5.8010     2.2590 H     1 <1>   0.0800 
 41 H       -2.7070     7.0040    -1.2890 H     1 <1>   0.0800 
 42 H       -2.1650     7.0400     0.3710 H     1 <1>   0.0800 
 43 H        0.0450    11.4400    -1.2950 H     1 <1>   0.0800 
 44 H       -0.7960    12.4470    -0.1360 H     1 <1>   0.0800 
 45 H       -1.3140    12.4160    -1.8090 H     1 <1>   0.0800 
@<TRIPOS>BOND
  1   1   2  1   
  2   2   3  ar  
  3   2   4  ar  
  4   3   5  ar  
  5   3  24  1   
  6   4   6  ar  
  7   4  25  1   
  8   5   7  ar  
  9   5  26  1   
 10   6   7  ar  
 11   6  27  1   
 12   7   8  1   
 13   8   9  1   
 14   8  10  1   
 15   8  28  1   
 16   9  11  2   
 17   9  12  am  
 18  10  13  1   
 19  10  14  1   
 20  10  29  1   
 21  12  15  1   
 22  12  16  1   
 23  13  30  1   
 24  13  31  1   
 25  13  32  1   
 26  14  33  1   
 27  14  34  1   
 28  14  35  1   
 29  15  17  1   
 30  15  36  1   
 31  15  37  1   
 32  16  38  1   
 33  16  39  1   
 34  16  40  1   
 35  17  18  1   
 36  17  41  1   
 37  17  42  1   
 38  18  19  2   
 39  18  20  1   
 40  19  21  1   
 41  20  22  2   
 42  21  22  1   
 43  22  23  1   
 44  23  43  1   
 45  23  44  1   
 46  23  45  1   
@<TRIPOS>SUBSTRUCTURE
  1 ****  12 GROUP 4 **** **** 0

# MOE 2024.06 (io_trps.svl 2023.06)
