@<TRIPOS>MOLECULE
NONAME
46 48 1 0 0 
SMALL
USER_CHARGES


@<TRIPOS>ATOM
  1 O        0.2710    -1.0230     0.5270 O.3   1 <1>  -0.5320 
  2 C       -1.0440    -1.2520     0.4030 C.ar  1 <1>   0.0830 
  3 C       -1.5560    -1.5820    -0.8380 C.ar  1 <1>  -0.1500 
  4 C       -1.8790    -1.1590     1.5040 C.ar  1 <1>  -0.1500 
  5 C       -2.9100    -1.8230    -0.9830 C.ar  1 <1>  -0.1500 
  6 C       -3.2340    -1.4020     1.3580 C.ar  1 <1>  -0.1500 
  7 C       -3.7550    -1.7390     0.1150 C.ar  1 <1>  -0.1430 
  8 C       -5.2350    -2.0270    -0.0420 C.3   1 <1>  -0.0170 
  9 C       -5.4560    -3.5290     0.1470 C.3   1 <1>   0.3430 
 10 N       -6.8590    -3.9890    -0.1330 N.4   1 <1>  -0.9590 
 11 C       -7.8490    -3.4380     0.8580 C.3   1 <1>   0.4230 
 12 C       -6.8240    -5.4840    -0.2440 C.3   1 <1>   0.2630 
 13 C       -9.0410    -4.3580     1.1580 C.3   1 <1>  -0.1600 
 14 C       -8.5520    -2.2350     0.2210 C.3   1 <1>  -0.1600 
 15 C       -9.9960    -4.2020    -0.0340 C.3   1 <1>  -0.0800 
 16 C       -9.6920    -2.8220    -0.6270 C.3   1 <1>  -0.0800 
 17 C      -11.4910    -4.2190     0.3130 C.3   1 <1>  -0.1600 
 18 C      -11.0070    -2.0310    -0.5990 C.3   1 <1>  -0.1600 
 19 C      -12.0870    -3.1030    -0.5350 C.3   1 <1>   0.2000 
 20 O      -13.2210    -2.6020     0.0610 O.3   1 <1>  -0.6800 
 21 H        0.5380    -0.7780     1.4300 H     1 <1>   0.4500 
 22 H       -0.8900    -1.6430    -1.6810 H     1 <1>   0.1500 
 23 H       -1.4810    -0.8970     2.4680 H     1 <1>   0.1500 
 24 H       -3.2900    -2.0730    -1.9580 H     1 <1>   0.1500 
 25 H       -3.8710    -1.3220     2.2210 H     1 <1>   0.1500 
 26 H       -5.5500    -1.7220    -1.0240 H     1 <1>   0.0800 
 27 H       -5.7810    -1.4640     0.6940 H     1 <1>   0.0800 
 28 H       -5.1790    -3.7980     1.1530 H     1 <1>   0.0800 
 29 H       -4.7790    -4.0410    -0.5180 H     1 <1>   0.0800 
 30 H       -7.1450    -3.6230    -1.0510 H     1 <1>   0.4500 
 31 H       -7.3470    -3.1630     1.7720 H     1 <1>   0.0800 
 32 H       -6.5700    -5.9250     0.7060 H     1 <1>   0.0800 
 33 H       -6.0900    -5.7890    -0.9730 H     1 <1>   0.0800 
 34 H       -7.7840    -5.8630    -0.5540 H     1 <1>   0.0800 
 35 H       -8.7910    -5.3810     1.3740 H     1 <1>   0.0800 
 36 H       -9.5170    -3.9680     2.0410 H     1 <1>   0.0800 
 37 H       -8.9630    -1.6410     1.0190 H     1 <1>   0.0800 
 38 H       -7.9120    -1.6020    -0.3630 H     1 <1>   0.0800 
 39 H       -9.7950    -4.9530    -0.7810 H     1 <1>   0.0800 
 40 H       -9.3750    -2.9480    -1.6490 H     1 <1>   0.0800 
 41 H      -11.6460    -4.0040     1.3560 H     1 <1>   0.0800 
 42 H      -11.9420    -5.1660     0.0740 H     1 <1>   0.0800 
 43 H      -11.1200    -1.4200    -1.4770 H     1 <1>   0.0800 
 44 H      -11.0620    -1.4110     0.2780 H     1 <1>   0.0800 
 45 H      -12.3400    -3.4580    -1.5220 H     1 <1>   0.0800 
 46 H      -13.0250    -2.2780     0.9590 H     1 <1>   0.4000 
@<TRIPOS>BOND
  1   1   2  1   
  2   1  21  1   
  3   2   3  ar  
  4   2   4  ar  
  5   3   5  ar  
  6   3  22  1   
  7   4   6  ar  
  8   4  23  1   
  9   5   7  ar  
 10   5  24  1   
 11   6   7  ar  
 12   6  25  1   
 13   7   8  1   
 14   8   9  1   
 15   8  26  1   
 16   8  27  1   
 17   9  10  1   
 18   9  28  1   
 19   9  29  1   
 20  10  11  1   
 21  10  12  1   
 22  10  30  1   
 23  11  13  1   
 24  11  14  1   
 25  11  31  1   
 26  12  32  1   
 27  12  33  1   
 28  12  34  1   
 29  13  15  1   
 30  13  35  1   
 31  13  36  1   
 32  14  16  1   
 33  14  37  1   
 34  14  38  1   
 35  15  16  1   
 36  15  17  1   
 37  15  39  1   
 38  16  18  1   
 39  16  40  1   
 40  17  19  1   
 41  17  41  1   
 42  17  42  1   
 43  18  19  1   
 44  18  43  1   
 45  18  44  1   
 46  19  20  1   
 47  19  45  1   
 48  20  46  1   
@<TRIPOS>SUBSTRUCTURE
  1 ****  10 GROUP 4 **** **** 0

# MOE 2024.06 (io_trps.svl 2023.06)
