@<TRIPOS>MOLECULE
NONAME
47 49 1 0 0 
SMALL
USER_CHARGES


@<TRIPOS>ATOM
  1 O        0.5820    -0.1430     0.5980 O.2   1 <1>  -0.5700 
  2 C        1.7660    -0.1530     0.3410 C.2   1 <1>   0.7150 
  3 N        2.3520    -1.3770     0.4050 N.am  1 <1>  -0.7300 
  4 C        2.4330     1.0690    -0.0010 C.2   1 <1>  -0.2370 
  5 C        3.7630    -1.8390     0.5070 C.3   1 <1>   0.1400 
  6 N        3.6540     1.1950    -0.5710 N.pl3 1 <1>   0.3140 
  7 C        1.9820     2.3420     0.1470 C.2   1 <1>  -0.1500 
  8 C        4.8390    -0.7650     0.2860 C.3   1 <1>   0.2000 
  9 N        3.9950     2.4700    -0.7820 N.2   1 <1>  -0.7070 
 10 C        4.5820     0.1160    -0.9340 C.3   1 <1>   0.0960 
 11 C        2.9730     3.1870    -0.3440 C.2   1 <1>   0.2030 
 12 O        6.0590    -1.4100     0.1170 O.3   1 <1>  -0.6800 
 13 C        2.8900     4.6410    -0.3670 C.2   1 <1>   0.7160 
 14 O        1.9140     5.2380     0.0560 O.2   1 <1>  -0.5700 
 15 N        3.9360     5.3580    -0.8750 N.am  1 <1>  -0.7300 
 16 C        4.0500     6.8270    -0.9620 C.3   1 <1>   0.1400 
 17 C        5.3100     7.2740    -0.2170 C.3   1 <1>  -0.1600 
 18 C        5.5820     8.7850    -0.3420 C.3   1 <1>  -0.0800 
 19 C        6.9480     9.1180     0.2860 C.3   1 <1>  -0.1600 
 20 C        4.4740     9.6310     0.3160 C.3   1 <1>  -0.1600 
 21 C        7.2600    10.6180     0.2070 C.3   1 <1>  -0.1600 
 22 C        4.7870    11.1320     0.2450 C.3   1 <1>  -0.1600 
 23 C        6.1530    11.4470     0.8660 C.3   1 <1>  -0.1600 
 24 H        1.6630    -2.0990     0.6340 H     1 <1>   0.3700 
 25 H        3.8990    -2.6200    -0.2220 H     1 <1>   0.0800 
 26 H        3.9100    -2.2690     1.4840 H     1 <1>   0.0800 
 27 H        1.0400     2.6640     0.5580 H     1 <1>   0.1500 
 28 H        4.9380    -0.1530     1.1670 H     1 <1>   0.0800 
 29 H        5.5020     0.5700    -1.2560 H     1 <1>   0.0800 
 30 H        4.1570    -0.4490    -1.7420 H     1 <1>   0.0800 
 31 H        6.0750    -1.9550    -0.6940 H     1 <1>   0.4000 
 32 H        4.7250     4.8000    -1.2100 H     1 <1>   0.3700 
 33 H        3.1760     7.2830    -0.5290 H     1 <1>   0.0800 
 34 H        4.1070     7.1150    -1.9980 H     1 <1>   0.0800 
 35 H        6.1510     6.7390    -0.6220 H     1 <1>   0.0800 
 36 H        5.2130     7.0110     0.8220 H     1 <1>   0.0800 
 37 H        5.6270     9.0390    -1.3880 H     1 <1>   0.0800 
 38 H        7.7240     8.5710    -0.2210 H     1 <1>   0.0800 
 39 H        6.9520     8.8130     1.3190 H     1 <1>   0.0800 
 40 H        4.3680     9.3430     1.3480 H     1 <1>   0.0800 
 41 H        3.5310     9.4590    -0.1720 H     1 <1>   0.0800 
 42 H        7.3580    10.9090    -0.8250 H     1 <1>   0.0800 
 43 H        8.1980    10.8170     0.6960 H     1 <1>   0.0800 
 44 H        4.0210    11.6850     0.7610 H     1 <1>   0.0800 
 45 H        4.7840    11.4480    -0.7850 H     1 <1>   0.0800 
 46 H        6.3690    12.4960     0.7510 H     1 <1>   0.0800 
 47 H        6.1240    11.2300     1.9200 H     1 <1>   0.0800 
@<TRIPOS>BOND
  1   1   2  2   
  2   2   3  am  
  3   2   4  1   
  4   3   5  1   
  5   3  24  1   
  6   4   6  1   
  7   4   7  2   
  8   5   8  1   
  9   5  25  1   
 10   5  26  1   
 11   6   9  1   
 12   6  10  1   
 13   7  11  1   
 14   7  27  1   
 15   8  10  1   
 16   8  12  1   
 17   8  28  1   
 18   9  11  2   
 19  10  29  1   
 20  10  30  1   
 21  11  13  1   
 22  12  31  1   
 23  13  14  2   
 24  13  15  am  
 25  15  16  1   
 26  15  32  1   
 27  16  17  1   
 28  16  33  1   
 29  16  34  1   
 30  17  18  1   
 31  17  35  1   
 32  17  36  1   
 33  18  19  1   
 34  18  20  1   
 35  18  37  1   
 36  19  21  1   
 37  19  38  1   
 38  19  39  1   
 39  20  22  1   
 40  20  40  1   
 41  20  41  1   
 42  21  23  1   
 43  21  42  1   
 44  21  43  1   
 45  22  23  1   
 46  22  44  1   
 47  22  45  1   
 48  23  46  1   
 49  23  47  1   
@<TRIPOS>SUBSTRUCTURE
  1 ****  13 GROUP 4 **** **** 0

# MOE 2024.06 (io_trps.svl 2023.06)
