@<TRIPOS>MOLECULE
NONAME
45 47 1 0 0 
SMALL
USER_CHARGES


@<TRIPOS>ATOM
  1 S       -0.4960     0.4430    -1.5540 S.3   1 <1>  -0.0800 
  2 C       -0.3180     1.8990    -0.5980 C.2   1 <1>  -0.1400 
  3 C        1.1540     0.6020    -2.1380 C.2   1 <1>  -0.1100 
  4 C        0.9040     2.4320    -0.7220 C.2   1 <1>  -0.1810 
  5 C       -1.4300     2.4590     0.2450 C.3   1 <1>   0.0200 
  6 C        1.7510     1.6910    -1.6130 C.2   1 <1>  -0.1500 
  7 C        1.2920     3.7030     0.0390 C.3   1 <1>   0.4610 
  8 C       -1.0740     3.9210     0.5550 C.3   1 <1>   0.1200 
  9 O        0.2700     4.0450     0.9600 O.3   1 <1>  -0.5600 
 10 C        2.5520     3.4600     0.8770 C.3   1 <1>  -0.1600 
 11 C        1.5090     4.8790    -0.9250 C.3   1 <1>  -0.1600 
 12 C        3.0110     4.7320     1.5900 C.3   1 <1>   0.1400 
 13 C        1.9740     6.1360    -0.1880 C.3   1 <1>   0.1400 
 14 N        3.2020     5.8130     0.5850 N.am  1 <1>  -0.6600 
 15 C        4.4540     6.2810     0.2800 C.2   1 <1>   0.6900 
 16 O        5.4500     5.6870     0.6520 O.2   1 <1>  -0.5700 
 17 N        4.5780     7.4250    -0.4380 N.am  1 <1>  -0.7300 
 18 C        5.8520     8.0750    -0.8040 C.3   1 <1>   0.1400 
 19 C        5.8860     9.4800    -0.2030 C.3   1 <1>  -0.1600 
 20 C        7.1930    10.2010    -0.5550 C.3   1 <1>  -0.1600 
 21 C        7.2260    11.6080     0.0500 C.3   1 <1>  -0.2400 
 22 H        1.5090    -0.1460    -2.8240 H     1 <1>   0.1500 
 23 H       -1.5200     1.8950     1.1560 H     1 <1>   0.0800 
 24 H       -2.3640     2.4150    -0.2850 H     1 <1>   0.0800 
 25 H        2.7600     2.0040    -1.8160 H     1 <1>   0.1500 
 26 H       -1.6930     4.2930     1.3520 H     1 <1>   0.0800 
 27 H       -1.2260     4.5350    -0.3140 H     1 <1>   0.0800 
 28 H        3.3530     3.1230     0.2460 H     1 <1>   0.0800 
 29 H        2.3560     2.6860     1.5960 H     1 <1>   0.0800 
 30 H        0.6090     5.0800    -1.4730 H     1 <1>   0.0800 
 31 H        2.2620     4.6090    -1.6420 H     1 <1>   0.0800 
 32 H        3.9260     4.5430     2.1250 H     1 <1>   0.0800 
 33 H        2.2680     5.0430     2.3040 H     1 <1>   0.0800 
 34 H        1.2090     6.4710     0.4910 H     1 <1>   0.0800 
 35 H        2.1590     6.9180    -0.9020 H     1 <1>   0.0800 
 36 H        3.7390     7.9810    -0.5620 H     1 <1>   0.3700 
 37 H        5.9260     8.1260    -1.8770 H     1 <1>   0.0800 
 38 H        6.6830     7.4960    -0.4350 H     1 <1>   0.0800 
 39 H        5.8010     9.4020     0.8680 H     1 <1>   0.0800 
 40 H        5.0540    10.0490    -0.5770 H     1 <1>   0.0800 
 41 H        7.2930    10.2740    -1.6250 H     1 <1>   0.0800 
 42 H        8.0300     9.6360    -0.1790 H     1 <1>   0.0800 
 43 H        6.4110    12.2000    -0.3290 H     1 <1>   0.0800 
 44 H        8.1500    12.0960    -0.2040 H     1 <1>   0.0800 
 45 H        7.1500    11.5580     1.1220 H     1 <1>   0.0800 
@<TRIPOS>BOND
  1   1   2  1   
  2   1   3  1   
  3   2   4  2   
  4   2   5  1   
  5   3   6  2   
  6   3  22  1   
  7   4   6  1   
  8   4   7  1   
  9   5   8  1   
 10   5  23  1   
 11   5  24  1   
 12   6  25  1   
 13   7   9  1   
 14   7  10  1   
 15   7  11  1   
 16   8   9  1   
 17   8  26  1   
 18   8  27  1   
 19  10  12  1   
 20  10  28  1   
 21  10  29  1   
 22  11  13  1   
 23  11  30  1   
 24  11  31  1   
 25  12  14  1   
 26  12  32  1   
 27  12  33  1   
 28  13  14  1   
 29  13  34  1   
 30  13  35  1   
 31  14  15  am  
 32  15  16  2   
 33  15  17  am  
 34  17  18  1   
 35  17  36  1   
 36  18  19  1   
 37  18  37  1   
 38  18  38  1   
 39  19  20  1   
 40  19  39  1   
 41  19  40  1   
 42  20  21  1   
 43  20  41  1   
 44  20  42  1   
 45  21  43  1   
 46  21  44  1   
 47  21  45  1   
@<TRIPOS>SUBSTRUCTURE
  1 ****  14 GROUP 4 **** **** 0

# MOE 2024.06 (io_trps.svl 2023.06)
