@<TRIPOS>MOLECULE
NONAME
53 56 1 0 0 
SMALL
USER_CHARGES


@<TRIPOS>ATOM
  1 O       -0.6000    -0.4490     0.6660 O.3   1 <1>  -0.3630 
  2 C       -1.6140     0.2690     0.1190 C.ar  1 <1>   0.0830 
  3 C        0.6170     0.1420     1.0630 C.3   1 <1>   0.0400 
  4 C       -2.7630    -0.4280    -0.2700 C.ar  1 <1>   0.0000 
  5 C       -1.5410     1.6490    -0.0540 C.ar  1 <1>  -0.1500 
  6 C       -2.8650    -1.8590    -0.1130 C.ar  1 <1>   0.6200 
  7 C       -3.8220     0.2970    -0.8190 C.ar  1 <1>  -0.1500 
  8 C       -2.6020     2.3440    -0.6050 C.ar  1 <1>  -0.1500 
  9 N       -2.2360    -2.6300    -1.0050 N.ar  1 <1>  -0.6200 
 10 N       -3.6050    -2.3160     0.9020 N.ar  1 <1>  -0.6200 
 11 C       -3.7460     1.6660    -0.9870 C.ar  1 <1>  -0.1500 
 12 C       -2.3160    -3.9230    -0.8340 C.ar  1 <1>   0.1600 
 13 C       -3.6710    -3.6130     1.0520 C.ar  1 <1>   0.1600 
 14 C       -3.0410    -4.4810     0.1920 C.ar  1 <1>  -0.1430 
 15 C       -3.1470    -5.9760     0.3760 C.3   1 <1>   0.4860 
 16 N       -4.0650    -6.5540    -0.6530 N.4   1 <1>  -0.9590 
 17 C       -5.4590    -6.0090    -0.5110 C.3   1 <1>   0.3430 
 18 C       -4.1770    -8.0390    -0.4700 C.3   1 <1>   0.3430 
 19 C       -6.2050    -7.0160     0.3670 C.3   1 <1>   0.2000 
 20 C       -5.6420    -8.3460    -0.1320 C.3   1 <1>  -0.0800 
 21 O       -5.8250    -6.8060     1.6910 O.3   1 <1>  -0.6800 
 22 C       -5.8030    -9.5560     0.8080 C.3   1 <1>  -0.0170 
 23 C       -5.0800   -10.7630     0.2340 C.ar  1 <1>  -0.1430 
 24 C       -3.9080   -11.2440     0.7850 C.ar  1 <1>  -0.1500 
 25 C       -5.5560   -11.4400    -0.8720 C.ar  1 <1>  -0.1500 
 26 C       -3.2760   -12.3320     0.2070 C.ar  1 <1>   0.1600 
 27 C       -4.8450   -12.5170    -1.3740 C.ar  1 <1>   0.1600 
 28 N       -3.7110   -12.9690    -0.8660 N.ar  1 <1>  -0.6200 
 29 H        1.2540    -0.6340     1.4470 H     1 <1>   0.0800 
 30 H        0.4180     0.8660     1.8330 H     1 <1>   0.0800 
 31 H        1.0770     0.6020     0.2060 H     1 <1>   0.0800 
 32 H       -0.6680     2.2020     0.2350 H     1 <1>   0.1500 
 33 H       -4.7130    -0.2260    -1.1150 H     1 <1>   0.1500 
 34 H       -2.5410     3.4100    -0.7360 H     1 <1>   0.1500 
 35 H       -4.5730     2.2060    -1.4130 H     1 <1>   0.1500 
 36 H       -1.7840    -4.5410    -1.5380 H     1 <1>   0.1500 
 37 H       -4.2490    -3.9830     1.8850 H     1 <1>   0.1500 
 38 H       -3.5220    -6.1910     1.3640 H     1 <1>   0.0800 
 39 H       -2.1680    -6.4160     0.2860 H     1 <1>   0.0800 
 40 H       -3.7020    -6.3260    -1.5880 H     1 <1>   0.4500 
 41 H       -5.4830    -5.0220    -0.0820 H     1 <1>   0.0800 
 42 H       -5.9310    -5.9770    -1.4800 H     1 <1>   0.0800 
 43 H       -3.8790    -8.5690    -1.3610 H     1 <1>   0.0800 
 44 H       -3.5490    -8.3590     0.3460 H     1 <1>   0.0800 
 45 H       -7.2760    -6.9290     0.2850 H     1 <1>   0.0800 
 46 H       -6.1340    -8.5830    -1.0600 H     1 <1>   0.0800 
 47 H       -6.4680    -7.2140     2.3110 H     1 <1>   0.4000 
 48 H       -6.8470    -9.7910     0.9300 H     1 <1>   0.0800 
 49 H       -5.4020    -9.3400     1.7840 H     1 <1>   0.0800 
 50 H       -3.4770   -10.7950     1.6610 H     1 <1>   0.1500 
 51 H       -6.4730   -11.1490    -1.3520 H     1 <1>   0.1500 
 52 H       -2.3640   -12.7000     0.6490 H     1 <1>   0.1500 
 53 H       -5.2280   -13.0360    -2.2370 H     1 <1>   0.1500 
@<TRIPOS>BOND
  1   1   2  1   
  2   1   3  1   
  3   2   4  ar  
  4   2   5  ar  
  5   3  29  1   
  6   3  30  1   
  7   3  31  1   
  8   4   6  1   
  9   4   7  ar  
 10   5   8  ar  
 11   5  32  1   
 12   6   9  ar  
 13   6  10  ar  
 14   7  11  ar  
 15   7  33  1   
 16   8  11  ar  
 17   8  34  1   
 18   9  12  ar  
 19  10  13  ar  
 20  11  35  1   
 21  12  14  ar  
 22  12  36  1   
 23  13  14  ar  
 24  13  37  1   
 25  14  15  1   
 26  15  16  1   
 27  15  38  1   
 28  15  39  1   
 29  16  17  1   
 30  16  18  1   
 31  16  40  1   
 32  17  19  1   
 33  17  41  1   
 34  17  42  1   
 35  18  20  1   
 36  18  43  1   
 37  18  44  1   
 38  19  20  1   
 39  19  21  1   
 40  19  45  1   
 41  20  22  1   
 42  20  46  1   
 43  21  47  1   
 44  22  23  1   
 45  22  48  1   
 46  22  49  1   
 47  23  24  ar  
 48  23  25  ar  
 49  24  26  ar  
 50  24  50  1   
 51  25  27  ar  
 52  25  51  1   
 53  26  28  ar  
 54  26  52  1   
 55  27  28  ar  
 56  27  53  1   
@<TRIPOS>SUBSTRUCTURE
  1 ****  14 GROUP 4 **** **** 0

# MOE 2024.06 (io_trps.svl 2023.06)
