@<TRIPOS>MOLECULE
NONAME
53 55 1 0 0 
SMALL
USER_CHARGES


@<TRIPOS>ATOM
  1 O        0.5930     3.1740    -1.8940 O.2   1 <1>  -0.5700 
  2 C       -0.3280     3.8980    -1.5940 C.2   1 <1>   0.5690 
  3 N       -1.1750     3.6160    -0.5550 N.am  1 <1>  -0.6600 
  4 C       -0.4850     5.1890    -2.4060 C.3   1 <1>   0.1810 
  5 C       -2.3240     4.5340    -0.2560 C.3   1 <1>   0.3640 
  6 C       -0.8790     2.5000     0.3870 C.3   1 <1>   0.2200 
  7 O       -1.6520     5.9450    -2.1420 O.3   1 <1>  -0.5600 
  8 C       -3.6370     3.9860    -0.8250 C.ar  1 <1>  -0.1440 
  9 C       -2.0810     5.9660    -0.7870 C.3   1 <1>   0.2610 
 10 C       -2.1180     1.6540     0.6830 C.3   1 <1>  -0.2400 
 11 C       -0.2680     3.0650     1.6690 C.3   1 <1>  -0.2400 
 12 C       -3.7200     3.4490    -2.1030 C.ar  1 <1>  -0.1500 
 13 C       -4.7840     4.0300    -0.0430 C.ar  1 <1>  -0.1500 
 14 C       -1.1320     6.7680     0.1140 C.2   1 <1>   0.5690 
 15 C       -4.9230     2.9660    -2.5890 C.ar  1 <1>  -0.1500 
 16 C       -5.9870     3.5480    -0.5270 C.ar  1 <1>  -0.1500 
 17 O       -1.1030     6.5420     1.3030 O.2   1 <1>  -0.5700 
 18 N       -0.3650     7.7370    -0.4600 N.am  1 <1>  -0.5790 
 19 C       -6.0580     3.0160    -1.8010 C.ar  1 <1>  -0.1500 
 20 C        0.6300     8.5840     0.2070 C.3   1 <1>   0.0540 
 21 C        0.5950    10.0250    -0.1900 C.3   1 <1>  -0.2000 
 22 C        0.0900     9.6010     1.1590 C.3   1 <1>  -0.2000 
 23 C        1.9350     7.8050     0.4590 C.3   1 <1>  -0.0650 
 24 C        3.0830     8.6090     1.0930 C.3   1 <1>  -0.1600 
 25 C        4.3220     7.7310     1.3010 C.3   1 <1>  -0.2400 
 26 H       -0.4940     4.9410    -3.4520 H     1 <1>   0.0800 
 27 H        0.3690     5.8130    -2.2190 H     1 <1>   0.0800 
 28 H       -2.4430     4.5930     0.8100 H     1 <1>   0.0800 
 29 H       -0.1500     1.8480    -0.0650 H     1 <1>   0.0800 
 30 H       -3.0210     6.4850    -0.7740 H     1 <1>   0.0800 
 31 H       -2.8450     2.2050     1.2490 H     1 <1>   0.0800 
 32 H       -1.8340     0.7900     1.2560 H     1 <1>   0.0800 
 33 H       -2.5590     1.3150    -0.2370 H     1 <1>   0.0800 
 34 H       -0.9700     3.6730     2.2080 H     1 <1>   0.0800 
 35 H        0.6000     3.6550     1.4320 H     1 <1>   0.0800 
 36 H        0.0400     2.2590     2.3090 H     1 <1>   0.0800 
 37 H       -2.8480     3.4010    -2.7310 H     1 <1>   0.1500 
 38 H       -4.7500     4.4400     0.9520 H     1 <1>   0.1500 
 39 H       -4.9730     2.5520    -3.5810 H     1 <1>   0.1500 
 40 H       -6.8700     3.5870     0.0880 H     1 <1>   0.1500 
 41 H       -0.4610     7.8840    -1.4670 H     1 <1>   0.3700 
 42 H       -6.9930     2.6410    -2.1790 H     1 <1>   0.1500 
 43 H        1.4960    10.6110    -0.2150 H     1 <1>   0.1000 
 44 H       -0.1240    10.3550    -0.9180 H     1 <1>   0.1000 
 45 H       -0.9670     9.5960     1.3540 H     1 <1>   0.1000 
 46 H        0.6600     9.8840     2.0250 H     1 <1>   0.1000 
 47 H        1.7060     6.9750     1.1060 H     1 <1>   0.0800 
 48 H        2.2780     7.4080    -0.4800 H     1 <1>   0.0800 
 49 H        3.3490     9.4360     0.4580 H     1 <1>   0.0800 
 50 H        2.7740     9.0000     2.0460 H     1 <1>   0.0800 
 51 H        4.6710     7.3420     0.3610 H     1 <1>   0.0800 
 52 H        4.0930     6.9070     1.9550 H     1 <1>   0.0800 
 53 H        5.1120     8.3100     1.7460 H     1 <1>   0.0800 
@<TRIPOS>BOND
  1   1   2  2   
  2   2   3  am  
  3   2   4  1   
  4   3   5  1   
  5   3   6  1   
  6   4   7  1   
  7   4  26  1   
  8   4  27  1   
  9   5   8  1   
 10   5   9  1   
 11   5  28  1   
 12   6  10  1   
 13   6  11  1   
 14   6  29  1   
 15   7   9  1   
 16   8  12  ar  
 17   8  13  ar  
 18   9  14  1   
 19   9  30  1   
 20  10  31  1   
 21  10  32  1   
 22  10  33  1   
 23  11  34  1   
 24  11  35  1   
 25  11  36  1   
 26  12  15  ar  
 27  12  37  1   
 28  13  16  ar  
 29  13  38  1   
 30  14  17  2   
 31  14  18  am  
 32  15  19  ar  
 33  15  39  1   
 34  16  19  ar  
 35  16  40  1   
 36  18  20  1   
 37  18  41  1   
 38  19  42  1   
 39  20  21  1   
 40  20  22  1   
 41  20  23  1   
 42  21  22  1   
 43  21  43  1   
 44  21  44  1   
 45  22  45  1   
 46  22  46  1   
 47  23  24  1   
 48  23  47  1   
 49  23  48  1   
 50  24  25  1   
 51  24  49  1   
 52  24  50  1   
 53  25  51  1   
 54  25  52  1   
 55  25  53  1   
@<TRIPOS>SUBSTRUCTURE
  1 ****   9 GROUP 4 **** **** 0

# MOE 2024.06 (io_trps.svl 2023.06)
