@<TRIPOS>MOLECULE
NONAME
61 66 1 0 0 
SMALL
USER_CHARGES


@<TRIPOS>ATOM
  1 O        1.5220    -0.9390    -2.6300 O.2   1 <1>  -0.5700 
  2 C        1.5440    -1.5220    -1.5740 C.2   1 <1>   0.5690 
  3 N        2.1730    -1.1080    -0.4580 N.am  1 <1>  -0.6600 
  4 C        0.8720    -2.8460    -1.3510 C.3   1 <1>  -0.0990 
  5 C        2.1100    -2.1040     0.6250 C.3   1 <1>   0.1400 
  6 C        3.1050     0.0470    -0.3820 C.3   1 <1>   0.2840 
  7 C        0.9720    -3.0390     0.1760 C.3   1 <1>  -0.0190 
  8 C        4.5510    -0.4250    -0.2980 C.ar  1 <1>   0.1660 
  9 C        1.1650    -4.4980     0.5810 C.2   1 <1>   0.5690 
 10 N        5.1610    -0.3070     0.8760 N.ar  1 <1>  -0.6200 
 11 C        5.1470    -0.9570    -1.4320 C.ar  1 <1>  -0.1500 
 12 O        2.2950    -4.9170     0.6710 O.2   1 <1>  -0.5700 
 13 N        0.0900    -5.3200     0.8190 N.am  1 <1>  -0.6600 
 14 C        6.4120    -0.7410     0.9150 C.ar  1 <1>   0.1600 
 15 C        6.4500    -1.4020    -1.3750 C.ar  1 <1>  -0.1500 
 16 C       -1.3350    -4.9620     0.5340 C.3   1 <1>   0.1400 
 17 C        0.3450    -6.7010     1.3340 C.3   1 <1>   0.1400 
 18 C        7.0920    -1.2860    -0.1610 C.ar  1 <1>  -0.1500 
 19 C       -2.0550    -6.1810    -0.0350 C.3   1 <1>  -0.1600 
 20 C       -0.9120    -7.3090     1.9560 C.3   1 <1>  -0.1600 
 21 C       -2.1060    -7.3280     0.9870 C.3   1 <1>   0.4600 
 22 O       -3.2420    -7.1460     1.8030 O.3   1 <1>  -0.5600 
 23 C       -2.1930    -8.6790     0.2820 C.2   1 <1>  -0.3320 
 24 C       -4.4870    -7.6270     1.3490 C.3   1 <1>   0.1200 
 25 N       -1.2350    -9.2430    -0.5160 N.pl3 1 <1>   0.0330 
 26 C       -3.2470    -9.5140     0.3650 C.2   1 <1>  -0.1810 
 27 C       -4.4670    -9.1540     1.1730 C.3   1 <1>   0.0210 
 28 C       -1.7000   -10.4640    -0.9400 C.ar  1 <1>  -0.1520 
 29 C       -2.9670   -10.6660    -0.3980 C.ar  1 <1>   0.0000 
 30 C       -1.1120   -11.4270    -1.7640 C.ar  1 <1>  -0.1500 
 31 C       -3.6600   -11.8480    -0.6790 C.ar  1 <1>  -0.1500 
 32 C       -1.8050   -12.5850    -2.0330 C.ar  1 <1>  -0.1500 
 33 C       -3.0790   -12.7950    -1.4910 C.ar  1 <1>  -0.1500 
 34 H        1.4260    -3.6030    -1.8760 H     1 <1>   0.0800 
 35 H       -0.1440    -2.8220    -1.6950 H     1 <1>   0.0800 
 36 H        1.8910    -1.6370     1.5700 H     1 <1>   0.0800 
 37 H        3.0560    -2.6160     0.6860 H     1 <1>   0.0800 
 38 H        2.8670     0.6400     0.4830 H     1 <1>   0.0800 
 39 H        2.9850     0.6650    -1.2540 H     1 <1>   0.0800 
 40 H        0.0780    -2.6610     0.6350 H     1 <1>   0.0800 
 41 H        4.5880    -1.0270    -2.3490 H     1 <1>   0.1500 
 42 H        6.9240    -0.6570     1.8580 H     1 <1>   0.1500 
 43 H        6.9400    -1.8220    -2.2370 H     1 <1>   0.1500 
 44 H       -1.3930    -4.1620    -0.1800 H     1 <1>   0.0800 
 45 H       -1.8150    -4.6460     1.4460 H     1 <1>   0.0800 
 46 H        1.1260    -6.6670     2.0750 H     1 <1>   0.0800 
 47 H        0.6900    -7.3150     0.5210 H     1 <1>   0.0800 
 48 H        8.1080    -1.6150    -0.0460 H     1 <1>   0.1500 
 49 H       -1.5250    -6.4960    -0.9140 H     1 <1>   0.0800 
 50 H       -3.0460    -5.9120    -0.3460 H     1 <1>   0.0800 
 51 H       -1.1600    -6.7260     2.8260 H     1 <1>   0.0800 
 52 H       -0.7020    -8.3090     2.2890 H     1 <1>   0.0800 
 53 H       -4.7180    -7.1510     0.4130 H     1 <1>   0.0800 
 54 H       -5.2310    -7.3460     2.0730 H     1 <1>   0.0800 
 55 H       -0.3270    -8.8420    -0.7670 H     1 <1>   0.2700 
 56 H       -5.3580    -9.4720     0.6640 H     1 <1>   0.0800 
 57 H       -4.4250    -9.6360     2.1330 H     1 <1>   0.0800 
 58 H       -0.1330   -11.2580    -2.1760 H     1 <1>   0.1500 
 59 H       -4.6350   -11.9960    -0.2550 H     1 <1>   0.1500 
 60 H       -1.3740   -13.3410    -2.6650 H     1 <1>   0.1500 
 61 H       -3.5990   -13.7090    -1.7170 H     1 <1>   0.1500 
@<TRIPOS>BOND
  1   1   2  2   
  2   2   3  am  
  3   2   4  1   
  4   3   5  1   
  5   3   6  1   
  6   4   7  1   
  7   4  34  1   
  8   4  35  1   
  9   5   7  1   
 10   5  36  1   
 11   5  37  1   
 12   6   8  1   
 13   6  38  1   
 14   6  39  1   
 15   7   9  1   
 16   7  40  1   
 17   8  10  ar  
 18   8  11  ar  
 19   9  12  2   
 20   9  13  am  
 21  10  14  ar  
 22  11  15  ar  
 23  11  41  1   
 24  13  16  1   
 25  13  17  1   
 26  14  18  ar  
 27  14  42  1   
 28  15  18  ar  
 29  15  43  1   
 30  16  19  1   
 31  16  44  1   
 32  16  45  1   
 33  17  20  1   
 34  17  46  1   
 35  17  47  1   
 36  18  48  1   
 37  19  21  1   
 38  19  49  1   
 39  19  50  1   
 40  20  21  1   
 41  20  51  1   
 42  20  52  1   
 43  21  22  1   
 44  21  23  1   
 45  22  24  1   
 46  23  25  1   
 47  23  26  2   
 48  24  27  1   
 49  24  53  1   
 50  24  54  1   
 51  25  28  1   
 52  25  55  1   
 53  26  27  1   
 54  26  29  1   
 55  27  56  1   
 56  27  57  1   
 57  28  29  ar  
 58  28  30  ar  
 59  29  31  ar  
 60  30  32  ar  
 61  30  58  1   
 62  31  33  ar  
 63  31  59  1   
 64  32  33  ar  
 65  32  60  1   
 66  33  61  1   
@<TRIPOS>SUBSTRUCTURE
  1 ****  13 GROUP 4 **** **** 0

# MOE 2024.06 (io_trps.svl 2023.06)
