@<TRIPOS>MOLECULE
NONAME
53 56 1 0 0 
SMALL
USER_CHARGES


@<TRIPOS>ATOM
  1 O        0.0950     0.0940    -0.3740 O.2   1 <1>  -0.5700 
  2 C       -0.5010     1.0550     0.0820 C.2   1 <1>   0.6900 
  3 N       -1.8630     1.1610    -0.0850 N.am  1 <1>  -0.6600 
  4 N        0.1740     2.0410     0.7410 N.am  1 <1>  -0.5470 
  5 C       -2.7140     2.2840     0.4450 C.3   1 <1>   0.1400 
  6 C       -2.5990     0.2350    -0.9850 C.3   1 <1>   0.1400 
  7 C        1.5150     2.4320     0.7540 C.ar  1 <1>   0.1170 
  8 C       -3.3340     3.1100    -0.7030 C.3   1 <1>   0.1430 
  9 C       -3.1450     1.0250    -2.1790 C.3   1 <1>  -0.1600 
 10 C        1.8200     3.7990     0.8690 C.ar  1 <1>  -0.1790 
 11 C        2.5450     1.5010     0.6630 C.ar  1 <1>  -0.1500 
 12 C       -4.3140     4.1140    -0.1220 C.ar  1 <1>   0.1670 
 13 C       -4.0460     2.1800    -1.7140 C.3   1 <1>  -0.1600 
 14 C       -2.2730     4.0160    -1.3880 C.3   1 <1>  -0.1600 
 15 C        0.7910     4.8200     0.9760 C.2   1 <1>   0.9790 
 16 C        3.1670     4.1700     0.8640 C.ar  1 <1>  -0.1500 
 17 C        3.8690     1.8940     0.6670 C.ar  1 <1>  -0.1500 
 18 N       -5.4690     3.8160     0.4260 N.ar  1 <1>  -0.6200 
 19 C       -3.8580     5.3900    -0.2330 C.ar  1 <1>  -0.1440 
 20 C       -2.5070     5.4580    -0.8980 C.3   1 <1>  -0.0160 
 21 O       -0.3340     4.5620     1.4540 O.co2 1 <1>  -0.9000 
 22 O        0.9940     5.9780     0.5690 O.co2 1 <1>  -0.9000 
 23 C        4.1810     3.2370     0.7670 C.ar  1 <1>  -0.1500 
 24 C       -6.1760     4.8590     0.8690 C.ar  1 <1>   0.7200 
 25 C       -4.6470     6.3970     0.2610 C.ar  1 <1>   0.1600 
 26 N       -5.8150     6.1450     0.8060 N.ar  1 <1>  -0.6200 
 27 N       -7.4020     4.5790     1.4440 N.pl3 1 <1>  -0.8380 
 28 C       -7.7620     3.2090     1.8990 C.3   1 <1>   0.1290 
 29 C       -8.4060     5.6430     1.7190 C.3   1 <1>   0.1290 
 30 H       -0.4280     2.8190     1.0560 H     1 <1>   0.3700 
 31 H       -2.1580     2.9340     1.0960 H     1 <1>   0.0800 
 32 H       -3.5080     1.8580     1.0320 H     1 <1>   0.0800 
 33 H       -3.4080    -0.2150    -0.4370 H     1 <1>   0.0800 
 34 H       -1.9570    -0.5530    -1.3380 H     1 <1>   0.0800 
 35 H       -3.7050     0.3640    -2.8140 H     1 <1>   0.0800 
 36 H       -2.3160     1.4060    -2.7500 H     1 <1>   0.0800 
 37 H        2.3050     0.4570     0.5890 H     1 <1>   0.1500 
 38 H       -4.3890     2.7500    -2.5590 H     1 <1>   0.0800 
 39 H       -4.9160     1.7590    -1.2400 H     1 <1>   0.0800 
 40 H       -2.3970     3.9940    -2.4550 H     1 <1>   0.0800 
 41 H       -1.2670     3.7050    -1.1640 H     1 <1>   0.0800 
 42 H        3.4080     5.2180     0.9370 H     1 <1>   0.1500 
 43 H        4.6500     1.1600     0.5930 H     1 <1>   0.1500 
 44 H       -2.5040     6.1560    -1.7160 H     1 <1>   0.0800 
 45 H       -1.7610     5.7530    -0.1810 H     1 <1>   0.0800 
 46 H        5.2070     3.5570     0.7670 H     1 <1>   0.1500 
 47 H       -4.3130     7.4180     0.2060 H     1 <1>   0.1500 
 48 H       -6.8790     2.6630     2.1830 H     1 <1>   0.0800 
 49 H       -8.2560     2.6840     1.1000 H     1 <1>   0.0800 
 50 H       -8.4160     3.2600     2.7520 H     1 <1>   0.0800 
 51 H       -8.3190     6.4370     0.9970 H     1 <1>   0.0800 
 52 H       -8.2410     6.0460     2.7030 H     1 <1>   0.0800 
 53 H       -9.4000     5.2390     1.6580 H     1 <1>   0.0800 
@<TRIPOS>BOND
  1   1   2  2   
  2   2   3  am  
  3   2   4  am  
  4   3   5  1   
  5   3   6  1   
  6   4   7  1   
  7   4  30  1   
  8   5   8  1   
  9   5  31  1   
 10   5  32  1   
 11   6   9  1   
 12   6  33  1   
 13   6  34  1   
 14   7  10  ar  
 15   7  11  ar  
 16   8  12  1   
 17   8  13  1   
 18   8  14  1   
 19   9  13  1   
 20   9  35  1   
 21   9  36  1   
 22  10  15  1   
 23  10  16  ar  
 24  11  17  ar  
 25  11  37  1   
 26  12  18  ar  
 27  12  19  ar  
 28  13  38  1   
 29  13  39  1   
 30  14  20  1   
 31  14  40  1   
 32  14  41  1   
 33  15  21  ar  
 34  15  22  ar  
 35  16  23  ar  
 36  16  42  1   
 37  17  23  ar  
 38  17  43  1   
 39  18  24  ar  
 40  19  20  1   
 41  19  25  ar  
 42  20  44  1   
 43  20  45  1   
 44  23  46  1   
 45  24  26  ar  
 46  24  27  1   
 47  25  26  ar  
 48  25  47  1   
 49  27  28  1   
 50  27  29  1   
 51  28  48  1   
 52  28  49  1   
 53  28  50  1   
 54  29  51  1   
 55  29  52  1   
 56  29  53  1   
@<TRIPOS>SUBSTRUCTURE
  1 ****   5 GROUP 4 **** **** 0

# MOE 2024.06 (io_trps.svl 2023.06)
