@<TRIPOS>MOLECULE
NONAME
43 44 1 0 0 
SMALL
USER_CHARGES


@<TRIPOS>ATOM
  1 F       -1.2620     1.7670    -1.8030 F     1 <1>  -0.1900 
  2 C       -1.8640     2.0640    -0.6810 C.ar  1 <1>   0.1900 
  3 C       -1.1310     2.5970     0.3690 C.ar  1 <1>  -0.1440 
  4 C       -3.2240     1.8320    -0.5950 C.ar  1 <1>  -0.1500 
  5 C       -1.8060     2.9060     1.5410 C.ar  1 <1>  -0.1500 
  6 C        0.3660     2.8490     0.2630 C.3   1 <1>   0.2840 
  7 C       -3.8810     2.1450     0.5830 C.ar  1 <1>  -0.1500 
  8 C       -3.1710     2.6810     1.6470 C.ar  1 <1>  -0.1500 
  9 N        0.6130     4.3030     0.0420 N.am  1 <1>  -0.6600 
 10 C        0.9870     5.1000     1.1020 C.2   1 <1>   0.5690 
 11 C        0.3000     4.7460    -1.3480 C.3   1 <1>   0.0600 
 12 O        1.2020     4.6200     2.1910 O.2   1 <1>  -0.5700 
 13 C        1.1370     6.6250     1.0030 C.3   1 <1>  -0.0190 
 14 C       -0.1780     7.3520     0.6470 C.3   1 <1>  -0.1600 
 15 C        2.3420     7.0700     0.1370 C.3   1 <1>  -0.1600 
 16 C       -0.0440     8.8860     0.7470 C.3   1 <1>   0.2000 
 17 C        2.1590     8.4650    -0.4900 C.3   1 <1>  -0.1600 
 18 O       -0.9340     9.4590    -0.1810 O.3   1 <1>  -0.5600 
 19 C        1.3960     9.3930     0.4570 C.3   1 <1>   0.2000 
 20 C       -2.2610     9.5340     0.2390 C.3   1 <1>   0.0400 
 21 O        1.3300    10.6390    -0.1310 O.3   1 <1>  -0.6800 
 22 H       -3.7540     1.4170    -1.4330 H     1 <1>   0.1500 
 23 H       -1.2660     3.3260     2.3740 H     1 <1>   0.1500 
 24 H        0.7940     2.2840    -0.5460 H     1 <1>   0.0800 
 25 H        0.8450     2.5140     1.1670 H     1 <1>   0.0800 
 26 H       -4.9400     1.9730     0.6740 H     1 <1>   0.1500 
 27 H       -3.6810     2.9240     2.5630 H     1 <1>   0.1500 
 28 H        0.7210     4.0540    -2.0560 H     1 <1>   0.0800 
 29 H        0.7000     5.7190    -1.5580 H     1 <1>   0.0800 
 30 H       -0.7680     4.7740    -1.4850 H     1 <1>   0.0800 
 31 H        1.3680     6.9490     2.0040 H     1 <1>   0.0800 
 32 H       -0.9530     7.0210     1.3140 H     1 <1>   0.0800 
 33 H       -0.4710     7.1010    -0.3540 H     1 <1>   0.0800 
 34 H        3.2160     7.0810     0.7670 H     1 <1>   0.0800 
 35 H        2.5430     6.3610    -0.6450 H     1 <1>   0.0800 
 36 H       -0.3130     9.2170     1.7360 H     1 <1>   0.0800 
 37 H        1.6030     8.3730    -1.4070 H     1 <1>   0.0800 
 38 H        3.1230     8.8860    -0.7180 H     1 <1>   0.0800 
 39 H        1.9470     9.4920     1.3760 H     1 <1>   0.0800 
 40 H       -2.8340     9.9990    -0.5440 H     1 <1>   0.0800 
 41 H       -2.3180    10.1330     1.1320 H     1 <1>   0.0800 
 42 H       -2.6400     8.5440     0.4220 H     1 <1>   0.0800 
 43 H        0.4560    10.6700    -0.5860 H     1 <1>   0.4000 
@<TRIPOS>BOND
  1   1   2  1   
  2   2   3  ar  
  3   2   4  ar  
  4   3   5  ar  
  5   3   6  1   
  6   4   7  ar  
  7   4  22  1   
  8   5   8  ar  
  9   5  23  1   
 10   6   9  1   
 11   6  24  1   
 12   6  25  1   
 13   7   8  ar  
 14   7  26  1   
 15   8  27  1   
 16   9  10  am  
 17   9  11  1   
 18  10  12  2   
 19  10  13  1   
 20  11  28  1   
 21  11  29  1   
 22  11  30  1   
 23  13  14  1   
 24  13  15  1   
 25  13  31  1   
 26  14  16  1   
 27  14  32  1   
 28  14  33  1   
 29  15  17  1   
 30  15  34  1   
 31  15  35  1   
 32  16  18  1   
 33  16  19  1   
 34  16  36  1   
 35  17  19  1   
 36  17  37  1   
 37  17  38  1   
 38  18  20  1   
 39  19  21  1   
 40  19  39  1   
 41  20  40  1   
 42  20  41  1   
 43  20  42  1   
 44  21  43  1   
@<TRIPOS>SUBSTRUCTURE
  1 ****   9 GROUP 4 **** **** 0

# MOE 2024.06 (io_trps.svl 2023.06)
