@<TRIPOS>MOLECULE
NONAME
47 49 1 0 0 
SMALL
USER_CHARGES


@<TRIPOS>ATOM
  1 O        0.1410     0.0440     0.0470 O.2   1 <1>  -0.5700 
  2 C        0.0200    -1.0200    -0.5240 C.2   1 <1>   0.5440 
  3 N       -1.0140    -1.1080    -1.3890 N.am  1 <1>  -0.8000 
  4 C        0.9430    -2.1120    -0.3060 C.ar  1 <1>   0.0860 
  5 C        0.5760    -3.4700    -0.4230 C.ar  1 <1>   0.4100 
  6 C        2.2630    -1.8340     0.0180 C.ar  1 <1>  -0.1500 
  7 N        1.4450    -4.4720    -0.3000 N.ar  1 <1>  -0.6200 
  8 N       -0.7360    -3.8710    -0.6460 N.pl3 1 <1>  -0.8380 
  9 C        3.1550    -2.8720     0.1720 C.ar  1 <1>  -0.1430 
 10 C        2.6930    -4.1710    -0.0100 C.ar  1 <1>   0.1670 
 11 C       -1.7220    -3.6670     0.4510 C.3   1 <1>   0.2090 
 12 C       -1.0260    -5.0110    -1.5620 C.3   1 <1>   0.2090 
 13 C        4.6020    -2.5600     0.5310 C.3   1 <1>  -0.0970 
 14 C        3.6250    -5.3610     0.1260 C.3   1 <1>  -0.0970 
 15 C       -1.9170    -4.9660     1.2350 C.3   1 <1>  -0.1600 
 16 C       -1.2740    -6.3020    -0.7720 C.3   1 <1>  -0.1600 
 17 C       -2.3320    -6.1550     0.3460 C.3   1 <1>   0.0000 
 18 C       -3.7520    -5.9360    -0.2280 C.3   1 <1>  -0.1600 
 19 C       -2.3700    -7.4320     1.2090 C.3   1 <1>  -0.1600 
 20 C       -4.3200    -7.2050    -0.8770 C.3   1 <1>   0.1200 
 21 C       -3.0140    -8.6140     0.4740 C.3   1 <1>   0.1200 
 22 O       -4.2880    -8.2500     0.0420 O.3   1 <1>  -0.5600 
 23 H       -1.6780    -0.3410    -1.4670 H     1 <1>   0.3700 
 24 H       -1.3030    -2.0380    -1.7100 H     1 <1>   0.3700 
 25 H        2.5730    -0.8110     0.1390 H     1 <1>   0.1500 
 26 H       -2.6570    -3.3370     0.0330 H     1 <1>   0.0800 
 27 H       -1.3710    -2.9000     1.1210 H     1 <1>   0.0800 
 28 H       -0.1950    -5.1560    -2.2320 H     1 <1>   0.0800 
 29 H       -1.8870    -4.7710    -2.1590 H     1 <1>   0.0800 
 30 H        4.7230    -1.5170     0.7650 H     1 <1>   0.0800 
 31 H        5.2460    -2.7980    -0.2970 H     1 <1>   0.0800 
 32 H        4.9050    -3.1320     1.3890 H     1 <1>   0.0800 
 33 H        3.1710    -6.2390    -0.2990 H     1 <1>   0.0800 
 34 H        3.8220    -5.5470     1.1650 H     1 <1>   0.0800 
 35 H        4.5490    -5.1800    -0.3890 H     1 <1>   0.0800 
 36 H       -2.6530    -4.8030     2.0020 H     1 <1>   0.0800 
 37 H       -0.9870    -5.1940     1.7270 H     1 <1>   0.0800 
 38 H       -0.3350    -6.5920    -0.3330 H     1 <1>   0.0800 
 39 H       -1.5460    -7.0770    -1.4630 H     1 <1>   0.0800 
 40 H       -3.7630    -5.1410    -0.9480 H     1 <1>   0.0800 
 41 H       -4.4210    -5.6540     0.5670 H     1 <1>   0.0800 
 42 H       -2.9420    -7.2520     2.1020 H     1 <1>   0.0800 
 43 H       -1.3750    -7.7040     1.5160 H     1 <1>   0.0800 
 44 H       -3.7600    -7.4950    -1.7490 H     1 <1>   0.0800 
 45 H       -5.3470    -7.0530    -1.1610 H     1 <1>   0.0800 
 46 H       -3.1230    -9.4540     1.1380 H     1 <1>   0.0800 
 47 H       -2.4340    -8.9200    -0.3790 H     1 <1>   0.0800 
@<TRIPOS>BOND
  1   1   2  2   
  2   2   3  am  
  3   2   4  1   
  4   3  23  1   
  5   3  24  1   
  6   4   5  ar  
  7   4   6  ar  
  8   5   7  ar  
  9   5   8  1   
 10   6   9  ar  
 11   6  25  1   
 12   7  10  ar  
 13   8  11  1   
 14   8  12  1   
 15   9  10  ar  
 16   9  13  1   
 17  10  14  1   
 18  11  15  1   
 19  11  26  1   
 20  11  27  1   
 21  12  16  1   
 22  12  28  1   
 23  12  29  1   
 24  13  30  1   
 25  13  31  1   
 26  13  32  1   
 27  14  33  1   
 28  14  34  1   
 29  14  35  1   
 30  15  17  1   
 31  15  36  1   
 32  15  37  1   
 33  16  17  1   
 34  16  38  1   
 35  16  39  1   
 36  17  18  1   
 37  17  19  1   
 38  18  20  1   
 39  18  40  1   
 40  18  41  1   
 41  19  21  1   
 42  19  42  1   
 43  19  43  1   
 44  20  22  1   
 45  20  44  1   
 46  20  45  1   
 47  21  22  1   
 48  21  46  1   
 49  21  47  1   
@<TRIPOS>SUBSTRUCTURE
  1 ****   8 GROUP 4 **** **** 0

# MOE 2024.06 (io_trps.svl 2023.06)
