@<TRIPOS>MOLECULE
NONAME
51 54 1 0 0 
SMALL
USER_CHARGES


@<TRIPOS>ATOM
  1 O        0.9620     0.6000     0.1390 O.3   1 <1>  -0.2800 
  2 C        1.6150     1.7220    -0.0990 C.2   1 <1>  -0.0400 
  3 C        0.2810     0.2950    -0.9480 C.2   1 <1>  -0.0100 
  4 C        1.3570     2.1580    -1.3530 C.2   1 <1>  -0.1500 
  5 C        2.4830     2.2970     1.0090 C.3   1 <1>   0.2900 
  6 C        0.4820     1.2180    -1.9110 C.2   1 <1>  -0.1500 
  7 N        3.5810     3.1300     0.4690 N.3   1 <1>  -0.8100 
  8 C        4.2410     3.9100     1.5460 C.3   1 <1>   0.1100 
  9 C        4.5820     2.3080    -0.2580 C.3   1 <1>   0.1100 
 10 C        5.4810     4.6910     1.0460 C.3   1 <1>   0.3430 
 11 C        5.7090     3.1700    -0.8780 C.3   1 <1>   0.3430 
 12 N        5.6060     4.6010    -0.4470 N.4   1 <1>  -0.9590 
 13 C        6.6750     5.4710    -0.9990 C.3   1 <1>   0.4860 
 14 C        6.3410     6.9230    -0.6870 C.ar  1 <1>  -0.1430 
 15 C        7.0660     7.6800     0.2430 C.ar  1 <1>  -0.0230 
 16 C        5.2710     7.5000    -1.3560 C.ar  1 <1>  -0.1500 
 17 N        8.1860     7.1540     0.9570 N.pl3 1 <1>   0.5930 
 18 C        6.6770     8.9970     0.4790 C.ar  1 <1>  -0.1500 
 19 C        4.8950     8.8080    -1.1140 C.ar  1 <1>   0.0830 
 20 N        8.1890     5.9310     1.5530 N.2   1 <1>  -0.7070 
 21 C        9.3800     7.7610     1.1540 C.2   1 <1>  -0.3020 
 22 C        5.6050     9.5600    -0.1870 C.ar  1 <1>  -0.1500 
 23 O        3.8310     9.2700    -1.8140 O.3   1 <1>  -0.3620 
 24 C        9.3570     5.8180     2.1070 C.2   1 <1>   0.1390 
 25 C       10.1520     6.9350     1.8890 C.2   1 <1>  -0.1500 
 26 C        3.3810    10.6000    -1.6710 C.3   1 <1>   0.0400 
 27 H       -0.3210    -0.5970    -0.9490 H     1 <1>   0.1500 
 28 H        1.7260     3.0400    -1.8430 H     1 <1>   0.1500 
 29 H        2.8910     1.4890     1.5920 H     1 <1>   0.0800 
 30 H        1.8530     2.8890     1.6510 H     1 <1>   0.0800 
 31 H        0.0700     1.2560    -2.9040 H     1 <1>   0.1500 
 32 H        4.5440     3.2560     2.3470 H     1 <1>   0.0800 
 33 H        3.5340     4.6130     1.9540 H     1 <1>   0.0800 
 34 H        4.1020     1.7550    -1.0470 H     1 <1>   0.0800 
 35 H        5.0190     1.5890     0.4150 H     1 <1>   0.0800 
 36 H        6.3650     4.2880     1.5110 H     1 <1>   0.0800 
 37 H        5.3970     5.7200     1.3530 H     1 <1>   0.0800 
 38 H        5.6410     3.1090    -1.9510 H     1 <1>   0.0800 
 39 H        6.6630     2.7630    -0.5850 H     1 <1>   0.0800 
 40 H        4.6900     4.9250    -0.7860 H     1 <1>   0.4500 
 41 H        6.7270     5.3490    -2.0680 H     1 <1>   0.0800 
 42 H        7.6300     5.1960    -0.5850 H     1 <1>   0.0800 
 43 H        4.7040     6.9480    -2.0850 H     1 <1>   0.1500 
 44 H        7.2140     9.5960     1.1960 H     1 <1>   0.1500 
 45 H        9.6040     8.7360     0.7620 H     1 <1>   0.1500 
 46 H        5.3380    10.5790     0.0260 H     1 <1>   0.1500 
 47 H        9.6760     4.9560     2.6730 H     1 <1>   0.1500 
 48 H       11.1590     7.0780     2.2420 H     1 <1>   0.1500 
 49 H        2.5430    10.7420    -2.3290 H     1 <1>   0.0800 
 50 H        4.1770    11.2700    -1.9460 H     1 <1>   0.0800 
 51 H        3.0760    10.7600    -0.6520 H     1 <1>   0.0800 
@<TRIPOS>BOND
  1   1   2  1   
  2   1   3  1   
  3   2   4  2   
  4   2   5  1   
  5   3   6  2   
  6   3  27  1   
  7   4   6  1   
  8   4  28  1   
  9   5   7  1   
 10   5  29  1   
 11   5  30  1   
 12   6  31  1   
 13   7   8  1   
 14   7   9  1   
 15   8  10  1   
 16   8  32  1   
 17   8  33  1   
 18   9  11  1   
 19   9  34  1   
 20   9  35  1   
 21  10  12  1   
 22  10  36  1   
 23  10  37  1   
 24  11  12  1   
 25  11  38  1   
 26  11  39  1   
 27  12  13  1   
 28  12  40  1   
 29  13  14  1   
 30  13  41  1   
 31  13  42  1   
 32  14  15  ar  
 33  14  16  ar  
 34  15  17  1   
 35  15  18  ar  
 36  16  19  ar  
 37  16  43  1   
 38  17  20  1   
 39  17  21  1   
 40  18  22  ar  
 41  18  44  1   
 42  19  22  ar  
 43  19  23  1   
 44  20  24  2   
 45  21  25  2   
 46  21  45  1   
 47  22  46  1   
 48  23  26  1   
 49  24  25  1   
 50  24  47  1   
 51  25  48  1   
 52  26  49  1   
 53  26  50  1   
 54  26  51  1   
@<TRIPOS>SUBSTRUCTURE
  1 ****  12 GROUP 4 **** **** 0

# MOE 2024.06 (io_trps.svl 2023.06)
