@<TRIPOS>MOLECULE
NONAME
51 54 1 0 0 
SMALL
USER_CHARGES


@<TRIPOS>ATOM
  1 CL      -2.1040     2.7430     4.1560 Cl    1 <1>  -0.1770 
  2 C       -1.1160     3.2020     2.7960 C.ar  1 <1>   0.1770 
  3 C       -1.4830     4.2800     2.0200 C.ar  1 <1>  -0.1500 
  4 C        0.0240     2.4750     2.5120 C.ar  1 <1>  -0.1500 
  5 C       -0.7030     4.6470     0.9340 C.ar  1 <1>   0.0830 
  6 C        0.8100     2.8500     1.4380 C.ar  1 <1>  -0.1500 
  7 O       -1.1570     5.7020     0.2190 O.3   1 <1>  -0.3630 
  8 C        0.4800     3.9470     0.6370 C.ar  1 <1>   0.0860 
  9 C       -1.1950     5.6520    -1.1930 C.3   1 <1>   0.0400 
 10 C        1.3850     4.3180    -0.4270 C.2   1 <1>   0.5440 
 11 O        1.3160     3.7250    -1.4870 O.2   1 <1>  -0.5700 
 12 N        2.3260     5.3180    -0.2680 N.am  1 <1>  -0.6600 
 13 C        3.2740     5.6840    -1.3690 C.3   1 <1>   0.1400 
 14 C        2.4590     6.1130     0.9840 C.3   1 <1>   0.1400 
 15 C        3.0910     7.1360    -1.8280 C.3   1 <1>   0.1400 
 16 C        1.8080     7.4880     0.8020 C.3   1 <1>  -0.1600 
 17 N        3.6570     8.0980    -0.8320 N.am  1 <1>  -0.6600 
 18 C        2.7630     8.5640     0.2680 C.3   1 <1>   0.1400 
 19 C        4.9710     8.5300    -0.9540 C.2   1 <1>   0.7160 
 20 O        5.7130     7.8560    -1.6560 O.2   1 <1>  -0.5700 
 21 C        5.5130     9.7200    -0.2940 C.2   1 <1>   0.2030 
 22 N        4.8490    10.7320     0.2480 N.2   1 <1>  -0.7070 
 23 C        6.8920     9.9450    -0.1680 C.2   1 <1>  -0.1500 
 24 N        5.7880    11.5740     0.7050 N.pl3 1 <1>   0.3000 
 25 C        7.0320    11.1220     0.4700 C.2   1 <1>  -0.2370 
 26 C        8.2830    11.8700     0.8800 C.3   1 <1>  -0.0150 
 27 C        9.5180    11.1170     1.2520 C.3   1 <1>  -0.2000 
 28 C        8.7260    11.8340     2.3060 C.3   1 <1>  -0.2000 
 29 H       -2.3760     4.8300     2.2520 H     1 <1>   0.1500 
 30 H        0.2870     1.6310     3.1250 H     1 <1>   0.1500 
 31 H        1.7020     2.2920     1.2080 H     1 <1>   0.1500 
 32 H       -1.9800     6.3030    -1.5310 H     1 <1>   0.0800 
 33 H       -1.3930     4.6420    -1.5100 H     1 <1>   0.0800 
 34 H       -0.2530     5.9910    -1.5840 H     1 <1>   0.0800 
 35 H        3.1190     5.0420    -2.2180 H     1 <1>   0.0800 
 36 H        4.2870     5.5360    -1.0390 H     1 <1>   0.0800 
 37 H        3.5000     6.2190     1.2400 H     1 <1>   0.0800 
 38 H        1.9790     5.6010     1.7990 H     1 <1>   0.0800 
 39 H        2.0500     7.3410    -2.0020 H     1 <1>   0.0800 
 40 H        3.6030     7.2620    -2.7670 H     1 <1>   0.0800 
 41 H        1.4550     7.8240     1.7600 H     1 <1>   0.0800 
 42 H        0.9450     7.4110     0.1670 H     1 <1>   0.0800 
 43 H        3.3720     8.8860     1.0940 H     1 <1>   0.0800 
 44 H        2.2000     9.4160    -0.0730 H     1 <1>   0.0800 
 45 H        7.6580     9.2810    -0.5280 H     1 <1>   0.1500 
 46 H        5.5610    12.4570     1.1780 H     1 <1>   0.2700 
 47 H        8.4190    12.7890     0.3340 H     1 <1>   0.1000 
 48 H       10.4720    11.5150     0.9550 H     1 <1>   0.1000 
 49 H        9.4970    10.0410     1.2360 H     1 <1>   0.1000 
 50 H        8.1670    11.2440     3.0110 H     1 <1>   0.1000 
 51 H        9.1390    12.7250     2.7450 H     1 <1>   0.1000 
@<TRIPOS>BOND
  1   1   2  1   
  2   2   3  ar  
  3   2   4  ar  
  4   3   5  ar  
  5   3  29  1   
  6   4   6  ar  
  7   4  30  1   
  8   5   7  1   
  9   5   8  ar  
 10   6   8  ar  
 11   6  31  1   
 12   7   9  1   
 13   8  10  1   
 14   9  32  1   
 15   9  33  1   
 16   9  34  1   
 17  10  11  2   
 18  10  12  am  
 19  12  13  1   
 20  12  14  1   
 21  13  15  1   
 22  13  35  1   
 23  13  36  1   
 24  14  16  1   
 25  14  37  1   
 26  14  38  1   
 27  15  17  1   
 28  15  39  1   
 29  15  40  1   
 30  16  18  1   
 31  16  41  1   
 32  16  42  1   
 33  17  18  1   
 34  17  19  am  
 35  18  43  1   
 36  18  44  1   
 37  19  20  2   
 38  19  21  1   
 39  21  22  2   
 40  21  23  1   
 41  22  24  1   
 42  23  25  2   
 43  23  45  1   
 44  24  25  1   
 45  24  46  1   
 46  25  26  1   
 47  26  27  1   
 48  26  28  1   
 49  26  47  1   
 50  27  28  1   
 51  27  48  1   
 52  27  49  1   
 53  28  50  1   
 54  28  51  1   
@<TRIPOS>SUBSTRUCTURE
  1 ****  14 GROUP 4 **** **** 0

# MOE 2024.06 (io_trps.svl 2023.06)
