@<TRIPOS>MOLECULE
NONAME
43 45 1 0 0 
SMALL
USER_CHARGES


@<TRIPOS>ATOM
  1 CL      -2.8040     1.0710    -1.8230 Cl    1 <1>  -0.1770 
  2 C       -3.9280     1.1810    -0.4890 C.ar  1 <1>   0.1770 
  3 C       -4.5980     2.3630    -0.2230 C.ar  1 <1>   0.1770 
  4 C       -4.1420     0.0630     0.2970 C.ar  1 <1>  -0.1500 
  5 CL      -4.3450     3.7810    -1.2130 Cl    1 <1>  -0.1770 
  6 C       -5.4860     2.4380     0.8350 C.ar  1 <1>  -0.1500 
  7 C       -5.0410     0.1260     1.3550 C.ar  1 <1>  -0.1440 
  8 C       -5.7030     1.3180     1.6230 C.ar  1 <1>  -0.1500 
  9 C       -5.3010    -1.1100     2.2150 C.3   1 <1>   0.0450 
 10 C       -5.4980    -2.3940     1.4120 C.2   1 <1>   0.5690 
 11 O       -4.6720    -3.2600     1.5810 O.2   1 <1>  -0.5700 
 12 N       -6.5580    -2.5710     0.5480 N.am  1 <1>  -0.6600 
 13 C       -7.5960    -1.5250     0.2910 C.3   1 <1>   0.2200 
 14 C       -6.6840    -3.8640    -0.1980 C.3   1 <1>   0.0600 
 15 C       -9.0370    -2.0320     0.3230 C.3   1 <1>  -0.1600 
 16 C       -7.4550    -0.8750    -1.0830 C.3   1 <1>  -0.1600 
 17 C       -9.8310    -0.9630    -0.4400 C.3   1 <1>  -0.0800 
 18 C       -8.8230    -0.2360    -1.3490 C.3   1 <1>  -0.0800 
 19 C      -10.4460     0.1110     0.4700 C.3   1 <1>  -0.1600 
 20 C       -8.8840     1.2510    -0.9660 C.3   1 <1>  -0.1600 
 21 C      -10.2290     1.4160    -0.2780 C.3   1 <1>   0.2000 
 22 O      -10.1840     2.4700     0.6080 O.3   1 <1>  -0.6800 
 23 H       -3.6100    -0.8470     0.0740 H     1 <1>   0.1500 
 24 H       -5.9960     3.3640     1.0360 H     1 <1>   0.1500 
 25 H       -6.3920     1.3830     2.4480 H     1 <1>   0.1500 
 26 H       -6.1630    -0.9670     2.8380 H     1 <1>   0.0800 
 27 H       -4.4590    -1.2470     2.8700 H     1 <1>   0.0800 
 28 H       -7.5290    -0.7470     1.0270 H     1 <1>   0.0800 
 29 H       -7.0630    -3.7000    -1.1900 H     1 <1>   0.0800 
 30 H       -7.3520    -4.5210     0.3310 H     1 <1>   0.0800 
 31 H       -5.7270    -4.3480    -0.2850 H     1 <1>   0.0800 
 32 H       -9.1310    -2.9580    -0.2130 H     1 <1>   0.0800 
 33 H       -9.3910    -2.1690     1.3290 H     1 <1>   0.0800 
 34 H       -6.6560    -0.1570    -1.1090 H     1 <1>   0.0800 
 35 H       -7.2730    -1.6220    -1.8340 H     1 <1>   0.0800 
 36 H      -10.6050    -1.4170    -1.0350 H     1 <1>   0.0800 
 37 H       -9.1020    -0.3550    -2.3830 H     1 <1>   0.0800 
 38 H       -9.9280     0.1410     1.4120 H     1 <1>   0.0800 
 39 H      -11.4920    -0.0720     0.6390 H     1 <1>   0.0800 
 40 H       -8.8090     1.8820    -1.8330 H     1 <1>   0.0800 
 41 H       -8.0930     1.4910    -0.2780 H     1 <1>   0.0800 
 42 H      -11.0150     1.5910    -0.9960 H     1 <1>   0.0800 
 43 H       -9.4890     2.3160     1.2720 H     1 <1>   0.4000 
@<TRIPOS>BOND
  1   1   2  1   
  2   2   3  ar  
  3   2   4  ar  
  4   3   5  1   
  5   3   6  ar  
  6   4   7  ar  
  7   4  23  1   
  8   6   8  ar  
  9   6  24  1   
 10   7   8  ar  
 11   7   9  1   
 12   8  25  1   
 13   9  10  1   
 14   9  26  1   
 15   9  27  1   
 16  10  11  2   
 17  10  12  am  
 18  12  13  1   
 19  12  14  1   
 20  13  15  1   
 21  13  16  1   
 22  13  28  1   
 23  14  29  1   
 24  14  30  1   
 25  14  31  1   
 26  15  17  1   
 27  15  32  1   
 28  15  33  1   
 29  16  18  1   
 30  16  34  1   
 31  16  35  1   
 32  17  18  1   
 33  17  19  1   
 34  17  36  1   
 35  18  20  1   
 36  18  37  1   
 37  19  21  1   
 38  19  38  1   
 39  19  39  1   
 40  20  21  1   
 41  20  40  1   
 42  20  41  1   
 43  21  22  1   
 44  21  42  1   
 45  22  43  1   
@<TRIPOS>SUBSTRUCTURE
  1 ****  16 GROUP 4 **** **** 0

# MOE 2024.06 (io_trps.svl 2023.06)
