@<TRIPOS>MOLECULE
NONAME
43 45 1 0 0 
SMALL
USER_CHARGES


@<TRIPOS>ATOM
  1 O        4.1530    -1.6300    -1.7420 O.2   1 <1>  -0.5700 
  2 C        3.2380    -1.3930    -0.9740 C.2   1 <1>   0.7160 
  3 N        3.1690    -0.1110    -0.4940 N.am  1 <1>  -0.6600 
  4 C        2.3790    -2.4380    -0.4740 C.2   1 <1>  -0.0860 
  5 C        3.6240     0.0880     0.9260 C.3   1 <1>   0.2200 
  6 C        3.2770     1.0290    -1.4590 C.3   1 <1>   0.1400 
  7 C        1.1650    -2.3970     0.1480 C.2   1 <1>  -0.0400 
  8 C        2.6840    -3.8150    -0.5350 C.2   1 <1>  -0.1500 
  9 C        3.1120     1.3970     1.5490 C.3   1 <1>   0.1200 
 10 C        5.1710    -0.0040     1.0240 C.3   1 <1>   0.3430 
 11 C        4.3300     2.0940    -1.0960 C.3   1 <1>  -0.0800 
 12 O        0.7630    -3.6010     0.4690 O.3   1 <1>  -0.2800 
 13 C        0.2350    -1.2520     0.4980 C.3   1 <1>  -0.0600 
 14 C        1.6640    -4.4630     0.0580 C.2   1 <1>  -0.0400 
 15 O        3.9840     2.4500     1.2680 O.3   1 <1>  -0.5600 
 16 N        5.8640     0.1870    -0.3020 N.4   1 <1>  -0.9590 
 17 C        3.8430     3.0340     0.0180 C.3   1 <1>   0.1200 
 18 C        5.7650     1.5800    -0.8430 C.3   1 <1>   0.3430 
 19 C        1.4210    -5.9370     0.2960 C.3   1 <1>  -0.0600 
 20 C        7.2770    -0.2810    -0.2530 C.3   1 <1>   0.2630 
 21 H        3.2090    -0.7080     1.5200 H     1 <1>   0.0800 
 22 H        3.5040     0.6430    -2.4400 H     1 <1>   0.0800 
 23 H        2.3110     1.4990    -1.5330 H     1 <1>   0.0800 
 24 H        3.5700    -4.2300    -0.9830 H     1 <1>   0.1500 
 25 H        3.0980     1.2940     2.6210 H     1 <1>   0.0800 
 26 H        2.1150     1.6380     1.2220 H     1 <1>   0.0800 
 27 H        5.4150    -0.9810     1.4070 H     1 <1>   0.0800 
 28 H        5.5300     0.7190     1.7380 H     1 <1>   0.0800 
 29 H        4.4000     2.7290    -1.9610 H     1 <1>   0.0800 
 30 H        0.5860    -0.3220     0.0960 H     1 <1>   0.0800 
 31 H        0.1480    -1.1690     1.5660 H     1 <1>   0.0800 
 32 H       -0.7400    -1.4510     0.0910 H     1 <1>   0.0800 
 33 H        5.3420    -0.4240    -0.9690 H     1 <1>   0.4500 
 34 H        2.8150     3.3250    -0.1220 H     1 <1>   0.0800 
 35 H        4.4420     3.9300     0.0260 H     1 <1>   0.0800 
 36 H        6.2640     2.2610    -0.1730 H     1 <1>   0.0800 
 37 H        6.2920     1.6100    -1.7830 H     1 <1>   0.0800 
 38 H        2.2360    -6.5170    -0.0950 H     1 <1>   0.0800 
 39 H        0.5120    -6.2360    -0.1930 H     1 <1>   0.0800 
 40 H        1.3280    -6.1240     1.3500 H     1 <1>   0.0800 
 41 H        7.8470     0.3190     0.4380 H     1 <1>   0.0800 
 42 H        7.7270    -0.2090    -1.2300 H     1 <1>   0.0800 
 43 H        7.3170    -1.3110     0.0640 H     1 <1>   0.0800 
@<TRIPOS>BOND
  1   1   2  2   
  2   2   3  am  
  3   2   4  1   
  4   3   5  1   
  5   3   6  1   
  6   4   7  2   
  7   4   8  1   
  8   5   9  1   
  9   5  10  1   
 10   5  21  1   
 11   6  11  1   
 12   6  22  1   
 13   6  23  1   
 14   7  12  1   
 15   7  13  1   
 16   8  14  2   
 17   8  24  1   
 18   9  15  1   
 19   9  25  1   
 20   9  26  1   
 21  10  16  1   
 22  10  27  1   
 23  10  28  1   
 24  11  17  1   
 25  11  18  1   
 26  11  29  1   
 27  12  14  1   
 28  13  30  1   
 29  13  31  1   
 30  13  32  1   
 31  14  19  1   
 32  15  17  1   
 33  16  18  1   
 34  16  20  1   
 35  16  33  1   
 36  17  34  1   
 37  17  35  1   
 38  18  36  1   
 39  18  37  1   
 40  19  38  1   
 41  19  39  1   
 42  19  40  1   
 43  20  41  1   
 44  20  42  1   
 45  20  43  1   
@<TRIPOS>SUBSTRUCTURE
  1 ****   3 GROUP 4 **** **** 0

# MOE 2024.06 (io_trps.svl 2023.06)
