@<TRIPOS>MOLECULE
NONAME
49 51 1 0 0 
SMALL
USER_CHARGES


@<TRIPOS>ATOM
  1 O       -1.0920    -0.2670    -0.9130 O.2   1 <1>  -0.5700 
  2 C       -2.1150     0.2580    -0.5590 C.2   1 <1>   0.4230 
  3 C       -3.1320    -0.4560     0.1620 C.ar  1 <1>   0.0860 
  4 C       -2.3150     1.7020    -0.9770 C.3   1 <1>  -0.1790 
  5 C       -3.8850     0.0220     1.2340 C.ar  1 <1>   0.1660 
  6 C       -3.4230    -1.7580    -0.2160 C.ar  1 <1>   0.1600 
  7 N       -4.8340    -0.6840     1.7950 N.ar  1 <1>  -0.6200 
  8 C       -3.6510     1.3870     1.8620 C.3   1 <1>  -0.0960 
  9 N       -4.3610    -2.4890     0.3340 N.ar  1 <1>  -0.6200 
 10 C       -5.0300    -1.9020     1.3190 C.ar  1 <1>   0.7200 
 11 N       -6.0150    -2.5920     1.9230 N.pl3 1 <1>  -0.8690 
 12 C       -6.2590    -4.0410     1.7900 C.3   1 <1>   0.2090 
 13 C       -7.1580    -4.3090     0.5690 C.3   1 <1>  -0.0800 
 14 C       -7.1780    -5.7930     0.1120 C.3   1 <1>   0.4230 
 15 C       -8.5790    -3.7340     0.7510 C.3   1 <1>  -0.1600 
 16 N       -8.4690    -6.1320    -0.5700 N.4   1 <1>  -0.9590 
 17 C       -6.9770    -6.8400     1.2230 C.3   1 <1>  -0.1600 
 18 C       -9.3870    -3.8610    -0.5560 C.3   1 <1>  -0.1600 
 19 C       -8.9520    -5.0340    -1.4440 C.3   1 <1>   0.3430 
 20 C       -8.3960    -7.4400    -1.2700 C.3   1 <1>   0.3430 
 21 C       -6.9610    -8.2690     0.6560 C.3   1 <1>  -0.1600 
 22 C       -8.1900    -8.5370    -0.2250 C.3   1 <1>  -0.1600 
 23 H       -3.3570     1.9610    -0.9810 H     1 <1>   0.0800 
 24 H       -1.9290     1.8390    -1.9710 H     1 <1>   0.0800 
 25 H       -1.7780     2.3530    -0.3130 H     1 <1>   0.0800 
 26 H       -2.8480    -2.1980    -1.0150 H     1 <1>   0.1500 
 27 H       -2.6060     1.6360     1.8630 H     1 <1>   0.0800 
 28 H       -3.9850     1.3820     2.8850 H     1 <1>   0.0800 
 29 H       -4.2050     2.1380     1.3320 H     1 <1>   0.0800 
 30 H       -6.4250    -2.1090     2.7230 H     1 <1>   0.4000 
 31 H       -5.3090    -4.5340     1.6670 H     1 <1>   0.0800 
 32 H       -6.7180    -4.4090     2.6930 H     1 <1>   0.0800 
 33 H       -6.7030    -3.7710    -0.2450 H     1 <1>   0.0800 
 34 H       -6.3710    -5.9150    -0.5930 H     1 <1>   0.0800 
 35 H       -9.0790    -4.2650     1.5440 H     1 <1>   0.0800 
 36 H       -8.5350    -2.6960     1.0360 H     1 <1>   0.0800 
 37 H       -9.1620    -6.2280     0.1810 H     1 <1>   0.4500 
 38 H       -6.0350    -6.6820     1.7180 H     1 <1>   0.0800 
 39 H       -7.7540    -6.7430     1.9620 H     1 <1>   0.0800 
 40 H       -9.2750    -2.9570    -1.1310 H     1 <1>   0.0800 
 41 H      -10.4330    -3.9530    -0.3220 H     1 <1>   0.0800 
 42 H       -8.1550    -4.7200    -2.0990 H     1 <1>   0.0800 
 43 H       -9.7840    -5.3610    -2.0470 H     1 <1>   0.0800 
 44 H       -9.3100    -7.6260    -1.8120 H     1 <1>   0.0800 
 45 H       -7.5750    -7.4380    -1.9700 H     1 <1>   0.0800 
 46 H       -6.0690    -8.4060     0.0670 H     1 <1>   0.0800 
 47 H       -6.9280    -8.9830     1.4630 H     1 <1>   0.0800 
 48 H       -9.0700    -8.6120     0.3900 H     1 <1>   0.0800 
 49 H       -8.0700    -9.4830    -0.7260 H     1 <1>   0.0800 
@<TRIPOS>BOND
  1   1   2  2   
  2   2   3  1   
  3   2   4  1   
  4   3   5  ar  
  5   3   6  ar  
  6   4  23  1   
  7   4  24  1   
  8   4  25  1   
  9   5   7  ar  
 10   5   8  1   
 11   6   9  ar  
 12   6  26  1   
 13   7  10  ar  
 14   8  27  1   
 15   8  28  1   
 16   8  29  1   
 17   9  10  ar  
 18  10  11  1   
 19  11  12  1   
 20  11  30  1   
 21  12  13  1   
 22  12  31  1   
 23  12  32  1   
 24  13  14  1   
 25  13  15  1   
 26  13  33  1   
 27  14  16  1   
 28  14  17  1   
 29  14  34  1   
 30  15  18  1   
 31  15  35  1   
 32  15  36  1   
 33  16  19  1   
 34  16  20  1   
 35  16  37  1   
 36  17  21  1   
 37  17  38  1   
 38  17  39  1   
 39  18  19  1   
 40  18  40  1   
 41  18  41  1   
 42  19  42  1   
 43  19  43  1   
 44  20  22  1   
 45  20  44  1   
 46  20  45  1   
 47  21  22  1   
 48  21  46  1   
 49  21  47  1   
 50  22  48  1   
 51  22  49  1   
@<TRIPOS>SUBSTRUCTURE
  1 ****   9 GROUP 4 **** **** 0

# MOE 2024.06 (io_trps.svl 2023.06)
