@<TRIPOS>MOLECULE
NONAME
55 57 1 0 0 
SMALL
USER_CHARGES


@<TRIPOS>ATOM
  1 O       -0.3490     0.8100     1.0200 O.2   1 <1>  -0.5700 
  2 C       -0.3030     1.9390     0.6030 C.2   1 <1>   0.5690 
  3 N       -1.1560     2.8790     1.0690 N.am  1 <1>  -0.7300 
  4 C        0.7090     2.3170    -0.4840 C.3   1 <1>   0.1810 
  5 C       -1.1410     4.2900     0.6170 C.3   1 <1>   0.3640 
  6 O        0.9150     3.7110    -0.5850 O.3   1 <1>  -0.5600 
  7 C       -2.5710     4.7740     0.4050 C.ar  1 <1>  -0.1440 
  8 C       -0.2850     4.4690    -0.6600 C.3   1 <1>   0.2610 
  9 C       -2.9260     6.0400     0.8450 C.ar  1 <1>  -0.1500 
 10 C       -3.5260     3.9930    -0.2330 C.ar  1 <1>  -0.1500 
 11 C       -0.0430     5.9640    -0.9180 C.2   1 <1>   0.5690 
 12 C       -4.2050     6.5270     0.6480 C.ar  1 <1>   0.0830 
 13 C       -4.8140     4.4660    -0.4210 C.ar  1 <1>  -0.1500 
 14 O       -0.6820     6.4480    -1.8250 O.2   1 <1>  -0.5700 
 15 N        0.8120     6.7380    -0.1530 N.am  1 <1>  -0.6600 
 16 O       -4.4630     7.7800     1.0920 O.3   1 <1>  -0.3620 
 17 C       -5.1730     5.7370     0.0200 C.ar  1 <1>   0.0830 
 18 C        0.8870     8.2160    -0.3890 C.3   1 <1>   0.2200 
 19 C        1.7750     6.1740     0.8460 C.3   1 <1>   0.0600 
 20 C       -4.6550     8.7620     0.0990 C.3   1 <1>   0.0400 
 21 O       -6.4330     6.2390    -0.1290 O.3   1 <1>  -0.3630 
 22 C        2.3290     8.6920    -0.6330 C.3   1 <1>  -0.1600 
 23 C        0.2340     8.9760     0.7740 C.3   1 <1>  -0.1600 
 24 C       -7.4840     5.4550    -0.6450 C.3   1 <1>   0.0400 
 25 C        2.3670    10.2070    -0.8810 C.3   1 <1>  -0.1600 
 26 C        0.2830    10.4930     0.5370 C.3   1 <1>  -0.1600 
 27 C        1.7180    10.9730     0.2810 C.3   1 <1>  -0.1600 
 28 H       -1.8390     2.6210     1.7830 H     1 <1>   0.3700 
 29 H        0.3650     1.9560    -1.4360 H     1 <1>   0.0800 
 30 H        1.6570     1.8610    -0.2630 H     1 <1>   0.0800 
 31 H       -0.7070     4.8780     1.4050 H     1 <1>   0.0800 
 32 H       -0.8420     4.0920    -1.4990 H     1 <1>   0.0800 
 33 H       -2.2130     6.6740     1.3400 H     1 <1>   0.1500 
 34 H       -3.2740     3.0090    -0.5890 H     1 <1>   0.1500 
 35 H       -5.5210     3.8280    -0.9160 H     1 <1>   0.1500 
 36 H        0.3290     8.4630    -1.2770 H     1 <1>   0.0800 
 37 H        1.9320     6.8670     1.6530 H     1 <1>   0.0800 
 38 H        2.7170     5.9820     0.3630 H     1 <1>   0.0800 
 39 H        1.4190     5.2530     1.2680 H     1 <1>   0.0800 
 40 H       -4.7130     9.7210     0.5810 H     1 <1>   0.0800 
 41 H       -5.5710     8.5610    -0.4260 H     1 <1>   0.0800 
 42 H       -3.8200     8.7380    -0.5800 H     1 <1>   0.0800 
 43 H        2.9470     8.4760     0.2180 H     1 <1>   0.0800 
 44 H        2.7290     8.1800    -1.4910 H     1 <1>   0.0800 
 45 H       -0.7930     8.6680     0.8650 H     1 <1>   0.0800 
 46 H        0.7420     8.7540     1.6940 H     1 <1>   0.0800 
 47 H       -8.3830     6.0440    -0.6210 H     1 <1>   0.0800 
 48 H       -7.6030     4.5820    -0.0280 H     1 <1>   0.0800 
 49 H       -7.2520     5.1840    -1.6600 H     1 <1>   0.0800 
 50 H        3.3880    10.5280    -1.0000 H     1 <1>   0.0800 
 51 H        1.8420    10.4320    -1.7940 H     1 <1>   0.0800 
 52 H       -0.3300    10.7380    -0.3150 H     1 <1>   0.0800 
 53 H       -0.1240    11.0050     1.3920 H     1 <1>   0.0800 
 54 H        1.7110    12.0260     0.0570 H     1 <1>   0.0800 
 55 H        2.3050    10.8310     1.1720 H     1 <1>   0.0800 
@<TRIPOS>BOND
  1   1   2  2   
  2   2   3  am  
  3   2   4  1   
  4   3   5  1   
  5   3  28  1   
  6   4   6  1   
  7   4  29  1   
  8   4  30  1   
  9   5   7  1   
 10   5   8  1   
 11   5  31  1   
 12   6   8  1   
 13   7   9  ar  
 14   7  10  ar  
 15   8  11  1   
 16   8  32  1   
 17   9  12  ar  
 18   9  33  1   
 19  10  13  ar  
 20  10  34  1   
 21  11  14  2   
 22  11  15  am  
 23  12  16  1   
 24  12  17  ar  
 25  13  17  ar  
 26  13  35  1   
 27  15  18  1   
 28  15  19  1   
 29  16  20  1   
 30  17  21  1   
 31  18  22  1   
 32  18  23  1   
 33  18  36  1   
 34  19  37  1   
 35  19  38  1   
 36  19  39  1   
 37  20  40  1   
 38  20  41  1   
 39  20  42  1   
 40  21  24  1   
 41  22  25  1   
 42  22  43  1   
 43  22  44  1   
 44  23  26  1   
 45  23  45  1   
 46  23  46  1   
 47  24  47  1   
 48  24  48  1   
 49  24  49  1   
 50  25  27  1   
 51  25  50  1   
 52  25  51  1   
 53  26  27  1   
 54  26  52  1   
 55  26  53  1   
 56  27  54  1   
 57  27  55  1   
@<TRIPOS>SUBSTRUCTURE
  1 ****  11 GROUP 4 **** **** 0

# MOE 2024.06 (io_trps.svl 2023.06)
