@<TRIPOS>MOLECULE
NONAME
54 56 1 0 0 
SMALL
USER_CHARGES


@<TRIPOS>ATOM
  1 O        1.2170    -2.1010    -0.8110 O.3   1 <1>  -0.5600 
  2 C        0.2100    -2.0420     0.1720 C.3   1 <1>   0.2800 
  3 C        1.5710    -0.9050    -1.4520 C.3   1 <1>   0.1200 
  4 C       -1.0630    -1.3980    -0.4180 C.3   1 <1>  -0.1600 
  5 C        0.7590    -1.3480     1.4380 C.3   1 <1>  -0.1600 
  6 C       -0.0860    -3.5080     0.5490 C.3   1 <1>  -0.1600 
  7 C        0.3580    -0.3310    -2.1850 C.3   1 <1>  -0.1600 
  8 C       -0.8140    -0.1220    -1.2280 C.3   1 <1>   0.2800 
  9 C        2.0290    -2.0090     1.9880 C.3   1 <1>   0.3430 
 10 C        0.9960    -4.1760     1.4090 C.3   1 <1>   0.3430 
 11 O       -0.4870     0.8880    -0.3580 O.3   1 <1>  -0.6800 
 12 C       -2.0730     0.3360    -1.9620 C.3   1 <1>  -0.2400 
 13 N        2.2270    -3.3560     1.3780 N.4   1 <1>  -0.9590 
 14 C        3.4520    -4.0490     1.8420 C.3   1 <1>   0.4860 
 15 C        4.6480    -3.2010     1.4540 C.ar  1 <1>  -0.1440 
 16 C        5.3720    -2.5270     2.4270 C.ar  1 <1>  -0.1500 
 17 C        5.0160    -3.0790     0.1210 C.ar  1 <1>  -0.1500 
 18 C        6.4440    -1.7310     2.0650 C.ar  1 <1>  -0.1500 
 19 C        6.0890    -2.2840    -0.2400 C.ar  1 <1>  -0.1500 
 20 C        6.8080    -1.6000     0.7360 C.ar  1 <1>   0.0820 
 21 O        7.8650    -0.7940     0.4700 O.3   1 <1>  -0.3620 
 22 C        8.3280    -0.6000    -0.8490 C.3   1 <1>   0.1200 
 23 C        9.4850     0.3960    -0.8130 C.3   1 <1>   0.1200 
 24 O        9.9930     0.5510    -2.0960 O.3   1 <1>  -0.6800 
 25 H        2.3540    -1.1290    -2.1550 H     1 <1>   0.0800 
 26 H        1.9510    -0.2070    -0.7260 H     1 <1>   0.0800 
 27 H       -1.7760    -1.1970     0.3610 H     1 <1>   0.0800 
 28 H       -1.5180    -2.1150    -1.0780 H     1 <1>   0.0800 
 29 H        0.0030    -1.3770     2.2010 H     1 <1>   0.0800 
 30 H        0.9610    -0.3090     1.2680 H     1 <1>   0.0800 
 31 H       -0.2310    -4.0820    -0.3500 H     1 <1>   0.0800 
 32 H       -1.0110    -3.5570     1.0970 H     1 <1>   0.0800 
 33 H        0.0730    -1.0220    -2.9580 H     1 <1>   0.0800 
 34 H        0.6210     0.5960    -2.6620 H     1 <1>   0.0800 
 35 H        1.9640    -2.0870     3.0610 H     1 <1>   0.0800 
 36 H        2.8760    -1.3860     1.7460 H     1 <1>   0.0800 
 37 H        1.1940    -5.1650     1.0270 H     1 <1>   0.0800 
 38 H        0.6490    -4.2660     2.4260 H     1 <1>   0.0800 
 39 H       -0.5190     1.7430    -0.8280 H     1 <1>   0.4000 
 40 H       -2.3930    -0.4230    -2.6540 H     1 <1>   0.0800 
 41 H       -1.8860     1.2360    -2.5190 H     1 <1>   0.0800 
 42 H       -2.8730     0.5090    -1.2640 H     1 <1>   0.0800 
 43 H        2.3600    -3.1310     0.3720 H     1 <1>   0.4500 
 44 H        3.5340    -5.0150     1.3700 H     1 <1>   0.0800 
 45 H        3.4230    -4.1880     2.9100 H     1 <1>   0.0800 
 46 H        5.1160    -2.6100     3.4700 H     1 <1>   0.1500 
 47 H        4.4750    -3.6000    -0.6510 H     1 <1>   0.1500 
 48 H        7.0100    -1.2030     2.8130 H     1 <1>   0.1500 
 49 H        6.3500    -2.2090    -1.2790 H     1 <1>   0.1500 
 50 H        7.5200    -0.2040    -1.4380 H     1 <1>   0.0800 
 51 H        8.6560    -1.5500    -1.2320 H     1 <1>   0.0800 
 52 H       10.2780     0.0490    -0.1730 H     1 <1>   0.0800 
 53 H        9.1370     1.3580    -0.4780 H     1 <1>   0.0800 
 54 H       10.5200    -0.2280    -2.3610 H     1 <1>   0.4000 
@<TRIPOS>BOND
  1   1   2  1   
  2   1   3  1   
  3   2   4  1   
  4   2   5  1   
  5   2   6  1   
  6   3   7  1   
  7   3  25  1   
  8   3  26  1   
  9   4   8  1   
 10   4  27  1   
 11   4  28  1   
 12   5   9  1   
 13   5  29  1   
 14   5  30  1   
 15   6  10  1   
 16   6  31  1   
 17   6  32  1   
 18   7   8  1   
 19   7  33  1   
 20   7  34  1   
 21   8  11  1   
 22   8  12  1   
 23   9  13  1   
 24   9  35  1   
 25   9  36  1   
 26  10  13  1   
 27  10  37  1   
 28  10  38  1   
 29  11  39  1   
 30  12  40  1   
 31  12  41  1   
 32  12  42  1   
 33  13  14  1   
 34  13  43  1   
 35  14  15  1   
 36  14  44  1   
 37  14  45  1   
 38  15  16  ar  
 39  15  17  ar  
 40  16  18  ar  
 41  16  46  1   
 42  17  19  ar  
 43  17  47  1   
 44  18  20  ar  
 45  18  48  1   
 46  19  20  ar  
 47  19  49  1   
 48  20  21  1   
 49  21  22  1   
 50  22  23  1   
 51  22  50  1   
 52  22  51  1   
 53  23  24  1   
 54  23  52  1   
 55  23  53  1   
 56  24  54  1   
@<TRIPOS>SUBSTRUCTURE
  1 ****   9 GROUP 4 **** **** 0

# MOE 2024.06 (io_trps.svl 2023.06)
