@<TRIPOS>MOLECULE
NONAME
42 44 1 0 0 
SMALL
USER_CHARGES


@<TRIPOS>ATOM
  1 CL      -1.7130     0.0760     1.1270 Cl    1 <1>  -0.1770 
  2 C       -2.2430    -1.4940     0.5810 C.ar  1 <1>   0.1770 
  3 C       -3.3860    -1.5950    -0.1890 C.ar  1 <1>  -0.1500 
  4 C       -1.5120    -2.6150     0.9250 C.ar  1 <1>  -0.1500 
  5 C       -3.8030    -2.8430    -0.6190 C.ar  1 <1>  -0.1500 
  6 C       -1.9350    -3.8600     0.4920 C.ar  1 <1>  -0.1500 
  7 C       -3.0890    -3.9930    -0.2820 C.ar  1 <1>  -0.0230 
  8 N       -3.5360    -5.2760    -0.7220 N.pl3 1 <1>   0.5930 
  9 N       -4.2370    -5.4720    -1.8690 N.2   1 <1>  -0.7070 
 10 C       -3.3700    -6.4620    -0.0840 C.2   1 <1>  -0.3020 
 11 C       -4.4720    -6.7450    -1.9250 C.2   1 <1>   0.1390 
 12 C       -3.9540    -7.4240    -0.8300 C.2   1 <1>  -0.1810 
 13 C       -4.0680    -8.9150    -0.5800 C.3   1 <1>   0.2910 
 14 N       -5.4830    -9.3180    -0.5770 N.3   1 <1>  -0.8100 
 15 C       -5.6010   -10.7990    -0.4740 C.3   1 <1>   0.1100 
 16 C       -6.2180    -8.7060     0.5650 C.3   1 <1>   0.1100 
 17 C       -7.0660   -11.2860    -0.3090 C.3   1 <1>   0.3170 
 18 C       -7.7120    -9.1100     0.6010 C.3   1 <1>   0.3430 
 19 N       -8.0380   -10.1120    -0.4670 N.4   1 <1>  -0.9590 
 20 C       -7.2280   -12.0690     1.0110 C.2   1 <1>   0.9060 
 21 C       -9.4440   -10.5990    -0.3800 C.3   1 <1>   0.2630 
 22 O       -6.8170   -11.5670     2.0660 O.co2 1 <1>  -0.9000 
 23 O       -7.8740   -13.1180     0.9770 O.co2 1 <1>  -0.9000 
 24 H       -3.9370    -0.7090    -0.4490 H     1 <1>   0.1500 
 25 H       -0.6240    -2.5080     1.5220 H     1 <1>   0.1500 
 26 H       -4.6910    -2.9270    -1.2250 H     1 <1>   0.1500 
 27 H       -1.3570    -4.7290     0.7550 H     1 <1>   0.1500 
 28 H       -2.8570    -6.5450     0.8540 H     1 <1>   0.1500 
 29 H       -5.0130    -7.2190    -2.7270 H     1 <1>   0.1500 
 30 H       -3.6070    -9.1670     0.3610 H     1 <1>   0.0800 
 31 H       -3.5470    -9.4370    -1.3640 H     1 <1>   0.0800 
 32 H       -5.0140   -11.1540     0.3590 H     1 <1>   0.0800 
 33 H       -5.1920   -11.2500    -1.3610 H     1 <1>   0.0800 
 34 H       -6.1580    -7.6320     0.5130 H     1 <1>   0.0800 
 35 H       -5.7650    -9.0120     1.4940 H     1 <1>   0.0800 
 36 H       -7.2620   -12.0030    -1.0840 H     1 <1>   0.0800 
 37 H       -8.3200    -8.2300     0.4770 H     1 <1>   0.0800 
 38 H       -7.9300    -9.5270     1.5720 H     1 <1>   0.0800 
 39 H       -7.7980    -9.6710    -1.3630 H     1 <1>   0.4500 
 40 H       -9.6130   -11.0710     0.5760 H     1 <1>   0.0800 
 41 H       -9.6330   -11.3270    -1.1520 H     1 <1>   0.0800 
 42 H      -10.1340    -9.7800    -0.4930 H     1 <1>   0.0800 
@<TRIPOS>BOND
  1   1   2  1   
  2   2   3  ar  
  3   2   4  ar  
  4   3   5  ar  
  5   3  24  1   
  6   4   6  ar  
  7   4  25  1   
  8   5   7  ar  
  9   5  26  1   
 10   6   7  ar  
 11   6  27  1   
 12   7   8  1   
 13   8   9  1   
 14   8  10  1   
 15   9  11  2   
 16  10  12  2   
 17  10  28  1   
 18  11  12  1   
 19  11  29  1   
 20  12  13  1   
 21  13  14  1   
 22  13  30  1   
 23  13  31  1   
 24  14  15  1   
 25  14  16  1   
 26  15  17  1   
 27  15  32  1   
 28  15  33  1   
 29  16  18  1   
 30  16  34  1   
 31  16  35  1   
 32  17  19  1   
 33  17  20  1   
 34  17  36  1   
 35  18  19  1   
 36  18  37  1   
 37  18  38  1   
 38  19  21  1   
 39  19  39  1   
 40  20  22  ar  
 41  20  23  ar  
 42  21  40  1   
 43  21  41  1   
 44  21  42  1   
@<TRIPOS>SUBSTRUCTURE
  1 ****  12 GROUP 4 **** **** 0

# MOE 2024.06 (io_trps.svl 2023.06)
