@<TRIPOS>MOLECULE
NONAME
44 46 1 0 0 
SMALL
USER_CHARGES


@<TRIPOS>ATOM
  1 O       -0.4120    -0.0970     1.4950 O.2   1 <1>  -0.5700 
  2 C       -1.1630     0.6030     0.8330 C.2   1 <1>   0.7160 
  3 N       -2.1400    -0.0480     0.0980 N.am  1 <1>  -0.6600 
  4 C       -0.9930     2.0580     0.8530 C.2   1 <1>   0.2030 
  5 C       -3.1610     0.6030    -0.7590 C.3   1 <1>   0.1400 
  6 C       -2.3420    -1.5160     0.1290 C.3   1 <1>   0.1400 
  7 N       -1.7290     2.9770     0.2430 N.2   1 <1>  -0.7070 
  8 C        0.0350     2.6870     1.5680 C.2   1 <1>  -0.1500 
  9 C       -4.0180    -0.5430    -1.3000 C.3   1 <1>   0.2000 
 10 C       -3.7770    -1.7200    -0.3570 C.3   1 <1>  -0.0800 
 11 N       -1.1850     4.1610     0.5590 N.pl3 1 <1>   0.3140 
 12 C       -0.1150     4.0080     1.3620 C.2   1 <1>  -0.3020 
 13 O       -5.3650    -0.2170    -1.3090 O.3   1 <1>  -0.6800 
 14 C       -4.0280    -3.0800    -1.0290 C.3   1 <1>  -0.0170 
 15 C       -1.7460     5.4440     0.0510 C.3   1 <1>   0.1760 
 16 C       -3.8030    -4.2290    -0.0620 C.ar  1 <1>   0.1670 
 17 C       -0.7170     6.1860    -0.8120 C.3   1 <1>  -0.2400 
 18 C       -2.2290     6.3250     1.2120 C.3   1 <1>  -0.2400 
 19 N       -2.5650    -4.6870     0.0360 N.ar  1 <1>  -0.6200 
 20 C       -4.8730    -4.7400     0.6710 C.ar  1 <1>   0.1600 
 21 C       -2.4690    -5.6770     0.9080 C.ar  1 <1>   0.1600 
 22 N       -4.7790    -5.7300     1.5430 N.ar  1 <1>  -0.6200 
 23 C       -3.5400    -6.1810     1.6360 C.ar  1 <1>   0.1600 
 24 H       -3.7480     1.2790    -0.1620 H     1 <1>   0.0800 
 25 H       -2.6850     1.1380    -1.5610 H     1 <1>   0.0800 
 26 H       -1.6370    -1.9810    -0.5390 H     1 <1>   0.0800 
 27 H       -2.2010    -1.9100     1.1220 H     1 <1>   0.0800 
 28 H        0.7770     2.1740     2.1550 H     1 <1>   0.1500 
 29 H       -3.7170    -0.7780    -2.3070 H     1 <1>   0.0800 
 30 H       -4.4170    -1.6230     0.5030 H     1 <1>   0.0800 
 31 H        0.4660     4.8310     1.7330 H     1 <1>   0.1500 
 32 H       -5.6430     0.0900    -0.4240 H     1 <1>   0.4000 
 33 H       -3.3750    -3.1990    -1.8760 H     1 <1>   0.0800 
 34 H       -5.0400    -3.1120    -1.3950 H     1 <1>   0.0800 
 35 H       -2.5930     5.1960    -0.5650 H     1 <1>   0.0800 
 36 H        0.1400     6.4700    -0.2280 H     1 <1>   0.0800 
 37 H       -1.1570     7.0750    -1.2270 H     1 <1>   0.0800 
 38 H       -0.3980     5.5570    -1.6250 H     1 <1>   0.0800 
 39 H       -1.4070     6.6110     1.8440 H     1 <1>   0.0800 
 40 H       -2.9570     5.7920     1.7980 H     1 <1>   0.0800 
 41 H       -2.6910     7.2170     0.8290 H     1 <1>   0.0800 
 42 H       -5.8480    -4.3100     0.5310 H     1 <1>   0.1500 
 43 H       -1.4960    -6.1120     1.0530 H     1 <1>   0.1500 
 44 H       -3.3620    -6.9900     2.3230 H     1 <1>   0.1500 
@<TRIPOS>BOND
  1   1   2  2   
  2   2   3  am  
  3   2   4  1   
  4   3   5  1   
  5   3   6  1   
  6   4   7  2   
  7   4   8  1   
  8   5   9  1   
  9   5  24  1   
 10   5  25  1   
 11   6  10  1   
 12   6  26  1   
 13   6  27  1   
 14   7  11  1   
 15   8  12  2   
 16   8  28  1   
 17   9  10  1   
 18   9  13  1   
 19   9  29  1   
 20  10  14  1   
 21  10  30  1   
 22  11  12  1   
 23  11  15  1   
 24  12  31  1   
 25  13  32  1   
 26  14  16  1   
 27  14  33  1   
 28  14  34  1   
 29  15  17  1   
 30  15  18  1   
 31  15  35  1   
 32  16  19  ar  
 33  16  20  ar  
 34  17  36  1   
 35  17  37  1   
 36  17  38  1   
 37  18  39  1   
 38  18  40  1   
 39  18  41  1   
 40  19  21  ar  
 41  20  22  ar  
 42  20  42  1   
 43  21  23  ar  
 44  21  43  1   
 45  22  23  ar  
 46  23  44  1   
@<TRIPOS>SUBSTRUCTURE
  1 ****   3 GROUP 4 **** **** 0

# MOE 2024.06 (io_trps.svl 2023.06)
