@<TRIPOS>MOLECULE
NONAME
56 58 1 0 0 
SMALL
USER_CHARGES


@<TRIPOS>ATOM
  1 O       -1.2220     0.2080     0.9480 O.2   1 <1>  -0.5700 
  2 C       -2.1270     0.9530     0.6610 C.2   1 <1>   0.5690 
  3 N       -3.4190     0.6350     1.0260 N.am  1 <1>  -0.6600 
  4 C       -1.7480     2.2240    -0.1120 C.3   1 <1>  -0.0190 
  5 C       -4.6740     1.1960     0.4370 C.3   1 <1>   0.1400 
  6 C       -3.6700    -0.4920     1.9790 C.3   1 <1>   0.1400 
  7 C       -2.2460     3.5240     0.5610 C.3   1 <1>  -0.1600 
  8 C       -2.0810     2.1350    -1.6220 C.3   1 <1>  -0.1600 
  9 C       -5.5130     0.0780    -0.2180 C.3   1 <1>   0.3430 
 10 C       -4.4800    -1.6050     1.2940 C.3   1 <1>   0.3430 
 11 C       -1.7510     4.7980    -0.1550 C.3   1 <1>   0.2000 
 12 C       -2.3360     3.5040    -2.2770 C.3   1 <1>  -0.1600 
 13 N       -5.7730    -1.0810     0.7120 N.4   1 <1>  -0.9590 
 14 O       -2.7620     5.7670    -0.0280 O.3   1 <1>  -0.5600 
 15 C       -1.4410     4.5790    -1.6590 C.3   1 <1>   0.2000 
 16 C       -6.5440    -2.1480    -0.0010 C.3   1 <1>   0.3430 
 17 C       -2.7160     6.5160     1.1460 C.3   1 <1>   0.0400 
 18 O       -1.6590     5.7570    -2.3440 O.3   1 <1>  -0.6800 
 19 C       -7.0820    -3.2160     0.9540 C.3   1 <1>  -0.0170 
 20 C       -7.9350    -4.1830     0.1570 C.ar  1 <1>  -0.1440 
 21 C       -7.3520    -5.2720    -0.4740 C.ar  1 <1>  -0.1500 
 22 C       -9.3030    -3.9810     0.0420 C.ar  1 <1>  -0.1500 
 23 C       -8.1270    -6.1450    -1.2180 C.ar  1 <1>  -0.1500 
 24 C      -10.0770    -4.8540    -0.7020 C.ar  1 <1>  -0.1500 
 25 C       -9.4890    -5.9360    -1.3330 C.ar  1 <1>  -0.1500 
 26 H       -0.6730     2.2800    -0.0540 H     1 <1>   0.0800 
 27 H       -5.2460     1.6750     1.2130 H     1 <1>   0.0800 
 28 H       -4.4570     1.9380    -0.3070 H     1 <1>   0.0800 
 29 H       -2.7440    -0.9070     2.3400 H     1 <1>   0.0800 
 30 H       -4.2050    -0.1220     2.8350 H     1 <1>   0.0800 
 31 H       -1.9040     3.5430     1.5800 H     1 <1>   0.0800 
 32 H       -3.3180     3.5390     0.5750 H     1 <1>   0.0800 
 33 H       -1.2440     1.6670    -2.1150 H     1 <1>   0.0800 
 34 H       -2.9290     1.5000    -1.8020 H     1 <1>   0.0800 
 35 H       -4.9820    -0.2740    -1.0870 H     1 <1>   0.0800 
 36 H       -6.4490     0.4940    -0.5540 H     1 <1>   0.0800 
 37 H       -4.6840    -2.3790     2.0150 H     1 <1>   0.0800 
 38 H       -3.8730    -2.0320     0.5120 H     1 <1>   0.0800 
 39 H       -0.8520     5.1630     0.3140 H     1 <1>   0.0800 
 40 H       -3.3650     3.7870    -2.1330 H     1 <1>   0.0800 
 41 H       -2.1470     3.4370    -3.3350 H     1 <1>   0.0800 
 42 H       -6.3490    -0.7320     1.4900 H     1 <1>   0.4500 
 43 H       -0.4090     4.3050    -1.7940 H     1 <1>   0.0800 
 44 H       -7.3830    -1.7050    -0.5130 H     1 <1>   0.0800 
 45 H       -5.9210    -2.6200    -0.7450 H     1 <1>   0.0800 
 46 H       -3.5420     7.2060     1.1360 H     1 <1>   0.0800 
 47 H       -1.7900     7.0640     1.1820 H     1 <1>   0.0800 
 48 H       -2.8020     5.8620     1.9960 H     1 <1>   0.0800 
 49 H       -2.3530     6.2370    -1.8380 H     1 <1>   0.4000 
 50 H       -6.2790    -3.7600     1.4160 H     1 <1>   0.0800 
 51 H       -7.6830    -2.7630     1.7220 H     1 <1>   0.0800 
 52 H       -6.2950    -5.4580    -0.3950 H     1 <1>   0.1500 
 53 H       -9.7830    -3.1500     0.5280 H     1 <1>   0.1500 
 54 H       -7.6730    -6.9900    -1.7060 H     1 <1>   0.1500 
 55 H      -11.1380    -4.6970    -0.7890 H     1 <1>   0.1500 
 56 H      -10.0920    -6.6150    -1.9110 H     1 <1>   0.1500 
@<TRIPOS>BOND
  1   1   2  2   
  2   2   3  am  
  3   2   4  1   
  4   3   5  1   
  5   3   6  1   
  6   4   7  1   
  7   4   8  1   
  8   4  26  1   
  9   5   9  1   
 10   5  27  1   
 11   5  28  1   
 12   6  10  1   
 13   6  29  1   
 14   6  30  1   
 15   7  11  1   
 16   7  31  1   
 17   7  32  1   
 18   8  12  1   
 19   8  33  1   
 20   8  34  1   
 21   9  13  1   
 22   9  35  1   
 23   9  36  1   
 24  10  13  1   
 25  10  37  1   
 26  10  38  1   
 27  11  14  1   
 28  11  15  1   
 29  11  39  1   
 30  12  15  1   
 31  12  40  1   
 32  12  41  1   
 33  13  16  1   
 34  13  42  1   
 35  14  17  1   
 36  15  18  1   
 37  15  43  1   
 38  16  19  1   
 39  16  44  1   
 40  16  45  1   
 41  17  46  1   
 42  17  47  1   
 43  17  48  1   
 44  18  49  1   
 45  19  20  1   
 46  19  50  1   
 47  19  51  1   
 48  20  21  ar  
 49  20  22  ar  
 50  21  23  ar  
 51  21  52  1   
 52  22  24  ar  
 53  22  53  1   
 54  23  25  ar  
 55  23  54  1   
 56  24  25  ar  
 57  24  55  1   
 58  25  56  1   
@<TRIPOS>SUBSTRUCTURE
  1 ****   9 GROUP 4 **** **** 0

# MOE 2024.06 (io_trps.svl 2023.06)
