@<TRIPOS>MOLECULE
NONAME
46 49 1 0 0 
SMALL
USER_CHARGES


@<TRIPOS>ATOM
  1 S       -0.6320     0.3950    -0.5470 S.3   1 <1>  -0.1930 
  2 C       -1.7070    -0.8960    -0.0900 C.cat 1 <1>   0.8920 
  3 C        0.5950    -0.7990    -1.0320 C.2   1 <1>  -0.0490 
  4 N       -2.9110    -0.9590     0.4390 N.pl3 1 <1>  -0.7000 
  5 N       -1.1810    -2.0810    -0.3150 N.pl3 1 <1>  -0.6290 
  6 C        0.1320    -2.0450    -0.8350 C.2   1 <1>   0.2290 
  7 C       -3.1800    -2.2970     0.5900 C.2   1 <1>   0.1820 
  8 C       -2.1210    -3.0200     0.1110 C.2   1 <1>   0.2770 
  9 C       -4.4710    -2.7640     1.2360 C.3   1 <1>  -0.0720 
 10 C       -1.9380    -4.4580     0.0560 C.2   1 <1>   0.7030 
 11 O       -0.9380    -4.9480     0.5460 O.2   1 <1>  -0.5700 
 12 N       -2.8500    -5.2950    -0.5420 N.am  1 <1>  -0.6600 
 13 C       -3.9170    -4.9290    -1.5090 C.3   1 <1>   0.1400 
 14 C       -3.0500    -6.6900    -0.0790 C.3   1 <1>   0.1400 
 15 C       -5.0470    -5.9190    -1.2370 C.3   1 <1>   0.2000 
 16 C       -4.3050    -7.1940    -0.8060 C.3   1 <1>  -0.0800 
 17 O       -5.7990    -5.4080    -0.1720 O.3   1 <1>  -0.5600 
 18 C       -5.1370    -8.1800     0.0330 C.3   1 <1>   0.0200 
 19 C       -7.1830    -5.4980    -0.3260 C.3   1 <1>   0.0400 
 20 C       -4.4010    -9.4720     0.3480 C.2   1 <1>  -0.0400 
 21 O       -4.9430   -10.3050     1.1950 O.3   1 <1>  -0.0190 
 22 C       -3.2430   -10.0100    -0.0680 C.2   1 <1>  -0.1500 
 23 N       -4.2110   -11.3660     1.3720 N.2   1 <1>  -0.4100 
 24 C       -3.1790   -11.2160     0.6240 C.2   1 <1>   0.1080 
 25 C       -2.0530   -12.2190     0.5170 C.3   1 <1>  -0.0590 
 26 H        1.5320    -0.4230    -1.4070 H     1 <1>   0.1500 
 27 H       -3.4850    -0.1540     0.7030 H     1 <1>   0.4500 
 28 H        0.6500    -2.9750    -1.0240 H     1 <1>   0.1500 
 29 H       -4.4430    -3.8240     1.4200 H     1 <1>   0.0800 
 30 H       -5.3090    -2.5510     0.5970 H     1 <1>   0.0800 
 31 H       -4.6160    -2.2670     2.1790 H     1 <1>   0.0800 
 32 H       -4.2540    -3.9140    -1.4030 H     1 <1>   0.0800 
 33 H       -3.5420    -5.0780    -2.5080 H     1 <1>   0.0800 
 34 H       -2.1870    -7.2910    -0.3100 H     1 <1>   0.0800 
 35 H       -3.2030    -6.6880     0.9880 H     1 <1>   0.0800 
 36 H       -5.6720    -6.0630    -2.1030 H     1 <1>   0.0800 
 37 H       -3.9810    -7.6970    -1.7000 H     1 <1>   0.0800 
 38 H       -6.0380    -8.4320    -0.4950 H     1 <1>   0.0800 
 39 H       -5.4190    -7.7160     0.9630 H     1 <1>   0.0800 
 40 H       -7.6470    -5.1140     0.5660 H     1 <1>   0.0800 
 41 H       -7.4670    -6.5260    -0.4640 H     1 <1>   0.0800 
 42 H       -7.4870    -4.9070    -1.1740 H     1 <1>   0.0800 
 43 H       -2.5100    -9.6450    -0.7620 H     1 <1>   0.1500 
 44 H       -1.9380   -12.5320    -0.5040 H     1 <1>   0.0800 
 45 H       -2.2700   -13.0800     1.1230 H     1 <1>   0.0800 
 46 H       -1.1360   -11.7760     0.8590 H     1 <1>   0.0800 
@<TRIPOS>BOND
  1   1   2  1   
  2   1   3  1   
  3   2   4  ar  
  4   2   5  ar  
  5   3   6  2   
  6   3  26  1   
  7   4   7  1   
  8   4  27  1   
  9   5   6  1   
 10   5   8  1   
 11   6  28  1   
 12   7   8  2   
 13   7   9  1   
 14   8  10  1   
 15   9  29  1   
 16   9  30  1   
 17   9  31  1   
 18  10  11  2   
 19  10  12  am  
 20  12  13  1   
 21  12  14  1   
 22  13  15  1   
 23  13  32  1   
 24  13  33  1   
 25  14  16  1   
 26  14  34  1   
 27  14  35  1   
 28  15  16  1   
 29  15  17  1   
 30  15  36  1   
 31  16  18  1   
 32  16  37  1   
 33  17  19  1   
 34  18  20  1   
 35  18  38  1   
 36  18  39  1   
 37  19  40  1   
 38  19  41  1   
 39  19  42  1   
 40  20  21  1   
 41  20  22  2   
 42  21  23  1   
 43  22  24  1   
 44  22  43  1   
 45  23  24  2   
 46  24  25  1   
 47  25  44  1   
 48  25  45  1   
 49  25  46  1   
@<TRIPOS>SUBSTRUCTURE
  1 ****  12 GROUP 4 **** **** 0

# MOE 2024.06 (io_trps.svl 2023.06)
