@<TRIPOS>MOLECULE
NONAME
49 52 1 0 0 
SMALL
USER_CHARGES


@<TRIPOS>ATOM
  1 O       -2.1440     2.1100    -1.6840 O.co2 1 <1>  -0.9000 
  2 C       -0.9400     2.4110    -1.7000 C.2   1 <1>   0.9060 
  3 O       -0.2350     2.1100    -2.6700 O.co2 1 <1>  -0.9000 
  4 C       -0.3370     3.1620    -0.4980 C.3   1 <1>  -0.1060 
  5 C       -1.2660     4.3170    -0.0210 C.3   1 <1>   0.2000 
  6 C        1.0260     3.7740    -0.9390 C.3   1 <1>   0.1400 
  7 C       -0.1570     2.1830     0.6930 C.3   1 <1>  -0.0650 
  8 O       -2.5980     3.9620    -0.0100 O.3   1 <1>  -0.6800 
  9 C       -1.0910     5.5740    -0.8690 C.3   1 <1>  -0.1600 
 10 N        1.3000     5.0890    -0.2690 N.am  1 <1>  -0.6600 
 11 C        0.7310     0.9600     0.4100 C.3   1 <1>  -0.1950 
 12 C        0.3090     6.1570    -0.6230 C.3   1 <1>   0.1400 
 13 C        2.4160     5.2850     0.5100 C.2   1 <1>   0.5690 
 14 C        1.2220     0.1180     1.5440 C.3   1 <1>  -0.2000 
 15 C        2.1870     0.9520     0.7530 C.3   1 <1>  -0.2000 
 16 O        3.2160     4.4040     0.7240 O.2   1 <1>  -0.5700 
 17 C        2.6920     6.6190     1.1830 C.3   1 <1>   0.1570 
 18 N        2.9330     7.6960     0.2000 N.pl3 1 <1>   0.0480 
 19 C        2.2750     8.9050     0.1310 C.ar  1 <1>  -0.1520 
 20 C        3.8440     7.6610    -0.8200 C.2   1 <1>  -0.3020 
 21 C        2.7840     9.6180    -0.9510 C.ar  1 <1>   0.0000 
 22 C        1.2620     9.4560     0.9250 C.ar  1 <1>  -0.1500 
 23 C        3.7780     8.8080    -1.5340 C.2   1 <1>  -0.1500 
 24 C        2.2800    10.8870    -1.2530 C.ar  1 <1>  -0.1500 
 25 C        0.7730    10.7050     0.6180 C.ar  1 <1>  -0.1500 
 26 C        1.2820    11.4210    -0.4720 C.ar  1 <1>  -0.1500 
 27 H       -1.0220     4.5730     0.9960 H     1 <1>   0.0800 
 28 H        1.0120     3.9700    -1.9970 H     1 <1>   0.0800 
 29 H        1.8280     3.0780    -0.7760 H     1 <1>   0.0800 
 30 H        0.2430     2.7170     1.5360 H     1 <1>   0.0800 
 31 H       -1.1300     1.8180     0.9740 H     1 <1>   0.0800 
 32 H       -2.6940     3.2150    -0.6850 H     1 <1>   0.4000 
 33 H       -1.2040     5.3260    -1.9100 H     1 <1>   0.0800 
 34 H       -1.8330     6.3070    -0.6110 H     1 <1>   0.0800 
 35 H        0.4290     0.4290    -0.4800 H     1 <1>   0.1000 
 36 H        0.2380     6.8620     0.1850 H     1 <1>   0.0800 
 37 H        0.6450     6.6840    -1.5000 H     1 <1>   0.0800 
 38 H        0.9910     0.4150     2.5520 H     1 <1>   0.1000 
 39 H        1.2320    -0.9500     1.4190 H     1 <1>   0.1000 
 40 H        2.8600     0.4760     0.0610 H     1 <1>   0.1000 
 41 H        2.6180     1.8260     1.2100 H     1 <1>   0.1000 
 42 H        3.5660     6.5260     1.8000 H     1 <1>   0.0800 
 43 H        1.8620     6.8740     1.8090 H     1 <1>   0.0800 
 44 H        4.4850     6.8100    -0.9780 H     1 <1>   0.1500 
 45 H        0.8700     8.9120     1.7650 H     1 <1>   0.1500 
 46 H        4.3580     9.0900    -2.3950 H     1 <1>   0.1500 
 47 H        2.6830    11.4240    -2.0910 H     1 <1>   0.1500 
 48 H       -0.0050    11.1470     1.2150 H     1 <1>   0.1500 
 49 H        0.8840    12.3960    -0.6910 H     1 <1>   0.1500 
@<TRIPOS>BOND
  1   1   2  ar  
  2   2   3  ar  
  3   2   4  1   
  4   4   5  1   
  5   4   6  1   
  6   4   7  1   
  7   5   8  1   
  8   5   9  1   
  9   5  27  1   
 10   6  10  1   
 11   6  28  1   
 12   6  29  1   
 13   7  11  1   
 14   7  30  1   
 15   7  31  1   
 16   8  32  1   
 17   9  12  1   
 18   9  33  1   
 19   9  34  1   
 20  10  12  1   
 21  10  13  am  
 22  11  14  1   
 23  11  15  1   
 24  11  35  1   
 25  12  36  1   
 26  12  37  1   
 27  13  16  2   
 28  13  17  1   
 29  14  15  1   
 30  14  38  1   
 31  14  39  1   
 32  15  40  1   
 33  15  41  1   
 34  17  18  1   
 35  17  42  1   
 36  17  43  1   
 37  18  19  1   
 38  18  20  1   
 39  19  21  ar  
 40  19  22  ar  
 41  20  23  2   
 42  20  44  1   
 43  21  23  1   
 44  21  24  ar  
 45  22  25  ar  
 46  22  45  1   
 47  23  46  1   
 48  24  26  ar  
 49  24  47  1   
 50  25  26  ar  
 51  25  48  1   
 52  26  49  1   
@<TRIPOS>SUBSTRUCTURE
  1 ****  10 GROUP 4 **** **** 0

# MOE 2024.06 (io_trps.svl 2023.06)
