@<TRIPOS>MOLECULE
NONAME
57 59 1 0 0 
SMALL
USER_CHARGES


@<TRIPOS>ATOM
  1 O        0.0320     1.3970     2.1830 O.2   1 <1>  -0.5700 
  2 C        0.0790     2.4980     1.6970 C.2   1 <1>   0.5690 
  3 N       -0.9830     3.3280     1.7650 N.am  1 <1>  -0.7300 
  4 C        1.3400     2.9550     0.9570 C.3   1 <1>   0.1810 
  5 C       -0.9980     4.6950     1.1900 C.3   1 <1>   0.3640 
  6 O        1.4000     4.3540     0.7680 O.3   1 <1>  -0.5600 
  7 C       -2.3110     4.8940     0.4350 C.ar  1 <1>  -0.1440 
  8 C        0.2120     4.9370     0.2500 C.3   1 <1>   0.2610 
  9 C       -3.0130     6.0830     0.5800 C.ar  1 <1>  -0.1500 
 10 C       -2.8180     3.9130    -0.4090 C.ar  1 <1>  -0.1500 
 11 C        0.4310     6.4350    -0.0270 C.2   1 <1>   0.5690 
 12 C       -4.1980     6.2880    -0.1040 C.ar  1 <1>  -0.1500 
 13 C       -4.0040     4.1170    -1.0930 C.ar  1 <1>  -0.1500 
 14 O       -0.0040     7.2450     0.7640 O.2   1 <1>  -0.5700 
 15 N        1.1250     6.8560    -1.1440 N.am  1 <1>  -0.6600 
 16 C       -4.6950     5.3050    -0.9400 C.ar  1 <1>  -0.1500 
 17 C        1.2780     8.3090    -1.4370 C.3   1 <1>   0.1400 
 18 C        1.7080     5.9340    -2.1620 C.3   1 <1>   0.0600 
 19 C        2.2830     8.9730    -0.4730 C.3   1 <1>  -0.0800 
 20 C        2.4480    10.4660    -0.7930 C.3   1 <1>  -0.1600 
 21 C        3.6630     8.2930    -0.4670 C.3   1 <1>  -0.1600 
 22 C        3.4300    11.1330     0.1710 C.3   1 <1>   0.3430 
 23 C        4.6210     8.9980     0.4910 C.3   1 <1>   0.3430 
 24 N        4.7520    10.4370     0.1140 N.4   1 <1>  -0.9590 
 25 C        5.7720    11.0940     0.9960 C.3   1 <1>   0.3430 
 26 C        6.1830    12.4910     0.5040 C.3   1 <1>   0.1200 
 27 O        7.1620    12.9650     1.3580 O.3   1 <1>  -0.6800 
 28 H       -1.8250     3.0190     2.2530 H     1 <1>   0.3700 
 29 H        1.3780     2.4810    -0.0070 H     1 <1>   0.0800 
 30 H        2.2070     2.6640     1.5210 H     1 <1>   0.0800 
 31 H       -0.9530     5.3900     2.0110 H     1 <1>   0.0800 
 32 H        0.0010     4.4560    -0.6870 H     1 <1>   0.0800 
 33 H       -2.6370     6.8610     1.2230 H     1 <1>   0.1500 
 34 H       -2.2960     2.9800    -0.5390 H     1 <1>   0.1500 
 35 H       -4.7330     7.2140     0.0160 H     1 <1>   0.1500 
 36 H       -4.3900     3.3510    -1.7420 H     1 <1>   0.1500 
 37 H       -5.6180     5.4650    -1.4710 H     1 <1>   0.1500 
 38 H        1.5970     8.4430    -2.4570 H     1 <1>   0.0800 
 39 H        0.3160     8.7830    -1.3310 H     1 <1>   0.0800 
 40 H        2.6000     6.3640    -2.5830 H     1 <1>   0.0800 
 41 H        0.9950     5.7680    -2.9510 H     1 <1>   0.0800 
 42 H        1.9750     4.9900    -1.7200 H     1 <1>   0.0800 
 43 H        1.8720     8.9040     0.5210 H     1 <1>   0.0800 
 44 H        1.4930    10.9560    -0.7030 H     1 <1>   0.0800 
 45 H        2.7870    10.6000    -1.8050 H     1 <1>   0.0800 
 46 H        4.0810     8.2770    -1.4580 H     1 <1>   0.0800 
 47 H        3.5590     7.2720    -0.1410 H     1 <1>   0.0800 
 48 H        3.0350    11.0830     1.1740 H     1 <1>   0.0800 
 49 H        3.5420    12.1710    -0.0970 H     1 <1>   0.0800 
 50 H        5.5850     8.5150     0.4530 H     1 <1>   0.0800 
 51 H        4.2420     8.9160     1.4970 H     1 <1>   0.0800 
 52 H        5.0880    10.4660    -0.8570 H     1 <1>   0.4500 
 53 H        5.3850    11.1780     1.9980 H     1 <1>   0.0800 
 54 H        6.6600    10.4830     1.0290 H     1 <1>   0.0800 
 55 H        5.3570    13.1800     0.5360 H     1 <1>   0.0800 
 56 H        6.6000    12.4450    -0.4870 H     1 <1>   0.0800 
 57 H        7.4850    13.8520     1.0910 H     1 <1>   0.4000 
@<TRIPOS>BOND
  1   1   2  2   
  2   2   3  am  
  3   2   4  1   
  4   3   5  1   
  5   3  28  1   
  6   4   6  1   
  7   4  29  1   
  8   4  30  1   
  9   5   7  1   
 10   5   8  1   
 11   5  31  1   
 12   6   8  1   
 13   7   9  ar  
 14   7  10  ar  
 15   8  11  1   
 16   8  32  1   
 17   9  12  ar  
 18   9  33  1   
 19  10  13  ar  
 20  10  34  1   
 21  11  14  2   
 22  11  15  am  
 23  12  16  ar  
 24  12  35  1   
 25  13  16  ar  
 26  13  36  1   
 27  15  17  1   
 28  15  18  1   
 29  16  37  1   
 30  17  19  1   
 31  17  38  1   
 32  17  39  1   
 33  18  40  1   
 34  18  41  1   
 35  18  42  1   
 36  19  20  1   
 37  19  21  1   
 38  19  43  1   
 39  20  22  1   
 40  20  44  1   
 41  20  45  1   
 42  21  23  1   
 43  21  46  1   
 44  21  47  1   
 45  22  24  1   
 46  22  48  1   
 47  22  49  1   
 48  23  24  1   
 49  23  50  1   
 50  23  51  1   
 51  24  25  1   
 52  24  52  1   
 53  25  26  1   
 54  25  53  1   
 55  25  54  1   
 56  26  27  1   
 57  26  55  1   
 58  26  56  1   
 59  27  57  1   
@<TRIPOS>SUBSTRUCTURE
  1 ****  11 GROUP 4 **** **** 0

# MOE 2024.06 (io_trps.svl 2023.06)
