@<TRIPOS>MOLECULE
NONAME
53 55 1 0 0 
SMALL
USER_CHARGES


@<TRIPOS>ATOM
  1 F       -1.1180     1.1160     2.1380 F     1 <1>  -0.1900 
  2 C       -0.8130     1.9440     1.1740 C.ar  1 <1>   0.1900 
  3 C       -1.8100     2.3860     0.3170 C.ar  1 <1>  -0.1440 
  4 C        0.5060     2.3350     1.0460 C.ar  1 <1>  -0.1500 
  5 C       -1.4500     3.2540    -0.7050 C.ar  1 <1>  -0.1500 
  6 C       -3.2480     1.9350     0.4850 C.3   1 <1>   0.2840 
  7 C        0.8470     3.2010     0.0220 C.ar  1 <1>  -0.1500 
  8 C       -0.1300     3.6570    -0.8500 C.ar  1 <1>  -0.1500 
  9 N       -3.3620     0.5690    -0.0640 N.am  1 <1>  -0.7300 
 10 C       -4.2800    -0.3360     0.3630 C.2   1 <1>   0.5690 
 11 O       -5.1750    -0.0220     1.1130 O.2   1 <1>  -0.5700 
 12 C       -4.2110    -1.8030    -0.1040 C.3   1 <1>   0.4040 
 13 N       -5.4890    -2.5740     0.1350 N.4   1 <1>  -0.9590 
 14 C       -5.3810    -4.0510    -0.0660 C.3   1 <1>   0.3430 
 15 C       -6.6360    -2.0900    -0.6730 C.3   1 <1>   0.3430 
 16 C       -6.6210    -4.4800    -0.8560 C.3   1 <1>   0.0630 
 17 C       -7.5690    -3.2850    -0.7230 C.3   1 <1>  -0.1600 
 18 C       -7.1380    -5.8500    -0.4040 C.ar  1 <1>  -0.1430 
 19 C       -6.2830    -6.9520    -0.4640 C.ar  1 <1>   0.0830 
 20 C       -8.4380    -6.0380     0.0490 C.ar  1 <1>  -0.1500 
 21 O       -5.0200    -6.7550    -0.9390 O.3   1 <1>  -0.3630 
 22 C       -6.7310    -8.2050    -0.0490 C.ar  1 <1>  -0.1500 
 23 C       -8.8850    -7.2820     0.4600 C.ar  1 <1>   0.0830 
 24 C       -4.1870    -7.8470    -1.2740 C.3   1 <1>   0.0400 
 25 C       -8.0230    -8.3700     0.4120 C.ar  1 <1>  -0.1500 
 26 O      -10.1700    -7.3510     0.8920 O.3   1 <1>  -0.3620 
 27 C      -10.7370    -8.5750     1.3030 C.3   1 <1>   0.0400 
 28 H        1.2470     1.9690     1.7340 H     1 <1>   0.1500 
 29 H       -2.1900     3.6240    -1.3940 H     1 <1>   0.1500 
 30 H       -3.9140     2.5940    -0.0450 H     1 <1>   0.0800 
 31 H       -3.5220     1.9420     1.5280 H     1 <1>   0.0800 
 32 H        1.8680     3.5220    -0.0970 H     1 <1>   0.1500 
 33 H        0.1390     4.3320    -1.6450 H     1 <1>   0.1500 
 34 H       -2.5700     0.3210    -0.6630 H     1 <1>   0.3700 
 35 H       -3.4070    -2.2760     0.4340 H     1 <1>   0.0800 
 36 H       -3.9680    -1.8210    -1.1510 H     1 <1>   0.0800 
 37 H       -5.7490    -2.3920     1.1190 H     1 <1>   0.4500 
 38 H       -5.3660    -4.5560     0.8870 H     1 <1>   0.0800 
 39 H       -4.4920    -4.3160    -0.6150 H     1 <1>   0.0800 
 40 H       -6.3100    -1.8430    -1.6710 H     1 <1>   0.0800 
 41 H       -7.1040    -1.2280    -0.2210 H     1 <1>   0.0800 
 42 H       -6.3320    -4.5670    -1.8900 H     1 <1>   0.0800 
 43 H       -8.2630    -3.2220    -1.5420 H     1 <1>   0.0800 
 44 H       -8.1130    -3.3160     0.2040 H     1 <1>   0.0800 
 45 H       -9.1500    -5.2370     0.0950 H     1 <1>   0.1500 
 46 H       -6.0920    -9.0670    -0.0750 H     1 <1>   0.1500 
 47 H       -3.2930    -7.4620    -1.7300 H     1 <1>   0.0800 
 48 H       -4.7060    -8.4830    -1.9710 H     1 <1>   0.0800 
 49 H       -3.9350    -8.3850    -0.3780 H     1 <1>   0.0800 
 50 H       -8.3400    -9.3470     0.7250 H     1 <1>   0.1500 
 51 H      -11.7570    -8.3920     1.5880 H     1 <1>   0.0800 
 52 H      -10.1840    -8.9510     2.1460 H     1 <1>   0.0800 
 53 H      -10.7060    -9.2680     0.4810 H     1 <1>   0.0800 
@<TRIPOS>BOND
  1   1   2  1   
  2   2   3  ar  
  3   2   4  ar  
  4   3   5  ar  
  5   3   6  1   
  6   4   7  ar  
  7   4  28  1   
  8   5   8  ar  
  9   5  29  1   
 10   6   9  1   
 11   6  30  1   
 12   6  31  1   
 13   7   8  ar  
 14   7  32  1   
 15   8  33  1   
 16   9  10  am  
 17   9  34  1   
 18  10  11  2   
 19  10  12  1   
 20  12  13  1   
 21  12  35  1   
 22  12  36  1   
 23  13  14  1   
 24  13  15  1   
 25  13  37  1   
 26  14  16  1   
 27  14  38  1   
 28  14  39  1   
 29  15  17  1   
 30  15  40  1   
 31  15  41  1   
 32  16  17  1   
 33  16  18  1   
 34  16  42  1   
 35  17  43  1   
 36  17  44  1   
 37  18  19  ar  
 38  18  20  ar  
 39  19  21  1   
 40  19  22  ar  
 41  20  23  ar  
 42  20  45  1   
 43  21  24  1   
 44  22  25  ar  
 45  22  46  1   
 46  23  25  ar  
 47  23  26  1   
 48  24  47  1   
 49  24  48  1   
 50  24  49  1   
 51  25  50  1   
 52  26  27  1   
 53  27  51  1   
 54  27  52  1   
 55  27  53  1   
@<TRIPOS>SUBSTRUCTURE
  1 ****  13 GROUP 4 **** **** 0

# MOE 2024.06 (io_trps.svl 2023.06)
