@<TRIPOS>MOLECULE
NONAME
48 50 1 0 0 
SMALL
USER_CHARGES


@<TRIPOS>ATOM
  1 O       -0.0530     1.8370     2.0620 O.2   1 <1>  -0.5700 
  2 C       -0.0630     2.7870     1.3220 C.2   1 <1>   0.5690 
  3 N       -0.8860     3.8330     1.5490 N.am  1 <1>  -0.7300 
  4 C        0.8310     2.8100     0.0830 C.3   1 <1>   0.1810 
  5 C       -1.0470     4.9780     0.6180 C.3   1 <1>   0.3640 
  6 O        1.0490     4.1200    -0.3910 O.3   1 <1>  -0.5600 
  7 C       -2.5240     5.0550     0.2300 C.ar  1 <1>  -0.1440 
  8 C       -0.1350     4.8750    -0.6390 C.3   1 <1>   0.2610 
  9 C       -3.2280     3.9210    -0.1570 C.ar  1 <1>  -0.1500 
 10 C       -3.1850     6.2750     0.2590 C.ar  1 <1>  -0.1500 
 11 C        0.2390     6.2780    -1.1400 C.2   1 <1>   0.5690 
 12 C       -4.5650     4.0050    -0.5050 C.ar  1 <1>  -0.1500 
 13 C       -4.5220     6.3610    -0.0890 C.ar  1 <1>  -0.1500 
 14 O       -0.6130     7.1250    -1.2720 O.2   1 <1>  -0.5700 
 15 N        1.5430     6.5530    -1.4120 N.am  1 <1>  -0.7300 
 16 C       -5.2130     5.2260    -0.4700 C.ar  1 <1>  -0.1500 
 17 C        2.0780     7.8280    -1.9490 C.3   1 <1>   0.1400 
 18 C        2.6710     8.6990    -0.8290 C.3   1 <1>   0.0000 
 19 C        3.5630     9.8440    -1.3930 C.3   1 <1>   0.0000 
 20 C        3.9470     8.0830    -0.1830 C.3   1 <1>   0.0000 
 21 C        1.5820     9.1590     0.1680 C.3   1 <1>   0.1200 
 22 C        4.6630     9.4470    -0.3720 C.3   1 <1>   0.0000 
 23 O        2.0990    10.0210     1.1350 O.3   1 <1>  -0.5600 
 24 C        1.1510    10.4870     2.0370 C.3   1 <1>   0.0400 
 25 H       -1.5320     3.7840     2.3380 H     1 <1>   0.3700 
 26 H        0.3780     2.2310    -0.7010 H     1 <1>   0.0800 
 27 H        1.7870     2.3840     0.3270 H     1 <1>   0.0800 
 28 H       -0.7820     5.8730     1.1550 H     1 <1>   0.0800 
 29 H       -0.6730     4.3800    -1.4270 H     1 <1>   0.0800 
 30 H       -2.7440     2.9600    -0.1880 H     1 <1>   0.1500 
 31 H       -2.6620     7.1720     0.5430 H     1 <1>   0.1500 
 32 H       -5.1010     3.1200    -0.8010 H     1 <1>   0.1500 
 33 H       -5.0230     7.3130    -0.0660 H     1 <1>   0.1500 
 34 H        2.2250     5.8150    -1.2040 H     1 <1>   0.3700 
 35 H       -6.2530     5.2930    -0.7410 H     1 <1>   0.1500 
 36 H        2.8320     7.6020    -2.6830 H     1 <1>   0.0800 
 37 H        1.2890     8.3700    -2.4440 H     1 <1>   0.0800 
 38 H        3.8830     9.6760    -2.4070 H     1 <1>   0.0000 
 39 H        3.1700    10.8330    -1.2370 H     1 <1>   0.0000 
 40 H        3.8270     7.8000     0.8480 H     1 <1>   0.0000 
 41 H        4.3950     7.3100    -0.7840 H     1 <1>   0.0000 
 42 H        1.1630     8.3050     0.6700 H     1 <1>   0.0800 
 43 H        0.8000     9.6740    -0.3630 H     1 <1>   0.0800 
 44 H        4.6490    10.0530     0.5160 H     1 <1>   0.0000 
 45 H        5.6410     9.3590    -0.8100 H     1 <1>   0.0000 
 46 H        1.6480    11.1390     2.7350 H     1 <1>   0.0800 
 47 H        0.7200     9.6530     2.5630 H     1 <1>   0.0800 
 48 H        0.3930    11.0360     1.5050 H     1 <1>   0.0800 
@<TRIPOS>BOND
  1   1   2  2   
  2   2   3  am  
  3   2   4  1   
  4   3   5  1   
  5   3  25  1   
  6   4   6  1   
  7   4  26  1   
  8   4  27  1   
  9   5   7  1   
 10   5   8  1   
 11   5  28  1   
 12   6   8  1   
 13   7   9  ar  
 14   7  10  ar  
 15   8  11  1   
 16   8  29  1   
 17   9  12  ar  
 18   9  30  1   
 19  10  13  ar  
 20  10  31  1   
 21  11  14  2   
 22  11  15  am  
 23  12  16  ar  
 24  12  32  1   
 25  13  16  ar  
 26  13  33  1   
 27  15  17  1   
 28  15  34  1   
 29  16  35  1   
 30  17  18  1   
 31  17  36  1   
 32  17  37  1   
 33  18  19  1   
 34  18  20  1   
 35  18  21  1   
 36  19  22  1   
 37  19  38  1   
 38  19  39  1   
 39  20  22  1   
 40  20  40  1   
 41  20  41  1   
 42  21  23  1   
 43  21  42  1   
 44  21  43  1   
 45  22  44  1   
 46  22  45  1   
 47  23  24  1   
 48  24  46  1   
 49  24  47  1   
 50  24  48  1   
@<TRIPOS>SUBSTRUCTURE
  1 ****  11 GROUP 4 **** **** 0

# MOE 2024.06 (io_trps.svl 2023.06)
