@<TRIPOS>MOLECULE
NONAME
46 50 1 0 0 
SMALL
USER_CHARGES


@<TRIPOS>ATOM
  1 S       -0.2740    -0.5180     1.8050 S.3   1 <1>  -0.0800 
  2 C       -0.8780     1.0980     2.0840 C.2   1 <1>   0.4620 
  3 C       -1.4980    -0.7580     0.5740 C.2   1 <1>  -0.0450 
  4 N       -1.8700     1.4270     1.3440 N.2   1 <1>  -0.5650 
  5 N       -0.2890     1.8660     3.0230 N.pl3 1 <1>  -0.8840 
  6 C       -1.5800    -2.0120    -0.1190 C.2   1 <1>   0.7150 
  7 C       -2.2000     0.3970     0.5040 C.2   1 <1>   0.0770 
  8 O       -0.5880    -2.7070    -0.2490 O.2   1 <1>  -0.5700 
  9 N       -2.7720    -2.4660    -0.6470 N.am  1 <1>  -0.6600 
 10 C       -4.0890    -2.2410     0.0100 C.3   1 <1>   0.1400 
 11 C       -2.8020    -3.5310    -1.6880 C.3   1 <1>   0.1400 
 12 C       -4.5370    -3.5430     0.6760 C.3   1 <1>  -0.1600 
 13 C       -3.2380    -4.8480    -1.0470 C.3   1 <1>  -0.1600 
 14 C       -4.5810    -4.7050    -0.3250 C.3   1 <1>   0.4600 
 15 O       -5.5390    -4.4160    -1.3210 O.3   1 <1>  -0.5600 
 16 C       -4.9480    -6.0110     0.3680 C.2   1 <1>  -0.3320 
 17 C       -6.8930    -4.6800    -1.0390 C.3   1 <1>   0.1200 
 18 N       -4.1910    -6.6840     1.2870 N.pl3 1 <1>   0.0330 
 19 C       -6.0930    -6.6890     0.1540 C.2   1 <1>  -0.1810 
 20 C       -7.1340    -6.1830    -0.8130 C.3   1 <1>   0.0210 
 21 C       -4.8780    -7.8140     1.6560 C.ar  1 <1>  -0.1520 
 22 C       -6.0820    -7.8480     0.9570 C.ar  1 <1>   0.0000 
 23 C       -4.5450    -8.8300     2.5560 C.ar  1 <1>  -0.1500 
 24 C       -6.9680    -8.9100     1.1550 C.ar  1 <1>  -0.1500 
 25 C       -5.4270    -9.8690     2.7430 C.ar  1 <1>  -0.1500 
 26 C       -6.6390    -9.9100     2.0420 C.ar  1 <1>  -0.1500 
 27 H       -0.6160     2.8190     3.1830 H     1 <1>   0.4000 
 28 H        0.5230     1.5600     3.5600 H     1 <1>   0.4000 
 29 H       -3.0140     0.5590    -0.1820 H     1 <1>   0.1500 
 30 H       -4.8090    -1.9390    -0.7320 H     1 <1>   0.0800 
 31 H       -4.0260    -1.4690     0.7560 H     1 <1>   0.0800 
 32 H       -1.8310    -3.6460    -2.1400 H     1 <1>   0.0800 
 33 H       -3.4970    -3.2500    -2.4620 H     1 <1>   0.0800 
 34 H       -5.4990    -3.4140     1.1340 H     1 <1>   0.0800 
 35 H       -3.8430    -3.7800     1.4620 H     1 <1>   0.0800 
 36 H       -2.4780    -5.1540    -0.3540 H     1 <1>   0.0800 
 37 H       -3.3220    -5.6130    -1.7980 H     1 <1>   0.0800 
 38 H       -7.4760    -4.3340    -1.8740 H     1 <1>   0.0800 
 39 H       -7.1770    -4.1230    -0.1650 H     1 <1>   0.0800 
 40 H       -3.2650    -6.4150     1.6350 H     1 <1>   0.2700 
 41 H       -7.0530    -6.7130    -1.7440 H     1 <1>   0.0800 
 42 H       -8.1190    -6.3360    -0.4120 H     1 <1>   0.0800 
 43 H       -3.6120    -8.7920     3.0900 H     1 <1>   0.1500 
 44 H       -7.8930    -8.9290     0.6100 H     1 <1>   0.1500 
 45 H       -5.1940   -10.6630     3.4300 H     1 <1>   0.1500 
 46 H       -7.3110   -10.7340     2.2050 H     1 <1>   0.1500 
@<TRIPOS>BOND
  1   1   2  1   
  2   1   3  1   
  3   2   4  2   
  4   2   5  1   
  5   3   6  1   
  6   3   7  2   
  7   4   7  1   
  8   5  27  1   
  9   5  28  1   
 10   6   8  2   
 11   6   9  am  
 12   7  29  1   
 13   9  10  1   
 14   9  11  1   
 15  10  12  1   
 16  10  30  1   
 17  10  31  1   
 18  11  13  1   
 19  11  32  1   
 20  11  33  1   
 21  12  14  1   
 22  12  34  1   
 23  12  35  1   
 24  13  14  1   
 25  13  36  1   
 26  13  37  1   
 27  14  15  1   
 28  14  16  1   
 29  15  17  1   
 30  16  18  1   
 31  16  19  2   
 32  17  20  1   
 33  17  38  1   
 34  17  39  1   
 35  18  21  1   
 36  18  40  1   
 37  19  20  1   
 38  19  22  1   
 39  20  41  1   
 40  20  42  1   
 41  21  22  ar  
 42  21  23  ar  
 43  22  24  ar  
 44  23  25  ar  
 45  23  43  1   
 46  24  26  ar  
 47  24  44  1   
 48  25  26  ar  
 49  25  45  1   
 50  26  46  1   
@<TRIPOS>SUBSTRUCTURE
  1 ****  12 GROUP 4 **** **** 0

# MOE 2024.06 (io_trps.svl 2023.06)
