@<TRIPOS>MOLECULE
NONAME
46 47 1 0 0 
SMALL
USER_CHARGES


@<TRIPOS>ATOM
  1 O        1.5730    -0.5440     2.2980 O.2   1 <1>  -0.5700 
  2 C        1.5540    -0.8570     1.1310 C.2   1 <1>   0.5690 
  3 N        1.7190     0.0410     0.1150 N.am  1 <1>  -0.5470 
  4 C        1.4030    -2.3400     0.7640 C.3   1 <1>   0.1710 
  5 C        1.8770     1.4080     0.0730 C.ar  1 <1>   0.4270 
  6 N        0.0520    -2.7790     0.3060 N.3   1 <1>  -0.8100 
  7 N        2.0200     1.8580    -1.1640 N.ar  1 <1>  -0.6200 
  8 C        1.8850     2.2370     1.1930 C.ar  1 <1>  -0.1500 
  9 C       -0.0020    -4.2580     0.2440 C.3   1 <1>   0.1100 
 10 C       -0.3630    -2.1780    -0.9720 C.3   1 <1>   0.1100 
 11 C        2.1790     3.1660    -1.2910 C.ar  1 <1>   0.1600 
 12 C        2.0510     3.5940     1.0440 C.ar  1 <1>  -0.1500 
 13 C       -1.4140    -4.7620    -0.0830 C.3   1 <1>   0.2000 
 14 C       -1.7920    -2.6080    -1.3230 C.3   1 <1>  -0.1600 
 15 C        2.2030     4.0720    -0.2420 C.ar  1 <1>  -0.1430 
 16 O       -1.3470    -6.1470    -0.2380 O.3   1 <1>  -0.5600 
 17 C       -1.9310    -4.1350    -1.3840 C.3   1 <1>  -0.1600 
 18 C        2.3910     5.5610    -0.4790 C.3   1 <1>  -0.0970 
 19 C       -2.5320    -6.8290     0.0180 C.3   1 <1>   0.1200 
 20 C       -2.2670    -8.3190    -0.1880 C.3   1 <1>  -0.1600 
 21 C       -3.5240    -9.1530     0.0790 C.3   1 <1>  -0.2400 
 22 H        1.7010    -0.3390    -0.8250 H     1 <1>   0.3700 
 23 H        1.6580    -2.8980     1.6470 H     1 <1>   0.0800 
 24 H        2.1310    -2.5840     0.0110 H     1 <1>   0.0800 
 25 H        1.7620     1.8260     2.1760 H     1 <1>   0.1500 
 26 H        0.2880    -4.6670     1.1960 H     1 <1>   0.0800 
 27 H        0.6810    -4.6120    -0.5100 H     1 <1>   0.0800 
 28 H        0.3120    -2.4770    -1.7570 H     1 <1>   0.0800 
 29 H       -0.3530    -1.1050    -0.8940 H     1 <1>   0.0800 
 30 H        2.2960     3.5370    -2.2940 H     1 <1>   0.1500 
 31 H        2.0610     4.2510     1.8960 H     1 <1>   0.1500 
 32 H       -2.0620    -4.5260     0.7450 H     1 <1>   0.0800 
 33 H       -2.0680    -2.1830    -2.2710 H     1 <1>   0.0800 
 34 H       -2.4610    -2.2120    -0.5790 H     1 <1>   0.0800 
 35 H       -2.9630    -4.3920    -1.5370 H     1 <1>   0.0800 
 36 H       -1.3520    -4.5110    -2.2090 H     1 <1>   0.0800 
 37 H        2.5020     5.7740    -1.5270 H     1 <1>   0.0800 
 38 H        3.2710     5.9050     0.0340 H     1 <1>   0.0800 
 39 H        1.5390     6.1010    -0.1070 H     1 <1>   0.0800 
 40 H       -3.2910    -6.4840    -0.6620 H     1 <1>   0.0800 
 41 H       -2.8300    -6.6350     1.0350 H     1 <1>   0.0800 
 42 H       -1.4830    -8.6330     0.4800 H     1 <1>   0.0800 
 43 H       -1.9400    -8.4810    -1.2000 H     1 <1>   0.0800 
 44 H       -3.8590    -9.0170     1.0930 H     1 <1>   0.0800 
 45 H       -3.3110   -10.1960    -0.0730 H     1 <1>   0.0800 
 46 H       -4.3160    -8.8650    -0.5910 H     1 <1>   0.0800 
@<TRIPOS>BOND
  1   1   2  2   
  2   2   3  am  
  3   2   4  1   
  4   3   5  1   
  5   3  22  1   
  6   4   6  1   
  7   4  23  1   
  8   4  24  1   
  9   5   7  ar  
 10   5   8  ar  
 11   6   9  1   
 12   6  10  1   
 13   7  11  ar  
 14   8  12  ar  
 15   8  25  1   
 16   9  13  1   
 17   9  26  1   
 18   9  27  1   
 19  10  14  1   
 20  10  28  1   
 21  10  29  1   
 22  11  15  ar  
 23  11  30  1   
 24  12  15  ar  
 25  12  31  1   
 26  13  16  1   
 27  13  17  1   
 28  13  32  1   
 29  14  17  1   
 30  14  33  1   
 31  14  34  1   
 32  15  18  1   
 33  16  19  1   
 34  17  35  1   
 35  17  36  1   
 36  18  37  1   
 37  18  38  1   
 38  18  39  1   
 39  19  20  1   
 40  19  40  1   
 41  19  41  1   
 42  20  21  1   
 43  20  42  1   
 44  20  43  1   
 45  21  44  1   
 46  21  45  1   
 47  21  46  1   
@<TRIPOS>SUBSTRUCTURE
  1 ****   6 GROUP 4 **** **** 0

# MOE 2024.06 (io_trps.svl 2023.06)
