@<TRIPOS>MOLECULE
NONAME
48 50 1 0 0 
SMALL
USER_CHARGES


@<TRIPOS>ATOM
  1 F        1.7350     1.4470     1.0230 F     1 <1>  -0.1900 
  2 C        1.6550     2.7290     0.7790 C.ar  1 <1>   0.1900 
  3 C        2.5060     3.5890     1.4480 C.ar  1 <1>  -0.1500 
  4 C        0.7220     3.1750    -0.1370 C.ar  1 <1>  -0.1500 
  5 C        2.4150     4.9450     1.1830 C.ar  1 <1>  -0.1500 
  6 C        0.6370     4.5340    -0.3960 C.ar  1 <1>  -0.1500 
  7 C        1.4890     5.4220     0.2640 C.ar  1 <1>   0.0830 
  8 O        1.4750     6.7620     0.0620 O.3   1 <1>  -0.3630 
  9 C        0.6980     7.3450    -0.9750 C.3   1 <1>   0.1810 
 10 C        0.9480     8.8480    -1.1030 C.2   1 <1>   0.5690 
 11 O       -0.0250     9.5620    -1.0110 O.2   1 <1>  -0.5700 
 12 N        2.2000     9.3720    -1.3550 N.am  1 <1>  -0.6600 
 13 C        3.4360     8.5310    -1.4650 C.3   1 <1>   0.1400 
 14 C        2.3640    10.8410    -1.5760 C.3   1 <1>   0.1400 
 15 C        4.1620     8.4200    -0.1160 C.3   1 <1>   0.1400 
 16 C        3.6170    11.4470    -0.9290 C.3   1 <1>  -0.1600 
 17 N        4.8720     9.6840     0.2560 N.am  1 <1>  -0.6600 
 18 C        3.9710    10.8580     0.4410 C.3   1 <1>   0.1400 
 19 C        6.2450     9.7050     0.3630 C.2   1 <1>   0.5690 
 20 O        6.9010     8.7280     0.0810 O.2   1 <1>  -0.5700 
 21 C        6.9900    10.9590     0.8340 C.3   1 <1>  -0.0190 
 22 C        7.0770    12.0650    -0.2400 C.3   1 <1>  -0.0220 
 23 C        8.4390    10.7400     1.3350 C.3   1 <1>  -0.0220 
 24 C        8.4010    12.7210     0.0590 C.2   1 <1>  -0.2880 
 25 C        9.1320    12.0110     0.9090 C.2   1 <1>  -0.2880 
 26 H        3.2180     3.2040     2.1550 H     1 <1>   0.1500 
 27 H        0.0770     2.4710    -0.6320 H     1 <1>   0.1500 
 28 H        3.0620     5.6390     1.6890 H     1 <1>   0.1500 
 29 H       -0.0940     4.8750    -1.1040 H     1 <1>   0.1500 
 30 H       -0.3380     7.1780    -0.7460 H     1 <1>   0.0800 
 31 H        0.9460     6.8640    -1.9020 H     1 <1>   0.0800 
 32 H        4.1030     8.9430    -2.2020 H     1 <1>   0.0800 
 33 H        3.1740     7.5430    -1.7950 H     1 <1>   0.0800 
 34 H        1.5080    11.3560    -1.1720 H     1 <1>   0.0800 
 35 H        2.3790    11.0340    -2.6340 H     1 <1>   0.0800 
 36 H        4.8620     7.6060    -0.1800 H     1 <1>   0.0800 
 37 H        3.4600     8.1700     0.6580 H     1 <1>   0.0800 
 38 H        3.4350    12.4990    -0.8100 H     1 <1>   0.0800 
 39 H        4.4530    11.3510    -1.5990 H     1 <1>   0.0800 
 40 H        3.0780    10.5570     0.9630 H     1 <1>   0.0800 
 41 H        4.4490    11.6100     1.0390 H     1 <1>   0.0800 
 42 H        6.4610    11.3640     1.6760 H     1 <1>   0.0800 
 43 H        6.2650    12.7640    -0.1490 H     1 <1>   0.0800 
 44 H        7.0960    11.6460    -1.2310 H     1 <1>   0.0800 
 45 H        8.9210     9.9040     0.8580 H     1 <1>   0.0800 
 46 H        8.4630    10.6100     2.4020 H     1 <1>   0.0800 
 47 H        8.6430    13.6550    -0.4220 H     1 <1>   0.1500 
 48 H       10.1170    12.2190     1.2930 H     1 <1>   0.1500 
@<TRIPOS>BOND
  1   1   2  1   
  2   2   3  ar  
  3   2   4  ar  
  4   3   5  ar  
  5   3  26  1   
  6   4   6  ar  
  7   4  27  1   
  8   5   7  ar  
  9   5  28  1   
 10   6   7  ar  
 11   6  29  1   
 12   7   8  1   
 13   8   9  1   
 14   9  10  1   
 15   9  30  1   
 16   9  31  1   
 17  10  11  2   
 18  10  12  am  
 19  12  13  1   
 20  12  14  1   
 21  13  15  1   
 22  13  32  1   
 23  13  33  1   
 24  14  16  1   
 25  14  34  1   
 26  14  35  1   
 27  15  17  1   
 28  15  36  1   
 29  15  37  1   
 30  16  18  1   
 31  16  38  1   
 32  16  39  1   
 33  17  18  1   
 34  17  19  am  
 35  18  40  1   
 36  18  41  1   
 37  19  20  2   
 38  19  21  1   
 39  21  22  1   
 40  21  23  1   
 41  21  42  1   
 42  22  24  1   
 43  22  43  1   
 44  22  44  1   
 45  23  25  1   
 46  23  45  1   
 47  23  46  1   
 48  24  25  2   
 49  24  47  1   
 50  25  48  1   
@<TRIPOS>SUBSTRUCTURE
  1 ****  15 GROUP 4 **** **** 0

# MOE 2024.06 (io_trps.svl 2023.06)
