@<TRIPOS>MOLECULE
NONAME
34 35 1 0 0 
SMALL
USER_CHARGES


@<TRIPOS>ATOM
  1 O       -0.3560    -0.7440     1.6200 O.2   1 <1>  -0.5700 
  2 C       -0.3230    -1.6720     0.8410 C.2   1 <1>   0.5690 
  3 N        0.8630    -2.2640     0.4770 N.am  1 <1>  -0.6600 
  4 C       -1.6510    -2.1700     0.2160 C.3   1 <1>   0.3500 
  5 C        0.8490    -3.4480    -0.4270 C.3   1 <1>   0.1400 
  6 C        2.1900    -1.7960     0.9590 C.3   1 <1>   0.0600 
  7 N       -1.6750    -3.6340    -0.1520 N.pl3 1 <1>  -0.8380 
  8 C       -1.9710    -1.3710    -1.0530 C.3   1 <1>  -0.2400 
  9 C       -0.3600    -4.3580    -0.1550 C.3   1 <1>   0.2090 
 10 C       -2.8370    -4.3730    -0.0350 C.ar  1 <1>   0.7200 
 11 N       -2.7080    -5.6920    -0.0670 N.ar  1 <1>  -0.6200 
 12 N       -3.9790    -3.7010     0.0960 N.ar  1 <1>  -0.6200 
 13 C       -3.8070    -6.4470     0.0430 C.ar  1 <1>   0.1310 
 14 C       -5.0610    -4.4270     0.2030 C.ar  1 <1>   0.1670 
 15 C       -3.7810    -7.9230     0.0230 C.2   1 <1>   0.9790 
 16 C       -5.0230    -5.7970     0.1820 C.ar  1 <1>  -0.1500 
 17 C       -6.3710    -3.6850     0.3540 C.3   1 <1>  -0.0970 
 18 O       -2.7300    -8.5840    -0.1090 O.co2 1 <1>  -0.9000 
 19 O       -4.8470    -8.5670     0.1420 O.co2 1 <1>  -0.9000 
 20 H       -2.4180    -1.9770     0.9460 H     1 <1>   0.0800 
 21 H        1.7480    -4.0220    -0.2880 H     1 <1>   0.0800 
 22 H        0.8180    -3.1140    -1.4490 H     1 <1>   0.0800 
 23 H        2.0830    -0.9100     1.5600 H     1 <1>   0.0800 
 24 H        2.8220    -1.5680     0.1190 H     1 <1>   0.0800 
 25 H        2.6500    -2.5630     1.5560 H     1 <1>   0.0800 
 26 H       -1.2160    -1.5400    -1.7970 H     1 <1>   0.0800 
 27 H       -2.0020    -0.3230    -0.8200 H     1 <1>   0.0800 
 28 H       -2.9290    -1.6650    -1.4420 H     1 <1>   0.0800 
 29 H       -0.2300    -4.8400     0.8000 H     1 <1>   0.0800 
 30 H       -0.3830    -5.1310    -0.9050 H     1 <1>   0.0800 
 31 H       -5.9230    -6.3780     0.2720 H     1 <1>   0.1500 
 32 H       -6.5230    -3.0520    -0.5010 H     1 <1>   0.0800 
 33 H       -6.3370    -3.0760     1.2380 H     1 <1>   0.0800 
 34 H       -7.1930    -4.3710     0.4320 H     1 <1>   0.0800 
@<TRIPOS>BOND
  1   1   2  2   
  2   2   3  am  
  3   2   4  1   
  4   3   5  1   
  5   3   6  1   
  6   4   7  1   
  7   4   8  1   
  8   4  20  1   
  9   5   9  1   
 10   5  21  1   
 11   5  22  1   
 12   6  23  1   
 13   6  24  1   
 14   6  25  1   
 15   7   9  1   
 16   7  10  1   
 17   8  26  1   
 18   8  27  1   
 19   8  28  1   
 20   9  29  1   
 21   9  30  1   
 22  10  11  ar  
 23  10  12  ar  
 24  11  13  ar  
 25  12  14  ar  
 26  13  15  1   
 27  13  16  ar  
 28  14  16  ar  
 29  14  17  1   
 30  15  18  ar  
 31  15  19  ar  
 32  16  31  1   
 33  17  32  1   
 34  17  33  1   
 35  17  34  1   
@<TRIPOS>SUBSTRUCTURE
  1 ****  10 GROUP 4 **** **** 0

# MOE 2024.06 (io_trps.svl 2023.06)
