@<TRIPOS>MOLECULE
NONAME
42 42 1 0 0 
SMALL
USER_CHARGES


@<TRIPOS>ATOM
  1 F        1.3620     0.0520     1.1210 F     1 <1>  -0.1900 
  2 C        2.0960     0.9340     0.4730 C.ar  1 <1>   0.1900 
  3 C        3.0740     0.5500    -0.4390 C.ar  1 <1>   0.4100 
  4 C        1.8980     2.2650     0.7040 C.ar  1 <1>   0.1600 
  5 N        3.7910     1.4560    -1.0610 N.ar  1 <1>  -0.6200 
  6 N        3.4010    -0.7400    -0.7850 N.pl3 1 <1>  -0.8690 
  7 N        2.6110     3.1840     0.0840 N.ar  1 <1>  -0.6200 
  8 C        3.5310     2.7290    -0.7700 C.ar  1 <1>   0.7200 
  9 C        2.4060    -1.8340    -0.8900 C.3   1 <1>   0.1290 
 10 N        4.3050     3.6690    -1.4220 N.pl3 1 <1>  -0.8380 
 11 C        4.5190     5.0510    -0.8690 C.3   1 <1>   0.2090 
 12 C        4.7130     3.4290    -2.8370 C.3   1 <1>   0.1290 
 13 C        5.7500     5.1740     0.0770 C.3   1 <1>   0.0000 
 14 C        7.0230     4.6270    -0.6170 C.3   1 <1>   0.1200 
 15 C        5.9780     6.6780     0.4110 C.3   1 <1>  -0.1600 
 16 C        5.4960     4.3380     1.3650 C.3   1 <1>  -0.1600 
 17 O        7.2570     5.2640    -1.8300 O.3   1 <1>  -0.6800 
 18 C        4.8470     7.3760     1.1870 C.3   1 <1>  -0.2400 
 19 C        6.5540     4.4540     2.4760 C.3   1 <1>  -0.2400 
 20 H        1.1470     2.5840     1.4050 H     1 <1>   0.1500 
 21 H        4.1370    -0.7580    -1.4980 H     1 <1>   0.4000 
 22 H        1.4630    -1.4470    -1.2350 H     1 <1>   0.0800 
 23 H        2.2690    -2.2920     0.0750 H     1 <1>   0.0800 
 24 H        2.7540    -2.5800    -1.5840 H     1 <1>   0.0800 
 25 H        3.6380     5.3640    -0.3400 H     1 <1>   0.0800 
 26 H        4.6350     5.7400    -1.6860 H     1 <1>   0.0800 
 27 H        4.0780     2.6860    -3.2890 H     1 <1>   0.0800 
 28 H        5.7280     3.0730    -2.8660 H     1 <1>   0.0800 
 29 H        4.6300     4.3330    -3.4130 H     1 <1>   0.0800 
 30 H        6.9270     3.5710    -0.8070 H     1 <1>   0.0800 
 31 H        7.8910     4.7850    -0.0010 H     1 <1>   0.0800 
 32 H        6.1290     7.2200    -0.5070 H     1 <1>   0.0800 
 33 H        6.8900     6.7830     0.9720 H     1 <1>   0.0800 
 34 H        5.4290     3.2990     1.0930 H     1 <1>   0.0800 
 35 H        4.5380     4.6030     1.7780 H     1 <1>   0.0800 
 36 H        6.5150     5.0780    -2.4330 H     1 <1>   0.4000 
 37 H        3.9260     7.3640     0.6320 H     1 <1>   0.0800 
 38 H        5.1140     8.4030     1.3630 H     1 <1>   0.0800 
 39 H        4.6840     6.9090     2.1410 H     1 <1>   0.0800 
 40 H        7.5230     4.1530     2.1250 H     1 <1>   0.0800 
 41 H        6.2830     3.8100     3.2940 H     1 <1>   0.0800 
 42 H        6.6130     5.4580     2.8540 H     1 <1>   0.0800 
@<TRIPOS>BOND
  1   1   2  1   
  2   2   3  ar  
  3   2   4  ar  
  4   3   5  ar  
  5   3   6  1   
  6   4   7  ar  
  7   4  20  1   
  8   5   8  ar  
  9   6   9  1   
 10   6  21  1   
 11   7   8  ar  
 12   8  10  1   
 13   9  22  1   
 14   9  23  1   
 15   9  24  1   
 16  10  11  1   
 17  10  12  1   
 18  11  13  1   
 19  11  25  1   
 20  11  26  1   
 21  12  27  1   
 22  12  28  1   
 23  12  29  1   
 24  13  14  1   
 25  13  15  1   
 26  13  16  1   
 27  14  17  1   
 28  14  30  1   
 29  14  31  1   
 30  15  18  1   
 31  15  32  1   
 32  15  33  1   
 33  16  19  1   
 34  16  34  1   
 35  16  35  1   
 36  17  36  1   
 37  18  37  1   
 38  18  38  1   
 39  18  39  1   
 40  19  40  1   
 41  19  41  1   
 42  19  42  1   
@<TRIPOS>SUBSTRUCTURE
  1 ****   8 GROUP 4 **** **** 0

# MOE 2024.06 (io_trps.svl 2023.06)
