@<TRIPOS>MOLECULE
NONAME
51 53 1 0 0 
SMALL
USER_CHARGES


@<TRIPOS>ATOM
  1 S        0.1150     0.3490     0.1390 S.o2  1 <1>   1.3330 
  2 O       -0.0060    -1.0810     0.3100 O.2   1 <1>  -0.6500 
  3 O       -0.3480     1.2350     1.1830 O.2   1 <1>  -0.6500 
  4 N       -0.6640     0.7680    -1.3100 N.am  1 <1>  -0.8490 
  5 C        1.8310     0.7460    -0.1920 C.3   1 <1>  -0.0550 
  6 C       -2.0540     1.1830    -1.0930 C.3   1 <1>   0.1160 
  7 C       -0.6120    -0.2860    -2.3290 C.3   1 <1>   0.1160 
  8 C        2.7410     0.5370     1.0310 C.3   1 <1>  -0.0800 
  9 C        4.1830     0.9100     0.7590 C.3   1 <1>   0.2890 
 10 C        2.8570    -0.9160     1.5030 C.3   1 <1>   0.1200 
 11 N        4.3960     2.3580     0.9370 N.pl3 1 <1>  -0.8190 
 12 C        4.9250     0.0650     1.7820 C.3   1 <1>   0.1200 
 13 O        4.1830    -1.1110     1.8960 O.3   1 <1>  -0.5600 
 14 C        5.2850     3.1680     0.3350 C.2   1 <1>   0.4860 
 15 N        5.1260     4.4440     0.6220 N.2   1 <1>  -0.6210 
 16 C        6.3010     2.6990    -0.5180 C.2   1 <1>  -0.1360 
 17 C        5.9620     5.3300     0.0710 C.2   1 <1>   0.2710 
 18 C        7.1520     3.5940    -1.0740 C.2   1 <1>  -0.0380 
 19 N        6.9530     4.8900    -0.7590 N.pl3 1 <1>  -0.6000 
 20 C        5.8180     6.7250     0.3480 C.2   1 <1>   0.0140 
 21 C        8.2940     3.2500    -2.0060 C.3   1 <1>  -0.1020 
 22 C        6.6870     7.7270    -0.1800 C.2   1 <1>   0.5410 
 23 C        4.7750     7.1860     1.1810 C.2   1 <1>  -0.1500 
 24 O        7.6550     7.4760    -0.9350 O.2   1 <1>  -0.5700 
 25 C        6.4730     9.0830     0.1460 C.2   1 <1>  -0.1360 
 26 C        4.5860     8.5120     1.4830 C.2   1 <1>  -0.1500 
 27 C        5.4470     9.4770     0.9590 C.2   1 <1>  -0.1500 
 28 H        2.1840     0.1480    -1.0080 H     1 <1>   0.0800 
 29 H        1.8920     1.7760    -0.4890 H     1 <1>   0.0800 
 30 H       -2.5120     1.4580    -2.0280 H     1 <1>   0.0800 
 31 H       -2.0860     2.0390    -0.4400 H     1 <1>   0.0800 
 32 H       -2.6180     0.3830    -0.6430 H     1 <1>   0.0800 
 33 H       -1.0400     0.0700    -3.2500 H     1 <1>   0.0800 
 34 H       -1.1590    -1.1550    -2.0010 H     1 <1>   0.0800 
 35 H        0.4090    -0.5710    -2.5170 H     1 <1>   0.0800 
 36 H        2.3680     1.1160     1.8590 H     1 <1>   0.0800 
 37 H        4.4730     0.6020    -0.2300 H     1 <1>   0.0800 
 38 H        2.6470    -1.6150     0.7110 H     1 <1>   0.0800 
 39 H        2.2100    -1.1190     2.3410 H     1 <1>   0.0800 
 40 H        3.7700     2.8340     1.5900 H     1 <1>   0.4000 
 41 H        4.9350     0.5440     2.7460 H     1 <1>   0.0800 
 42 H        5.9240    -0.1760     1.4680 H     1 <1>   0.0800 
 43 H        6.3920     1.6520    -0.7110 H     1 <1>   0.1500 
 44 H        7.5690     5.6270    -1.1420 H     1 <1>   0.4000 
 45 H        8.1540     3.7420    -2.9520 H     1 <1>   0.0800 
 46 H        8.3430     2.1890    -2.1710 H     1 <1>   0.0800 
 47 H        9.2240     3.5770    -1.5780 H     1 <1>   0.0800 
 48 H        4.0920     6.4660     1.6000 H     1 <1>   0.1500 
 49 H        7.1550     9.7970    -0.2750 H     1 <1>   0.1500 
 50 H        3.7760     8.8180     2.1230 H     1 <1>   0.1500 
 51 H        5.2910    10.5140     1.2020 H     1 <1>   0.1500 
@<TRIPOS>BOND
  1   1   2  2   
  2   1   3  2   
  3   1   4  am  
  4   1   5  1   
  5   4   6  1   
  6   4   7  1   
  7   5   8  1   
  8   5  28  1   
  9   5  29  1   
 10   6  30  1   
 11   6  31  1   
 12   6  32  1   
 13   7  33  1   
 14   7  34  1   
 15   7  35  1   
 16   8   9  1   
 17   8  10  1   
 18   8  36  1   
 19   9  11  1   
 20   9  12  1   
 21   9  37  1   
 22  10  13  1   
 23  10  38  1   
 24  10  39  1   
 25  11  14  1   
 26  11  40  1   
 27  12  13  1   
 28  12  41  1   
 29  12  42  1   
 30  14  15  2   
 31  14  16  1   
 32  15  17  1   
 33  16  18  2   
 34  16  43  1   
 35  17  19  1   
 36  17  20  2   
 37  18  19  1   
 38  18  21  1   
 39  19  44  1   
 40  20  22  1   
 41  20  23  1   
 42  21  45  1   
 43  21  46  1   
 44  21  47  1   
 45  22  24  2   
 46  22  25  1   
 47  23  26  2   
 48  23  48  1   
 49  25  27  2   
 50  25  49  1   
 51  26  27  1   
 52  26  50  1   
 53  27  51  1   
@<TRIPOS>SUBSTRUCTURE
  1 ****  11 GROUP 4 **** **** 0

# MOE 2024.06 (io_trps.svl 2023.06)
