@<TRIPOS>MOLECULE
NONAME
43 45 1 0 0 
SMALL
USER_CHARGES


@<TRIPOS>ATOM
  1 S       -0.3340    -0.5930     1.8920 S.3   1 <1>  -0.0800 
  2 C        1.2510    -1.2900     1.6110 C.2   1 <1>   0.4620 
  3 C       -1.0420    -1.9440     1.0500 C.2   1 <1>  -0.1100 
  4 N        1.2360    -2.3940     0.9670 N.2   1 <1>  -0.5650 
  5 N        2.3440    -0.6390     2.0740 N.pl3 1 <1>  -0.8840 
  6 C       -0.0570    -2.7670     0.6500 C.2   1 <1>   0.0460 
  7 C       -0.1930    -4.0720    -0.1150 C.3   1 <1>   0.0210 
  8 C       -1.6460    -4.5370    -0.2730 C.3   1 <1>  -0.0990 
  9 C       -1.7050    -5.8690    -0.9820 C.2   1 <1>   0.5690 
 10 O       -1.9620    -5.9000    -2.1580 O.2   1 <1>  -0.5700 
 11 N       -1.4680    -6.9940    -0.2680 N.am  1 <1>  -0.7300 
 12 C       -1.4160    -8.3620    -0.8340 C.3   1 <1>   0.2200 
 13 C       -2.6430    -9.1720    -0.4380 C.3   1 <1>  -0.0800 
 14 C       -0.3240    -9.1420    -0.1160 C.3   1 <1>   0.1200 
 15 C       -2.2680    -9.7150     0.9470 C.3   1 <1>   0.1200 
 16 C       -3.9880    -8.4240    -0.4850 C.3   1 <1>  -0.0170 
 17 O       -0.8930    -9.5100     1.1030 O.3   1 <1>  -0.5600 
 18 C       -5.1420    -9.3620    -0.1690 C.ar  1 <1>  -0.1430 
 19 C       -5.7090    -9.4320     1.0880 C.ar  1 <1>  -0.1500 
 20 C       -5.6810   -10.1950    -1.1280 C.ar  1 <1>  -0.1500 
 21 C       -6.7530   -10.3120     1.3190 C.ar  1 <1>   0.1600 
 22 C       -6.7270   -11.0380    -0.7920 C.ar  1 <1>   0.1600 
 23 N       -7.2750   -11.1190     0.4090 N.ar  1 <1>  -0.6200 
 24 H       -2.1110    -1.9650     0.9530 H     1 <1>   0.1500 
 25 H        2.2870     0.2810     2.5080 H     1 <1>   0.4000 
 26 H        3.2710    -1.0060     1.8550 H     1 <1>   0.4000 
 27 H        0.2530    -3.9500    -1.0870 H     1 <1>   0.0800 
 28 H        0.3670    -4.8270     0.4080 H     1 <1>   0.0800 
 29 H       -2.1980    -3.8150    -0.8490 H     1 <1>   0.0800 
 30 H       -2.1110    -4.6310     0.6910 H     1 <1>   0.0800 
 31 H       -1.2640    -6.9580     0.7340 H     1 <1>   0.3700 
 32 H       -1.2640    -8.3290    -1.9000 H     1 <1>   0.0800 
 33 H       -2.7070   -10.0150    -1.1040 H     1 <1>   0.0800 
 34 H        0.5640    -8.5590     0.0570 H     1 <1>   0.0800 
 35 H       -0.0770   -10.0410    -0.6520 H     1 <1>   0.0800 
 36 H       -2.4770   -10.7680     1.0310 H     1 <1>   0.0800 
 37 H       -2.7690    -9.1820     1.7360 H     1 <1>   0.0800 
 38 H       -4.1270    -8.0040    -1.4670 H     1 <1>   0.0800 
 39 H       -3.9900    -7.6080     0.2160 H     1 <1>   0.0800 
 40 H       -5.3510    -8.8130     1.8900 H     1 <1>   0.1500 
 41 H       -5.2990   -10.1960    -2.1320 H     1 <1>   0.1500 
 42 H       -7.1830   -10.3540     2.3050 H     1 <1>   0.1500 
 43 H       -7.1350   -11.6810    -1.5540 H     1 <1>   0.1500 
@<TRIPOS>BOND
  1   1   2  1   
  2   1   3  1   
  3   2   4  2   
  4   2   5  1   
  5   3   6  2   
  6   3  24  1   
  7   4   6  1   
  8   5  25  1   
  9   5  26  1   
 10   6   7  1   
 11   7   8  1   
 12   7  27  1   
 13   7  28  1   
 14   8   9  1   
 15   8  29  1   
 16   8  30  1   
 17   9  10  2   
 18   9  11  am  
 19  11  12  1   
 20  11  31  1   
 21  12  13  1   
 22  12  14  1   
 23  12  32  1   
 24  13  15  1   
 25  13  16  1   
 26  13  33  1   
 27  14  17  1   
 28  14  34  1   
 29  14  35  1   
 30  15  17  1   
 31  15  36  1   
 32  15  37  1   
 33  16  18  1   
 34  16  38  1   
 35  16  39  1   
 36  18  19  ar  
 37  18  20  ar  
 38  19  21  ar  
 39  19  40  1   
 40  20  22  ar  
 41  20  41  1   
 42  21  23  ar  
 43  21  42  1   
 44  22  23  ar  
 45  22  43  1   
@<TRIPOS>SUBSTRUCTURE
  1 ****  11 GROUP 4 **** **** 0

# MOE 2024.06 (io_trps.svl 2023.06)
