@<TRIPOS>MOLECULE
NONAME
47 50 1 0 0 
SMALL
USER_CHARGES


@<TRIPOS>ATOM
  1 CL      -4.0660     0.7420     2.2720 Cl    1 <1>  -0.1240 
  2 C       -3.7220    -0.3430     0.9520 C.2   1 <1>   0.2640 
  3 O       -4.2980    -1.5200     0.9450 O.3   1 <1>  -0.2800 
  4 C       -2.9250    -0.1640    -0.1180 C.2   1 <1>  -0.1500 
  5 C       -3.8960    -2.1700    -0.1490 C.2   1 <1>   0.0550 
  6 C       -3.0380    -1.3560    -0.8350 C.2   1 <1>  -0.1500 
  7 C       -4.3280    -3.5150    -0.4910 C.2   1 <1>   0.7150 
  8 O       -3.8200    -4.0390    -1.4690 O.2   1 <1>  -0.5700 
  9 N       -5.2890    -4.2460     0.1900 N.am  1 <1>  -0.6600 
 10 C       -5.6330    -5.6380    -0.2400 C.3   1 <1>   0.1400 
 11 C       -6.2590    -3.6880     1.1750 C.3   1 <1>   0.1400 
 12 C       -6.7820    -5.6620    -1.2640 C.3   1 <1>   0.1400 
 13 C       -7.3450    -2.8580     0.4790 C.3   1 <1>  -0.1600 
 14 N       -7.9960    -4.9200    -0.7840 N.am  1 <1>  -0.6600 
 15 C       -7.8540    -3.4370    -0.8500 C.3   1 <1>   0.1400 
 16 C       -9.1530    -5.4810    -0.2890 C.2   1 <1>   0.5690 
 17 O      -10.0240    -4.7760     0.1680 O.2   1 <1>  -0.5700 
 18 C       -9.3540    -7.0070    -0.2820 C.3   1 <1>   0.1240 
 19 C      -10.7760    -7.5100    -0.1050 C.ar  1 <1>  -0.1430 
 20 C       -8.6050    -7.7030     0.8760 C.3   1 <1>  -0.1600 
 21 C      -10.8200    -8.5810     0.7550 C.ar  1 <1>  -0.1430 
 22 C      -11.9360    -7.0390    -0.6960 C.ar  1 <1>  -0.1500 
 23 C       -9.4510    -8.9200     1.2840 C.3   1 <1>  -0.0170 
 24 C      -12.0160    -9.2110     1.0450 C.ar  1 <1>  -0.1500 
 25 C      -13.1410    -7.6630    -0.4120 C.ar  1 <1>  -0.1500 
 26 C      -13.1810    -8.7460     0.4550 C.ar  1 <1>  -0.1500 
 27 H       -2.3300     0.6930    -0.3770 H     1 <1>   0.1500 
 28 H       -2.5340    -1.5830    -1.7590 H     1 <1>   0.1500 
 29 H       -5.9060    -6.2220     0.6200 H     1 <1>   0.0800 
 30 H       -4.7680    -6.1100    -0.6760 H     1 <1>   0.0800 
 31 H       -5.7540    -3.1050     1.9240 H     1 <1>   0.0800 
 32 H       -6.7380    -4.5000     1.6950 H     1 <1>   0.0800 
 33 H       -7.0200    -6.6830    -1.4900 H     1 <1>   0.0800 
 34 H       -6.4350    -5.2150    -2.1800 H     1 <1>   0.0800 
 35 H       -6.9760    -1.8650     0.3020 H     1 <1>   0.0800 
 36 H       -8.1790    -2.7620     1.1510 H     1 <1>   0.0800 
 37 H       -7.1670    -3.1790    -1.6380 H     1 <1>   0.0800 
 38 H       -8.8040    -2.9900    -1.0930 H     1 <1>   0.0800 
 39 H       -9.0200    -7.4050    -1.2210 H     1 <1>   0.0800 
 40 H       -8.5590    -7.0260     1.7120 H     1 <1>   0.0800 
 41 H       -7.6070    -7.9890     0.6000 H     1 <1>   0.0800 
 42 H      -11.9030    -6.1950    -1.3620 H     1 <1>   0.1500 
 43 H       -9.4620    -9.0550     2.3510 H     1 <1>   0.0800 
 44 H       -9.0940    -9.8150     0.8040 H     1 <1>   0.0800 
 45 H      -12.0440   -10.0480     1.7200 H     1 <1>   0.1500 
 46 H      -14.0480    -7.3030    -0.8640 H     1 <1>   0.1500 
 47 H      -14.1200    -9.2240     0.6710 H     1 <1>   0.1500 
@<TRIPOS>BOND
  1   1   2  1   
  2   2   3  1   
  3   2   4  2   
  4   3   5  1   
  5   4   6  1   
  6   4  27  1   
  7   5   6  2   
  8   5   7  1   
  9   6  28  1   
 10   7   8  2   
 11   7   9  am  
 12   9  10  1   
 13   9  11  1   
 14  10  12  1   
 15  10  29  1   
 16  10  30  1   
 17  11  13  1   
 18  11  31  1   
 19  11  32  1   
 20  12  14  1   
 21  12  33  1   
 22  12  34  1   
 23  13  15  1   
 24  13  35  1   
 25  13  36  1   
 26  14  15  1   
 27  14  16  am  
 28  15  37  1   
 29  15  38  1   
 30  16  17  2   
 31  16  18  1   
 32  18  19  1   
 33  18  20  1   
 34  18  39  1   
 35  19  21  ar  
 36  19  22  ar  
 37  20  23  1   
 38  20  40  1   
 39  20  41  1   
 40  21  23  1   
 41  21  24  ar  
 42  22  25  ar  
 43  22  42  1   
 44  23  43  1   
 45  23  44  1   
 46  24  26  ar  
 47  24  45  1   
 48  25  26  ar  
 49  25  46  1   
 50  26  47  1   
@<TRIPOS>SUBSTRUCTURE
  1 ****  14 GROUP 4 **** **** 0

# MOE 2024.06 (io_trps.svl 2023.06)
