@<TRIPOS>MOLECULE
NONAME
53 56 1 0 0 
SMALL
USER_CHARGES


@<TRIPOS>ATOM
  1 O       -1.2310     1.2760     1.9520 O.2   1 <1>  -0.5700 
  2 C       -2.0680     1.4380     1.0950 C.2   1 <1>   0.5690 
  3 N       -3.2570     0.7520     1.1050 N.am  1 <1>  -0.6600 
  4 C       -1.7660     2.4280    -0.0260 C.3   1 <1>  -0.0990 
  5 C       -4.3470     0.8780     0.0970 C.3   1 <1>   0.1400 
  6 C       -3.5530    -0.2670     2.1510 C.3   1 <1>   0.1400 
  7 C       -0.3980     3.1290     0.0980 C.3   1 <1>  -0.1600 
  8 C       -4.5330    -0.4660    -0.6100 C.3   1 <1>  -0.1600 
  9 C       -3.7400    -1.6350     1.4880 C.3   1 <1>  -0.1600 
 10 C       -0.1390     4.0670    -1.0900 C.3   1 <1>   0.0960 
 11 C       -4.8180    -1.6060     0.3890 C.3   1 <1>   0.4240 
 12 N        1.1290     4.8080    -0.9310 N.pl3 1 <1>   0.3140 
 13 O       -5.9950    -1.2470     1.0830 O.3   1 <1>  -0.5600 
 14 C       -4.9600    -2.9900    -0.3080 C.ar  1 <1>  -0.1440 
 15 N        1.1860     6.1310    -0.9520 N.2   1 <1>  -0.7070 
 16 C        2.3680     4.3310    -0.7790 C.2   1 <1>   0.0360 
 17 C       -7.2170    -1.5640     0.5020 C.3   1 <1>   0.1200 
 18 C       -3.9040    -3.5820    -1.0150 C.ar  1 <1>   0.0820 
 19 C       -6.1700    -3.6810    -0.2400 C.ar  1 <1>  -0.1440 
 20 C        2.4510     6.3570    -0.8070 C.2   1 <1>   0.3660 
 21 N        3.2330     5.2760    -0.6960 N.2   1 <1>  -0.5650 
 22 C       -7.3540    -3.0780     0.4880 C.3   1 <1>  -0.0170 
 23 O       -2.7210    -2.9200    -1.1140 O.3   1 <1>  -0.3620 
 24 C       -4.0720    -4.8300    -1.6130 C.ar  1 <1>  -0.1500 
 25 C       -6.3240    -4.9220    -0.8340 C.ar  1 <1>  -0.1500 
 26 C       -1.5350    -3.5530    -1.5420 C.3   1 <1>   0.0400 
 27 C       -5.2750    -5.4980    -1.5200 C.ar  1 <1>  -0.1500 
 28 H       -2.5390     3.1740    -0.0280 H     1 <1>   0.0800 
 29 H       -1.8040     1.8920    -0.9560 H     1 <1>   0.0800 
 30 H       -4.1280     1.6380    -0.6300 H     1 <1>   0.0800 
 31 H       -5.2570     1.1560     0.6010 H     1 <1>   0.0800 
 32 H       -4.4500     0.0150     2.6760 H     1 <1>   0.0800 
 33 H       -2.7530    -0.3230     2.8700 H     1 <1>   0.0800 
 34 H        0.3750     2.3810     0.1460 H     1 <1>   0.0800 
 35 H       -0.3790     3.6960     1.0140 H     1 <1>   0.0800 
 36 H       -3.6370    -0.6710    -1.1610 H     1 <1>   0.0800 
 37 H       -5.3290    -0.4010    -1.3270 H     1 <1>   0.0800 
 38 H       -4.0150    -2.3630     2.2270 H     1 <1>   0.0800 
 39 H       -2.7920    -1.9310     1.0890 H     1 <1>   0.0800 
 40 H       -0.9340     4.7860    -1.1690 H     1 <1>   0.0800 
 41 H       -0.0910     3.5090    -2.0060 H     1 <1>   0.0800 
 42 H        2.5920     3.2800    -0.7340 H     1 <1>   0.1500 
 43 H       -7.2580    -1.1580    -0.4930 H     1 <1>   0.0800 
 44 H       -7.9920    -1.1190     1.1010 H     1 <1>   0.0800 
 45 H        2.8750     7.3480    -0.7750 H     1 <1>   0.1500 
 46 H       -8.2720    -3.3440    -0.0040 H     1 <1>   0.0800 
 47 H       -7.3890    -3.4460     1.4970 H     1 <1>   0.0800 
 48 H       -3.2790    -5.2990    -2.1620 H     1 <1>   0.1500 
 49 H       -7.2610    -5.4460    -0.7660 H     1 <1>   0.1500 
 50 H       -0.7210    -2.8640    -1.4030 H     1 <1>   0.0800 
 51 H       -1.6270    -3.8030    -2.5830 H     1 <1>   0.0800 
 52 H       -1.3730    -4.4330    -0.9450 H     1 <1>   0.0800 
 53 H       -5.3980    -6.4620    -1.9820 H     1 <1>   0.1500 
@<TRIPOS>BOND
  1   1   2  2   
  2   2   3  am  
  3   2   4  1   
  4   3   5  1   
  5   3   6  1   
  6   4   7  1   
  7   4  28  1   
  8   4  29  1   
  9   5   8  1   
 10   5  30  1   
 11   5  31  1   
 12   6   9  1   
 13   6  32  1   
 14   6  33  1   
 15   7  10  1   
 16   7  34  1   
 17   7  35  1   
 18   8  11  1   
 19   8  36  1   
 20   8  37  1   
 21   9  11  1   
 22   9  38  1   
 23   9  39  1   
 24  10  12  1   
 25  10  40  1   
 26  10  41  1   
 27  11  13  1   
 28  11  14  1   
 29  12  15  1   
 30  12  16  1   
 31  13  17  1   
 32  14  18  ar  
 33  14  19  ar  
 34  15  20  2   
 35  16  21  2   
 36  16  42  1   
 37  17  22  1   
 38  17  43  1   
 39  17  44  1   
 40  18  23  1   
 41  18  24  ar  
 42  19  22  1   
 43  19  25  ar  
 44  20  21  1   
 45  20  45  1   
 46  22  46  1   
 47  22  47  1   
 48  23  26  1   
 49  24  27  ar  
 50  24  48  1   
 51  25  27  ar  
 52  25  49  1   
 53  26  50  1   
 54  26  51  1   
 55  26  52  1   
 56  27  53  1   
@<TRIPOS>SUBSTRUCTURE
  1 ****   3 GROUP 4 **** **** 0

# MOE 2024.06 (io_trps.svl 2023.06)
