@<TRIPOS>MOLECULE
NONAME
42 44 1 0 0 
SMALL
USER_CHARGES


@<TRIPOS>ATOM
  1 O       -0.6930     0.4570    -1.5860 O.2   1 <1>  -0.5700 
  2 C       -1.6280     1.0630    -1.0920 C.2   1 <1>   0.5440 
  3 N       -2.7230     0.3660    -0.6550 N.am  1 <1>  -0.6600 
  4 C       -1.5460     2.5040    -0.9670 C.ar  1 <1>   0.0860 
  5 C       -3.7900     0.9120     0.2320 C.3   1 <1>   0.2350 
  6 C       -2.8080    -1.1210    -0.6880 C.3   1 <1>   0.2350 
  7 C       -0.4860     3.0930    -0.2840 C.ar  1 <1>  -0.1500 
  8 C       -2.4990     3.3480    -1.5300 C.ar  1 <1>  -0.1500 
  9 C       -4.8230    -0.1920     0.3530 C.3   1 <1>  -0.2420 
 10 C       -4.2120    -1.4550    -0.2080 C.3   1 <1>  -0.2420 
 11 C       -0.3640     4.4730    -0.1440 C.ar  1 <1>   0.0820 
 12 C       -2.3990     4.7190    -1.4040 C.ar  1 <1>  -0.1500 
 13 C       -5.7430     0.0680     1.5490 C.2   1 <1>   0.9470 
 14 C       -5.4090    -0.8340    -0.8810 C.3   1 <1>  -0.2000 
 15 C       -4.2950    -2.9080     0.2660 C.2   1 <1>   0.9470 
 16 O        0.6880     5.0150     0.5370 O.3   1 <1>  -0.3630 
 17 C       -1.3450     5.3040    -0.7190 C.ar  1 <1>   0.0820 
 18 O       -6.9680     0.1370     1.3750 O.co2 1 <1>  -0.9000 
 19 O       -5.2360     0.3830     2.6340 O.co2 1 <1>  -0.9000 
 20 O       -3.4860    -3.3090     1.1140 O.co2 1 <1>  -0.9000 
 21 O       -5.0580    -3.6950    -0.3130 O.co2 1 <1>  -0.9000 
 22 C        1.6880     4.2220     1.1410 C.3   1 <1>   0.0400 
 23 O       -1.3930     6.6650    -0.6870 O.3   1 <1>  -0.3630 
 24 C       -0.4420     7.4740    -0.0380 C.3   1 <1>   0.1200 
 25 C       -0.8580     8.9310    -0.2200 C.3   1 <1>  -0.2400 
 26 H       -3.3690     1.1340     1.1980 H     1 <1>   0.0800 
 27 H       -4.2410     1.7950    -0.1800 H     1 <1>   0.0800 
 28 H       -2.6410    -1.4950    -1.6820 H     1 <1>   0.0800 
 29 H       -2.0750    -1.5350    -0.0160 H     1 <1>   0.0800 
 30 H        0.2390     2.4190     0.1320 H     1 <1>   0.1500 
 31 H       -3.3230     2.9140    -2.0700 H     1 <1>   0.1500 
 32 H       -3.1460     5.3560    -1.8430 H     1 <1>   0.1500 
 33 H       -5.2920    -0.3570    -1.8350 H     1 <1>   0.1000 
 34 H       -6.3540    -1.3420    -0.7850 H     1 <1>   0.1000 
 35 H        2.3940     4.8780     1.6150 H     1 <1>   0.0800 
 36 H        2.1820     3.6430     0.3800 H     1 <1>   0.0800 
 37 H        1.2320     3.5840     1.8770 H     1 <1>   0.0800 
 38 H       -0.4270     7.2100     1.0060 H     1 <1>   0.0800 
 39 H        0.5200     7.2930    -0.4840 H     1 <1>   0.0800 
 40 H       -1.8270     9.0950     0.2150 H     1 <1>   0.0800 
 41 H       -0.8850     9.1780    -1.2660 H     1 <1>   0.0800 
 42 H       -0.1490     9.5740     0.2670 H     1 <1>   0.0800 
@<TRIPOS>BOND
  1   1   2  2   
  2   2   3  am  
  3   2   4  1   
  4   3   5  1   
  5   3   6  1   
  6   4   7  ar  
  7   4   8  ar  
  8   5   9  1   
  9   5  26  1   
 10   5  27  1   
 11   6  10  1   
 12   6  28  1   
 13   6  29  1   
 14   7  11  ar  
 15   7  30  1   
 16   8  12  ar  
 17   8  31  1   
 18   9  10  1   
 19   9  13  1   
 20   9  14  1   
 21  10  14  1   
 22  10  15  1   
 23  11  16  1   
 24  11  17  ar  
 25  12  17  ar  
 26  12  32  1   
 27  13  18  ar  
 28  13  19  ar  
 29  14  33  1   
 30  14  34  1   
 31  15  20  ar  
 32  15  21  ar  
 33  16  22  1   
 34  17  23  1   
 35  22  35  1   
 36  22  36  1   
 37  22  37  1   
 38  23  24  1   
 39  24  25  1   
 40  24  38  1   
 41  24  39  1   
 42  25  40  1   
 43  25  41  1   
 44  25  42  1   
@<TRIPOS>SUBSTRUCTURE
  1 ****   5 GROUP 4 **** **** 0

# MOE 2024.06 (io_trps.svl 2023.06)
