@<TRIPOS>MOLECULE
NONAME
44 44 1 0 0 
SMALL
USER_CHARGES


@<TRIPOS>ATOM
  1 N       -0.4200    -0.5480     0.7200 N.ar  1 <1>  -0.6200 
  2 C       -1.5220    -1.0030     0.1520 C.ar  1 <1>   0.4100 
  3 C        0.2450    -1.5010     1.3620 C.ar  1 <1>   0.1600 
  4 N       -2.3000    -0.0650    -0.5430 N.pl3 1 <1>  -0.8380 
  5 C       -1.9350    -2.3740     0.2300 C.ar  1 <1>   0.4100 
  6 C       -0.1550    -2.8230     1.4340 C.ar  1 <1>   0.1600 
  7 C       -1.5660     0.9080    -1.3980 C.3   1 <1>   0.1290 
  8 C       -3.3650     0.5730     0.2730 C.3   1 <1>   0.1290 
  9 N       -1.2550    -3.3090     0.8710 N.ar  1 <1>  -0.6200 
 10 N       -3.1090    -2.7690    -0.4010 N.pl3 1 <1>  -0.8690 
 11 C       -3.1720    -4.0690    -1.0890 C.3   1 <1>   0.2090 
 12 C       -3.8370    -5.0610    -0.1320 C.3   1 <1>  -0.1600 
 13 C       -4.0370    -6.4740    -0.7080 C.3   1 <1>   0.4230 
 14 N       -4.5480    -7.4180     0.3400 N.4   1 <1>  -0.9590 
 15 C       -2.7150    -7.0420    -1.2410 C.3   1 <1>  -0.2400 
 16 C       -5.0750    -8.6790    -0.2570 C.3   1 <1>   0.3430 
 17 C       -5.5810    -6.8250     1.2580 C.3   1 <1>   0.2630 
 18 C       -4.9850    -9.8030     0.7690 C.3   1 <1>  -0.2400 
 19 H        1.1550    -1.2060     1.8540 H     1 <1>   0.1500 
 20 H        0.4570    -3.5180     1.9810 H     1 <1>   0.1500 
 21 H       -0.7650     0.4080    -1.9150 H     1 <1>   0.0800 
 22 H       -1.1470     1.6920    -0.7890 H     1 <1>   0.0800 
 23 H       -2.2330     1.3370    -2.1240 H     1 <1>   0.0800 
 24 H       -3.8480    -0.1650     0.8910 H     1 <1>   0.0800 
 25 H       -4.1010     1.0230    -0.3700 H     1 <1>   0.0800 
 26 H       -2.9350     1.3290     0.9080 H     1 <1>   0.0800 
 27 H       -3.4250    -1.9760    -0.9780 H     1 <1>   0.4000 
 28 H       -2.1730    -4.3800    -1.3490 H     1 <1>   0.0800 
 29 H       -3.7490    -3.9650    -1.9930 H     1 <1>   0.0800 
 30 H       -4.7900    -4.6370     0.1230 H     1 <1>   0.0800 
 31 H       -3.2310    -5.1230     0.7540 H     1 <1>   0.0800 
 32 H       -4.7510    -6.4160    -1.5160 H     1 <1>   0.0800 
 33 H       -3.7290    -7.6640     0.9120 H     1 <1>   0.4500 
 34 H       -1.9520    -7.0000    -0.4840 H     1 <1>   0.0800 
 35 H       -2.3770    -6.4670    -2.0830 H     1 <1>   0.0800 
 36 H       -2.8120    -8.0530    -1.5870 H     1 <1>   0.0800 
 37 H       -4.4970    -8.9590    -1.1210 H     1 <1>   0.0800 
 38 H       -6.0970    -8.5440    -0.5720 H     1 <1>   0.0800 
 39 H       -6.4350    -6.4880     0.6940 H     1 <1>   0.0800 
 40 H       -5.1700    -5.9870     1.7970 H     1 <1>   0.0800 
 41 H       -5.9100    -7.5550     1.9790 H     1 <1>   0.0800 
 42 H       -3.9690    -9.9440     1.0930 H     1 <1>   0.0800 
 43 H       -5.3160   -10.7200     0.3140 H     1 <1>   0.0800 
 44 H       -5.6140    -9.6160     1.6200 H     1 <1>   0.0800 
@<TRIPOS>BOND
  1   1   2  ar  
  2   1   3  ar  
  3   2   4  1   
  4   2   5  ar  
  5   3   6  ar  
  6   3  19  1   
  7   4   7  1   
  8   4   8  1   
  9   5   9  ar  
 10   5  10  1   
 11   6   9  ar  
 12   6  20  1   
 13   7  21  1   
 14   7  22  1   
 15   7  23  1   
 16   8  24  1   
 17   8  25  1   
 18   8  26  1   
 19  10  11  1   
 20  10  27  1   
 21  11  12  1   
 22  11  28  1   
 23  11  29  1   
 24  12  13  1   
 25  12  30  1   
 26  12  31  1   
 27  13  14  1   
 28  13  15  1   
 29  13  32  1   
 30  14  16  1   
 31  14  17  1   
 32  14  33  1   
 33  15  34  1   
 34  15  35  1   
 35  15  36  1   
 36  16  18  1   
 37  16  37  1   
 38  16  38  1   
 39  17  39  1   
 40  17  40  1   
 41  17  41  1   
 42  18  42  1   
 43  18  43  1   
 44  18  44  1   
@<TRIPOS>SUBSTRUCTURE
  1 ****  10 GROUP 4 **** **** 0

# MOE 2024.06 (io_trps.svl 2023.06)
