@<TRIPOS>MOLECULE
NONAME
62 65 1 0 0 
SMALL
USER_CHARGES


@<TRIPOS>ATOM
  1 O       -0.8380    -1.0840    -1.0200 O.2   1 <1>  -0.5700 
  2 C        0.0740    -1.7550    -0.5640 C.2   1 <1>   0.5440 
  3 N        0.6960    -1.2800     0.5790 N.am  1 <1>  -0.6600 
  4 C        0.4620    -2.9820    -1.2630 C.ar  1 <1>   0.3960 
  5 C        0.3470     0.0180     1.1990 C.3   1 <1>   0.1400 
  6 C        1.8950    -1.8640     1.2230 C.3   1 <1>   0.1400 
  7 N        0.9370    -4.0490    -0.5960 N.ar  1 <1>  -0.6200 
  8 C        0.3090    -3.0070    -2.6550 C.ar  1 <1>   0.1600 
  9 C        1.5840     0.4080     1.9970 C.3   1 <1>  -0.1600 
 10 C        2.2310    -0.9210     2.3750 C.3   1 <1>  -0.1600 
 11 C        1.2290    -5.0700    -1.3700 C.ar  1 <1>   0.4100 
 12 N        0.6120    -4.0240    -3.4510 N.ar  1 <1>  -0.6200 
 13 N        1.6840    -6.1620    -0.6800 N.pl3 1 <1>  -0.8690 
 14 C        1.0810    -5.0460    -2.7660 C.ar  1 <1>   0.1600 
 15 C        1.0310    -7.4790    -0.8400 C.3   1 <1>   0.2090 
 16 C       -0.2500    -7.5020     0.0070 C.3   1 <1>  -0.1600 
 17 C       -1.1510    -8.7430    -0.2210 C.3   1 <1>   0.1430 
 18 C       -0.2340    -9.9950    -0.1470 C.ar  1 <1>  -0.1430 
 19 C       -2.2280    -8.7500     0.9070 C.3   1 <1>  -0.1600 
 20 C       -1.8860    -8.5890    -1.5850 C.3   1 <1>  -0.1600 
 21 C        0.3640   -10.3380     1.0640 C.ar  1 <1>  -0.1500 
 22 C        0.0730   -10.7860    -1.2540 C.ar  1 <1>  -0.1500 
 23 C       -3.6110    -9.3000     0.4970 C.3   1 <1>   0.2800 
 24 C       -3.2360    -7.8920    -1.4270 C.3   1 <1>   0.1200 
 25 C        1.1980   -11.4360     1.1770 C.ar  1 <1>  -0.1500 
 26 C        0.9070   -11.8850    -1.1460 C.ar  1 <1>  -0.1500 
 27 O       -4.0830    -8.7170    -0.6830 O.3   1 <1>  -0.5600 
 28 C       -4.6500    -8.9670     1.5670 C.3   1 <1>  -0.2400 
 29 C       -3.5840   -10.8150     0.2730 C.3   1 <1>  -0.2400 
 30 C        1.4680   -12.2160     0.0710 C.ar  1 <1>  -0.1500 
 31 H       -0.4980    -0.1230     1.8510 H     1 <1>   0.0800 
 32 H        0.1080     0.7560     0.4520 H     1 <1>   0.0800 
 33 H        2.7030    -1.8970     0.5110 H     1 <1>   0.0800 
 34 H        1.6910    -2.8560     1.5890 H     1 <1>   0.0800 
 35 H       -0.0870    -2.1270    -3.1320 H     1 <1>   0.1500 
 36 H        1.3330     1.0040     2.8570 H     1 <1>   0.0800 
 37 H        2.2460     0.9700     1.3610 H     1 <1>   0.0800 
 38 H        3.2920    -0.8340     2.5230 H     1 <1>   0.0800 
 39 H        1.7820    -1.3000     3.2760 H     1 <1>   0.0800 
 40 H        1.8250    -5.9240     0.3050 H     1 <1>   0.4000 
 41 H        1.3720    -5.9220    -3.3130 H     1 <1>   0.1500 
 42 H        1.7100    -8.2480    -0.5110 H     1 <1>   0.0800 
 43 H        0.8120    -7.6550    -1.8780 H     1 <1>   0.0800 
 44 H       -0.8230    -6.6140    -0.1970 H     1 <1>   0.0800 
 45 H        0.0450    -7.4660     1.0400 H     1 <1>   0.0800 
 46 H       -2.3880    -7.7410     1.2430 H     1 <1>   0.0800 
 47 H       -1.8980    -9.2910     1.7710 H     1 <1>   0.0800 
 48 H       -2.1170    -9.5430    -2.0180 H     1 <1>   0.0800 
 49 H       -1.2900    -8.0520    -2.2970 H     1 <1>   0.0800 
 50 H        0.1970    -9.7480     1.9460 H     1 <1>   0.1500 
 51 H       -0.3160   -10.5740    -2.2310 H     1 <1>   0.1500 
 52 H       -3.6990    -7.7350    -2.3860 H     1 <1>   0.0800 
 53 H       -3.1460    -6.9440    -0.9240 H     1 <1>   0.0800 
 54 H        1.6390   -11.6820     2.1280 H     1 <1>   0.1500 
 55 H        1.1200   -12.4840    -2.0140 H     1 <1>   0.1500 
 56 H       -4.7250    -7.9030     1.6960 H     1 <1>   0.0800 
 57 H       -4.3740    -9.4090     2.5070 H     1 <1>   0.0800 
 58 H       -5.6130    -9.3500     1.2800 H     1 <1>   0.0800 
 59 H       -2.8850   -11.0820    -0.4960 H     1 <1>   0.0800 
 60 H       -4.5600   -11.1650    -0.0100 H     1 <1>   0.0800 
 61 H       -3.2900   -11.3170     1.1760 H     1 <1>   0.0800 
 62 H        2.1150   -13.0730     0.1560 H     1 <1>   0.1500 
@<TRIPOS>BOND
  1   1   2  2   
  2   2   3  am  
  3   2   4  1   
  4   3   5  1   
  5   3   6  1   
  6   4   7  ar  
  7   4   8  ar  
  8   5   9  1   
  9   5  31  1   
 10   5  32  1   
 11   6  10  1   
 12   6  33  1   
 13   6  34  1   
 14   7  11  ar  
 15   8  12  ar  
 16   8  35  1   
 17   9  10  1   
 18   9  36  1   
 19   9  37  1   
 20  10  38  1   
 21  10  39  1   
 22  11  13  1   
 23  11  14  ar  
 24  12  14  ar  
 25  13  15  1   
 26  13  40  1   
 27  14  41  1   
 28  15  16  1   
 29  15  42  1   
 30  15  43  1   
 31  16  17  1   
 32  16  44  1   
 33  16  45  1   
 34  17  18  1   
 35  17  19  1   
 36  17  20  1   
 37  18  21  ar  
 38  18  22  ar  
 39  19  23  1   
 40  19  46  1   
 41  19  47  1   
 42  20  24  1   
 43  20  48  1   
 44  20  49  1   
 45  21  25  ar  
 46  21  50  1   
 47  22  26  ar  
 48  22  51  1   
 49  23  27  1   
 50  23  28  1   
 51  23  29  1   
 52  24  27  1   
 53  24  52  1   
 54  24  53  1   
 55  25  30  ar  
 56  25  54  1   
 57  26  30  ar  
 58  26  55  1   
 59  28  56  1   
 60  28  57  1   
 61  28  58  1   
 62  29  59  1   
 63  29  60  1   
 64  29  61  1   
 65  30  62  1   
@<TRIPOS>SUBSTRUCTURE
  1 ****  16 GROUP 4 **** **** 0

# MOE 2024.06 (io_trps.svl 2023.06)
