@<TRIPOS>MOLECULE
NONAME
39 40 1 0 0 
SMALL
USER_CHARGES


@<TRIPOS>ATOM
  1 O       -1.3450    -0.8060     0.9100 O.2   1 <1>  -0.5700 
  2 C       -2.1000     0.1360     0.9830 C.2   1 <1>   0.5690 
  3 N       -3.4520    -0.0440     1.1010 N.am  1 <1>  -0.6600 
  4 C       -1.4900     1.5240     0.9110 C.3   1 <1>  -0.0990 
  5 C       -4.0120    -1.4250     1.1890 C.3   1 <1>   0.3200 
  6 C       -4.4810     1.0260     0.9360 C.3   1 <1>   0.1400 
  7 C       -1.3380     1.9910    -0.5450 C.3   1 <1>  -0.0650 
  8 C       -4.1270    -2.0310    -0.1980 C.2   1 <1>   0.0060 
  9 C       -4.9450     1.5350     2.3040 C.3   1 <1>   0.1200 
 10 C       -0.9610     3.4780    -0.6420 C.3   1 <1>  -0.1900 
 11 N       -5.2350    -2.3610    -0.7820 N.2   1 <1>  -0.5650 
 12 N       -3.0290    -2.2740    -0.9430 N.pl3 1 <1>   0.0330 
 13 O       -5.8300     2.5900     2.1310 O.3   1 <1>  -0.6800 
 14 C       -1.3970     4.2280    -1.8580 C.3   1 <1>  -0.2000 
 15 C       -2.0410     4.5030    -0.5230 C.3   1 <1>  -0.2000 
 16 C        0.4250     3.8020    -0.0700 C.3   1 <1>  -0.1450 
 17 C       -4.8350    -2.8460    -1.9750 C.2   1 <1>   0.0770 
 18 C       -3.4900    -2.8000    -2.0920 C.2   1 <1>  -0.3020 
 19 H       -0.5230     1.4880     1.3780 H     1 <1>   0.0800 
 20 H       -2.0880     2.2200     1.4670 H     1 <1>   0.0800 
 21 H       -4.9840    -1.4020     1.6510 H     1 <1>   0.0800 
 22 H       -3.3720    -2.0410     1.7960 H     1 <1>   0.0800 
 23 H       -5.3240     0.6290     0.3950 H     1 <1>   0.0800 
 24 H       -4.0770     1.8410     0.3640 H     1 <1>   0.0800 
 25 H       -2.2630     1.8250    -1.0680 H     1 <1>   0.0800 
 26 H       -0.5860     1.3960    -1.0340 H     1 <1>   0.0800 
 27 H       -4.1150     1.8870     2.8920 H     1 <1>   0.0800 
 28 H       -5.4640     0.7580     2.8380 H     1 <1>   0.0800 
 29 H       -2.0640    -2.0590    -0.6530 H     1 <1>   0.2700 
 30 H       -5.3780     3.3810     1.7790 H     1 <1>   0.4000 
 31 H       -1.9740     3.7230    -2.6130 H     1 <1>   0.1000 
 32 H       -0.7470     4.9770    -2.2770 H     1 <1>   0.1000 
 33 H       -1.8260     5.4380    -0.0350 H     1 <1>   0.1000 
 34 H       -3.0600     4.1910    -0.3810 H     1 <1>   0.1000 
 35 H        1.1730     3.1920    -0.5440 H     1 <1>   0.0800 
 36 H        0.4510     3.6240     0.9890 H     1 <1>   0.0800 
 37 H        0.6740     4.8340    -0.2400 H     1 <1>   0.0800 
 38 H       -5.5480    -3.2070    -2.6980 H     1 <1>   0.1500 
 39 H       -2.8540    -3.1020    -2.9040 H     1 <1>   0.1500 
@<TRIPOS>BOND
  1   1   2  2   
  2   2   3  am  
  3   2   4  1   
  4   3   5  1   
  5   3   6  1   
  6   4   7  1   
  7   4  19  1   
  8   4  20  1   
  9   5   8  1   
 10   5  21  1   
 11   5  22  1   
 12   6   9  1   
 13   6  23  1   
 14   6  24  1   
 15   7  10  1   
 16   7  25  1   
 17   7  26  1   
 18   8  11  2   
 19   8  12  1   
 20   9  13  1   
 21   9  27  1   
 22   9  28  1   
 23  10  14  1   
 24  10  15  1   
 25  10  16  1   
 26  11  17  1   
 27  12  18  1   
 28  12  29  1   
 29  13  30  1   
 30  14  15  1   
 31  14  31  1   
 32  14  32  1   
 33  15  33  1   
 34  15  34  1   
 35  16  35  1   
 36  16  36  1   
 37  16  37  1   
 38  17  18  2   
 39  17  38  1   
 40  18  39  1   
@<TRIPOS>SUBSTRUCTURE
  1 ****   3 GROUP 4 **** **** 0

# MOE 2024.06 (io_trps.svl 2023.06)
