@<TRIPOS>MOLECULE
NONAME
54 57 1 0 0 
SMALL
USER_CHARGES


@<TRIPOS>ATOM
  1 O        1.0380    -0.6530    -1.3890 O.3   1 <1>  -0.5600 
  2 C        1.9760    -1.0680    -0.4200 C.3   1 <1>   0.4240 
  3 C       -0.2970    -0.9870    -1.1760 C.3   1 <1>   0.1200 
  4 C        1.6610    -2.4880     0.1020 C.ar  1 <1>  -0.1440 
  5 C        3.3350    -1.0440    -1.1300 C.3   1 <1>  -0.1600 
  6 C        1.9740    -0.0440     0.7260 C.3   1 <1>  -0.1600 
  7 C       -0.4430    -2.5030    -1.2640 C.3   1 <1>  -0.0160 
  8 C        0.5180    -3.1680    -0.2980 C.ar  1 <1>  -0.1440 
  9 C        2.5190    -3.1180     0.9950 C.ar  1 <1>  -0.1500 
 10 C        3.7090     0.3620    -1.6040 C.3   1 <1>   0.2090 
 11 C        2.3230     1.3590     0.2310 C.3   1 <1>   0.2090 
 12 C        0.2480    -4.4400     0.1790 C.ar  1 <1>  -0.1500 
 13 C        2.2690    -4.3910     1.4770 C.ar  1 <1>   0.0830 
 14 N        3.6260     1.3280    -0.4760 N.pl3 1 <1>  -0.8380 
 15 C        1.1070    -5.0690     1.0760 C.ar  1 <1>   0.0830 
 16 O        3.2120    -4.8770     2.3340 O.3   1 <1>  -0.3630 
 17 C        4.7660     1.7250     0.1910 C.ar  1 <1>   0.4100 
 18 O        0.8300    -6.3090     1.5770 O.3   1 <1>  -0.3630 
 19 C        3.5320    -6.2500     2.3590 C.3   1 <1>   0.0400 
 20 N        5.5810     0.7640     0.5720 N.ar  1 <1>  -0.6200 
 21 C        5.0400     3.0640     0.4650 C.ar  1 <1>  -0.1430 
 22 C       -0.4000    -6.9580     1.3400 C.3   1 <1>   0.0400 
 23 C        6.6440     1.1530     1.2410 C.ar  1 <1>   0.4700 
 24 C        6.1820     3.3330     1.1880 C.ar  1 <1>   0.1670 
 25 C        4.1130     4.1750    -0.0350 C.3   1 <1>  -0.0970 
 26 N        6.9990     2.3770     1.5810 N.ar  1 <1>  -0.6200 
 27 C        6.5980     4.7370     1.5880 C.3   1 <1>  -0.0970 
 28 H       -0.8830    -0.5070    -1.9400 H     1 <1>   0.0800 
 29 H       -0.6050    -0.6220    -0.2120 H     1 <1>   0.0800 
 30 H        3.3100    -1.7170    -1.9660 H     1 <1>   0.0800 
 31 H        4.1050    -1.3830    -0.4640 H     1 <1>   0.0800 
 32 H        2.7060    -0.3270     1.4590 H     1 <1>   0.0800 
 33 H        1.0210    -0.0370     1.2170 H     1 <1>   0.0800 
 34 H       -0.2300    -2.8250    -2.2670 H     1 <1>   0.0800 
 35 H       -1.4570    -2.7740    -1.0280 H     1 <1>   0.0800 
 36 H        3.4100    -2.6220     1.3340 H     1 <1>   0.1500 
 37 H        3.0380     0.6760    -2.3840 H     1 <1>   0.0800 
 38 H        4.7090     0.3560    -2.0030 H     1 <1>   0.0800 
 39 H        2.3770     2.0330     1.0680 H     1 <1>   0.0800 
 40 H        1.5640     1.7150    -0.4450 H     1 <1>   0.0800 
 41 H       -0.6440    -4.9270    -0.1610 H     1 <1>   0.1500 
 42 H        4.5110    -6.3580     2.7870 H     1 <1>   0.0800 
 43 H        3.5230    -6.6330     1.3540 H     1 <1>   0.0800 
 44 H        2.8100    -6.7630     2.9690 H     1 <1>   0.0800 
 45 H       -0.4030    -7.8790     1.8950 H     1 <1>   0.0800 
 46 H       -0.4890    -7.1660     0.2890 H     1 <1>   0.0800 
 47 H       -1.2010    -6.3250     1.6800 H     1 <1>   0.0800 
 48 H        7.3110     0.3680     1.5540 H     1 <1>   0.1500 
 49 H        3.5940     3.8680    -0.9250 H     1 <1>   0.0800 
 50 H        4.6680     5.0600    -0.2830 H     1 <1>   0.0800 
 51 H        3.3880     4.4130     0.7220 H     1 <1>   0.0800 
 52 H        5.7430     5.3400     1.8260 H     1 <1>   0.0800 
 53 H        7.1470     5.1920     0.7850 H     1 <1>   0.0800 
 54 H        7.2310     4.7000     2.4570 H     1 <1>   0.0800 
@<TRIPOS>BOND
  1   1   2  1   
  2   1   3  1   
  3   2   4  1   
  4   2   5  1   
  5   2   6  1   
  6   3   7  1   
  7   3  28  1   
  8   3  29  1   
  9   4   8  ar  
 10   4   9  ar  
 11   5  10  1   
 12   5  30  1   
 13   5  31  1   
 14   6  11  1   
 15   6  32  1   
 16   6  33  1   
 17   7   8  1   
 18   7  34  1   
 19   7  35  1   
 20   8  12  ar  
 21   9  13  ar  
 22   9  36  1   
 23  10  14  1   
 24  10  37  1   
 25  10  38  1   
 26  11  14  1   
 27  11  39  1   
 28  11  40  1   
 29  12  15  ar  
 30  12  41  1   
 31  13  15  ar  
 32  13  16  1   
 33  14  17  1   
 34  15  18  1   
 35  16  19  1   
 36  17  20  ar  
 37  17  21  ar  
 38  18  22  1   
 39  19  42  1   
 40  19  43  1   
 41  19  44  1   
 42  20  23  ar  
 43  21  24  ar  
 44  21  25  1   
 45  22  45  1   
 46  22  46  1   
 47  22  47  1   
 48  23  26  ar  
 49  23  48  1   
 50  24  26  ar  
 51  24  27  1   
 52  25  49  1   
 53  25  50  1   
 54  25  51  1   
 55  27  52  1   
 56  27  53  1   
 57  27  54  1   
@<TRIPOS>SUBSTRUCTURE
  1 ****   2 GROUP 4 **** **** 0

# MOE 2024.06 (io_trps.svl 2023.06)
