@<TRIPOS>MOLECULE
NONAME
55 58 1 0 0 
SMALL
USER_CHARGES


@<TRIPOS>ATOM
  1 O       -0.6390    -0.4580    -2.2190 O.2   1 <1>  -0.5700 
  2 C       -1.4570    -0.7620    -1.3840 C.2   1 <1>   0.5690 
  3 N       -2.1470     0.1700    -0.6680 N.am  1 <1>  -0.6600 
  4 C       -1.6910    -2.2330    -1.1270 C.3   1 <1>  -0.0190 
  5 C       -3.3240    -0.2120     0.1630 C.3   1 <1>   0.2200 
  6 C       -1.8730     1.6290    -0.7990 C.3   1 <1>   0.0600 
  7 C       -1.4020    -2.5670     0.3470 C.3   1 <1>   0.1200 
  8 C       -3.0330    -2.7230    -1.7120 C.3   1 <1>   0.1400 
  9 C       -2.9120    -1.0320     1.4140 C.3   1 <1>   0.1200 
 10 C       -4.4160    -0.8390    -0.7330 C.3   1 <1>   0.1400 
 11 O       -2.4950    -2.3530     1.1810 O.3   1 <1>  -0.5600 
 12 N       -4.2760    -2.3160    -0.9710 N.am  1 <1>  -0.6600 
 13 C       -5.1590    -3.1740    -0.3240 C.2   1 <1>   0.5690 
 14 O       -5.8620    -2.7200     0.5550 O.2   1 <1>  -0.5700 
 15 C       -5.3140    -4.7020    -0.6310 C.3   1 <1>   0.2040 
 16 C       -6.7330    -5.2060    -0.2270 C.ar  1 <1>  -0.1430 
 17 C       -5.1600    -5.1090    -2.1270 C.3   1 <1>  -0.1600 
 18 C       -4.1750    -5.4690     0.0800 C.3   1 <1>  -0.1600 
 19 C       -6.9780    -6.3210     0.5750 C.ar  1 <1>  -0.1500 
 20 C       -7.8400    -4.5180    -0.7190 C.ar  1 <1>  -0.1500 
 21 C       -4.0900    -6.2070    -2.2160 C.3   1 <1>  -0.1600 
 22 C       -3.8700    -6.6900    -0.7860 C.3   1 <1>  -0.1600 
 23 C       -8.2680    -6.7260     0.8720 C.ar  1 <1>  -0.1500 
 24 C       -9.1300    -4.9190    -0.4270 C.ar  1 <1>  -0.1500 
 25 C       -9.3580    -6.0250     0.3700 C.ar  1 <1>   0.0820 
 26 O      -10.6510    -6.3570     0.6110 O.3   1 <1>  -0.3620 
 27 C      -10.9820    -7.4310     1.4620 C.3   1 <1>   0.0400 
 28 H       -0.9270    -2.7380    -1.6890 H     1 <1>   0.0800 
 29 H       -3.7470     0.7040     0.5380 H     1 <1>   0.0800 
 30 H       -1.7290     2.0620     0.1750 H     1 <1>   0.0800 
 31 H       -2.7010     2.1140    -1.2860 H     1 <1>   0.0800 
 32 H       -0.9840     1.7990    -1.3820 H     1 <1>   0.0800 
 33 H       -0.5680    -1.9950     0.7180 H     1 <1>   0.0800 
 34 H       -1.1570    -3.6110     0.4310 H     1 <1>   0.0800 
 35 H       -2.9700    -3.7880    -1.7510 H     1 <1>   0.0800 
 36 H       -3.1150    -2.3730    -2.7270 H     1 <1>   0.0800 
 37 H       -3.7650    -1.1030     2.0660 H     1 <1>   0.0800 
 38 H       -2.1290    -0.5220     1.9460 H     1 <1>   0.0800 
 39 H       -4.4250    -0.3330    -1.6820 H     1 <1>   0.0800 
 40 H       -5.3680    -0.6330    -0.2780 H     1 <1>   0.0800 
 41 H       -6.0830    -5.5150    -2.5050 H     1 <1>   0.0800 
 42 H       -4.9180    -4.2760    -2.7590 H     1 <1>   0.0800 
 43 H       -3.2950    -4.8550     0.1170 H     1 <1>   0.0800 
 44 H       -4.4080    -5.7140     1.1000 H     1 <1>   0.0800 
 45 H       -6.1780    -6.9040     0.9860 H     1 <1>   0.1500 
 46 H       -7.7000    -3.6490    -1.3380 H     1 <1>   0.1500 
 47 H       -4.4040    -7.0140    -2.8550 H     1 <1>   0.0800 
 48 H       -3.1730    -5.8020    -2.6060 H     1 <1>   0.0800 
 49 H       -2.8690    -7.0560    -0.6320 H     1 <1>   0.0800 
 50 H       -4.5680    -7.4790    -0.5680 H     1 <1>   0.0800 
 51 H       -8.4020    -7.5890     1.4950 H     1 <1>   0.1500 
 52 H       -9.9700    -4.3710    -0.8140 H     1 <1>   0.1500 
 53 H      -12.0530    -7.4900     1.5230 H     1 <1>   0.0800 
 54 H      -10.5690    -7.2420     2.4370 H     1 <1>   0.0800 
 55 H      -10.5880    -8.3400     1.0440 H     1 <1>   0.0800 
@<TRIPOS>BOND
  1   1   2  2   
  2   2   3  am  
  3   2   4  1   
  4   3   5  1   
  5   3   6  1   
  6   4   7  1   
  7   4   8  1   
  8   4  28  1   
  9   5   9  1   
 10   5  10  1   
 11   5  29  1   
 12   6  30  1   
 13   6  31  1   
 14   6  32  1   
 15   7  11  1   
 16   7  33  1   
 17   7  34  1   
 18   8  12  1   
 19   8  35  1   
 20   8  36  1   
 21   9  11  1   
 22   9  37  1   
 23   9  38  1   
 24  10  12  1   
 25  10  39  1   
 26  10  40  1   
 27  12  13  am  
 28  13  14  2   
 29  13  15  1   
 30  15  16  1   
 31  15  17  1   
 32  15  18  1   
 33  16  19  ar  
 34  16  20  ar  
 35  17  21  1   
 36  17  41  1   
 37  17  42  1   
 38  18  22  1   
 39  18  43  1   
 40  18  44  1   
 41  19  23  ar  
 42  19  45  1   
 43  20  24  ar  
 44  20  46  1   
 45  21  22  1   
 46  21  47  1   
 47  21  48  1   
 48  22  49  1   
 49  22  50  1   
 50  23  25  ar  
 51  23  51  1   
 52  24  25  ar  
 53  24  52  1   
 54  25  26  1   
 55  26  27  1   
 56  27  53  1   
 57  27  54  1   
 58  27  55  1   
@<TRIPOS>SUBSTRUCTURE
  1 ****  13 GROUP 4 **** **** 0

# MOE 2024.06 (io_trps.svl 2023.06)
