@<TRIPOS>MOLECULE
NONAME
57 59 1 0 0 
SMALL
USER_CHARGES


@<TRIPOS>ATOM
  1 O       -0.9690     0.3050    -0.4150 O.2   1 <1>  -0.5700 
  2 C       -1.9580     0.9630    -0.6240 C.2   1 <1>   0.5690 
  3 N       -3.0650     0.3980    -1.2080 N.am  1 <1>  -0.6600 
  4 C       -1.9600     2.4280    -0.2110 C.3   1 <1>  -0.0990 
  5 C       -4.4200     1.0360    -1.2940 C.3   1 <1>   0.1400 
  6 C       -3.0030    -0.9960    -1.7690 C.3   1 <1>   0.1400 
  7 C       -0.5750     2.9630     0.2120 C.3   1 <1>  -0.0990 
  8 C       -5.5200     0.1590    -0.6340 C.3   1 <1>   0.4230 
  9 C       -4.2500    -1.8340    -1.4150 C.3   1 <1>   0.3430 
 10 C       -0.5830     4.4410     0.5620 C.2   1 <1>   0.5690 
 11 N       -5.0190    -1.2270    -0.2710 N.4   1 <1>  -0.9590 
 12 C       -6.7720     0.0800    -1.5380 C.3   1 <1>   0.1200 
 13 O       -1.6390     4.9900     0.7590 O.2   1 <1>  -0.5700 
 14 N        0.6310     5.0660     0.6280 N.am  1 <1>  -0.5470 
 15 C       -6.1450    -2.0660     0.2670 C.3   1 <1>   0.4230 
 16 O       -7.7520    -0.7310    -0.9590 O.3   1 <1>  -0.5600 
 17 C        0.9860     6.3960     0.9120 C.ar  1 <1>   0.1170 
 18 C       -7.3600    -2.0490    -0.6910 C.3   1 <1>   0.1200 
 19 C       -5.6580    -3.4870     0.5940 C.3   1 <1>  -0.1600 
 20 C        0.1210     7.3110     1.5040 C.ar  1 <1>  -0.1500 
 21 C        2.2750     6.8150     0.5940 C.ar  1 <1>  -0.1500 
 22 C       -6.6490    -4.2560     1.4810 C.3   1 <1>  -0.1600 
 23 C        0.5400     8.6050     1.7600 C.ar  1 <1>   0.0820 
 24 C        2.6930     8.1090     0.8530 C.ar  1 <1>  -0.1500 
 25 C       -6.0930    -5.6340     1.8510 C.3   1 <1>  -0.2400 
 26 O       -0.3000     9.4840     2.3270 O.3   1 <1>  -0.5330 
 27 C        1.8230     9.0100     1.4390 C.ar  1 <1>  -0.1500 
 28 H       -2.3130     3.0170    -1.0370 H     1 <1>   0.0800 
 29 H       -2.6430     2.5500     0.6110 H     1 <1>   0.0800 
 30 H       -4.4280     2.0020    -0.8230 H     1 <1>   0.0800 
 31 H       -4.6520     1.1960    -2.3330 H     1 <1>   0.0800 
 32 H       -2.8960    -0.9450    -2.8390 H     1 <1>   0.0800 
 33 H       -2.1340    -1.5100    -1.3930 H     1 <1>   0.0800 
 34 H        0.1210     2.8010    -0.5910 H     1 <1>   0.0800 
 35 H       -0.2290     2.4150     1.0700 H     1 <1>   0.0800 
 36 H       -5.8240     0.6570     0.2710 H     1 <1>   0.0800 
 37 H       -3.9280    -2.8320    -1.1670 H     1 <1>   0.0800 
 38 H       -4.8840    -1.9040    -2.2820 H     1 <1>   0.0800 
 39 H       -4.3280    -1.0890     0.4800 H     1 <1>   0.4500 
 40 H       -6.5330    -0.3140    -2.5110 H     1 <1>   0.0800 
 41 H       -7.2000     1.0600    -1.6640 H     1 <1>   0.0800 
 42 H        1.4240     4.4680     0.4080 H     1 <1>   0.3700 
 43 H       -6.4760    -1.6240     1.1930 H     1 <1>   0.0800 
 44 H       -8.2010    -2.5430    -0.2370 H     1 <1>   0.0800 
 45 H       -7.1370    -2.5420    -1.6200 H     1 <1>   0.0800 
 46 H       -5.5050    -4.0470    -0.3120 H     1 <1>   0.0800 
 47 H       -4.7220    -3.4240     1.1220 H     1 <1>   0.0800 
 48 H       -0.8750     7.0190     1.7700 H     1 <1>   0.1500 
 49 H        2.9610     6.1270     0.1360 H     1 <1>   0.1500 
 50 H       -6.8390    -3.7050     2.3880 H     1 <1>   0.0800 
 51 H       -7.5880    -4.3940     0.9720 H     1 <1>   0.0800 
 52 H        3.6930     8.4180     0.6000 H     1 <1>   0.1500 
 53 H       -5.1700    -5.5400     2.3960 H     1 <1>   0.0800 
 54 H       -5.9160    -6.2250     0.9690 H     1 <1>   0.0800 
 55 H       -6.7980    -6.1600     2.4720 H     1 <1>   0.0800 
 56 H       -1.1840     9.1090     2.4900 H     1 <1>   0.4500 
 57 H        2.1280    10.0200     1.6480 H     1 <1>   0.1500 
@<TRIPOS>BOND
  1   1   2  2   
  2   2   3  am  
  3   2   4  1   
  4   3   5  1   
  5   3   6  1   
  6   4   7  1   
  7   4  28  1   
  8   4  29  1   
  9   5   8  1   
 10   5  30  1   
 11   5  31  1   
 12   6   9  1   
 13   6  32  1   
 14   6  33  1   
 15   7  10  1   
 16   7  34  1   
 17   7  35  1   
 18   8  11  1   
 19   8  12  1   
 20   8  36  1   
 21   9  11  1   
 22   9  37  1   
 23   9  38  1   
 24  10  13  2   
 25  10  14  am  
 26  11  15  1   
 27  11  39  1   
 28  12  16  1   
 29  12  40  1   
 30  12  41  1   
 31  14  17  1   
 32  14  42  1   
 33  15  18  1   
 34  15  19  1   
 35  15  43  1   
 36  16  18  1   
 37  17  20  ar  
 38  17  21  ar  
 39  18  44  1   
 40  18  45  1   
 41  19  22  1   
 42  19  46  1   
 43  19  47  1   
 44  20  23  ar  
 45  20  48  1   
 46  21  24  ar  
 47  21  49  1   
 48  22  25  1   
 49  22  50  1   
 50  22  51  1   
 51  23  26  1   
 52  23  27  ar  
 53  24  27  ar  
 54  24  52  1   
 55  25  53  1   
 56  25  54  1   
 57  25  55  1   
 58  26  56  1   
 59  27  57  1   
@<TRIPOS>SUBSTRUCTURE
  1 ****   4 GROUP 4 **** **** 0

# MOE 2024.06 (io_trps.svl 2023.06)
