@<TRIPOS>MOLECULE
NONAME
49 51 1 0 0 
SMALL
USER_CHARGES


@<TRIPOS>ATOM
  1 O       -1.3820     0.3920     2.0660 O.2   1 <1>  -0.5700 
  2 C       -2.1780     0.9560     1.3510 C.2   1 <1>   0.5690 
  3 N       -3.5030     0.5710     1.3260 N.am  1 <1>  -0.6600 
  4 C       -1.6100     2.1130     0.5140 C.3   1 <1>  -0.0190 
  5 C       -4.5870     1.1600     0.4870 C.3   1 <1>   0.1400 
  6 C       -3.9830    -0.5320     2.2120 C.3   1 <1>   0.1400 
  7 C       -2.1550     3.4940     0.9400 C.3   1 <1>  -0.1600 
  8 C       -1.6620     1.8600    -1.0140 C.3   1 <1>  -0.1600 
  9 C       -5.2200     0.0700    -0.3820 C.3   1 <1>  -0.1600 
 10 C       -4.6000    -1.6450     1.3610 C.3   1 <1>  -0.1600 
 11 C       -1.4580     4.6580     0.2060 C.3   1 <1>   0.2000 
 12 C       -1.7690     3.1530    -1.8420 C.3   1 <1>  -0.1600 
 13 C       -5.7250    -1.1050     0.4680 C.3   1 <1>   0.0630 
 14 O       -2.3870     5.7090     0.0900 O.3   1 <1>  -0.5600 
 15 C       -0.9420     4.2720    -1.2070 C.3   1 <1>   0.2000 
 16 C       -6.3100    -2.2040    -0.4130 C.ar  1 <1>  -0.1440 
 17 C       -2.5120     6.5150     1.2200 C.3   1 <1>   0.0400 
 18 O       -1.0120     5.3730    -2.0350 O.3   1 <1>  -0.6800 
 19 C       -7.6420    -2.5640    -0.3300 C.ar  1 <1>  -0.1500 
 20 C       -5.5560    -2.9010    -1.3380 C.ar  1 <1>  -0.1500 
 21 C       -8.1370    -3.5660    -1.1480 C.ar  1 <1>   0.1600 
 22 C       -6.1490    -3.8870    -2.1080 C.ar  1 <1>   0.1600 
 23 N       -7.4220    -4.2370    -2.0360 N.ar  1 <1>  -0.6200 
 24 H       -0.5620     2.1470     0.7590 H     1 <1>   0.0800 
 25 H       -5.3320     1.5910     1.1330 H     1 <1>   0.0800 
 26 H       -4.2170     1.9370    -0.1520 H     1 <1>   0.0800 
 27 H       -3.1770    -0.9390     2.7980 H     1 <1>   0.0800 
 28 H       -4.7170    -0.1390     2.8940 H     1 <1>   0.0800 
 29 H       -2.0110     3.6120     1.9990 H     1 <1>   0.0800 
 30 H       -3.2090     3.5480     0.7460 H     1 <1>   0.0800 
 31 H       -0.7610     1.3400    -1.2940 H     1 <1>   0.0800 
 32 H       -2.4760     1.2110    -1.2770 H     1 <1>   0.0800 
 33 H       -6.0410     0.4880    -0.9370 H     1 <1>   0.0800 
 34 H       -4.4890    -0.2750    -1.0910 H     1 <1>   0.0800 
 35 H       -3.8220    -2.0850     0.7630 H     1 <1>   0.0800 
 36 H       -4.9900    -2.4110     2.0070 H     1 <1>   0.0800 
 37 H       -0.6120     5.0020     0.7770 H     1 <1>   0.0800 
 38 H       -2.7980     3.4650    -1.8880 H     1 <1>   0.0800 
 39 H       -1.4250     2.9670    -2.8450 H     1 <1>   0.0800 
 40 H       -6.5040    -0.7330     1.1120 H     1 <1>   0.0800 
 41 H        0.0880     3.9640    -1.1550 H     1 <1>   0.0800 
 42 H       -3.2400     7.2790     1.0080 H     1 <1>   0.0800 
 43 H       -1.5620     6.9740     1.4370 H     1 <1>   0.0800 
 44 H       -2.8460     5.9210     2.0530 H     1 <1>   0.0800 
 45 H       -1.7310     5.9360    -1.6640 H     1 <1>   0.4000 
 46 H       -8.3020    -2.0750     0.3620 H     1 <1>   0.1500 
 47 H       -4.5110    -2.6870    -1.4690 H     1 <1>   0.1500 
 48 H       -9.1780    -3.8300    -1.0670 H     1 <1>   0.1500 
 49 H       -5.5420    -4.4170    -2.8220 H     1 <1>   0.1500 
@<TRIPOS>BOND
  1   1   2  2   
  2   2   3  am  
  3   2   4  1   
  4   3   5  1   
  5   3   6  1   
  6   4   7  1   
  7   4   8  1   
  8   4  24  1   
  9   5   9  1   
 10   5  25  1   
 11   5  26  1   
 12   6  10  1   
 13   6  27  1   
 14   6  28  1   
 15   7  11  1   
 16   7  29  1   
 17   7  30  1   
 18   8  12  1   
 19   8  31  1   
 20   8  32  1   
 21   9  13  1   
 22   9  33  1   
 23   9  34  1   
 24  10  13  1   
 25  10  35  1   
 26  10  36  1   
 27  11  14  1   
 28  11  15  1   
 29  11  37  1   
 30  12  15  1   
 31  12  38  1   
 32  12  39  1   
 33  13  16  1   
 34  13  40  1   
 35  14  17  1   
 36  15  18  1   
 37  15  41  1   
 38  16  19  ar  
 39  16  20  ar  
 40  17  42  1   
 41  17  43  1   
 42  17  44  1   
 43  18  45  1   
 44  19  21  ar  
 45  19  46  1   
 46  20  22  ar  
 47  20  47  1   
 48  21  23  ar  
 49  21  48  1   
 50  22  23  ar  
 51  22  49  1   
@<TRIPOS>SUBSTRUCTURE
  1 ****   5 GROUP 4 **** **** 0

# MOE 2024.06 (io_trps.svl 2023.06)
