@<TRIPOS>MOLECULE
NONAME
47 49 1 0 0 
SMALL
USER_CHARGES


@<TRIPOS>ATOM
  1 CL       2.2020    -5.5400    -3.1830 Cl    1 <1>  -0.1770 
  2 C        1.0750    -5.1260    -1.9150 C.ar  1 <1>   0.1770 
  3 C        0.0200    -4.2790    -2.1980 C.ar  1 <1>  -0.1500 
  4 C        1.2570    -5.6490    -0.6500 C.ar  1 <1>  -0.1500 
  5 C       -0.8810    -3.9480    -1.1980 C.ar  1 <1>  -0.1440 
  6 C        0.3610    -5.3220     0.3530 C.ar  1 <1>  -0.1500 
  7 C       -0.7160    -4.4760     0.0830 C.ar  1 <1>   0.0830 
  8 C       -2.0350    -3.0040    -1.5100 C.3   1 <1>  -0.0960 
  9 O       -1.6390    -4.1300     1.0190 O.3   1 <1>  -0.3630 
 10 C       -1.5720    -4.5550     2.3760 C.3   1 <1>   0.1810 
 11 C       -1.8250    -6.0540     2.5810 C.2   1 <1>   0.5690 
 12 O       -0.9920    -6.6400     3.2350 O.2   1 <1>  -0.5700 
 13 N       -2.9360    -6.7110     2.0920 N.am  1 <1>  -0.6600 
 14 C       -3.9920    -6.0340     1.2800 C.3   1 <1>   0.2200 
 15 C       -3.0880    -8.1800     2.3440 C.3   1 <1>   0.0600 
 16 C       -3.9080    -6.3990    -0.1980 C.3   1 <1>  -0.1600 
 17 C       -5.4260    -6.3850     1.6720 C.3   1 <1>  -0.1600 
 18 C       -5.2740    -5.9990    -0.7670 C.3   1 <1>  -0.0800 
 19 C       -6.2570    -6.0230     0.4320 C.3   1 <1>  -0.0800 
 20 C       -5.6820    -6.8460    -1.9890 C.3   1 <1>   0.1400 
 21 C       -7.4770    -6.9440     0.2320 C.3   1 <1>  -0.0990 
 22 N       -7.1430    -6.7600    -2.1870 N.am  1 <1>  -0.7300 
 23 C       -8.0280    -6.8010    -1.1700 C.2   1 <1>   0.5690 
 24 O       -9.2140    -6.7380    -1.3620 O.2   1 <1>  -0.5700 
 25 H       -0.0820    -3.8880    -3.1930 H     1 <1>   0.1500 
 26 H        2.0880    -6.3020    -0.4550 H     1 <1>   0.1500 
 27 H        0.5230    -5.7390     1.3290 H     1 <1>   0.1500 
 28 H       -2.0320    -2.7150    -2.5450 H     1 <1>   0.0800 
 29 H       -1.9490    -2.1170    -0.9070 H     1 <1>   0.0800 
 30 H       -2.9730    -3.4790    -1.2900 H     1 <1>   0.0800 
 31 H       -0.6050    -4.2890     2.7610 H     1 <1>   0.0800 
 32 H       -2.3130    -4.0030     2.9210 H     1 <1>   0.0800 
 33 H       -3.9010    -4.9660     1.3650 H     1 <1>   0.0800 
 34 H       -3.5280    -8.6730     1.4970 H     1 <1>   0.0800 
 35 H       -3.7120    -8.3330     3.2070 H     1 <1>   0.0800 
 36 H       -2.1300    -8.6350     2.5310 H     1 <1>   0.0800 
 37 H       -3.1050    -5.8800    -0.6890 H     1 <1>   0.0800 
 38 H       -3.7610    -7.4580    -0.3080 H     1 <1>   0.0800 
 39 H       -5.5240    -7.4350     1.8710 H     1 <1>   0.0800 
 40 H       -5.7430    -5.8280     2.5350 H     1 <1>   0.0800 
 41 H       -5.2010    -4.9770    -1.0980 H     1 <1>   0.0800 
 42 H       -6.6270    -5.0190     0.5550 H     1 <1>   0.0800 
 43 H       -5.4230    -7.8800    -1.8320 H     1 <1>   0.0800 
 44 H       -5.1700    -6.4950    -2.8680 H     1 <1>   0.0800 
 45 H       -8.2440    -6.7050     0.9460 H     1 <1>   0.0800 
 46 H       -7.2000    -7.9730     0.3650 H     1 <1>   0.0800 
 47 H       -7.5150    -6.7030    -3.1370 H     1 <1>   0.3700 
@<TRIPOS>BOND
  1   1   2  1   
  2   2   3  ar  
  3   2   4  ar  
  4   3   5  ar  
  5   3  25  1   
  6   4   6  ar  
  7   4  26  1   
  8   5   7  ar  
  9   5   8  1   
 10   6   7  ar  
 11   6  27  1   
 12   7   9  1   
 13   8  28  1   
 14   8  29  1   
 15   8  30  1   
 16   9  10  1   
 17  10  11  1   
 18  10  31  1   
 19  10  32  1   
 20  11  12  2   
 21  11  13  am  
 22  13  14  1   
 23  13  15  1   
 24  14  16  1   
 25  14  17  1   
 26  14  33  1   
 27  15  34  1   
 28  15  35  1   
 29  15  36  1   
 30  16  18  1   
 31  16  37  1   
 32  16  38  1   
 33  17  19  1   
 34  17  39  1   
 35  17  40  1   
 36  18  19  1   
 37  18  20  1   
 38  18  41  1   
 39  19  21  1   
 40  19  42  1   
 41  20  22  1   
 42  20  43  1   
 43  20  44  1   
 44  21  23  1   
 45  21  45  1   
 46  21  46  1   
 47  22  23  am  
 48  22  47  1   
 49  23  24  2   
@<TRIPOS>SUBSTRUCTURE
  1 ****  16 GROUP 4 **** **** 0

# MOE 2024.06 (io_trps.svl 2023.06)
