@<TRIPOS>MOLECULE
NONAME
50 53 1 0 0 
SMALL
USER_CHARGES


@<TRIPOS>ATOM
  1 O        0.7880    -0.3720     1.2900 O.3   1 <1>  -0.5600 
  2 C        1.8840    -0.8490     0.5420 C.3   1 <1>   0.4240 
  3 C       -0.4870    -0.7730     0.8940 C.3   1 <1>   0.1200 
  4 C        1.6830    -2.3180     0.1080 C.ar  1 <1>  -0.1440 
  5 C        3.0960    -0.7260     1.4730 C.3   1 <1>  -0.1600 
  6 C        2.0660     0.0670    -0.6790 C.3   1 <1>  -0.1600 
  7 C       -0.6160    -2.2780     1.1060 C.3   1 <1>  -0.0160 
  8 C        0.5010    -2.9960     0.3760 C.ar  1 <1>  -0.1440 
  9 C        2.6890    -2.9940    -0.5710 C.ar  1 <1>  -0.1500 
 10 C        3.3820     0.7280     1.8540 C.3   1 <1>   0.2090 
 11 C        2.3270     1.5130    -0.2650 C.3   1 <1>   0.2090 
 12 C        0.3360    -4.3130    -0.0220 C.ar  1 <1>  -0.1500 
 13 C        2.5430    -4.3110    -0.9700 C.ar  1 <1>   0.0820 
 14 N        3.5140     1.5630     0.6260 N.pl3 1 <1>  -0.8380 
 15 C        1.3430    -4.9880    -0.7050 C.ar  1 <1>   0.0820 
 16 O        3.6200    -4.8430    -1.6150 O.3   1 <1>  -0.3630 
 17 C        4.7600     1.8320     0.0910 C.ar  1 <1>   0.4100 
 18 O        1.1780    -6.2750    -1.1320 O.3   1 <1>  -0.3630 
 19 C        3.9930    -6.1850    -1.3970 C.3   1 <1>   0.0400 
 20 N        5.7070     0.9140     0.2440 N.ar  1 <1>  -0.6200 
 21 C        4.9730     3.0290    -0.5820 C.ar  1 <1>  -0.1500 
 22 C       -0.0650    -6.9380    -1.0520 C.3   1 <1>   0.0400 
 23 C        6.8810     1.1890    -0.2920 C.ar  1 <1>   0.1600 
 24 C        6.1990     3.3150    -1.1430 C.ar  1 <1>   0.0730 
 25 C        7.1760     2.3470    -0.9820 C.ar  1 <1>  -0.1500 
 26 C        6.4460     4.5380    -1.8500 C.1   1 <1>   0.4840 
 27 N        6.6460     5.5060    -2.4180 N.1   1 <1>  -0.5570 
 28 H       -0.6360    -0.5130    -0.1390 H     1 <1>   0.0800 
 29 H       -1.2010    -0.2440     1.4990 H     1 <1>   0.0800 
 30 H        3.9720    -1.1200     0.9950 H     1 <1>   0.0800 
 31 H        2.9230    -1.3080     2.3590 H     1 <1>   0.0800 
 32 H        1.2030     0.0130    -1.3150 H     1 <1>   0.0800 
 33 H        2.9070    -0.2700    -1.2570 H     1 <1>   0.0800 
 34 H       -1.5730    -2.6050     0.7400 H     1 <1>   0.0800 
 35 H       -0.5620    -2.4970     2.1580 H     1 <1>   0.0800 
 36 H        3.6160    -2.5030    -0.8020 H     1 <1>   0.1500 
 37 H        4.2870     0.7820     2.4350 H     1 <1>   0.0800 
 38 H        2.5770     1.1140     2.4550 H     1 <1>   0.0800 
 39 H        1.4740     1.9100     0.2600 H     1 <1>   0.0800 
 40 H        2.4920     2.1130    -1.1430 H     1 <1>   0.0800 
 41 H       -0.5910    -4.7980     0.2110 H     1 <1>   0.1500 
 42 H        5.0330    -6.2880    -1.6440 H     1 <1>   0.0800 
 43 H        3.4030    -6.8170    -2.0360 H     1 <1>   0.0800 
 44 H        3.8320    -6.4320    -0.3620 H     1 <1>   0.0800 
 45 H        4.1640     3.7310    -0.6490 H     1 <1>   0.1500 
 46 H        0.0420    -7.9020    -1.5170 H     1 <1>   0.0800 
 47 H       -0.8040    -6.3600    -1.5770 H     1 <1>   0.0800 
 48 H       -0.3300    -7.0610    -0.0170 H     1 <1>   0.0800 
 49 H        7.6510     0.4460    -0.1720 H     1 <1>   0.1500 
 50 H        8.1590     2.4950    -1.3910 H     1 <1>   0.1500 
@<TRIPOS>BOND
  1   1   2  1   
  2   1   3  1   
  3   2   4  1   
  4   2   5  1   
  5   2   6  1   
  6   3   7  1   
  7   3  28  1   
  8   3  29  1   
  9   4   8  ar  
 10   4   9  ar  
 11   5  10  1   
 12   5  30  1   
 13   5  31  1   
 14   6  11  1   
 15   6  32  1   
 16   6  33  1   
 17   7   8  1   
 18   7  34  1   
 19   7  35  1   
 20   8  12  ar  
 21   9  13  ar  
 22   9  36  1   
 23  10  14  1   
 24  10  37  1   
 25  10  38  1   
 26  11  14  1   
 27  11  39  1   
 28  11  40  1   
 29  12  15  ar  
 30  12  41  1   
 31  13  15  ar  
 32  13  16  1   
 33  14  17  1   
 34  15  18  1   
 35  16  19  1   
 36  17  20  ar  
 37  17  21  ar  
 38  18  22  1   
 39  19  42  1   
 40  19  43  1   
 41  19  44  1   
 42  20  23  ar  
 43  21  24  ar  
 44  21  45  1   
 45  22  46  1   
 46  22  47  1   
 47  22  48  1   
 48  23  25  ar  
 49  23  49  1   
 50  24  25  ar  
 51  24  26  1   
 52  25  50  1   
 53  26  27  3   
@<TRIPOS>SUBSTRUCTURE
  1 ****   2 GROUP 4 **** **** 0

# MOE 2024.06 (io_trps.svl 2023.06)
