@<TRIPOS>MOLECULE
NONAME
38 40 1 0 0 
SMALL
USER_CHARGES


@<TRIPOS>ATOM
  1 O        0.2440     2.2250     0.5950 O.co2 1 <1>  -0.9000 
  2 C        1.4270     2.3230     0.9450 C.2   1 <1>   0.9470 
  3 O        1.7730     3.1700     1.7820 O.co2 1 <1>  -0.9000 
  4 C        2.5170     1.5600     0.1820 C.3   1 <1>  -0.2420 
  5 C        3.1100     0.1790     0.3410 C.3   1 <1>  -0.2420 
  6 C        3.6440     2.4970    -0.2040 C.3   1 <1>   0.2350 
  7 C        2.1000     0.4440    -0.7440 C.3   1 <1>  -0.2000 
  8 C        2.8310    -0.9100     1.3770 C.2   1 <1>   0.9470 
  9 C        4.5950     0.2580     0.0310 C.3   1 <1>   0.2350 
 10 N        4.8180     1.6300    -0.5040 N.am  1 <1>  -0.6600 
 11 O        3.4020    -0.8540     2.4750 O.co2 1 <1>  -0.9000 
 12 O        2.1710    -1.9050     1.0480 O.co2 1 <1>  -0.9000 
 13 C        6.0140     2.0430    -1.0070 C.2   1 <1>   0.5690 
 14 O        6.9300     1.2830    -1.2200 O.2   1 <1>  -0.5700 
 15 C        6.2430     3.5150    -1.2950 C.3   1 <1>  -0.0990 
 16 C        6.6770     4.2560    -0.0260 C.3   1 <1>  -0.0160 
 17 C        6.6320     5.7590    -0.2440 C.ar  1 <1>  -0.1440 
 18 C        7.7230     6.4280    -0.7820 C.ar  1 <1>  -0.1500 
 19 C        5.4890     6.4710     0.0920 C.ar  1 <1>  -0.1500 
 20 C        7.6720     7.7970    -0.9800 C.ar  1 <1>  -0.1500 
 21 C        5.4340     7.8400    -0.1040 C.ar  1 <1>  -0.1500 
 22 C        6.5290     8.4980    -0.6400 C.ar  1 <1>   0.0820 
 23 O        6.4900     9.8250    -0.8350 O.3   1 <1>  -0.5320 
 24 H        3.8840     3.1460     0.6210 H     1 <1>   0.0800 
 25 H        3.3570     3.0820    -1.0590 H     1 <1>   0.0800 
 26 H        2.4150     0.4580    -1.7700 H     1 <1>   0.1000 
 27 H        1.1160     0.0230    -0.6190 H     1 <1>   0.1000 
 28 H        4.8790    -0.4880    -0.6900 H     1 <1>   0.0800 
 29 H        5.1720     0.1300     0.9310 H     1 <1>   0.0800 
 30 H        7.0090     3.6090    -2.0430 H     1 <1>   0.0800 
 31 H        5.3480     3.9510    -1.6950 H     1 <1>   0.0800 
 32 H        7.6700     3.9480     0.2490 H     1 <1>   0.0800 
 33 H        6.0260     3.9970     0.7920 H     1 <1>   0.0800 
 34 H        8.6130     5.8850    -1.0470 H     1 <1>   0.1500 
 35 H        4.6370     5.9590     0.5100 H     1 <1>   0.1500 
 36 H        8.5120     8.3230    -1.3960 H     1 <1>   0.1500 
 37 H        4.5430     8.3780     0.1610 H     1 <1>   0.1500 
 38 H        5.6480    10.2230    -0.5550 H     1 <1>   0.4500 
@<TRIPOS>BOND
  1   1   2  ar  
  2   2   3  ar  
  3   2   4  1   
  4   4   5  1   
  5   4   6  1   
  6   4   7  1   
  7   5   7  1   
  8   5   8  1   
  9   5   9  1   
 10   6  10  1   
 11   6  24  1   
 12   6  25  1   
 13   7  26  1   
 14   7  27  1   
 15   8  11  ar  
 16   8  12  ar  
 17   9  10  1   
 18   9  28  1   
 19   9  29  1   
 20  10  13  am  
 21  13  14  2   
 22  13  15  1   
 23  15  16  1   
 24  15  30  1   
 25  15  31  1   
 26  16  17  1   
 27  16  32  1   
 28  16  33  1   
 29  17  18  ar  
 30  17  19  ar  
 31  18  20  ar  
 32  18  34  1   
 33  19  21  ar  
 34  19  35  1   
 35  20  22  ar  
 36  20  36  1   
 37  21  22  ar  
 38  21  37  1   
 39  22  23  1   
 40  23  38  1   
@<TRIPOS>SUBSTRUCTURE
  1 ****   6 GROUP 4 **** **** 0

# MOE 2024.06 (io_trps.svl 2023.06)
