@<TRIPOS>MOLECULE
NONAME
46 47 1 0 0 
SMALL
USER_CHARGES


@<TRIPOS>ATOM
  1 O        0.4880     0.0840     0.7730 O.2   1 <1>  -0.5700 
  2 C        1.4360    -0.2550     0.0910 C.2   1 <1>   0.5440 
  3 N        1.8990     0.6070    -0.8810 N.am  1 <1>  -0.6600 
  4 C        2.0530    -1.5370     0.3380 C.ar  1 <1>   0.0860 
  5 C        2.5250     0.1200    -2.1580 C.3   1 <1>   0.1400 
  6 C        1.7340     2.0780    -0.7190 C.3   1 <1>   0.1400 
  7 C        3.4310    -1.6420     0.4990 C.ar  1 <1>   0.1600 
  8 C        1.3150    -2.7070     0.4570 C.ar  1 <1>  -0.1500 
  9 C        3.6240     1.0410    -2.7150 C.3   1 <1>   0.1400 
 10 C        2.9960     2.6730    -0.0780 C.3   1 <1>  -0.1600 
 11 N        4.1050    -2.7520     0.7460 N.ar  1 <1>  -0.6200 
 12 C        1.9930    -3.8790     0.7110 C.ar  1 <1>  -0.1500 
 13 N        4.5560     1.4830    -1.6380 N.am  1 <1>  -0.6600 
 14 C        4.2050     2.7890    -1.0170 C.3   1 <1>   0.1400 
 15 C        3.3810    -3.8570     0.8460 C.ar  1 <1>   0.3930 
 16 C        5.6120     0.6840    -1.2830 C.2   1 <1>   0.5690 
 17 O        4.1000    -4.9670     1.0950 O.3   1 <1>  -0.3630 
 18 O        5.8910    -0.2980    -1.9320 O.2   1 <1>  -0.5700 
 19 C        6.4450     0.9920    -0.0510 C.3   1 <1>  -0.0990 
 20 C        3.5280    -6.2500     1.2180 C.3   1 <1>   0.0400 
 21 C        7.0950    -0.2640     0.5240 C.3   1 <1>   0.1200 
 22 O        7.7420     0.0900     1.7030 O.3   1 <1>  -0.5600 
 23 C        8.2710    -0.9990     2.3870 C.3   1 <1>   0.0400 
 24 H        1.7540     0.0170    -2.9010 H     1 <1>   0.0800 
 25 H        2.9550    -0.8550    -2.0130 H     1 <1>   0.0800 
 26 H        0.8920     2.2780    -0.0780 H     1 <1>   0.0800 
 27 H        1.5290     2.5390    -1.6690 H     1 <1>   0.0800 
 28 H        4.0040    -0.7360     0.4200 H     1 <1>   0.1500 
 29 H        0.2430    -2.6810     0.3570 H     1 <1>   0.1500 
 30 H        3.1760     1.8960    -3.1880 H     1 <1>   0.0800 
 31 H        4.1710     0.5110    -3.4760 H     1 <1>   0.0800 
 32 H        3.2610     2.0980     0.7910 H     1 <1>   0.0800 
 33 H        2.7560     3.6630     0.2650 H     1 <1>   0.0800 
 34 H        1.4400    -4.7920     0.8050 H     1 <1>   0.1500 
 35 H        5.0460     3.1810    -0.4720 H     1 <1>   0.0800 
 36 H        3.9830     3.4950    -1.7990 H     1 <1>   0.0800 
 37 H        5.8160     1.4130     0.7090 H     1 <1>   0.0800 
 38 H        7.2080     1.6980    -0.3180 H     1 <1>   0.0800 
 39 H        4.3230    -6.9510     1.4050 H     1 <1>   0.0800 
 40 H        3.0290    -6.5010     0.2990 H     1 <1>   0.0800 
 41 H        2.8410    -6.2490     2.0460 H     1 <1>   0.0800 
 42 H        7.8190    -0.6700    -0.1640 H     1 <1>   0.0800 
 43 H        6.3500    -1.0100     0.7440 H     1 <1>   0.0800 
 44 H        8.7510    -0.6350     3.2790 H     1 <1>   0.0800 
 45 H        8.9920    -1.4950     1.7620 H     1 <1>   0.0800 
 46 H        7.4740    -1.6730     2.6520 H     1 <1>   0.0800 
@<TRIPOS>BOND
  1   1   2  2   
  2   2   3  am  
  3   2   4  1   
  4   3   5  1   
  5   3   6  1   
  6   4   7  ar  
  7   4   8  ar  
  8   5   9  1   
  9   5  24  1   
 10   5  25  1   
 11   6  10  1   
 12   6  26  1   
 13   6  27  1   
 14   7  11  ar  
 15   7  28  1   
 16   8  12  ar  
 17   8  29  1   
 18   9  13  1   
 19   9  30  1   
 20   9  31  1   
 21  10  14  1   
 22  10  32  1   
 23  10  33  1   
 24  11  15  ar  
 25  12  15  ar  
 26  12  34  1   
 27  13  14  1   
 28  13  16  am  
 29  14  35  1   
 30  14  36  1   
 31  15  17  1   
 32  16  18  2   
 33  16  19  1   
 34  17  20  1   
 35  19  21  1   
 36  19  37  1   
 37  19  38  1   
 38  20  39  1   
 39  20  40  1   
 40  20  41  1   
 41  21  22  1   
 42  21  42  1   
 43  21  43  1   
 44  22  23  1   
 45  23  44  1   
 46  23  45  1   
 47  23  46  1   
@<TRIPOS>SUBSTRUCTURE
  1 ****   7 GROUP 4 **** **** 0

# MOE 2024.06 (io_trps.svl 2023.06)
