@<TRIPOS>MOLECULE
NONAME
49 52 1 0 0 
SMALL
USER_CHARGES


@<TRIPOS>ATOM
  1 O        1.2960     0.1990     1.9500 O.2   1 <1>  -0.5700 
  2 C        1.6570    -0.2630     0.8920 C.2   1 <1>   0.5690 
  3 N        0.8700    -0.9620     0.0350 N.am  1 <1>  -0.6600 
  4 C        3.0560    -0.0850     0.3130 C.3   1 <1>   0.2810 
  5 C        1.5900    -1.3610    -1.1870 C.3   1 <1>   0.1400 
  6 C       -0.5630    -1.2920     0.2240 C.3   1 <1>   0.0600 
  7 N        3.2560     1.2920    -0.2130 N.am  1 <1>  -0.7300 
  8 C        3.0630    -1.0780    -0.8570 C.3   1 <1>  -0.1600 
  9 C        4.2390     2.1370     0.1860 C.2   1 <1>   0.7160 
 10 O        5.2290     1.6610     0.7050 O.2   1 <1>  -0.5700 
 11 C        4.0820     3.5490    -0.0020 C.2   1 <1>  -0.0860 
 12 C        2.8690     4.2120    -0.2420 C.2   1 <1>   0.3720 
 13 C        4.9910     4.5630     0.0160 C.2   1 <1>   0.0870 
 14 N        3.0460     5.4810    -0.3520 N.2   1 <1>  -0.4100 
 15 N        1.6080     3.6020    -0.3390 N.pl3 1 <1>  -0.8210 
 16 O        4.3260     5.6720    -0.1900 O.3   1 <1>  -0.0190 
 17 C        6.4210     4.6260     0.1910 C.ar  1 <1>   0.0530 
 18 C        0.9490     3.4070     0.9940 C.3   1 <1>   0.2090 
 19 C        0.6550     4.2820    -1.2730 C.3   1 <1>   0.2090 
 20 C        7.2780     3.6600    -0.3360 C.ar  1 <1>  -0.1500 
 21 C        7.0030     5.6850     0.8900 C.ar  1 <1>  -0.1500 
 22 C       -0.4150     2.7070     0.8450 C.3   1 <1>   0.1200 
 23 C       -0.6860     3.5310    -1.3350 C.3   1 <1>   0.1200 
 24 C        8.6490     3.7410    -0.1690 C.ar  1 <1>  -0.1500 
 25 C        8.3720     5.7740     1.0600 C.ar  1 <1>  -0.1500 
 26 O       -1.2400     3.3940    -0.0560 O.3   1 <1>  -0.5600 
 27 C        9.1990     4.8000     0.5310 C.ar  1 <1>  -0.1500 
 28 H        3.8040    -0.3330     1.0470 H     1 <1>   0.0800 
 29 H        1.2580    -0.7540    -2.0120 H     1 <1>   0.0800 
 30 H        1.4290    -2.4030    -1.4060 H     1 <1>   0.0800 
 31 H       -0.9030    -0.9240     1.1770 H     1 <1>   0.0800 
 32 H       -0.6980    -2.3590     0.1950 H     1 <1>   0.0800 
 33 H       -1.1490    -0.8360    -0.5550 H     1 <1>   0.0800 
 34 H        2.3890     1.7730    -0.4960 H     1 <1>   0.3700 
 35 H        3.5170    -1.9950    -0.5270 H     1 <1>   0.0800 
 36 H        3.6110    -0.7150    -1.7080 H     1 <1>   0.0800 
 37 H        0.8060     4.3620     1.4700 H     1 <1>   0.0800 
 38 H        1.5830     2.8140     1.6320 H     1 <1>   0.0800 
 39 H        1.0900     4.3250    -2.2570 H     1 <1>   0.0800 
 40 H        0.4750     5.2920    -0.9440 H     1 <1>   0.0800 
 41 H        6.8680     2.8320    -0.8850 H     1 <1>   0.1500 
 42 H        6.3700     6.4480     1.3060 H     1 <1>   0.1500 
 43 H       -0.9180     2.6730     1.7950 H     1 <1>   0.0800 
 44 H       -0.2870     1.7020     0.4900 H     1 <1>   0.0800 
 45 H       -0.5500     2.5510    -1.7580 H     1 <1>   0.0800 
 46 H       -1.3890     4.0760    -1.9390 H     1 <1>   0.0800 
 47 H        9.2870     2.9800    -0.5820 H     1 <1>   0.1500 
 48 H        8.7960     6.6000     1.6040 H     1 <1>   0.1500 
 49 H       10.2650     4.8650     0.6620 H     1 <1>   0.1500 
@<TRIPOS>BOND
  1   1   2  2   
  2   2   3  am  
  3   2   4  1   
  4   3   5  1   
  5   3   6  1   
  6   4   7  1   
  7   4   8  1   
  8   4  28  1   
  9   5   8  1   
 10   5  29  1   
 11   5  30  1   
 12   6  31  1   
 13   6  32  1   
 14   6  33  1   
 15   7   9  am  
 16   7  34  1   
 17   8  35  1   
 18   8  36  1   
 19   9  10  2   
 20   9  11  1   
 21  11  12  1   
 22  11  13  2   
 23  12  14  2   
 24  12  15  1   
 25  13  16  1   
 26  13  17  1   
 27  14  16  1   
 28  15  18  1   
 29  15  19  1   
 30  17  20  ar  
 31  17  21  ar  
 32  18  22  1   
 33  18  37  1   
 34  18  38  1   
 35  19  23  1   
 36  19  39  1   
 37  19  40  1   
 38  20  24  ar  
 39  20  41  1   
 40  21  25  ar  
 41  21  42  1   
 42  22  26  1   
 43  22  43  1   
 44  22  44  1   
 45  23  26  1   
 46  23  45  1   
 47  23  46  1   
 48  24  27  ar  
 49  24  47  1   
 50  25  27  ar  
 51  25  48  1   
 52  27  49  1   
@<TRIPOS>SUBSTRUCTURE
  1 ****   9 GROUP 4 **** **** 0

# MOE 2024.06 (io_trps.svl 2023.06)
