@<TRIPOS>MOLECULE
NONAME
64 66 1 0 0 
SMALL
USER_CHARGES


@<TRIPOS>ATOM
  1 O       -1.3510     1.3240     1.9210 O.2   1 <1>  -0.5700 
  2 C       -1.2520     2.1790     1.0700 C.2   1 <1>   0.5690 
  3 N       -2.3670     2.7150     0.4690 N.am  1 <1>  -0.6600 
  4 C        0.1600     2.6380     0.6740 C.3   1 <1>  -0.0190 
  5 C       -2.3230     3.6290    -0.7090 C.3   1 <1>   0.1400 
  6 C       -3.7250     2.3600     0.9790 C.3   1 <1>   0.1400 
  7 C        0.7710     1.6900    -0.3760 C.3   1 <1>  -0.1600 
  8 C        1.1020     2.7570     1.8890 C.3   1 <1>  -0.1600 
  9 C       -3.6380     3.5660    -1.4850 C.3   1 <1>  -0.1600 
 10 C       -4.6870     3.5410     0.8260 C.3   1 <1>  -0.1600 
 11 C        2.1760     2.1440    -0.7970 C.3   1 <1>  -0.1600 
 12 C        2.5070     3.2160     1.4710 C.3   1 <1>  -0.1600 
 13 C       -4.8270     4.0660    -0.6290 C.3   1 <1>   0.2800 
 14 C        3.1100     2.2740     0.4160 C.3   1 <1>  -0.0800 
 15 O       -4.6910     5.4710    -0.5250 O.3   1 <1>  -0.5600 
 16 C       -6.2300     3.6840    -1.2290 C.3   1 <1>   0.2000 
 17 C        4.4910     2.7740    -0.0210 C.3   1 <1>  -0.2400 
 18 C       -5.2420     6.2720    -1.5260 C.3   1 <1>   0.1200 
 19 O       -6.1480     3.4480    -2.6150 O.3   1 <1>  -0.6800 
 20 C       -7.2880     4.7980    -0.9610 C.3   1 <1>   0.3000 
 21 C       -6.7710     6.1130    -1.5830 C.3   1 <1>  -0.1600 
 22 N       -7.4340     5.0810     0.4890 N.am  1 <1>  -0.7300 
 23 C       -8.6660     4.4730    -1.5580 C.3   1 <1>  -0.2400 
 24 C       -8.0560     4.4670     1.5300 C.2   1 <1>   0.5690 
 25 O       -7.9160     4.9410     2.6300 O.2   1 <1>  -0.5700 
 26 C       -8.9200     3.2090     1.4070 C.3   1 <1>   0.1810 
 27 O       -8.2160     2.1320     0.8410 O.3   1 <1>  -0.5600 
 28 C       -8.9520     0.9550     0.7600 C.3   1 <1>   0.0400 
 29 H        0.0940     3.6200     0.2470 H     1 <1>   0.0800 
 30 H       -2.1500     4.6360    -0.3680 H     1 <1>   0.0800 
 31 H       -1.5180     3.3430    -1.3630 H     1 <1>   0.0800 
 32 H       -4.0940     1.5090     0.4330 H     1 <1>   0.0800 
 33 H       -3.6670     2.0860     2.0190 H     1 <1>   0.0800 
 34 H        0.8260     0.6980     0.0380 H     1 <1>   0.0800 
 35 H        0.1340     1.6450    -1.2420 H     1 <1>   0.0800 
 36 H        0.6880     3.4560     2.5960 H     1 <1>   0.0800 
 37 H        1.1760     1.8020     2.3810 H     1 <1>   0.0800 
 38 H       -3.8030     2.5450    -1.7820 H     1 <1>   0.0800 
 39 H       -3.5480     4.1450    -2.3830 H     1 <1>   0.0800 
 40 H       -4.3400     4.3280     1.4720 H     1 <1>   0.0800 
 41 H       -5.6370     3.2210     1.2070 H     1 <1>   0.0800 
 42 H        2.1060     3.0930    -1.3020 H     1 <1>   0.0800 
 43 H        2.5850     1.4310    -1.4920 H     1 <1>   0.0800 
 44 H        3.1430     3.2420     2.3380 H     1 <1>   0.0800 
 45 H        2.4500     4.2150     1.0740 H     1 <1>   0.0800 
 46 H        3.2280     1.2990     0.8600 H     1 <1>   0.0800 
 47 H       -6.5580     2.7540    -0.8050 H     1 <1>   0.0800 
 48 H        4.4180     3.7490    -0.4710 H     1 <1>   0.0800 
 49 H        4.9220     2.0960    -0.7360 H     1 <1>   0.0800 
 50 H        5.1500     2.8350     0.8270 H     1 <1>   0.0800 
 51 H       -4.9810     7.2930    -1.3070 H     1 <1>   0.0800 
 52 H       -4.7900     6.0030    -2.4640 H     1 <1>   0.0800 
 53 H       -5.8060     4.2410    -3.0660 H     1 <1>   0.4000 
 54 H       -7.2420     6.9560    -1.1080 H     1 <1>   0.0800 
 55 H       -7.0500     6.1640    -2.6190 H     1 <1>   0.0800 
 56 H       -6.7590     5.7880     0.7930 H     1 <1>   0.3700 
 57 H       -8.6260     4.4980    -2.6320 H     1 <1>   0.0800 
 58 H       -9.4010     5.1860    -1.2310 H     1 <1>   0.0800 
 59 H       -8.9730     3.4810    -1.2890 H     1 <1>   0.0800 
 60 H       -9.7850     3.4210     0.8070 H     1 <1>   0.0800 
 61 H       -9.2410     2.9180     2.3910 H     1 <1>   0.0800 
 62 H       -8.3290     0.2010     0.3110 H     1 <1>   0.0800 
 63 H       -9.8210     1.1180     0.1460 H     1 <1>   0.0800 
 64 H       -9.2370     0.6440     1.7500 H     1 <1>   0.0800 
@<TRIPOS>BOND
  1   1   2  2   
  2   2   3  am  
  3   2   4  1   
  4   3   5  1   
  5   3   6  1   
  6   4   7  1   
  7   4   8  1   
  8   4  29  1   
  9   5   9  1   
 10   5  30  1   
 11   5  31  1   
 12   6  10  1   
 13   6  32  1   
 14   6  33  1   
 15   7  11  1   
 16   7  34  1   
 17   7  35  1   
 18   8  12  1   
 19   8  36  1   
 20   8  37  1   
 21   9  13  1   
 22   9  38  1   
 23   9  39  1   
 24  10  13  1   
 25  10  40  1   
 26  10  41  1   
 27  11  14  1   
 28  11  42  1   
 29  11  43  1   
 30  12  14  1   
 31  12  44  1   
 32  12  45  1   
 33  13  15  1   
 34  13  16  1   
 35  14  17  1   
 36  14  46  1   
 37  15  18  1   
 38  16  19  1   
 39  16  20  1   
 40  16  47  1   
 41  17  48  1   
 42  17  49  1   
 43  17  50  1   
 44  18  21  1   
 45  18  51  1   
 46  18  52  1   
 47  19  53  1   
 48  20  21  1   
 49  20  22  1   
 50  20  23  1   
 51  21  54  1   
 52  21  55  1   
 53  22  24  am  
 54  22  56  1   
 55  23  57  1   
 56  23  58  1   
 57  23  59  1   
 58  24  25  2   
 59  24  26  1   
 60  26  27  1   
 61  26  60  1   
 62  26  61  1   
 63  27  28  1   
 64  28  62  1   
 65  28  63  1   
 66  28  64  1   
@<TRIPOS>SUBSTRUCTURE
  1 ****  10 GROUP 4 **** **** 0

# MOE 2024.06 (io_trps.svl 2023.06)
