@<TRIPOS>MOLECULE
NONAME
40 42 1 0 0 
SMALL
USER_CHARGES


@<TRIPOS>ATOM
  1 O        2.1010    -0.7180    -2.3950 O.2   1 <1>  -0.5760 
  2 C        2.0250    -1.0710    -1.2500 C.2   1 <1>   0.8480 
  3 N        2.1530    -0.1900    -0.2260 N.pl3 1 <1>  -0.7340 
  4 C        1.7690    -2.5280    -0.9270 C.3   1 <1>  -0.1090 
  5 C        2.3590     1.1250    -0.3220 C.cat 1 <1>   1.0680 
  6 C        0.3320    -2.9450    -1.2770 C.3   1 <1>  -0.0320 
  7 N        2.4810     1.8100    -1.4430 N.pl3 1 <1>  -0.7050 
  8 N        2.4730     1.9490     0.7210 N.pl3 1 <1>  -0.7680 
  9 C        0.0550    -4.3620    -0.7690 C.2   1 <1>  -0.1340 
 10 C        2.6830     3.1320    -1.1340 C.2   1 <1>   0.1910 
 11 C        2.6790     3.2210     0.2080 C.2   1 <1>   0.1910 
 12 C        2.4170     1.6850     2.1850 C.3   1 <1>   0.2650 
 13 C        0.2590    -5.4930    -1.6400 C.2   1 <1>   0.3670 
 14 C       -0.3790    -4.5810     0.5110 C.2   1 <1>  -0.1790 
 15 N        0.0560    -6.7140    -1.2780 N.2   1 <1>  -0.5820 
 16 C        0.7360    -5.3030    -3.0700 C.3   1 <1>  -0.1880 
 17 N       -0.6000    -5.9020     0.8790 N.pl3 1 <1>   0.5950 
 18 C       -0.6500    -3.5370     1.5970 C.3   1 <1>  -0.1120 
 19 C       -0.3790    -6.9190     0.0030 C.2   1 <1>   0.3040 
 20 N       -0.9970    -6.4170     2.0390 N.2   1 <1>  -0.7120 
 21 N       -0.6270    -8.0640     0.5550 N.2   1 <1>  -0.5710 
 22 C       -0.9940    -7.6870     1.7780 C.2   1 <1>   0.3580 
 23 H        2.0950    -0.5620     0.7100 H     1 <1>   0.4430 
 24 H        1.9550    -2.7100     0.1160 H     1 <1>   0.0700 
 25 H        2.4630    -3.1280    -1.4880 H     1 <1>   0.0700 
 26 H        0.1780    -2.8720    -2.3390 H     1 <1>   0.0700 
 27 H       -0.3690    -2.2590    -0.8400 H     1 <1>   0.0700 
 28 H        2.4270     1.3580    -2.3650 H     1 <1>   0.4430 
 29 H        2.8140     3.9030    -1.8790 H     1 <1>   0.1400 
 30 H        2.8080     4.0960     0.8280 H     1 <1>   0.1400 
 31 H        2.2040     0.6500     2.3860 H     1 <1>   0.0700 
 32 H        1.6460     2.2890     2.6350 H     1 <1>   0.0700 
 33 H        3.3610     1.9380     2.6380 H     1 <1>   0.0700 
 34 H        1.6540    -4.7480    -3.0940 H     1 <1>   0.0700 
 35 H       -0.0140    -4.7920    -3.6450 H     1 <1>   0.0700 
 36 H        0.9140    -6.2580    -3.5330 H     1 <1>   0.0700 
 37 H       -0.0920    -3.7850     2.4840 H     1 <1>   0.0700 
 38 H       -1.6960    -3.5480     1.8520 H     1 <1>   0.0700 
 39 H       -0.3840    -2.5410     1.3080 H     1 <1>   0.0700 
 40 H       -1.2740    -8.4270     2.5120 H     1 <1>   0.1400 
@<TRIPOS>BOND
  1   1   2  2   
  2   2   3  1   
  3   2   4  1   
  4   3   5  ar  
  5   3  23  1   
  6   4   6  1   
  7   4  24  1   
  8   4  25  1   
  9   5   7  ar  
 10   5   8  ar  
 11   6   9  1   
 12   6  26  1   
 13   6  27  1   
 14   7  10  1   
 15   7  28  1   
 16   8  11  1   
 17   8  12  1   
 18   9  13  1   
 19   9  14  2   
 20  10  11  2   
 21  10  29  1   
 22  11  30  1   
 23  12  31  1   
 24  12  32  1   
 25  12  33  1   
 26  13  15  2   
 27  13  16  1   
 28  14  17  1   
 29  14  18  1   
 30  15  19  1   
 31  16  34  1   
 32  16  35  1   
 33  16  36  1   
 34  17  19  1   
 35  17  20  1   
 36  18  37  1   
 37  18  38  1   
 38  18  39  1   
 39  19  21  2   
 40  20  22  2   
 41  21  22  1   
 42  22  40  1   
@<TRIPOS>SUBSTRUCTURE
  1 ****   4 GROUP 4 **** **** 0

# MOE 2024.06 (io_trps.svl 2023.06)
