@<TRIPOS>MOLECULE
NONAME
49 52 1 0 0 
SMALL
USER_CHARGES


@<TRIPOS>ATOM
  1 O       -0.9410    -0.0260     1.4280 O.2   1 <1>  -0.5700 
  2 C       -1.4060     0.4040     0.3890 C.2   1 <1>   0.7160 
  3 N       -1.8750    -0.5050    -0.5360 N.am  1 <1>  -0.6600 
  4 C       -1.4260     1.8160     0.1680 C.2   1 <1>  -0.0860 
  5 C       -2.0700    -1.9380    -0.1550 C.3   1 <1>   0.3200 
  6 C       -2.4650    -0.1170    -1.8500 C.3   1 <1>   0.0600 
  7 C       -2.5600     2.6060    -0.0580 C.2   1 <1>   0.3720 
  8 C       -0.4030     2.7120     0.1470 C.2   1 <1>   0.0870 
  9 C       -3.4710    -2.1870     0.3830 C.2   1 <1>   0.2980 
 10 N       -2.2350     3.8410    -0.2180 N.2   1 <1>  -0.4100 
 11 N       -3.8800     2.1370    -0.1190 N.pl3 1 <1>  -0.8210 
 12 O       -0.9370     3.8850    -0.0850 O.3   1 <1>  -0.0190 
 13 C        1.0260     2.5890     0.3090 C.ar  1 <1>   0.0530 
 14 O       -3.7490    -1.8080     1.6050 O.3   1 <1>  -0.0190 
 15 N       -4.4300    -2.7410    -0.2500 N.2   1 <1>  -0.5650 
 16 C       -4.4170     1.5870     1.1650 C.3   1 <1>   0.2090 
 17 C       -4.8770     3.0680    -0.7340 C.3   1 <1>   0.2090 
 18 C        1.7940     3.6850     0.7090 C.ar  1 <1>  -0.1500 
 19 C        1.7030     1.3910     0.0720 C.ar  1 <1>  -0.1500 
 20 N       -4.9920    -2.1480     1.7640 N.2   1 <1>  -0.4100 
 21 C       -5.3720    -2.6900     0.6780 C.2   1 <1>   0.3350 
 22 C       -5.8110     0.9710     0.9490 C.3   1 <1>   0.1200 
 23 C       -6.2540     2.3930    -0.8610 C.3   1 <1>   0.1200 
 24 C        3.1640     3.5920     0.8670 C.ar  1 <1>  -0.1500 
 25 C        3.0730     1.2900     0.2290 C.ar  1 <1>  -0.1500 
 26 C       -6.7550    -3.2350     0.4150 C.3   1 <1>  -0.0590 
 27 O       -6.6890     1.9020     0.3770 O.3   1 <1>  -0.5600 
 28 C        3.8080     2.3920     0.6270 C.ar  1 <1>  -0.1500 
 29 H       -1.3510    -2.2330     0.5900 H     1 <1>   0.0800 
 30 H       -1.9130    -2.5580    -1.0190 H     1 <1>   0.0800 
 31 H       -2.1150     0.8530    -2.1580 H     1 <1>   0.0800 
 32 H       -3.5390    -0.0880    -1.7700 H     1 <1>   0.0800 
 33 H       -2.1890    -0.8320    -2.6060 H     1 <1>   0.0800 
 34 H       -4.4860     2.3740     1.8960 H     1 <1>   0.0800 
 35 H       -3.7570     0.8330     1.5530 H     1 <1>   0.0800 
 36 H       -4.5330     3.3660    -1.7100 H     1 <1>   0.0800 
 37 H       -4.9700     3.9540    -0.1280 H     1 <1>   0.0800 
 38 H        1.3100     4.6260     0.9020 H     1 <1>   0.1500 
 39 H        1.1590     0.5210    -0.2430 H     1 <1>   0.1500 
 40 H       -6.2270     0.6550     1.8890 H     1 <1>   0.0800 
 41 H       -5.7420     0.1180     0.2970 H     1 <1>   0.0800 
 42 H       -6.2070     1.5750    -1.5580 H     1 <1>   0.0800 
 43 H       -6.9840     3.1030    -1.2070 H     1 <1>   0.0800 
 44 H        3.7310     4.4520     1.1770 H     1 <1>   0.1500 
 45 H        3.5690     0.3540     0.0420 H     1 <1>   0.1500 
 46 H       -6.6910    -4.2810     0.1800 H     1 <1>   0.0800 
 47 H       -7.1960    -2.7130    -0.4130 H     1 <1>   0.0800 
 48 H       -7.3740    -3.1070     1.2840 H     1 <1>   0.0800 
 49 H        4.8750     2.3150     0.7510 H     1 <1>   0.1500 
@<TRIPOS>BOND
  1   1   2  2   
  2   2   3  am  
  3   2   4  1   
  4   3   5  1   
  5   3   6  1   
  6   4   7  1   
  7   4   8  2   
  8   5   9  1   
  9   5  29  1   
 10   5  30  1   
 11   6  31  1   
 12   6  32  1   
 13   6  33  1   
 14   7  10  2   
 15   7  11  1   
 16   8  12  1   
 17   8  13  1   
 18   9  14  1   
 19   9  15  2   
 20  10  12  1   
 21  11  16  1   
 22  11  17  1   
 23  13  18  ar  
 24  13  19  ar  
 25  14  20  1   
 26  15  21  1   
 27  16  22  1   
 28  16  34  1   
 29  16  35  1   
 30  17  23  1   
 31  17  36  1   
 32  17  37  1   
 33  18  24  ar  
 34  18  38  1   
 35  19  25  ar  
 36  19  39  1   
 37  20  21  2   
 38  21  26  1   
 39  22  27  1   
 40  22  40  1   
 41  22  41  1   
 42  23  27  1   
 43  23  42  1   
 44  23  43  1   
 45  24  28  ar  
 46  24  44  1   
 47  25  28  ar  
 48  25  45  1   
 49  26  46  1   
 50  26  47  1   
 51  26  48  1   
 52  28  49  1   
@<TRIPOS>SUBSTRUCTURE
  1 ****   2 GROUP 4 **** **** 0

# MOE 2024.06 (io_trps.svl 2023.06)
