@<TRIPOS>MOLECULE
NONAME
46 47 1 0 0 
SMALL
USER_CHARGES


@<TRIPOS>ATOM
  1 O       -0.0510    -0.1470    -0.2490 O.2   1 <1>  -0.5700 
  2 C        0.9770    -0.7160     0.0580 C.2   1 <1>   0.7150 
  3 N        2.1480    -0.0190     0.1710 N.am  1 <1>  -0.4940 
  4 C        1.0060    -2.1250     0.3280 C.2   1 <1>  -0.2370 
  5 C        2.4380     1.3190    -0.1100 C.2   1 <1>   0.2040 
  6 N       -0.0890    -2.9130     0.5290 N.pl3 1 <1>   0.3140 
  7 C        2.0770    -2.9630     0.4380 C.2   1 <1>  -0.1500 
  8 O        1.5780     2.1190    -0.6950 O.3   1 <1>  -0.0190 
  9 C        3.5640     2.0250     0.1130 C.2   1 <1>  -0.1810 
 10 N        0.2600    -4.1930     0.7640 N.2   1 <1>  -0.7070 
 11 C       -1.5170    -2.4770     0.5070 C.3   1 <1>   0.0960 
 12 C        1.5540    -4.2130     0.7030 C.2   1 <1>   0.1080 
 13 N        2.0720     3.3180    -0.8750 N.2   1 <1>  -0.4100 
 14 C        3.2640     3.2870    -0.3980 C.2   1 <1>   0.1080 
 15 C        4.8630     1.5810     0.7640 C.3   1 <1>   0.0210 
 16 C       -2.5150    -3.5690     0.9270 C.3   1 <1>  -0.2400 
 17 C        2.3640    -5.4820     0.9030 C.3   1 <1>   0.0210 
 18 C        4.1890     4.4850    -0.4060 C.3   1 <1>  -0.0590 
 19 C        5.8660     1.1230    -0.2960 C.3   1 <1>  -0.2400 
 20 C        3.0830    -5.9380    -0.3820 C.3   1 <1>  -0.0800 
 21 C        2.0840    -6.2790    -1.4980 C.3   1 <1>  -0.2400 
 22 C        3.9700    -7.1560    -0.0950 C.3   1 <1>  -0.2400 
 23 H        2.9230    -0.5720     0.5180 H     1 <1>   0.3700 
 24 H        3.1240    -2.7450     0.3380 H     1 <1>   0.1500 
 25 H       -1.7460    -2.1480    -0.4910 H     1 <1>   0.0800 
 26 H       -1.6180    -1.6360     1.1680 H     1 <1>   0.0800 
 27 H        4.6660     0.7710     1.4450 H     1 <1>   0.0800 
 28 H        5.2780     2.3920     1.3360 H     1 <1>   0.0800 
 29 H       -2.4540    -4.4060     0.2540 H     1 <1>   0.0800 
 30 H       -3.5160    -3.1790     0.9000 H     1 <1>   0.0800 
 31 H       -2.3010    -3.9020     1.9270 H     1 <1>   0.0800 
 32 H        1.7070    -6.2610     1.2460 H     1 <1>   0.0800 
 33 H        3.0860    -5.3010     1.6780 H     1 <1>   0.0800 
 34 H        5.0810     4.2570    -0.9590 H     1 <1>   0.0800 
 35 H        4.4500     4.7530     0.6010 H     1 <1>   0.0800 
 36 H        3.6990     5.3220    -0.8710 H     1 <1>   0.0800 
 37 H        5.4610     0.3060    -0.8660 H     1 <1>   0.0800 
 38 H        6.7790     0.8000     0.1730 H     1 <1>   0.0800 
 39 H        6.0930     1.9300    -0.9690 H     1 <1>   0.0800 
 40 H        3.7130    -5.1360    -0.7250 H     1 <1>   0.0800 
 41 H        1.4210    -7.0660    -1.1840 H     1 <1>   0.0800 
 42 H        2.6030    -6.5980    -2.3840 H     1 <1>   0.0800 
 43 H        1.4890    -5.4180    -1.7490 H     1 <1>   0.0800 
 44 H        3.3750    -7.9860     0.2460 H     1 <1>   0.0800 
 45 H        4.6990    -6.9220     0.6600 H     1 <1>   0.0800 
 46 H        4.4920    -7.4550    -0.9870 H     1 <1>   0.0800 
@<TRIPOS>BOND
  1   1   2  2   
  2   2   3  am  
  3   2   4  1   
  4   3   5  1   
  5   3  23  1   
  6   4   6  1   
  7   4   7  2   
  8   5   8  1   
  9   5   9  2   
 10   6  10  1   
 11   6  11  1   
 12   7  12  1   
 13   7  24  1   
 14   8  13  1   
 15   9  14  1   
 16   9  15  1   
 17  10  12  2   
 18  11  16  1   
 19  11  25  1   
 20  11  26  1   
 21  12  17  1   
 22  13  14  2   
 23  14  18  1   
 24  15  19  1   
 25  15  27  1   
 26  15  28  1   
 27  16  29  1   
 28  16  30  1   
 29  16  31  1   
 30  17  20  1   
 31  17  32  1   
 32  17  33  1   
 33  18  34  1   
 34  18  35  1   
 35  18  36  1   
 36  19  37  1   
 37  19  38  1   
 38  19  39  1   
 39  20  21  1   
 40  20  22  1   
 41  20  40  1   
 42  21  41  1   
 43  21  42  1   
 44  21  43  1   
 45  22  44  1   
 46  22  45  1   
 47  22  46  1   
@<TRIPOS>SUBSTRUCTURE
  1 ****   2 GROUP 4 **** **** 0

# MOE 2024.06 (io_trps.svl 2023.06)
