@<TRIPOS>MOLECULE
NONAME
52 54 1 0 0 
SMALL
USER_CHARGES


@<TRIPOS>ATOM
  1 S        1.0390    -1.0170     0.5700 S.o2  1 <1>   1.5000 
  2 O        1.7850    -2.2540     0.4790 O.2   1 <1>  -0.6500 
  3 O        0.3450    -0.7320     1.8070 O.2   1 <1>  -0.6500 
  4 N       -0.1080    -1.0440    -0.6850 N.am  1 <1>  -0.8490 
  5 C        2.1630     0.3570     0.1340 C.2   1 <1>   0.0780 
  6 C       -1.0890     0.0640    -0.6580 C.3   1 <1>   0.1960 
  7 C       -0.8210    -2.3290    -0.8020 C.3   1 <1>   0.1960 
  8 O        1.7290     1.6090     0.0810 O.3   1 <1>  -0.2800 
  9 C        3.4780     0.3410    -0.1850 C.2   1 <1>  -0.1500 
 10 C       -2.2740    -0.1550     0.3230 C.3   1 <1>   0.2000 
 11 C       -1.9550    -2.4820     0.2410 C.3   1 <1>   0.2000 
 12 C        2.7230     2.4130    -0.2670 C.2   1 <1>   0.1400 
 13 C        3.8420     1.6640    -0.4410 C.2   1 <1>  -0.1500 
 14 O       -2.8470    -1.4150     0.1070 O.3   1 <1>  -0.5600 
 15 C       -3.3910     0.9080     0.2100 C.3   1 <1>  -0.0800 
 16 C       -2.7730    -3.7660     0.0610 C.3   1 <1>  -0.1600 
 17 C        2.4960     3.8250    -0.4020 C.2   1 <1>   0.1400 
 18 C       -4.0890     0.9390    -1.1610 C.3   1 <1>  -0.2400 
 19 C       -2.8780     2.3150     0.5580 C.3   1 <1>  -0.2400 
 20 C       -1.9590    -5.0410     0.3380 C.3   1 <1>  -0.1600 
 21 O        1.3010     4.3460    -0.2260 O.3   1 <1>  -0.0190 
 22 C        3.3170     4.8540    -0.7060 C.2   1 <1>  -0.1500 
 23 C       -2.8450    -6.2880     0.2450 C.3   1 <1>  -0.1600 
 24 N        1.2830     5.6380    -0.3940 N.2   1 <1>  -0.4100 
 25 C        2.4910     5.9680    -0.6850 C.2   1 <1>   0.1390 
 26 C       -2.0370    -7.5600     0.5190 C.3   1 <1>  -0.2400 
 27 H       -0.5960     0.9880    -0.4180 H     1 <1>   0.0800 
 28 H       -1.4880     0.1730    -1.6500 H     1 <1>   0.0800 
 29 H       -1.2590    -2.3930    -1.7830 H     1 <1>   0.0800 
 30 H       -0.1260    -3.1450    -0.7140 H     1 <1>   0.0800 
 31 H        4.1300    -0.5150    -0.2370 H     1 <1>   0.1500 
 32 H       -1.9160    -0.1350     1.3360 H     1 <1>   0.0800 
 33 H       -1.5510    -2.4590     1.2400 H     1 <1>   0.0800 
 34 H        4.8250     1.9970    -0.7240 H     1 <1>   0.1500 
 35 H       -4.1320     0.6500     0.9480 H     1 <1>   0.0800 
 36 H       -3.6020    -3.7310     0.7470 H     1 <1>   0.0800 
 37 H       -3.1680    -3.7990    -0.9400 H     1 <1>   0.0800 
 38 H       -3.4220     1.2700    -1.9350 H     1 <1>   0.0800 
 39 H       -4.9300     1.6090    -1.1310 H     1 <1>   0.0800 
 40 H       -4.4540    -0.0410    -1.4160 H     1 <1>   0.0800 
 41 H       -2.1840     2.6740    -0.1810 H     1 <1>   0.0800 
 42 H       -2.3880     2.3080     1.5170 H     1 <1>   0.0800 
 43 H       -3.7010     3.0050     0.6090 H     1 <1>   0.0800 
 44 H       -1.1570    -5.1300    -0.3730 H     1 <1>   0.0800 
 45 H       -1.5290    -4.9830     1.3240 H     1 <1>   0.0800 
 46 H        4.3690     4.8420    -0.9200 H     1 <1>   0.1500 
 47 H       -3.6460    -6.2180     0.9620 H     1 <1>   0.0800 
 48 H       -3.2820    -6.3510    -0.7370 H     1 <1>   0.0800 
 49 H        2.8060     6.9790    -0.8830 H     1 <1>   0.1500 
 50 H       -1.6080    -7.5280     1.5050 H     1 <1>   0.0800 
 51 H       -1.2440    -7.6640    -0.2010 H     1 <1>   0.0800 
 52 H       -2.6750    -8.4230     0.4510 H     1 <1>   0.0800 
@<TRIPOS>BOND
  1   1   2  2   
  2   1   3  2   
  3   1   4  am  
  4   1   5  1   
  5   4   6  1   
  6   4   7  1   
  7   5   8  1   
  8   5   9  2   
  9   6  10  1   
 10   6  27  1   
 11   6  28  1   
 12   7  11  1   
 13   7  29  1   
 14   7  30  1   
 15   8  12  1   
 16   9  13  1   
 17   9  31  1   
 18  10  14  1   
 19  10  15  1   
 20  10  32  1   
 21  11  14  1   
 22  11  16  1   
 23  11  33  1   
 24  12  13  2   
 25  12  17  1   
 26  13  34  1   
 27  15  18  1   
 28  15  19  1   
 29  15  35  1   
 30  16  20  1   
 31  16  36  1   
 32  16  37  1   
 33  17  21  1   
 34  17  22  2   
 35  18  38  1   
 36  18  39  1   
 37  18  40  1   
 38  19  41  1   
 39  19  42  1   
 40  19  43  1   
 41  20  23  1   
 42  20  44  1   
 43  20  45  1   
 44  21  24  1   
 45  22  25  1   
 46  22  46  1   
 47  23  26  1   
 48  23  47  1   
 49  23  48  1   
 50  24  25  2   
 51  25  49  1   
 52  26  50  1   
 53  26  51  1   
 54  26  52  1   
@<TRIPOS>SUBSTRUCTURE
  1 ****   6 GROUP 4 **** **** 0

# MOE 2024.06 (io_trps.svl 2023.06)
