@<TRIPOS>MOLECULE
NONAME
50 52 1 0 0 
SMALL
USER_CHARGES


@<TRIPOS>ATOM
  1 O       -2.1820    -3.8510    -0.8150 O.2   1 <1>  -0.5700 
  2 C       -0.9780    -3.9340    -0.7700 C.2   1 <1>   0.5690 
  3 N       -0.2850    -5.0480    -1.1580 N.am  1 <1>  -0.6600 
  4 C       -0.1780    -2.7570    -0.2500 C.3   1 <1>  -0.0990 
  5 C        1.1960    -5.0820    -1.0650 C.3   1 <1>   0.1400 
  6 C       -0.9550    -6.2790    -1.6540 C.3   1 <1>   0.0600 
  7 C        1.0390    -2.4830    -1.1530 C.3   1 <1>  -0.0800 
  8 C        1.7900    -3.7630    -1.5930 C.3   1 <1>  -0.0800 
  9 C        2.0830    -1.5650    -0.5020 C.3   1 <1>  -0.1600 
 10 C        3.2530    -3.5630    -1.1770 C.3   1 <1>  -0.1600 
 11 C        3.4160    -2.0520    -1.0670 C.3   1 <1>   0.2200 
 12 N        4.6190    -1.6680    -0.2680 N.am  1 <1>  -0.6600 
 13 C        5.7880    -1.3240    -0.9210 C.2   1 <1>   0.5440 
 14 C        4.5570    -1.8080     1.2190 C.3   1 <1>   0.0600 
 15 O        5.8960    -1.5600    -2.1090 O.2   1 <1>  -0.5700 
 16 C        6.9010    -0.7000    -0.2290 C.ar  1 <1>   0.0860 
 17 C        6.7250     0.4320     0.5600 C.ar  1 <1>  -0.1500 
 18 C        8.1920    -1.2120    -0.3430 C.ar  1 <1>  -0.1500 
 19 C        7.7950     1.0060     1.2160 C.ar  1 <1>   0.0820 
 20 C        9.2940    -0.6540     0.3070 C.ar  1 <1>   0.0860 
 21 O        7.5840     2.0900     1.9750 O.3   1 <1>  -0.5320 
 22 C        9.0650     0.4750     1.0950 C.ar  1 <1>  -0.1500 
 23 C       10.6180    -1.2330     0.1630 C.2   1 <1>   0.6340 
 24 O       10.8330    -2.2600    -0.4450 O.2   1 <1>  -0.5700 
 25 O       11.6450    -0.5990     0.7390 O.3   1 <1>  -0.4300 
 26 C       12.9680    -1.0920     0.6490 C.3   1 <1>   0.0400 
 27 H       -0.8070    -1.8870    -0.2040 H     1 <1>   0.0800 
 28 H        0.1370    -2.9980     0.7480 H     1 <1>   0.0800 
 29 H        1.4660    -5.2250    -0.0330 H     1 <1>   0.0800 
 30 H        1.5870    -5.9080    -1.6350 H     1 <1>   0.0800 
 31 H       -0.7050    -7.1110    -1.0190 H     1 <1>   0.0800 
 32 H       -0.6350    -6.4870    -2.6600 H     1 <1>   0.0800 
 33 H       -2.0250    -6.1540    -1.6520 H     1 <1>   0.0800 
 34 H        0.6800    -2.0040    -2.0490 H     1 <1>   0.0800 
 35 H        1.7570    -3.8020    -2.6690 H     1 <1>   0.0800 
 36 H        2.0480    -1.6890     0.5640 H     1 <1>   0.0800 
 37 H        1.9090    -0.5330    -0.7490 H     1 <1>   0.0800 
 38 H        3.9330    -3.9690    -1.9050 H     1 <1>   0.0800 
 39 H        3.4340    -4.0210    -0.2230 H     1 <1>   0.0800 
 40 H        3.5060    -1.6530    -2.0660 H     1 <1>   0.0800 
 41 H        3.9870    -2.6780     1.4910 H     1 <1>   0.0800 
 42 H        4.0920    -0.9370     1.6460 H     1 <1>   0.0800 
 43 H        5.5440    -1.9160     1.6340 H     1 <1>   0.0800 
 44 H        5.7480     0.8700     0.6590 H     1 <1>   0.1500 
 45 H        8.3380    -2.0800    -0.9660 H     1 <1>   0.1500 
 46 H        8.3930     2.4530     2.3790 H     1 <1>   0.4500 
 47 H        9.8860     0.9360     1.6140 H     1 <1>   0.1500 
 48 H       13.6200    -0.4220     1.1810 H     1 <1>   0.0800 
 49 H       13.2510    -1.1400    -0.3890 H     1 <1>   0.0800 
 50 H       13.0050    -2.0730     1.0890 H     1 <1>   0.0800 
@<TRIPOS>BOND
  1   1   2  2   
  2   2   3  am  
  3   2   4  1   
  4   3   5  1   
  5   3   6  1   
  6   4   7  1   
  7   4  27  1   
  8   4  28  1   
  9   5   8  1   
 10   5  29  1   
 11   5  30  1   
 12   6  31  1   
 13   6  32  1   
 14   6  33  1   
 15   7   8  1   
 16   7   9  1   
 17   7  34  1   
 18   8  10  1   
 19   8  35  1   
 20   9  11  1   
 21   9  36  1   
 22   9  37  1   
 23  10  11  1   
 24  10  38  1   
 25  10  39  1   
 26  11  12  1   
 27  11  40  1   
 28  12  13  am  
 29  12  14  1   
 30  13  15  2   
 31  13  16  1   
 32  14  41  1   
 33  14  42  1   
 34  14  43  1   
 35  16  17  ar  
 36  16  18  ar  
 37  17  19  ar  
 38  17  44  1   
 39  18  20  ar  
 40  18  45  1   
 41  19  21  1   
 42  19  22  ar  
 43  20  22  ar  
 44  20  23  1   
 45  21  46  1   
 46  22  47  1   
 47  23  24  2   
 48  23  25  1   
 49  25  26  1   
 50  26  48  1   
 51  26  49  1   
 52  26  50  1   
@<TRIPOS>SUBSTRUCTURE
  1 ****  12 GROUP 4 **** **** 0

# MOE 2024.06 (io_trps.svl 2023.06)
