@<TRIPOS>MOLECULE
NONAME
53 55 1 0 0 
SMALL
USER_CHARGES


@<TRIPOS>ATOM
  1 O       -0.6080     0.4960     1.3730 O.2   1 <1>  -0.5700 
  2 C       -0.4850     1.6980     1.3230 C.2   1 <1>   0.5690 
  3 N       -1.5630     2.5380     1.2270 N.am  1 <1>  -0.6600 
  4 C        0.9350     2.2750     1.3360 C.3   1 <1>   0.1810 
  5 C       -1.3720     4.0220     1.1480 C.3   1 <1>   0.3640 
  6 C       -2.9670     2.0620     1.3920 C.3   1 <1>   0.0600 
  7 O        0.9830     3.6380     1.6830 O.3   1 <1>  -0.5600 
  8 C       -2.2480     4.6640     0.0590 C.ar  1 <1>  -0.1430 
  9 C        0.0960     4.4510     0.9390 C.3   1 <1>   0.2610 
 10 C       -2.3460     4.2120    -1.2630 C.ar  1 <1>  -0.1430 
 11 C       -2.9680     5.7920     0.4360 C.ar  1 <1>  -0.1500 
 12 C        0.2400     5.9390     1.3050 C.2   1 <1>   0.5690 
 13 C       -3.1590     4.8940    -2.1560 C.ar  1 <1>  -0.1500 
 14 C       -1.6140     2.9850    -1.8000 C.3   1 <1>  -0.0960 
 15 C       -3.7720     6.4640    -0.4640 C.ar  1 <1>  -0.1500 
 16 O       -0.0300     6.2640     2.4420 O.2   1 <1>  -0.5700 
 17 N        0.6190     6.8840     0.3760 N.am  1 <1>  -0.6600 
 18 C       -3.8680     6.0140    -1.7650 C.ar  1 <1>  -0.1500 
 19 C        0.8200     8.3060     0.7900 C.3   1 <1>   0.2840 
 20 C        0.7350     6.6360    -1.0870 C.3   1 <1>   0.1400 
 21 C        2.2790     8.7040     0.6320 C.ar  1 <1>  -0.1430 
 22 C        2.1080     6.0560    -1.4260 C.3   1 <1>  -0.2400 
 23 C        2.6660     9.6320    -0.3240 C.ar  1 <1>  -0.1500 
 24 C        3.2400     8.1320     1.4520 C.ar  1 <1>  -0.1500 
 25 C        3.9980     9.9810    -0.4590 C.ar  1 <1>  -0.1500 
 26 C        4.5730     8.4810     1.3180 C.ar  1 <1>  -0.1500 
 27 C        4.9530     9.4060     0.3620 C.ar  1 <1>  -0.1500 
 28 H        1.3790     2.1560     0.3660 H     1 <1>   0.0800 
 29 H        1.5260     1.7380     2.0550 H     1 <1>   0.0800 
 30 H       -1.6820     4.4130     2.1020 H     1 <1>   0.0800 
 31 H       -3.5480     2.3120     0.5220 H     1 <1>   0.0800 
 32 H       -3.4100     2.5270     2.2550 H     1 <1>   0.0800 
 33 H       -2.9940     0.9940     1.5260 H     1 <1>   0.0800 
 34 H        0.3520     4.3160    -0.0890 H     1 <1>   0.0800 
 35 H       -2.9040     6.1660     1.4450 H     1 <1>   0.1500 
 36 H       -3.2510     4.5560    -3.1730 H     1 <1>   0.1500 
 37 H       -1.5990     2.9860    -2.8750 H     1 <1>   0.0800 
 38 H       -2.1150     2.0900    -1.4770 H     1 <1>   0.0800 
 39 H       -0.5970     2.9480    -1.4630 H     1 <1>   0.0800 
 40 H       -4.3210     7.3350    -0.1520 H     1 <1>   0.1500 
 41 H       -4.4940     6.5310    -2.4710 H     1 <1>   0.1500 
 42 H        0.1930     8.9410     0.1910 H     1 <1>   0.0800 
 43 H        0.5350     8.4530     1.8170 H     1 <1>   0.0800 
 44 H       -0.0440     5.9650    -1.4070 H     1 <1>   0.0800 
 45 H        0.5960     7.5590    -1.6240 H     1 <1>   0.0800 
 46 H        2.3020     5.1590    -0.8690 H     1 <1>   0.0800 
 47 H        2.8810     6.7720    -1.2080 H     1 <1>   0.0800 
 48 H        2.1540     5.8260    -2.4740 H     1 <1>   0.0800 
 49 H        1.9330    10.0850    -0.9680 H     1 <1>   0.1500 
 50 H        2.9470     7.4080     2.1940 H     1 <1>   0.1500 
 51 H        4.2940    10.7010    -1.2030 H     1 <1>   0.1500 
 52 H        5.3120     8.0320     1.9580 H     1 <1>   0.1500 
 53 H        5.9880     9.6770     0.2570 H     1 <1>   0.1500 
@<TRIPOS>BOND
  1   1   2  2   
  2   2   3  am  
  3   2   4  1   
  4   3   5  1   
  5   3   6  1   
  6   4   7  1   
  7   4  28  1   
  8   4  29  1   
  9   5   8  1   
 10   5   9  1   
 11   5  30  1   
 12   6  31  1   
 13   6  32  1   
 14   6  33  1   
 15   7   9  1   
 16   8  10  ar  
 17   8  11  ar  
 18   9  12  1   
 19   9  34  1   
 20  10  13  ar  
 21  10  14  1   
 22  11  15  ar  
 23  11  35  1   
 24  12  16  2   
 25  12  17  am  
 26  13  18  ar  
 27  13  36  1   
 28  14  37  1   
 29  14  38  1   
 30  14  39  1   
 31  15  18  ar  
 32  15  40  1   
 33  17  19  1   
 34  17  20  1   
 35  18  41  1   
 36  19  21  1   
 37  19  42  1   
 38  19  43  1   
 39  20  22  1   
 40  20  44  1   
 41  20  45  1   
 42  21  23  ar  
 43  21  24  ar  
 44  22  46  1   
 45  22  47  1   
 46  22  48  1   
 47  23  25  ar  
 48  23  49  1   
 49  24  26  ar  
 50  24  50  1   
 51  25  27  ar  
 52  25  51  1   
 53  26  27  ar  
 54  26  52  1   
 55  27  53  1   
@<TRIPOS>SUBSTRUCTURE
  1 ****  12 GROUP 4 **** **** 0

# MOE 2024.06 (io_trps.svl 2023.06)
