@<TRIPOS>MOLECULE
NONAME
46 49 1 0 0 
SMALL
USER_CHARGES


@<TRIPOS>ATOM
  1 O       -0.3670     0.1870     0.8710 O.2   1 <1>  -0.5700 
  2 C       -1.3780     0.8700     0.9230 C.2   1 <1>   0.5440 
  3 N       -2.5940     0.2070     0.9320 N.am  1 <1>  -0.6600 
  4 C       -1.2740     2.3340     0.9420 C.ar  1 <1>   0.3960 
  5 C       -2.7060    -1.2820     1.0580 C.3   1 <1>   0.1400 
  6 C       -3.9230     0.8850     0.8320 C.3   1 <1>   0.1400 
  7 N       -1.8750     3.0000     1.9460 N.ar  1 <1>  -0.6200 
  8 C       -0.5770     3.0150    -0.0720 C.ar  1 <1>  -0.1430 
  9 C       -3.6750    -1.8600     0.0100 C.3   1 <1>   0.3440 
 10 C       -4.8270     0.1820    -0.2010 C.3   1 <1>   0.2950 
 11 C       -1.7670     4.3130     1.9560 C.ar  1 <1>   0.1600 
 12 C       -0.4830     4.3920    -0.0410 C.ar  1 <1>  -0.1500 
 13 C        0.0930     2.2760    -1.2280 C.3   1 <1>  -0.0970 
 14 O       -4.9070    -1.1880     0.0620 O.3   1 <1>  -0.5600 
 15 C       -3.8960    -3.3520     0.2440 C.ar  1 <1>  -0.1430 
 16 C       -6.2520     0.7410    -0.1720 C.3   1 <1>  -0.1950 
 17 C       -1.0930     5.0490     1.0010 C.ar  1 <1>  -0.1500 
 18 C       -4.8950    -3.8130     1.0920 C.ar  1 <1>  -0.1500 
 19 C       -3.0740    -4.2740    -0.3900 C.ar  1 <1>  -0.1500 
 20 C       -7.1620     0.6070    -1.3520 C.3   1 <1>  -0.2000 
 21 C       -6.6230     1.9560    -0.9650 C.3   1 <1>  -0.2000 
 22 C       -5.0700    -5.1700     1.3020 C.ar  1 <1>  -0.1500 
 23 C       -3.2480    -5.6320    -0.1810 C.ar  1 <1>  -0.1500 
 24 C       -4.2460    -6.0800     0.6660 C.ar  1 <1>  -0.1500 
 25 H       -1.7460    -1.7500     0.9400 H     1 <1>   0.0800 
 26 H       -3.0680    -1.5260     2.0420 H     1 <1>   0.0800 
 27 H       -4.4000     0.8650     1.7960 H     1 <1>   0.0800 
 28 H       -3.8080     1.9130     0.5420 H     1 <1>   0.0800 
 29 H       -3.2640    -1.7170    -0.9740 H     1 <1>   0.0800 
 30 H       -4.4140     0.3090    -1.1870 H     1 <1>   0.0800 
 31 H       -2.2410     4.8370     2.7690 H     1 <1>   0.1500 
 32 H        0.0490     4.9420    -0.7990 H     1 <1>   0.1500 
 33 H        0.4050     2.9580    -1.9990 H     1 <1>   0.0800 
 34 H       -0.5860     1.5650    -1.6640 H     1 <1>   0.0800 
 35 H        0.9600     1.7490    -0.8700 H     1 <1>   0.0800 
 36 H       -6.7010     0.6400     0.8020 H     1 <1>   0.1000 
 37 H       -1.0480     6.1210     1.0760 H     1 <1>   0.1500 
 38 H       -5.5430    -3.1110     1.5890 H     1 <1>   0.1500 
 39 H       -2.2930    -3.9410    -1.0500 H     1 <1>   0.1500 
 40 H       -6.7870     0.1240    -2.2380 H     1 <1>   0.1000 
 41 H       -8.2000     0.3850    -1.1720 H     1 <1>   0.1000 
 42 H       -7.2990     2.6730    -0.5290 H     1 <1>   0.1000 
 43 H       -5.8950     2.4160    -1.6100 H     1 <1>   0.1000 
 44 H       -5.8480    -5.5140     1.9590 H     1 <1>   0.1500 
 45 H       -2.6070    -6.3400    -0.6770 H     1 <1>   0.1500 
 46 H       -4.3820    -7.1350     0.8280 H     1 <1>   0.1500 
@<TRIPOS>BOND
  1   1   2  2   
  2   2   3  am  
  3   2   4  1   
  4   3   5  1   
  5   3   6  1   
  6   4   7  ar  
  7   4   8  ar  
  8   5   9  1   
  9   5  25  1   
 10   5  26  1   
 11   6  10  1   
 12   6  27  1   
 13   6  28  1   
 14   7  11  ar  
 15   8  12  ar  
 16   8  13  1   
 17   9  14  1   
 18   9  15  1   
 19   9  29  1   
 20  10  14  1   
 21  10  16  1   
 22  10  30  1   
 23  11  17  ar  
 24  11  31  1   
 25  12  17  ar  
 26  12  32  1   
 27  13  33  1   
 28  13  34  1   
 29  13  35  1   
 30  15  18  ar  
 31  15  19  ar  
 32  16  20  1   
 33  16  21  1   
 34  16  36  1   
 35  17  37  1   
 36  18  22  ar  
 37  18  38  1   
 38  19  23  ar  
 39  19  39  1   
 40  20  21  1   
 41  20  40  1   
 42  20  41  1   
 43  21  42  1   
 44  21  43  1   
 45  22  24  ar  
 46  22  44  1   
 47  23  24  ar  
 48  23  45  1   
 49  24  46  1   
@<TRIPOS>SUBSTRUCTURE
  1 ****   3 GROUP 4 **** **** 0

# MOE 2024.06 (io_trps.svl 2023.06)
