@<TRIPOS>MOLECULE
NONAME
43 45 1 0 0 
SMALL
USER_CHARGES


@<TRIPOS>ATOM
  1 S        0.4760    -0.0340     0.6930 S.o2  1 <1>   1.3330 
  2 O        1.9100     0.0960     0.8260 O.2   1 <1>  -0.6500 
  3 O       -0.3540    -0.0470     1.8760 O.2   1 <1>  -0.6500 
  4 N        0.1650    -1.4460    -0.1970 N.am  1 <1>  -0.8490 
  5 C       -0.1340     1.2580    -0.3860 C.3   1 <1>  -0.0550 
  6 C       -0.0640    -2.6070     0.6680 C.3   1 <1>   0.1160 
  7 C        1.2060    -1.7560    -1.1830 C.3   1 <1>   0.1160 
  8 C       -0.0330     2.6620     0.2330 C.3   1 <1>  -0.0800 
  9 C       -0.6160     3.7380    -0.6750 C.3   1 <1>   0.2000 
 10 C        1.4000     3.1340     0.4800 C.3   1 <1>   0.2090 
 11 O       -1.9940     3.7890    -0.5230 O.3   1 <1>  -0.6800 
 12 C        0.0650     5.0380    -0.2490 C.3   1 <1>   0.2090 
 13 N        1.3500     4.6170     0.3670 N.pl3 1 <1>  -0.8380 
 14 C        2.5040     5.3700     0.2030 C.ar  1 <1>   0.4100 
 15 N        3.6150     4.7210    -0.0970 N.ar  1 <1>  -0.6200 
 16 C        2.5480     6.7520     0.3390 C.ar  1 <1>   0.0400 
 17 C        4.7070     5.4620    -0.2540 C.ar  1 <1>   0.4700 
 18 S        1.2630     7.9040     0.7600 S.3   1 <1>  -0.0800 
 19 C        3.7290     7.4240     0.1530 C.ar  1 <1>   0.2560 
 20 N        4.8450     6.7700    -0.1560 N.ar  1 <1>  -0.5660 
 21 C        2.3780     9.2630     0.6540 C.2   1 <1>  -0.1100 
 22 C        3.6160     8.8480     0.3300 C.2   1 <1>  -0.1810 
 23 C        4.8260     9.7490     0.1560 C.3   1 <1>  -0.0590 
 24 H        0.4080     1.2380    -1.3110 H     1 <1>   0.0800 
 25 H       -1.1650     1.0590    -0.6080 H     1 <1>   0.0800 
 26 H       -0.2750    -3.4800     0.0740 H     1 <1>   0.0800 
 27 H       -0.9100    -2.4270     1.3110 H     1 <1>   0.0800 
 28 H        0.8020    -2.7940     1.2810 H     1 <1>   0.0800 
 29 H        0.9110    -2.6050    -1.7760 H     1 <1>   0.0800 
 30 H        2.1380    -1.9800    -0.6890 H     1 <1>   0.0800 
 31 H        1.3570    -0.9180    -1.8410 H     1 <1>   0.0800 
 32 H       -0.5410     2.6780     1.1820 H     1 <1>   0.0800 
 33 H       -0.3950     3.5400    -1.7110 H     1 <1>   0.0800 
 34 H        2.0620     2.7340    -0.2710 H     1 <1>   0.0800 
 35 H        1.7550     2.8410     1.4540 H     1 <1>   0.0800 
 36 H       -2.2270     3.9360     0.4150 H     1 <1>   0.4000 
 37 H       -0.5250     5.5520     0.4890 H     1 <1>   0.0800 
 38 H        0.2370     5.6750    -1.0990 H     1 <1>   0.0800 
 39 H        5.6020     4.9140    -0.4960 H     1 <1>   0.1500 
 40 H        1.9750    10.2410     0.8510 H     1 <1>   0.1500 
 41 H        5.2140     9.6490    -0.8420 H     1 <1>   0.0800 
 42 H        5.5940     9.4680     0.8540 H     1 <1>   0.0800 
 43 H        4.5610    10.7770     0.3250 H     1 <1>   0.0800 
@<TRIPOS>BOND
  1   1   2  2   
  2   1   3  2   
  3   1   4  am  
  4   1   5  1   
  5   4   6  1   
  6   4   7  1   
  7   5   8  1   
  8   5  24  1   
  9   5  25  1   
 10   6  26  1   
 11   6  27  1   
 12   6  28  1   
 13   7  29  1   
 14   7  30  1   
 15   7  31  1   
 16   8   9  1   
 17   8  10  1   
 18   8  32  1   
 19   9  11  1   
 20   9  12  1   
 21   9  33  1   
 22  10  13  1   
 23  10  34  1   
 24  10  35  1   
 25  11  36  1   
 26  12  13  1   
 27  12  37  1   
 28  12  38  1   
 29  13  14  1   
 30  14  15  ar  
 31  14  16  ar  
 32  15  17  ar  
 33  16  18  1   
 34  16  19  ar  
 35  17  20  ar  
 36  17  39  1   
 37  18  21  1   
 38  19  20  ar  
 39  19  22  1   
 40  21  22  2   
 41  21  40  1   
 42  22  23  1   
 43  23  41  1   
 44  23  42  1   
 45  23  43  1   
@<TRIPOS>SUBSTRUCTURE
  1 ****  13 GROUP 4 **** **** 0

# MOE 2024.06 (io_trps.svl 2023.06)
