@<TRIPOS>MOLECULE
NONAME
52 55 1 0 0 
SMALL
USER_CHARGES


@<TRIPOS>ATOM
  1 O        2.2690    -1.2950     0.3920 O.3   1 <1>  -0.0190 
  2 N        2.1080    -2.3840    -0.2960 N.2   1 <1>  -0.4100 
  3 C        1.2040    -0.5820     0.1150 C.2   1 <1>   0.2980 
  4 C        1.0020    -2.2770    -0.9210 C.2   1 <1>   0.3350 
  5 N        0.3780    -1.1240    -0.6920 N.2   1 <1>  -0.5650 
  6 C        1.0430     0.7850     0.7810 C.3   1 <1>   0.3800 
  7 C        0.4330    -3.3320    -1.8750 C.3   1 <1>   0.2910 
  8 O        2.1860     1.5770     0.5950 O.3   1 <1>  -0.5600 
  9 C        0.8230     0.6990     2.2960 C.3   1 <1>  -0.1600 
 10 N       -0.5330    -4.2760    -1.2560 N.3   1 <1>  -0.8100 
 11 C        2.8790     1.7500     1.7870 C.3   1 <1>   0.1200 
 12 C        1.8180     1.6900     2.8700 C.3   1 <1>  -0.1600 
 13 C       -1.7510    -3.5780    -0.7710 C.3   1 <1>   0.1100 
 14 C       -0.9090    -5.3410    -2.2140 C.3   1 <1>   0.1100 
 15 C       -2.7950    -4.5480    -0.1850 C.3   1 <1>   0.2090 
 16 C       -1.9380    -6.3250    -1.6260 C.3   1 <1>   0.2090 
 17 N       -3.1600    -5.5990    -1.1780 N.pl3 1 <1>  -0.8380 
 18 C       -4.2520    -6.4070    -0.8280 C.ar  1 <1>   0.1000 
 19 C       -4.2650    -7.3030     0.2580 C.ar  1 <1>   0.0830 
 20 C       -5.3890    -6.3020    -1.6160 C.ar  1 <1>  -0.1500 
 21 O       -3.1430    -7.4020     1.0340 O.3   1 <1>  -0.3630 
 22 C       -5.4060    -8.0590     0.5130 C.ar  1 <1>  -0.1500 
 23 C       -6.5190    -7.0550    -1.3550 C.ar  1 <1>  -0.1500 
 24 C       -3.1390    -8.1220     2.2430 C.3   1 <1>   0.1200 
 25 C       -6.5280    -7.9340    -0.2890 C.ar  1 <1>  -0.1500 
 26 C       -1.7770    -7.9220     2.9000 C.3   1 <1>  -0.2400 
 27 H        0.2240     1.3060     0.3180 H     1 <1>   0.0800 
 28 H        1.2630    -3.8970    -2.2600 H     1 <1>   0.0800 
 29 H       -0.0350    -2.8280    -2.7020 H     1 <1>   0.0800 
 30 H        1.0440    -0.2950     2.6450 H     1 <1>   0.0800 
 31 H       -0.1920     0.9390     2.5580 H     1 <1>   0.0800 
 32 H        3.4000     2.6920     1.7630 H     1 <1>   0.0800 
 33 H        3.5820     0.9390     1.8830 H     1 <1>   0.0800 
 34 H        2.2230     1.3770     3.8160 H     1 <1>   0.0800 
 35 H        1.3660     2.6620     2.9780 H     1 <1>   0.0800 
 36 H       -2.2060    -3.0310    -1.5790 H     1 <1>   0.0800 
 37 H       -1.4810    -2.8770    -0.0020 H     1 <1>   0.0800 
 38 H       -0.0290    -5.8940    -2.4940 H     1 <1>   0.0800 
 39 H       -1.3300    -4.9030    -3.1020 H     1 <1>   0.0800 
 40 H       -3.6780    -4.0010     0.0930 H     1 <1>   0.0800 
 41 H       -2.3890    -5.0060     0.6990 H     1 <1>   0.0800 
 42 H       -1.4940    -6.8440    -0.7950 H     1 <1>   0.0800 
 43 H       -2.2120    -7.0520    -2.3700 H     1 <1>   0.0800 
 44 H       -5.3730    -5.6170    -2.4430 H     1 <1>   0.1500 
 45 H       -5.4470    -8.7530     1.3290 H     1 <1>   0.1500 
 46 H       -7.3880    -6.9540    -1.9820 H     1 <1>   0.1500 
 47 H       -3.3060    -9.1610     2.0210 H     1 <1>   0.0800 
 48 H       -3.9250    -7.7380     2.8700 H     1 <1>   0.0800 
 49 H       -7.4060    -8.5220    -0.0850 H     1 <1>   0.1500 
 50 H       -0.9990    -8.2910     2.2550 H     1 <1>   0.0800 
 51 H       -1.7380    -8.4590     3.8300 H     1 <1>   0.0800 
 52 H       -1.6130    -6.8780     3.0980 H     1 <1>   0.0800 
@<TRIPOS>BOND
  1   1   2  1   
  2   1   3  1   
  3   2   4  2   
  4   3   5  2   
  5   3   6  1   
  6   4   5  1   
  7   4   7  1   
  8   6   8  1   
  9   6   9  1   
 10   6  27  1   
 11   7  10  1   
 12   7  28  1   
 13   7  29  1   
 14   8  11  1   
 15   9  12  1   
 16   9  30  1   
 17   9  31  1   
 18  10  13  1   
 19  10  14  1   
 20  11  12  1   
 21  11  32  1   
 22  11  33  1   
 23  12  34  1   
 24  12  35  1   
 25  13  15  1   
 26  13  36  1   
 27  13  37  1   
 28  14  16  1   
 29  14  38  1   
 30  14  39  1   
 31  15  17  1   
 32  15  40  1   
 33  15  41  1   
 34  16  17  1   
 35  16  42  1   
 36  16  43  1   
 37  17  18  1   
 38  18  19  ar  
 39  18  20  ar  
 40  19  21  1   
 41  19  22  ar  
 42  20  23  ar  
 43  20  44  1   
 44  21  24  1   
 45  22  25  ar  
 46  22  45  1   
 47  23  25  ar  
 48  23  46  1   
 49  24  26  1   
 50  24  47  1   
 51  24  48  1   
 52  25  49  1   
 53  26  50  1   
 54  26  51  1   
 55  26  52  1   
@<TRIPOS>SUBSTRUCTURE
  1 ****  13 GROUP 4 **** **** 0

# MOE 2024.06 (io_trps.svl 2023.06)
