@<TRIPOS>MOLECULE
NONAME
42 43 1 0 0 
SMALL
USER_CHARGES


@<TRIPOS>ATOM
  1 O        0.2820    -0.3840    -0.1860 O.3   1 <1>  -0.5600 
  2 C        1.4350    -1.0260    -0.6770 C.3   1 <1>   0.2000 
  3 C        0.1940     0.9840    -0.4520 C.3   1 <1>   0.1200 
  4 C        2.7280    -0.3280    -0.1740 C.3   1 <1>   0.5660 
  5 C        1.4050    -2.4940    -0.2200 C.3   1 <1>   0.1200 
  6 C        1.3900     1.7210     0.1760 C.3   1 <1>   0.3430 
  7 N        2.6990     1.1690    -0.3120 N.4   1 <1>  -0.9590 
  8 C        3.9520    -0.8480    -0.9190 C.ar  1 <1>  -0.1440 
  9 O        1.7180    -2.5830     1.1350 O.3   1 <1>  -0.6800 
 10 C        3.8720     1.7760     0.3780 C.3   1 <1>   0.3430 
 11 C        4.9080    -1.5710    -0.2190 C.ar  1 <1>  -0.1500 
 12 C        4.1370    -0.6150    -2.2780 C.ar  1 <1>  -0.1500 
 13 C        4.0440     3.2360    -0.0440 C.3   1 <1>  -0.1600 
 14 C        6.0380    -2.0430    -0.8610 C.ar  1 <1>  -0.1500 
 15 C        5.2690    -1.0880    -2.9180 C.ar  1 <1>  -0.1500 
 16 C        5.3210     3.8280     0.5660 C.3   1 <1>  -0.1600 
 17 C        6.2200    -1.8000    -2.2100 C.ar  1 <1>  -0.1500 
 18 C        5.5030     5.2880     0.1440 C.3   1 <1>  -0.2400 
 19 H        1.3860    -0.9980    -1.7510 H     1 <1>   0.0800 
 20 H        0.1550     1.1330    -1.5170 H     1 <1>   0.0800 
 21 H       -0.7260     1.3390    -0.0210 H     1 <1>   0.0800 
 22 H        2.8360    -0.5740     0.8690 H     1 <1>   0.0800 
 23 H        2.1300    -3.0760    -0.7640 H     1 <1>   0.0800 
 24 H        0.4250    -2.9120    -0.3800 H     1 <1>   0.0800 
 25 H        1.3260     1.6170     1.2480 H     1 <1>   0.0800 
 26 H        1.3200     2.7700    -0.0600 H     1 <1>   0.0800 
 27 H        2.7980     1.3590    -1.3130 H     1 <1>   0.4500 
 28 H        1.4730    -3.4650     1.4870 H     1 <1>   0.4000 
 29 H        3.7500     1.7130     1.4480 H     1 <1>   0.0800 
 30 H        4.7690     1.2380     0.1120 H     1 <1>   0.0800 
 31 H        4.7820    -1.7790     0.8320 H     1 <1>   0.1500 
 32 H        3.4150    -0.0710    -2.8600 H     1 <1>   0.1500 
 33 H        4.1150     3.2960    -1.1160 H     1 <1>   0.0800 
 34 H        3.2040     3.8220     0.2860 H     1 <1>   0.0800 
 35 H        6.7780    -2.6040    -0.3140 H     1 <1>   0.1500 
 36 H        5.4140    -0.9080    -3.9700 H     1 <1>   0.1500 
 37 H        5.2750     3.7780     1.6410 H     1 <1>   0.0800 
 38 H        6.1800     3.2620     0.2430 H     1 <1>   0.0800 
 39 H        7.1000    -2.1690    -2.7100 H     1 <1>   0.1500 
 40 H        4.6750     5.8890     0.4770 H     1 <1>   0.0800 
 41 H        5.5840     5.3700    -0.9260 H     1 <1>   0.0800 
 42 H        6.4040     5.6860     0.5800 H     1 <1>   0.0800 
@<TRIPOS>BOND
  1   1   2  1   
  2   1   3  1   
  3   2   4  1   
  4   2   5  1   
  5   2  19  1   
  6   3   6  1   
  7   3  20  1   
  8   3  21  1   
  9   4   7  1   
 10   4   8  1   
 11   4  22  1   
 12   5   9  1   
 13   5  23  1   
 14   5  24  1   
 15   6   7  1   
 16   6  25  1   
 17   6  26  1   
 18   7  10  1   
 19   7  27  1   
 20   8  11  ar  
 21   8  12  ar  
 22   9  28  1   
 23  10  13  1   
 24  10  29  1   
 25  10  30  1   
 26  11  14  ar  
 27  11  31  1   
 28  12  15  ar  
 29  12  32  1   
 30  13  16  1   
 31  13  33  1   
 32  13  34  1   
 33  14  17  ar  
 34  14  35  1   
 35  15  17  ar  
 36  15  36  1   
 37  16  18  1   
 38  16  37  1   
 39  16  38  1   
 40  17  39  1   
 41  18  40  1   
 42  18  41  1   
 43  18  42  1   
@<TRIPOS>SUBSTRUCTURE
  1 ****   4 GROUP 4 **** **** 0

# MOE 2024.06 (io_trps.svl 2023.06)
