@<TRIPOS>MOLECULE
NONAME
40 41 1 0 0 
SMALL
USER_CHARGES


@<TRIPOS>ATOM
  1 CL      -0.5460     0.0550     0.2790 Cl    1 <1>  -0.1770 
  2 C       -0.3170    -1.6390    -0.0570 C.ar  1 <1>   0.1770 
  3 C        0.0120    -2.4990     0.9690 C.ar  1 <1>  -0.1500 
  4 C       -0.4660    -2.1000    -1.3500 C.ar  1 <1>  -0.1500 
  5 C        0.1990    -3.8500     0.7160 C.ar  1 <1>   0.0820 
  6 C       -0.2940    -3.4470    -1.6040 C.ar  1 <1>  -0.1500 
  7 O        0.5470    -4.5770     1.8060 O.3   1 <1>  -0.3630 
  8 C        0.0220    -4.3550    -0.5880 C.ar  1 <1>   0.0860 
  9 C        1.2860    -5.7810     1.7460 C.3   1 <1>   0.0400 
 10 C        0.1180    -5.7510    -0.9490 C.2   1 <1>   0.5440 
 11 O        1.1210    -6.1460    -1.5130 O.2   1 <1>  -0.5700 
 12 N       -0.9100    -6.6350    -0.7070 N.am  1 <1>  -0.6600 
 13 C       -0.7050    -8.1070    -0.9080 C.3   1 <1>   0.3210 
 14 C       -2.2960    -6.1880    -0.3690 C.3   1 <1>   0.1400 
 15 C       -1.2370    -8.9360     0.2590 C.2   1 <1>   0.0460 
 16 C       -2.5450    -6.1530     1.1450 C.3   1 <1>   0.1200 
 17 N       -0.5680    -8.9870     1.4320 N.2   1 <1>  -0.5650 
 18 C       -2.3660    -9.6840     0.3190 C.2   1 <1>  -0.3320 
 19 O       -3.7090    -5.4390     1.3970 O.3   1 <1>  -0.6800 
 20 C       -1.2930    -9.7570     2.1730 C.2   1 <1>   0.0360 
 21 N       -2.4010   -10.2140     1.5560 N.pl3 1 <1>   0.0330 
 22 C       -3.4530    -9.9470    -0.7090 C.3   1 <1>  -0.0600 
 23 H        0.1330    -2.1210     1.9670 H     1 <1>   0.1500 
 24 H       -0.7120    -1.4110    -2.1380 H     1 <1>   0.1500 
 25 H       -0.4060    -3.8170    -2.6100 H     1 <1>   0.1500 
 26 H        1.7160    -5.9590     2.7150 H     1 <1>   0.0800 
 27 H        2.0690    -5.6860     1.0140 H     1 <1>   0.0800 
 28 H        0.6260    -6.5920     1.4990 H     1 <1>   0.0800 
 29 H        0.3410    -8.3310    -1.0180 H     1 <1>   0.0800 
 30 H       -1.1970    -8.4030    -1.8160 H     1 <1>   0.0800 
 31 H       -3.0070    -6.8550    -0.8240 H     1 <1>   0.0800 
 32 H       -2.4580    -5.2060    -0.7750 H     1 <1>   0.0800 
 33 H       -1.7380    -5.6750     1.6690 H     1 <1>   0.0800 
 34 H       -2.6810    -7.1460     1.5330 H     1 <1>   0.0800 
 35 H       -3.5320    -4.4780     1.3690 H     1 <1>   0.4000 
 36 H       -1.0540   -10.0200     3.1880 H     1 <1>   0.1500 
 37 H       -3.1150   -10.8310     1.9540 H     1 <1>   0.2700 
 38 H       -3.2450    -9.4300    -1.6280 H     1 <1>   0.0800 
 39 H       -4.4030    -9.6070    -0.3370 H     1 <1>   0.0800 
 40 H       -3.5170   -11.0000    -0.9190 H     1 <1>   0.0800 
@<TRIPOS>BOND
  1   1   2  1   
  2   2   3  ar  
  3   2   4  ar  
  4   3   5  ar  
  5   3  23  1   
  6   4   6  ar  
  7   4  24  1   
  8   5   7  1   
  9   5   8  ar  
 10   6   8  ar  
 11   6  25  1   
 12   7   9  1   
 13   8  10  1   
 14   9  26  1   
 15   9  27  1   
 16   9  28  1   
 17  10  11  2   
 18  10  12  am  
 19  12  13  1   
 20  12  14  1   
 21  13  15  1   
 22  13  29  1   
 23  13  30  1   
 24  14  16  1   
 25  14  31  1   
 26  14  32  1   
 27  15  17  1   
 28  15  18  2   
 29  16  19  1   
 30  16  33  1   
 31  16  34  1   
 32  17  20  2   
 33  18  21  1   
 34  18  22  1   
 35  19  35  1   
 36  20  21  1   
 37  20  36  1   
 38  21  37  1   
 39  22  38  1   
 40  22  39  1   
 41  22  40  1   
@<TRIPOS>SUBSTRUCTURE
  1 ****  12 GROUP 4 **** **** 0

# MOE 2024.06 (io_trps.svl 2023.06)
