@<TRIPOS>MOLECULE
NONAME
43 45 1 0 0 
SMALL
USER_CHARGES


@<TRIPOS>ATOM
  1 CL       1.7820     0.4710    -1.4340 Cl    1 <1>  -0.1770 
  2 C        0.9100    -0.7210    -0.4940 C.ar  1 <1>   0.1770 
  3 C        1.6020    -1.6880     0.2240 C.ar  1 <1>  -0.1440 
  4 C       -0.4740    -0.6600    -0.4940 C.ar  1 <1>  -0.1500 
  5 C        0.8360    -2.5900     0.9480 C.ar  1 <1>   0.1900 
  6 C        3.1320    -1.7380     0.2220 C.3   1 <1>   0.0450 
  7 C       -1.2080    -1.5790     0.2400 C.ar  1 <1>  -0.1500 
  8 F        1.4270    -3.5240     1.6460 F     1 <1>  -0.1900 
  9 C       -0.5480    -2.5530     0.9700 C.ar  1 <1>  -0.1500 
 10 C        3.7690    -0.6160     1.0410 C.2   1 <1>   0.5690 
 11 O        3.0770    -0.0220     1.8340 O.2   1 <1>  -0.5700 
 12 N        5.0820    -0.2420     0.8630 N.am  1 <1>  -0.6600 
 13 C        5.7040     0.7750     1.7790 C.3   1 <1>   0.1400 
 14 C        5.9850    -0.6870    -0.2390 C.3   1 <1>   0.1400 
 15 C        6.0060     2.1510     1.1210 C.3   1 <1>   0.4230 
 16 C        6.2240     0.4530    -1.2560 C.3   1 <1>  -0.0800 
 17 N        5.1580     2.5130    -0.0870 N.4   1 <1>  -0.9590 
 18 C        7.5120     2.3130     0.8140 C.3   1 <1>   0.1200 
 19 C        7.6420     1.0420    -1.1930 C.3   1 <1>   0.1200 
 20 C        5.1220     1.5280    -1.2270 C.3   1 <1>   0.3430 
 21 C        3.7520     2.8030     0.3450 C.3   1 <1>   0.2630 
 22 O        8.0470     1.2260     0.1230 O.3   1 <1>  -0.5600 
 23 H       -0.9750     0.1020    -1.0640 H     1 <1>   0.1500 
 24 H        3.4540    -1.6780    -0.7980 H     1 <1>   0.0800 
 25 H        3.4830    -2.6740     0.6150 H     1 <1>   0.0800 
 26 H       -2.2840    -1.5340     0.2450 H     1 <1>   0.1500 
 27 H       -1.0940    -3.2760     1.5490 H     1 <1>   0.1500 
 28 H        5.0610     0.9490     2.6240 H     1 <1>   0.0800 
 29 H        6.6120     0.3640     2.1850 H     1 <1>   0.0800 
 30 H        6.9200    -1.0200     0.1810 H     1 <1>   0.0800 
 31 H        5.5670    -1.5370    -0.7470 H     1 <1>   0.0800 
 32 H        5.8020     2.8890     1.8780 H     1 <1>   0.0800 
 33 H        6.1520    -0.0020    -2.2280 H     1 <1>   0.0800 
 34 H        5.5480     3.3850    -0.4620 H     1 <1>   0.4500 
 35 H        8.0490     2.3690     1.7440 H     1 <1>   0.0800 
 36 H        7.7110     3.2150     0.2630 H     1 <1>   0.0800 
 37 H        7.7260     1.9720    -1.7300 H     1 <1>   0.0800 
 38 H        8.3370     0.3420    -1.6280 H     1 <1>   0.0800 
 39 H        4.1790     1.0100    -1.2050 H     1 <1>   0.0800 
 40 H        5.1540     2.0760    -2.1550 H     1 <1>   0.0800 
 41 H        3.2860     1.9150     0.7360 H     1 <1>   0.0800 
 42 H        3.1650     3.1500    -0.4910 H     1 <1>   0.0800 
 43 H        3.7390     3.5600     1.1120 H     1 <1>   0.0800 
@<TRIPOS>BOND
  1   1   2  1   
  2   2   3  ar  
  3   2   4  ar  
  4   3   5  ar  
  5   3   6  1   
  6   4   7  ar  
  7   4  23  1   
  8   5   8  1   
  9   5   9  ar  
 10   6  10  1   
 11   6  24  1   
 12   6  25  1   
 13   7   9  ar  
 14   7  26  1   
 15   9  27  1   
 16  10  11  2   
 17  10  12  am  
 18  12  13  1   
 19  12  14  1   
 20  13  15  1   
 21  13  28  1   
 22  13  29  1   
 23  14  16  1   
 24  14  30  1   
 25  14  31  1   
 26  15  17  1   
 27  15  18  1   
 28  15  32  1   
 29  16  19  1   
 30  16  20  1   
 31  16  33  1   
 32  17  20  1   
 33  17  21  1   
 34  17  34  1   
 35  18  22  1   
 36  18  35  1   
 37  18  36  1   
 38  19  22  1   
 39  19  37  1   
 40  19  38  1   
 41  20  39  1   
 42  20  40  1   
 43  21  41  1   
 44  21  42  1   
 45  21  43  1   
@<TRIPOS>SUBSTRUCTURE
  1 ****  10 GROUP 4 **** **** 0

# MOE 2024.06 (io_trps.svl 2023.06)
