@<TRIPOS>MOLECULE
NONAME
37 38 1 0 0 
SMALL
USER_CHARGES


@<TRIPOS>ATOM
  1 O       -0.3450     0.8900    -1.3300 O.co2 1 <1>  -0.9000 
  2 C       -1.0380     0.0820    -0.6880 C.2   1 <1>   0.9060 
  3 O       -0.8140    -1.1240    -0.6170 O.co2 1 <1>  -0.9000 
  4 C       -2.2270     0.7050     0.0670 C.3   1 <1>   0.3170 
  5 N       -2.1980     2.2080    -0.0780 N.4   1 <1>  -0.9590 
  6 C       -3.5990     0.2750    -0.4590 C.3   1 <1>  -0.1600 
  7 C       -3.5570     2.6650    -0.4860 C.3   1 <1>   0.3430 
  8 C       -1.6150     2.8470     1.1160 C.3   1 <1>   0.4860 
  9 C       -4.4860     1.4820    -0.2040 C.3   1 <1>   0.2000 
 10 C       -1.4630     4.3240     0.8550 C.ar  1 <1>  -0.1430 
 11 O       -4.8200     1.4930     1.1460 O.3   1 <1>  -0.6800 
 12 C       -0.5180     4.8070    -0.0210 C.ar  1 <1>   0.1600 
 13 C       -2.2720     5.2480     1.4770 C.ar  1 <1>   0.1600 
 14 N       -0.3940     6.0860    -0.2710 N.ar  1 <1>  -0.6200 
 15 N       -2.1710     6.5310     1.2420 N.ar  1 <1>  -0.6200 
 16 C       -1.2380     6.8860     0.3710 C.ar  1 <1>   0.7200 
 17 N       -1.1670     8.2140     0.1390 N.pl3 1 <1>  -0.8690 
 18 C       -0.0100     8.8880    -0.4690 C.3   1 <1>   0.2090 
 19 C       -0.3210    10.3750    -0.5730 C.3   1 <1>  -0.2400 
 20 H       -2.1490     0.4330     1.1040 H     1 <1>   0.0800 
 21 H       -1.5040     2.2990    -0.8590 H     1 <1>   0.4500 
 22 H       -3.9460    -0.6240     0.0170 H     1 <1>   0.0800 
 23 H       -3.5250     0.0910    -1.5170 H     1 <1>   0.0800 
 24 H       -3.8730     3.5440     0.0500 H     1 <1>   0.0800 
 25 H       -3.5560     2.8730    -1.5430 H     1 <1>   0.0800 
 26 H       -2.2570     2.6820     1.9660 H     1 <1>   0.0800 
 27 H       -0.6490     2.4150     1.3230 H     1 <1>   0.0800 
 28 H       -5.3870     1.5020    -0.7940 H     1 <1>   0.0800 
 29 H       -5.4260     0.7520     1.3560 H     1 <1>   0.4000 
 30 H        0.1510     4.1300    -0.5320 H     1 <1>   0.1500 
 31 H       -3.0240     4.9320     2.1800 H     1 <1>   0.1500 
 32 H       -1.7240     8.7640     0.7890 H     1 <1>   0.4000 
 33 H        0.8630     8.7280     0.1410 H     1 <1>   0.0800 
 34 H        0.1720     8.4760    -1.4490 H     1 <1>   0.0800 
 35 H       -0.4810    10.7930     0.4050 H     1 <1>   0.0800 
 36 H       -1.1950    10.5280    -1.1800 H     1 <1>   0.0800 
 37 H        0.5070    10.8850    -1.0310 H     1 <1>   0.0800 
@<TRIPOS>BOND
  1   1   2  ar  
  2   2   3  ar  
  3   2   4  1   
  4   4   5  1   
  5   4   6  1   
  6   4  20  1   
  7   5   7  1   
  8   5   8  1   
  9   5  21  1   
 10   6   9  1   
 11   6  22  1   
 12   6  23  1   
 13   7   9  1   
 14   7  24  1   
 15   7  25  1   
 16   8  10  1   
 17   8  26  1   
 18   8  27  1   
 19   9  11  1   
 20   9  28  1   
 21  10  12  ar  
 22  10  13  ar  
 23  11  29  1   
 24  12  14  ar  
 25  12  30  1   
 26  13  15  ar  
 27  13  31  1   
 28  14  16  ar  
 29  15  16  ar  
 30  16  17  1   
 31  17  18  1   
 32  17  32  1   
 33  18  19  1   
 34  18  33  1   
 35  18  34  1   
 36  19  35  1   
 37  19  36  1   
 38  19  37  1   
@<TRIPOS>SUBSTRUCTURE
  1 ****  10 GROUP 4 **** **** 0

# MOE 2024.06 (io_trps.svl 2023.06)
