@<TRIPOS>MOLECULE
NONAME
56 57 1 0 0 
SMALL
USER_CHARGES


@<TRIPOS>ATOM
  1 O       -1.3530    -0.2030     1.9620 O.2   1 <1>  -0.5700 
  2 C       -1.4870     0.3220     0.8830 C.2   1 <1>   0.5690 
  3 N       -2.7320     0.4540     0.3150 N.am  1 <1>  -0.6600 
  4 C       -0.2070     0.7960     0.2130 C.3   1 <1>  -0.0990 
  5 C       -3.8610    -0.3500     0.8920 C.3   1 <1>   0.3210 
  6 C       -3.0550     1.3890    -0.8170 C.3   1 <1>   0.1400 
  7 C        0.3220     2.1080     0.8080 C.3   1 <1>   0.0210 
  8 C       -4.6700    -1.0640    -0.1860 C.2   1 <1>   0.0460 
  9 C       -3.9220     2.5770    -0.3620 C.3   1 <1>   0.3430 
 10 C       -0.5810     3.2900     0.4930 C.2   1 <1>  -0.1810 
 11 N       -5.8090    -0.5360    -0.6890 N.2   1 <1>  -0.5650 
 12 C       -4.4050    -2.2620    -0.7550 C.2   1 <1>  -0.3320 
 13 N       -5.3880     2.2850    -0.3750 N.4   1 <1>  -0.9590 
 14 C       -1.5620     3.8350     1.3170 C.2   1 <1>   0.1080 
 15 C       -0.6040     4.0570    -0.6200 C.2   1 <1>  -0.3320 
 16 C       -6.2130    -1.4280    -1.5360 C.2   1 <1>   0.0360 
 17 N       -5.4020    -2.5010    -1.6250 N.pl3 1 <1>   0.0330 
 18 C       -3.2530    -3.2300    -0.5320 C.3   1 <1>  -0.0600 
 19 C       -6.0070     2.5980    -1.6930 C.3   1 <1>   0.2630 
 20 C       -6.0740     3.0010     0.7370 C.3   1 <1>   0.2630 
 21 N       -2.1780     4.8260     0.7520 N.2   1 <1>  -0.7070 
 22 C       -1.9060     3.3630     2.7150 C.3   1 <1>  -0.0590 
 23 N       -1.5570     4.9950    -0.4270 N.pl3 1 <1>   0.3140 
 24 C        0.2610     3.9710    -1.8700 C.3   1 <1>  -0.0600 
 25 C       -1.8950     6.1180    -1.3130 C.3   1 <1>   0.0160 
 26 H       -0.3230     0.8800    -0.8480 H     1 <1>   0.0800 
 27 H        0.5340     0.0360     0.3790 H     1 <1>   0.0800 
 28 H       -4.5040     0.2890     1.4690 H     1 <1>   0.0800 
 29 H       -3.4820    -1.1020     1.5620 H     1 <1>   0.0800 
 30 H       -3.5310     0.8550    -1.6200 H     1 <1>   0.0800 
 31 H       -2.1500     1.8060    -1.2140 H     1 <1>   0.0800 
 32 H        1.3010     2.3050     0.4080 H     1 <1>   0.0800 
 33 H        0.4340     2.0030     1.8730 H     1 <1>   0.0800 
 34 H       -3.7220     3.4260    -0.9930 H     1 <1>   0.0800 
 35 H       -3.6180     2.8420     0.6350 H     1 <1>   0.0800 
 36 H       -5.5060     1.2550    -0.2400 H     1 <1>   0.4500 
 37 H       -7.1110    -1.3500    -2.1260 H     1 <1>   0.1500 
 38 H       -5.5260    -3.3270    -2.2210 H     1 <1>   0.2700 
 39 H       -2.5520    -2.8290     0.1790 H     1 <1>   0.0800 
 40 H       -2.7320    -3.4080    -1.4550 H     1 <1>   0.0800 
 41 H       -3.6220    -4.1670    -0.1540 H     1 <1>   0.0800 
 42 H       -5.9120     3.6490    -1.9140 H     1 <1>   0.0800 
 43 H       -7.0530     2.3380    -1.6810 H     1 <1>   0.0800 
 44 H       -5.5260     2.0300    -2.4720 H     1 <1>   0.0800 
 45 H       -5.9670     4.0670     0.6180 H     1 <1>   0.0800 
 46 H       -5.6430     2.7160     1.6830 H     1 <1>   0.0800 
 47 H       -7.1230     2.7530     0.7490 H     1 <1>   0.0800 
 48 H       -2.2920     2.3620     2.6900 H     1 <1>   0.0800 
 49 H       -2.6420     4.0130     3.1510 H     1 <1>   0.0800 
 50 H       -1.0260     3.3850     3.3310 H     1 <1>   0.0800 
 51 H        0.9330     3.1340    -1.8140 H     1 <1>   0.0800 
 52 H        0.8480     4.8660    -1.9740 H     1 <1>   0.0800 
 53 H       -0.3530     3.8540    -2.7450 H     1 <1>   0.0800 
 54 H       -2.1760     5.7410    -2.2780 H     1 <1>   0.0800 
 55 H       -1.0380     6.7580    -1.4060 H     1 <1>   0.0800 
 56 H       -2.7090     6.6730    -0.8860 H     1 <1>   0.0800 
@<TRIPOS>BOND
  1   1   2  2   
  2   2   3  am  
  3   2   4  1   
  4   3   5  1   
  5   3   6  1   
  6   4   7  1   
  7   4  26  1   
  8   4  27  1   
  9   5   8  1   
 10   5  28  1   
 11   5  29  1   
 12   6   9  1   
 13   6  30  1   
 14   6  31  1   
 15   7  10  1   
 16   7  32  1   
 17   7  33  1   
 18   8  11  1   
 19   8  12  2   
 20   9  13  1   
 21   9  34  1   
 22   9  35  1   
 23  10  14  1   
 24  10  15  2   
 25  11  16  2   
 26  12  17  1   
 27  12  18  1   
 28  13  19  1   
 29  13  20  1   
 30  13  36  1   
 31  14  21  2   
 32  14  22  1   
 33  15  23  1   
 34  15  24  1   
 35  16  17  1   
 36  16  37  1   
 37  17  38  1   
 38  18  39  1   
 39  18  40  1   
 40  18  41  1   
 41  19  42  1   
 42  19  43  1   
 43  19  44  1   
 44  20  45  1   
 45  20  46  1   
 46  20  47  1   
 47  21  23  1   
 48  22  48  1   
 49  22  49  1   
 50  22  50  1   
 51  23  25  1   
 52  24  51  1   
 53  24  52  1   
 54  24  53  1   
 55  25  54  1   
 56  25  55  1   
 57  25  56  1   
@<TRIPOS>SUBSTRUCTURE
  1 ****   6 GROUP 4 **** **** 0

# MOE 2024.06 (io_trps.svl 2023.06)
