@<TRIPOS>MOLECULE
NONAME
52 54 1 0 0 
SMALL
USER_CHARGES


@<TRIPOS>ATOM
  1 O        0.3210     1.4870    -2.0180 O.2   1 <1>  -0.5700 
  2 C        0.2180     2.2890    -1.1070 C.2   1 <1>   0.5440 
  3 N       -1.0400     2.6510    -0.6730 N.am  1 <1>  -0.6600 
  4 C        1.4140     2.8440    -0.5150 C.ar  1 <1>   0.0860 
  5 C       -2.2610     2.1810    -1.3910 C.3   1 <1>   0.1400 
  6 C       -1.2480     3.5480     0.5050 C.3   1 <1>   0.1400 
  7 C        1.9690     2.3940     0.6950 C.ar  1 <1>   0.0830 
  8 C        2.0420     3.9090    -1.1580 C.ar  1 <1>  -0.1500 
  9 C       -3.3650     3.2370    -1.2930 C.3   1 <1>  -0.1600 
 10 C       -2.6050     3.2530     1.1410 C.3   1 <1>  -0.1600 
 11 O        1.4770     1.3580     1.4180 O.3   1 <1>  -0.3620 
 12 C        3.0790     3.0270     1.2340 C.ar  1 <1>  -0.1500 
 13 C        3.1550     4.5330    -0.6280 C.ar  1 <1>   0.0830 
 14 C       -3.7670     3.5480     0.1730 C.3   1 <1>   0.2800 
 15 C        1.1070     0.1510     0.7820 C.3   1 <1>   0.0400 
 16 C        3.6760     4.0900     0.5840 C.ar  1 <1>  -0.1500 
 17 O        3.6760     5.5650    -1.3410 O.3   1 <1>  -0.3620 
 18 O       -3.9920     4.9300     0.2760 O.3   1 <1>  -0.5600 
 19 C       -5.0350     2.7770     0.6330 C.3   1 <1>  -0.1600 
 20 C        4.8300     6.2460    -0.9010 C.3   1 <1>   0.0400 
 21 C       -5.0400     5.4960    -0.4690 C.3   1 <1>   0.1200 
 22 C       -6.2800     3.6580     0.7770 C.3   1 <1>   0.2800 
 23 C       -6.3310     4.6660    -0.3680 C.3   1 <1>  -0.1600 
 24 O       -6.1460     4.3680     1.9410 O.3   1 <1>  -0.6800 
 25 C       -7.5640     2.8420     0.9000 C.3   1 <1>  -0.2400 
 26 H       -2.5910     1.2530    -0.9570 H     1 <1>   0.0800 
 27 H       -2.0290     2.0030    -2.4280 H     1 <1>   0.0800 
 28 H       -1.2100     4.5750     0.1840 H     1 <1>   0.0800 
 29 H       -0.4760     3.3880     1.2370 H     1 <1>   0.0800 
 30 H        1.6460     4.2610    -2.0930 H     1 <1>   0.1500 
 31 H       -4.2150     2.9110    -1.8620 H     1 <1>   0.0800 
 32 H       -2.9800     4.1240    -1.7630 H     1 <1>   0.0800 
 33 H       -2.7260     3.8320     2.0390 H     1 <1>   0.0800 
 34 H       -2.6050     2.2160     1.4260 H     1 <1>   0.0800 
 35 H        3.4750     2.6740     2.1690 H     1 <1>   0.1500 
 36 H        1.2210    -0.6490     1.4910 H     1 <1>   0.0800 
 37 H        1.7470    -0.0170    -0.0670 H     1 <1>   0.0800 
 38 H        0.0790     0.2170     0.4750 H     1 <1>   0.0800 
 39 H        4.5350     4.5540     1.0300 H     1 <1>   0.1500 
 40 H       -4.8670     2.2770     1.5710 H     1 <1>   0.0800 
 41 H       -5.2400     1.9950    -0.0740 H     1 <1>   0.0800 
 42 H        5.0650     7.0060    -1.6250 H     1 <1>   0.0800 
 43 H        5.6440     5.5460    -0.8300 H     1 <1>   0.0800 
 44 H        4.6260     6.7010     0.0520 H     1 <1>   0.0800 
 45 H       -4.7260     5.5990    -1.4930 H     1 <1>   0.0800 
 46 H       -5.2080     6.4800    -0.0680 H     1 <1>   0.0800 
 47 H       -6.4700     4.1370    -1.2930 H     1 <1>   0.0800 
 48 H       -7.1770     5.3200    -0.2520 H     1 <1>   0.0800 
 49 H       -5.3090     4.8730     1.8610 H     1 <1>   0.4000 
 50 H       -7.7300     2.2690     0.0060 H     1 <1>   0.0800 
 51 H       -8.4050     3.4940     1.0490 H     1 <1>   0.0800 
 52 H       -7.4940     2.1650     1.7320 H     1 <1>   0.0800 
@<TRIPOS>BOND
  1   1   2  2   
  2   2   3  am  
  3   2   4  1   
  4   3   5  1   
  5   3   6  1   
  6   4   7  ar  
  7   4   8  ar  
  8   5   9  1   
  9   5  26  1   
 10   5  27  1   
 11   6  10  1   
 12   6  28  1   
 13   6  29  1   
 14   7  11  1   
 15   7  12  ar  
 16   8  13  ar  
 17   8  30  1   
 18   9  14  1   
 19   9  31  1   
 20   9  32  1   
 21  10  14  1   
 22  10  33  1   
 23  10  34  1   
 24  11  15  1   
 25  12  16  ar  
 26  12  35  1   
 27  13  16  ar  
 28  13  17  1   
 29  14  18  1   
 30  14  19  1   
 31  15  36  1   
 32  15  37  1   
 33  15  38  1   
 34  16  39  1   
 35  17  20  1   
 36  18  21  1   
 37  19  22  1   
 38  19  40  1   
 39  19  41  1   
 40  20  42  1   
 41  20  43  1   
 42  20  44  1   
 43  21  23  1   
 44  21  45  1   
 45  21  46  1   
 46  22  23  1   
 47  22  24  1   
 48  22  25  1   
 49  23  47  1   
 50  23  48  1   
 51  24  49  1   
 52  25  50  1   
 53  25  51  1   
 54  25  52  1   
@<TRIPOS>SUBSTRUCTURE
  1 ****   6 GROUP 4 **** **** 0

# MOE 2024.06 (io_trps.svl 2023.06)
