@<TRIPOS>MOLECULE
NONAME
25 25 1 0 0 
SMALL
USER_CHARGES


@<TRIPOS>ATOM
  1 F       -0.6680    -0.2980    -1.3410 F     1 <1>  -0.1900 
  2 C       -1.6460    -0.8630    -0.6860 C.ar  1 <1>   0.1900 
  3 C       -1.4410    -2.1130    -0.1380 C.ar  1 <1>  -0.1500 
  4 C       -2.8470    -0.1830    -0.5690 C.ar  1 <1>  -0.1500 
  5 C       -2.5020    -2.6720     0.5450 C.ar  1 <1>   0.1900 
  6 C       -3.9020    -0.7670     0.1250 C.ar  1 <1>  -0.1440 
  7 F       -2.3520    -3.8540     1.0790 F     1 <1>  -0.1900 
  8 C       -3.7200    -2.0280     0.6870 C.ar  1 <1>  -0.1500 
  9 C       -5.2290    -0.0280     0.2550 C.3   1 <1>   0.3440 
 10 O       -5.5990    -0.0500     1.5840 O.3   1 <1>  -0.6800 
 11 C       -6.3280    -0.6810    -0.5740 C.3   1 <1>  -0.0990 
 12 C       -7.5650     0.1770    -0.5590 C.2   1 <1>   0.6590 
 13 O       -7.5560     1.2880    -1.0240 O.2   1 <1>  -0.5700 
 14 O       -8.6570    -0.3670    -0.0370 O.3   1 <1>  -0.4300 
 15 C       -9.8750     0.3430     0.0380 C.3   1 <1>   0.0400 
 16 H       -0.5040    -2.6260    -0.2390 H     1 <1>   0.1500 
 17 H       -2.9440     0.7890    -1.0200 H     1 <1>   0.1500 
 18 H       -4.5130    -2.5100     1.2330 H     1 <1>   0.1500 
 19 H       -5.1100     1.0040    -0.0350 H     1 <1>   0.0800 
 20 H       -4.8500     0.2560     2.1300 H     1 <1>   0.4000 
 21 H       -6.5480    -1.6630    -0.1990 H     1 <1>   0.0800 
 22 H       -5.9990    -0.7710    -1.5910 H     1 <1>   0.0800 
 23 H      -10.6120    -0.2910     0.4970 H     1 <1>   0.0800 
 24 H      -10.1830     0.6120    -0.9580 H     1 <1>   0.0800 
 25 H       -9.7240     1.2280     0.6320 H     1 <1>   0.0800 
@<TRIPOS>BOND
  1   1   2  1   
  2   2   3  ar  
  3   2   4  ar  
  4   3   5  ar  
  5   3  16  1   
  6   4   6  ar  
  7   4  17  1   
  8   5   7  1   
  9   5   8  ar  
 10   6   8  ar  
 11   6   9  1   
 12   8  18  1   
 13   9  10  1   
 14   9  11  1   
 15   9  19  1   
 16  10  20  1   
 17  11  12  1   
 18  11  21  1   
 19  11  22  1   
 20  12  13  2   
 21  12  14  1   
 22  14  15  1   
 23  15  23  1   
 24  15  24  1   
 25  15  25  1   
@<TRIPOS>SUBSTRUCTURE
  1 ****   6 GROUP 4 **** **** 0

# MOE 2024.06 (io_trps.svl 2023.06)
