@<TRIPOS>MOLECULE
NONAME
40 41 1 0 0 
SMALL
USER_CHARGES


@<TRIPOS>ATOM
  1 S        0.4910    -0.0030    -0.1520 S.o2  1 <1>   1.3330 
  2 O        0.8950    -0.9280     0.8830 O.2   1 <1>  -0.6500 
  3 O        0.0430    -0.5130    -1.4280 O.2   1 <1>  -0.6500 
  4 N       -0.7340     0.9890     0.4750 N.am  1 <1>  -0.8490 
  5 C        1.8420     1.1410    -0.4160 C.3   1 <1>  -0.0550 
  6 C       -1.6930     0.2350     1.2870 C.3   1 <1>   0.1160 
  7 C       -1.4460     1.7550    -0.5530 C.3   1 <1>   0.1160 
  8 C        3.0930     0.4770    -1.0260 C.3   1 <1>  -0.0800 
  9 C        4.2000     1.4420    -1.4230 C.3   1 <1>   0.2200 
 10 C        3.8130    -0.5100    -0.0960 C.3   1 <1>   0.1200 
 11 N        4.3870     2.4900    -0.3880 N.am  1 <1>  -0.7300 
 12 C        5.4010     0.5090    -1.3910 C.3   1 <1>   0.1200 
 13 O        5.1850    -0.3020    -0.2780 O.3   1 <1>  -0.5600 
 14 C        3.9050     3.7650    -0.4630 C.2   1 <1>   0.5440 
 15 O        3.2050     4.0540    -1.4120 O.2   1 <1>  -0.5700 
 16 C        4.2080     4.7520     0.5540 C.ar  1 <1>   0.0860 
 17 C        4.5050     4.3820     1.8700 C.ar  1 <1>   0.1600 
 18 C        4.2090     6.1110     0.2620 C.ar  1 <1>  -0.1500 
 19 N        4.8040     5.2030     2.8690 N.ar  1 <1>  -0.6200 
 20 C        4.5150     6.9670     1.2930 C.ar  1 <1>   0.1900 
 21 C        4.8040     6.4930     2.5600 C.ar  1 <1>   0.1600 
 22 F        4.5330     8.2540     1.0680 F     1 <1>  -0.1900 
 23 H        1.5170     1.9180    -1.0790 H     1 <1>   0.0800 
 24 H        2.0950     1.5980     0.5200 H     1 <1>   0.0800 
 25 H       -2.4440     0.8940     1.6870 H     1 <1>   0.0800 
 26 H       -1.1870    -0.2370     2.1130 H     1 <1>   0.0800 
 27 H       -2.1690    -0.5280     0.6920 H     1 <1>   0.0800 
 28 H       -2.1560     2.4210    -0.0930 H     1 <1>   0.0800 
 29 H       -1.9700     1.0920    -1.2230 H     1 <1>   0.0800 
 30 H       -0.7520     2.3470    -1.1260 H     1 <1>   0.0800 
 31 H        2.7920    -0.0640    -1.9070 H     1 <1>   0.0800 
 32 H        4.0460     1.8830    -2.3940 H     1 <1>   0.0800 
 33 H        3.5780    -1.5320    -0.3390 H     1 <1>   0.0800 
 34 H        3.5890    -0.3260     0.9410 H     1 <1>   0.0800 
 35 H        4.9920     2.1850     0.3790 H     1 <1>   0.3700 
 36 H        6.3370     1.0300    -1.2890 H     1 <1>   0.0800 
 37 H        5.4230    -0.1210    -2.2630 H     1 <1>   0.0800 
 38 H        4.4880     3.3350     2.1180 H     1 <1>   0.1500 
 39 H        3.9810     6.4770    -0.7230 H     1 <1>   0.1500 
 40 H        5.0400     7.1990     3.3380 H     1 <1>   0.1500 
@<TRIPOS>BOND
  1   1   2  2   
  2   1   3  2   
  3   1   4  am  
  4   1   5  1   
  5   4   6  1   
  6   4   7  1   
  7   5   8  1   
  8   5  23  1   
  9   5  24  1   
 10   6  25  1   
 11   6  26  1   
 12   6  27  1   
 13   7  28  1   
 14   7  29  1   
 15   7  30  1   
 16   8   9  1   
 17   8  10  1   
 18   8  31  1   
 19   9  11  1   
 20   9  12  1   
 21   9  32  1   
 22  10  13  1   
 23  10  33  1   
 24  10  34  1   
 25  11  14  am  
 26  11  35  1   
 27  12  13  1   
 28  12  36  1   
 29  12  37  1   
 30  14  15  2   
 31  14  16  1   
 32  16  17  ar  
 33  16  18  ar  
 34  17  19  ar  
 35  17  38  1   
 36  18  20  ar  
 37  18  39  1   
 38  19  21  ar  
 39  20  21  ar  
 40  20  22  1   
 41  21  40  1   
@<TRIPOS>SUBSTRUCTURE
  1 ****  11 GROUP 4 **** **** 0

# MOE 2024.06 (io_trps.svl 2023.06)
