@<TRIPOS>MOLECULE
NONAME
50 52 1 0 0 
SMALL
USER_CHARGES


@<TRIPOS>ATOM
  1 F       -0.5860     0.4430     1.0050 F     1 <1>  -0.1900 
  2 C       -1.7840     0.6720     0.5320 C.ar  1 <1>   0.1900 
  3 C       -2.0560     1.7540    -0.3120 C.ar  1 <1>   0.0830 
  4 C       -2.7730    -0.2150     0.9080 C.ar  1 <1>  -0.1500 
  5 O       -1.1710     2.6940    -0.7530 O.3   1 <1>  -0.3630 
  6 C       -3.3570     1.9070    -0.7620 C.ar  1 <1>  -0.1500 
  7 C       -4.0610    -0.0340     0.4400 C.ar  1 <1>  -0.1500 
  8 C        0.1840     2.7200    -0.3620 C.3   1 <1>   0.0400 
  9 C       -4.3870     1.0320    -0.4050 C.ar  1 <1>   0.0530 
 10 C       -5.7270     1.2310    -0.9070 C.2   1 <1>   0.0870 
 11 O       -5.9180     1.9280    -2.0000 O.3   1 <1>  -0.0190 
 12 C       -6.9560     0.8190    -0.4920 C.2   1 <1>  -0.0860 
 13 N       -7.1760     2.0160    -2.3410 N.2   1 <1>  -0.4100 
 14 C       -7.8250     1.3650    -1.4410 C.2   1 <1>   0.3720 
 15 C       -7.3440     0.0300     0.6340 C.2   1 <1>   0.7160 
 16 N       -9.2240     1.2510    -1.4220 N.pl3 1 <1>  -0.8210 
 17 O       -6.9620     0.3730     1.7400 O.2   1 <1>  -0.5700 
 18 N       -8.1550    -1.0840     0.5470 N.am  1 <1>  -0.6600 
 19 C       -9.8920     1.3750    -2.7470 C.3   1 <1>   0.1290 
 20 C       -9.8720     2.1010    -0.3890 C.3   1 <1>   0.1290 
 21 C       -8.2910    -1.9730    -0.6570 C.3   1 <1>   0.2200 
 22 C       -9.2960    -1.1540     1.5080 C.3   1 <1>   0.1400 
 23 C       -8.6330    -3.4090    -0.2160 C.3   1 <1>  -0.1600 
 24 C       -7.0120    -2.0500    -1.5040 C.3   1 <1>  -0.2400 
 25 C       -9.5670    -2.5910     1.9480 C.3   1 <1>  -0.1600 
 26 C       -9.8300    -3.4830     0.7360 C.3   1 <1>  -0.1600 
 27 H       -2.5360    -1.0370     1.5600 H     1 <1>   0.1500 
 28 H       -3.5720     2.7390    -1.4080 H     1 <1>   0.1500 
 29 H       -4.8180    -0.7340     0.7400 H     1 <1>   0.1500 
 30 H        0.6510     3.5690    -0.8280 H     1 <1>   0.0800 
 31 H        0.6620     1.8150    -0.6930 H     1 <1>   0.0800 
 32 H        0.2380     2.8160     0.7080 H     1 <1>   0.0800 
 33 H       -9.3870     0.7550    -3.4680 H     1 <1>   0.0800 
 34 H       -9.8590     2.3970    -3.0850 H     1 <1>   0.0800 
 35 H      -10.9170     1.0560    -2.6740 H     1 <1>   0.0800 
 36 H       -9.3700     1.9880     0.5570 H     1 <1>   0.0800 
 37 H      -10.9010     1.8110    -0.2680 H     1 <1>   0.0800 
 38 H       -9.8260     3.1360    -0.6830 H     1 <1>   0.0800 
 39 H       -9.0960    -1.5960    -1.2670 H     1 <1>   0.0800 
 40 H      -10.1720    -0.7540     1.0270 H     1 <1>   0.0800 
 41 H       -9.0930    -0.5530     2.3780 H     1 <1>   0.0800 
 42 H       -7.7740    -3.8390     0.2710 H     1 <1>   0.0800 
 43 H       -8.8450    -4.0070    -1.0840 H     1 <1>   0.0800 
 44 H       -6.1510    -2.2110    -0.8810 H     1 <1>   0.0800 
 45 H       -6.8800    -1.1660    -2.0960 H     1 <1>   0.0800 
 46 H       -7.0800    -2.8670    -2.1990 H     1 <1>   0.0800 
 47 H      -10.4210    -2.6070     2.6020 H     1 <1>   0.0800 
 48 H       -8.7190    -2.9540     2.5030 H     1 <1>   0.0800 
 49 H       -9.9810    -4.5000     1.0550 H     1 <1>   0.0800 
 50 H      -10.7190    -3.1530     0.2260 H     1 <1>   0.0800 
@<TRIPOS>BOND
  1   1   2  1   
  2   2   3  ar  
  3   2   4  ar  
  4   3   5  1   
  5   3   6  ar  
  6   4   7  ar  
  7   4  27  1   
  8   5   8  1   
  9   6   9  ar  
 10   6  28  1   
 11   7   9  ar  
 12   7  29  1   
 13   8  30  1   
 14   8  31  1   
 15   8  32  1   
 16   9  10  1   
 17  10  11  1   
 18  10  12  2   
 19  11  13  1   
 20  12  14  1   
 21  12  15  1   
 22  13  14  2   
 23  14  16  1   
 24  15  17  2   
 25  15  18  am  
 26  16  19  1   
 27  16  20  1   
 28  18  21  1   
 29  18  22  1   
 30  19  33  1   
 31  19  34  1   
 32  19  35  1   
 33  20  36  1   
 34  20  37  1   
 35  20  38  1   
 36  21  23  1   
 37  21  24  1   
 38  21  39  1   
 39  22  25  1   
 40  22  40  1   
 41  22  41  1   
 42  23  26  1   
 43  23  42  1   
 44  23  43  1   
 45  24  44  1   
 46  24  45  1   
 47  24  46  1   
 48  25  26  1   
 49  25  47  1   
 50  25  48  1   
 51  26  49  1   
 52  26  50  1   
@<TRIPOS>SUBSTRUCTURE
  1 ****  12 GROUP 4 **** **** 0

# MOE 2024.06 (io_trps.svl 2023.06)
