@<TRIPOS>MOLECULE
NONAME
21 21 1 0 0 
SMALL
USER_CHARGES


@<TRIPOS>ATOM
  1 N       -3.8310     0.4420    -0.3060 N.4   1 <1>  -0.8530 
  2 C       -5.2020    -0.0310    -0.6880 C.3   1 <1>   0.4230 
  3 C       -6.3940     0.9920    -0.6900 C.3   1 <1>   0.4230 
  4 C       -5.6460    -1.1510     0.2580 C.3   1 <1>  -0.1600 
  5 N       -6.4720     1.9380     0.4730 N.4   1 <1>  -0.8530 
  6 C       -7.6040     0.0700    -0.5920 C.3   1 <1>  -0.1600 
  7 C       -7.1800    -1.0780     0.3320 C.3   1 <1>  -0.1600 
  8 H       -3.1730    -0.3470    -0.4060 H     1 <1>   0.4500 
  9 H       -3.7420     0.7400     0.6720 H     1 <1>   0.4500 
 10 H       -3.4610     1.1760    -0.9270 H     1 <1>   0.4500 
 11 H       -5.1590    -0.4540    -1.6810 H     1 <1>   0.0800 
 12 H       -6.4250     1.5410    -1.6190 H     1 <1>   0.0800 
 13 H       -5.3420    -2.1110    -0.1290 H     1 <1>   0.0800 
 14 H       -5.2400    -1.0320     1.2480 H     1 <1>   0.0800 
 15 H       -6.5240     1.4450     1.3740 H     1 <1>   0.4500 
 16 H       -7.3570     2.4640     0.4090 H     1 <1>   0.4500 
 17 H       -5.7350     2.6520     0.5010 H     1 <1>   0.4500 
 18 H       -8.5030     0.5600    -0.2550 H     1 <1>   0.0800 
 19 H       -7.8060    -0.3390    -1.5700 H     1 <1>   0.0800 
 20 H       -7.4950    -0.8860     1.3450 H     1 <1>   0.0800 
 21 H       -7.6330    -2.0070     0.0180 H     1 <1>   0.0800 
@<TRIPOS>BOND
  1   1   2  1   
  2   1   8  1   
  3   1   9  1   
  4   1  10  1   
  5   2   3  1   
  6   2   4  1   
  7   2  11  1   
  8   3   5  1   
  9   3   6  1   
 10   3  12  1   
 11   4   7  1   
 12   4  13  1   
 13   4  14  1   
 14   5  15  1   
 15   5  16  1   
 16   5  17  1   
 17   6   7  1   
 18   6  18  1   
 19   6  19  1   
 20   7  20  1   
 21   7  21  1   
@<TRIPOS>SUBSTRUCTURE
  1 ****   2 GROUP 4 **** **** 0

# MOE 2024.06 (io_trps.svl 2023.06)
