@<TRIPOS>MOLECULE
NONAME
53 55 1 0 0 
SMALL
USER_CHARGES


@<TRIPOS>ATOM
  1 O       -2.7050     1.7680     2.5920 O.2   1 <1>  -0.5700 
  2 C       -2.9260     1.7220     1.4020 C.2   1 <1>   0.6300 
  3 N       -3.6410     0.6830     0.8570 N.am  1 <1>  -0.6600 
  4 C       -2.3320     2.8410     0.5260 C.3   1 <1>   0.0320 
  5 C       -3.9560    -0.5230     1.6920 C.3   1 <1>   0.3210 
  6 C       -4.0210     0.5630    -0.5850 C.3   1 <1>   0.1400 
  7 C       -0.9610     2.4200     0.0030 C.ar  1 <1>  -0.0320 
  8 C       -2.5430     4.2990     0.8740 C.3   1 <1>  -0.1900 
  9 C       -3.2300     3.7340    -0.3150 C.3   1 <1>  -0.2000 
 10 C       -3.2990    -1.7750     1.1210 C.2   1 <1>   0.0460 
 11 C       -5.5280     0.7720    -0.7590 C.3   1 <1>   0.1200 
 12 C        0.1020     2.3440     0.8910 C.ar  1 <1>  -0.1500 
 13 C       -0.7510     2.0930    -1.3290 C.ar  1 <1>  -0.1500 
 14 C       -3.4130     4.7030     2.0730 C.3   1 <1>  -0.1450 
 15 C       -1.4290     5.3280     0.6310 C.3   1 <1>  -0.1450 
 16 N       -4.0530    -2.8010     0.6730 N.2   1 <1>  -0.5650 
 17 C       -1.9800    -2.0400     0.9560 C.2   1 <1>  -0.3320 
 18 O       -5.8160     1.0080    -2.0970 O.3   1 <1>  -0.6800 
 19 C        1.3570     1.9470     0.4630 C.ar  1 <1>  -0.1500 
 20 C        0.5020     1.6930    -1.7610 C.ar  1 <1>  -0.1500 
 21 C       -3.1870    -3.6600     0.2470 C.2   1 <1>   0.0360 
 22 N       -1.9080    -3.2570     0.3890 N.pl3 1 <1>   0.0330 
 23 C       -0.7520    -1.2070     1.2870 C.3   1 <1>  -0.0600 
 24 C        1.5620     1.6160    -0.8730 C.ar  1 <1>   0.0820 
 25 O        2.7550     1.2130    -1.3760 O.3   1 <1>  -0.3630 
 26 C        3.9140     1.1790    -0.5740 C.3   1 <1>   0.0400 
 27 H       -5.0210    -0.6650     1.7210 H     1 <1>   0.0800 
 28 H       -3.6180    -0.3950     2.7040 H     1 <1>   0.0800 
 29 H       -3.7520    -0.4090    -0.9600 H     1 <1>   0.0800 
 30 H       -3.4920     1.2880    -1.1690 H     1 <1>   0.0800 
 31 H       -4.2960     3.5970    -0.2670 H     1 <1>   0.1000 
 32 H       -2.9010     4.0450    -1.2900 H     1 <1>   0.1000 
 33 H       -5.8690     1.6190    -0.1900 H     1 <1>   0.0800 
 34 H       -6.0640    -0.1110    -0.4560 H     1 <1>   0.0800 
 35 H       -0.0590     2.5950     1.9260 H     1 <1>   0.1500 
 36 H       -1.5570     2.1450    -2.0360 H     1 <1>   0.1500 
 37 H       -4.2510     4.0390     2.1900 H     1 <1>   0.0800 
 38 H       -3.7910     5.7010     1.9440 H     1 <1>   0.0800 
 39 H       -2.8300     4.6670     2.9760 H     1 <1>   0.0800 
 40 H       -0.8720     5.1010    -0.2610 H     1 <1>   0.0800 
 41 H       -0.7480     5.3350     1.4630 H     1 <1>   0.0800 
 42 H       -1.8470     6.3130     0.5210 H     1 <1>   0.0800 
 43 H       -5.4570     1.8690    -2.3860 H     1 <1>   0.4000 
 44 H        2.1530     1.9010     1.1810 H     1 <1>   0.1500 
 45 H        0.6660     1.4380    -2.7920 H     1 <1>   0.1500 
 46 H       -3.4410    -4.6110    -0.1860 H     1 <1>   0.1500 
 47 H       -1.0640    -3.7690     0.1190 H     1 <1>   0.2700 
 48 H       -1.0270    -0.3390     1.8580 H     1 <1>   0.0800 
 49 H       -0.2700    -0.8790     0.3830 H     1 <1>   0.0800 
 50 H       -0.0550    -1.7830     1.8680 H     1 <1>   0.0800 
 51 H        4.7360     0.8600    -1.1890 H     1 <1>   0.0800 
 52 H        3.7630     0.4780     0.2280 H     1 <1>   0.0800 
 53 H        4.1040     2.1670    -0.1930 H     1 <1>   0.0800 
@<TRIPOS>BOND
  1   1   2  2   
  2   2   3  am  
  3   2   4  1   
  4   3   5  1   
  5   3   6  1   
  6   4   7  1   
  7   4   8  1   
  8   4   9  1   
  9   5  10  1   
 10   5  27  1   
 11   5  28  1   
 12   6  11  1   
 13   6  29  1   
 14   6  30  1   
 15   7  12  ar  
 16   7  13  ar  
 17   8   9  1   
 18   8  14  1   
 19   8  15  1   
 20   9  31  1   
 21   9  32  1   
 22  10  16  1   
 23  10  17  2   
 24  11  18  1   
 25  11  33  1   
 26  11  34  1   
 27  12  19  ar  
 28  12  35  1   
 29  13  20  ar  
 30  13  36  1   
 31  14  37  1   
 32  14  38  1   
 33  14  39  1   
 34  15  40  1   
 35  15  41  1   
 36  15  42  1   
 37  16  21  2   
 38  17  22  1   
 39  17  23  1   
 40  18  43  1   
 41  19  24  ar  
 42  19  44  1   
 43  20  24  ar  
 44  20  45  1   
 45  21  22  1   
 46  21  46  1   
 47  22  47  1   
 48  23  48  1   
 49  23  49  1   
 50  23  50  1   
 51  24  25  1   
 52  25  26  1   
 53  26  51  1   
 54  26  52  1   
 55  26  53  1   
@<TRIPOS>SUBSTRUCTURE
  1 ****   7 GROUP 4 **** **** 0

# MOE 2024.06 (io_trps.svl 2023.06)
