@<TRIPOS>MOLECULE
NONAME
53 55 1 0 0 
SMALL
USER_CHARGES


@<TRIPOS>ATOM
  1 CL       1.0560     0.5150    -2.4460 Cl    1 <1>  -0.1770 
  2 C        1.9160    -0.6160    -1.4230 C.ar  1 <1>   0.1770 
  3 C        2.7580    -0.1600    -0.4160 C.ar  1 <1>   0.0820 
  4 C        1.7260    -1.9650    -1.6500 C.ar  1 <1>  -0.1500 
  5 O        2.8900     1.1830    -0.2530 O.3   1 <1>  -0.3630 
  6 C        3.4200    -1.0940     0.3760 C.ar  1 <1>  -0.1500 
  7 C        2.3840    -2.8930    -0.8580 C.ar  1 <1>  -0.1430 
  8 C        3.7860     1.7470     0.6790 C.3   1 <1>   0.0400 
  9 C        3.2340    -2.4580     0.1560 C.ar  1 <1>   0.0830 
 10 C        2.1740    -4.3760    -1.0980 C.3   1 <1>   0.4870 
 11 O        3.8440    -3.4170     0.9050 O.3   1 <1>  -0.3630 
 12 N        1.5920    -4.9840     0.1300 N.4   1 <1>  -0.9590 
 13 C        4.8930    -3.0930     1.7990 C.3   1 <1>   0.0400 
 14 C        1.7210    -6.4940     0.1370 C.3   1 <1>   0.3430 
 15 C        0.2570    -4.3870     0.5160 C.3   1 <1>   0.3430 
 16 C        0.5380    -7.3170    -0.4390 C.3   1 <1>   0.2200 
 17 C       -0.9900    -5.0390    -0.0940 C.3   1 <1>  -0.0190 
 18 N       -0.5590    -7.3570     0.5600 N.am  1 <1>  -0.6600 
 19 C       -0.0210    -6.7470    -1.7590 C.3   1 <1>  -0.1600 
 20 C       -1.2990    -6.2350     0.7770 C.2   1 <1>   0.5690 
 21 C       -0.8690    -5.4640    -1.5760 C.3   1 <1>  -0.1600 
 22 C       -0.8280    -8.6350     1.2740 C.3   1 <1>   0.1400 
 23 O       -2.1310    -6.1340     1.6410 O.2   1 <1>  -0.5700 
 24 C       -1.6230    -9.5770     0.3660 C.3   1 <1>  -0.1600 
 25 C       -1.9290   -10.9020     1.0730 C.3   1 <1>  -0.2400 
 26 H        1.0670    -2.2610    -2.4470 H     1 <1>   0.1500 
 27 H        4.0690    -0.7560     1.1580 H     1 <1>   0.1500 
 28 H        3.7310     2.8170     0.5880 H     1 <1>   0.0800 
 29 H        4.7840     1.4140     0.4530 H     1 <1>   0.0800 
 30 H        3.4930     1.4530     1.6710 H     1 <1>   0.0800 
 31 H        3.1300    -4.8270    -1.3120 H     1 <1>   0.0800 
 32 H        1.5290    -4.5280    -1.9450 H     1 <1>   0.0800 
 33 H        2.2550    -4.6350     0.8470 H     1 <1>   0.4500 
 34 H        5.2910    -4.0070     2.2030 H     1 <1>   0.0800 
 35 H        4.5030    -2.4860     2.5970 H     1 <1>   0.0800 
 36 H        5.6650    -2.5700     1.2620 H     1 <1>   0.0800 
 37 H        2.6090    -6.7630    -0.4090 H     1 <1>   0.0800 
 38 H        1.8690    -6.8250     1.1520 H     1 <1>   0.0800 
 39 H        0.1530    -4.4330     1.5890 H     1 <1>   0.0800 
 40 H        0.2510    -3.3420     0.2530 H     1 <1>   0.0800 
 41 H        0.8850    -8.3220    -0.6130 H     1 <1>   0.0800 
 42 H       -1.8070    -4.3460     0.0050 H     1 <1>   0.0800 
 43 H        0.7800    -6.5730    -2.4550 H     1 <1>   0.0800 
 44 H       -0.6460    -7.5050    -2.2020 H     1 <1>   0.0800 
 45 H       -1.8630    -5.6750    -1.9360 H     1 <1>   0.0800 
 46 H       -0.4940    -4.6540    -2.1760 H     1 <1>   0.0800 
 47 H        0.1010    -9.0930     1.5670 H     1 <1>   0.0800 
 48 H       -1.3980    -8.4400     2.1680 H     1 <1>   0.0800 
 49 H       -2.5510    -9.1030     0.0960 H     1 <1>   0.0800 
 50 H       -1.0680    -9.7820    -0.5320 H     1 <1>   0.0800 
 51 H       -2.5090   -10.7270     1.9630 H     1 <1>   0.0800 
 52 H       -1.0200   -11.4090     1.3450 H     1 <1>   0.0800 
 53 H       -2.4960   -11.5440     0.4210 H     1 <1>   0.0800 
@<TRIPOS>BOND
  1   1   2  1   
  2   2   3  ar  
  3   2   4  ar  
  4   3   5  1   
  5   3   6  ar  
  6   4   7  ar  
  7   4  26  1   
  8   5   8  1   
  9   6   9  ar  
 10   6  27  1   
 11   7   9  ar  
 12   7  10  1   
 13   8  28  1   
 14   8  29  1   
 15   8  30  1   
 16   9  11  1   
 17  10  12  1   
 18  10  31  1   
 19  10  32  1   
 20  11  13  1   
 21  12  14  1   
 22  12  15  1   
 23  12  33  1   
 24  13  34  1   
 25  13  35  1   
 26  13  36  1   
 27  14  16  1   
 28  14  37  1   
 29  14  38  1   
 30  15  17  1   
 31  15  39  1   
 32  15  40  1   
 33  16  18  1   
 34  16  19  1   
 35  16  41  1   
 36  17  20  1   
 37  17  21  1   
 38  17  42  1   
 39  18  20  am  
 40  18  22  1   
 41  19  21  1   
 42  19  43  1   
 43  19  44  1   
 44  20  23  2   
 45  21  45  1   
 46  21  46  1   
 47  22  24  1   
 48  22  47  1   
 49  22  48  1   
 50  24  25  1   
 51  24  49  1   
 52  24  50  1   
 53  25  51  1   
 54  25  52  1   
 55  25  53  1   
@<TRIPOS>SUBSTRUCTURE
  1 ****  12 GROUP 4 **** **** 0

# MOE 2024.06 (io_trps.svl 2023.06)
