@<TRIPOS>MOLECULE
NONAME
45 47 1 0 0 
SMALL
USER_CHARGES


@<TRIPOS>ATOM
  1 F       -0.1130     0.8800    -0.0870 F     1 <1>  -0.1900 
  2 C       -1.4100     1.0300    -0.0050 C.ar  1 <1>   0.1900 
  3 C       -2.0620     2.1540    -0.5260 C.ar  1 <1>   0.0830 
  4 C       -2.1070     0.0190     0.6280 C.ar  1 <1>  -0.1500 
  5 O       -1.4880     3.2130    -1.1680 O.3   1 <1>  -0.3630 
  6 C       -3.4380     2.2210    -0.3850 C.ar  1 <1>  -0.1500 
  7 C       -3.4800     0.1180     0.7510 C.ar  1 <1>  -0.1500 
  8 C       -0.1070     3.2900    -1.4410 C.3   1 <1>   0.0400 
  9 C       -4.1770     1.2170     0.2450 C.ar  1 <1>   0.0530 
 10 C       -5.6080     1.3350     0.3740 C.2   1 <1>   0.0870 
 11 O       -6.1330     2.5050     0.6380 O.3   1 <1>  -0.0190 
 12 C       -6.6380     0.4490     0.2920 C.2   1 <1>  -0.0860 
 13 N       -7.4330     2.4710     0.7480 N.2   1 <1>  -0.4100 
 14 C       -7.7660     1.2450     0.5440 C.2   1 <1>   0.3720 
 15 C       -6.6510    -0.9540     0.0010 C.2   1 <1>   0.7160 
 16 N       -9.1000     0.8000     0.5600 N.pl3 1 <1>  -0.8210 
 17 O       -5.7050    -1.5120    -0.5200 O.2   1 <1>  -0.5700 
 18 N       -7.7560    -1.6900     0.2800 N.am  1 <1>  -0.7300 
 19 C       -9.9800     1.5030     1.5360 C.3   1 <1>   0.1290 
 20 C       -9.7210     0.7460    -0.7950 C.3   1 <1>   0.1290 
 21 C       -8.0710    -3.0120    -0.2900 C.3   1 <1>   0.2200 
 22 C       -8.7610    -2.8410    -1.6380 C.3   1 <1>   0.1200 
 23 C       -9.1870    -3.6320     0.5220 C.3   1 <1>  -0.1600 
 24 O      -10.0880    -2.5160    -1.3430 O.3   1 <1>  -0.5600 
 25 C      -10.4510    -3.0330    -0.0960 C.3   1 <1>   0.1200 
 26 H       -1.5800    -0.8330     1.0170 H     1 <1>   0.1500 
 27 H       -3.9510     3.0790    -0.7800 H     1 <1>   0.1500 
 28 H       -4.0210    -0.6690     1.2460 H     1 <1>   0.1500 
 29 H        0.0780     4.2050    -1.9750 H     1 <1>   0.0800 
 30 H        0.1780     2.4490    -2.0490 H     1 <1>   0.0800 
 31 H        0.4350     3.2960    -0.5120 H     1 <1>   0.0800 
 32 H       -8.5810    -1.1190     0.5200 H     1 <1>   0.3700 
 33 H       -9.4910     1.5580     2.4940 H     1 <1>   0.0800 
 34 H      -10.9060     0.9660     1.6500 H     1 <1>   0.0800 
 35 H      -10.1880     2.5030     1.1960 H     1 <1>   0.0800 
 36 H       -9.0480     0.2800    -1.4950 H     1 <1>   0.0800 
 37 H       -9.9440     1.7410    -1.1410 H     1 <1>   0.0800 
 38 H      -10.6290     0.1680    -0.7620 H     1 <1>   0.0800 
 39 H       -7.1870    -3.6250    -0.3470 H     1 <1>   0.0800 
 40 H       -8.7620    -3.7680    -2.1830 H     1 <1>   0.0800 
 41 H       -8.3180    -2.0650    -2.2360 H     1 <1>   0.0800 
 42 H       -9.1030    -3.4320     1.5750 H     1 <1>   0.0800 
 43 H       -9.1960    -4.6970     0.3710 H     1 <1>   0.0800 
 44 H      -10.8260    -2.2180     0.4990 H     1 <1>   0.0800 
 45 H      -11.2220    -3.7720    -0.2350 H     1 <1>   0.0800 
@<TRIPOS>BOND
  1   1   2  1   
  2   2   3  ar  
  3   2   4  ar  
  4   3   5  1   
  5   3   6  ar  
  6   4   7  ar  
  7   4  26  1   
  8   5   8  1   
  9   6   9  ar  
 10   6  27  1   
 11   7   9  ar  
 12   7  28  1   
 13   8  29  1   
 14   8  30  1   
 15   8  31  1   
 16   9  10  1   
 17  10  11  1   
 18  10  12  2   
 19  11  13  1   
 20  12  14  1   
 21  12  15  1   
 22  13  14  2   
 23  14  16  1   
 24  15  17  2   
 25  15  18  am  
 26  16  19  1   
 27  16  20  1   
 28  18  21  1   
 29  18  32  1   
 30  19  33  1   
 31  19  34  1   
 32  19  35  1   
 33  20  36  1   
 34  20  37  1   
 35  20  38  1   
 36  21  22  1   
 37  21  23  1   
 38  21  39  1   
 39  22  24  1   
 40  22  40  1   
 41  22  41  1   
 42  23  25  1   
 43  23  42  1   
 44  23  43  1   
 45  24  25  1   
 46  25  44  1   
 47  25  45  1   
@<TRIPOS>SUBSTRUCTURE
  1 ****  12 GROUP 4 **** **** 0

# MOE 2024.06 (io_trps.svl 2023.06)
