@<TRIPOS>MOLECULE
NONAME
51 54 1 0 0 
SMALL
USER_CHARGES


@<TRIPOS>ATOM
  1 CL      -3.5480    -0.8280     2.6750 Cl    1 <1>  -0.1770 
  2 C       -3.3070     0.1970     1.2760 C.ar  1 <1>   0.1770 
  3 C       -3.6870    -0.2790     0.0020 C.ar  1 <1>   0.3100 
  4 C       -2.7590     1.4380     1.4650 C.ar  1 <1>  -0.1500 
  5 N       -4.2190    -1.5210    -0.1380 N.ar  1 <1>  -0.6200 
  6 C       -3.4920     0.5860    -1.0960 C.ar  1 <1>   0.0000 
  7 C       -2.5660     2.2800     0.3670 C.ar  1 <1>  -0.1500 
  8 C       -4.5770    -1.9490    -1.3310 C.ar  1 <1>   0.3960 
  9 C       -3.8800     0.1270    -2.3630 C.ar  1 <1>  -0.1500 
 10 C       -2.9270     1.8600    -0.8860 C.ar  1 <1>  -0.1500 
 11 C       -5.1510    -3.2920    -1.5060 C.2   1 <1>   0.5440 
 12 C       -4.4130    -1.1210    -2.4660 C.ar  1 <1>  -0.1500 
 13 O       -5.6680    -3.6140    -2.5630 O.2   1 <1>  -0.5700 
 14 N       -5.1750    -4.2630    -0.5170 N.am  1 <1>  -0.6600 
 15 C       -5.7280    -4.0040     0.8490 C.3   1 <1>   0.1400 
 16 C       -5.1810    -5.7050    -0.8920 C.3   1 <1>   0.1400 
 17 C       -7.1500    -4.5940     0.9940 C.3   1 <1>   0.4230 
 18 C       -6.6110    -6.2620    -0.8000 C.3   1 <1>   0.3430 
 19 N       -7.2170    -6.0550     0.5730 N.4   1 <1>  -0.9590 
 20 C       -8.1730    -3.7450     0.2030 C.3   1 <1>   0.1200 
 21 C       -8.6420    -6.5320     0.6720 C.3   1 <1>   0.4230 
 22 O       -9.4600    -4.2760     0.3500 O.3   1 <1>  -0.5600 
 23 C       -9.6070    -5.5950    -0.0950 C.3   1 <1>   0.1200 
 24 C       -8.7540    -8.0000     0.2290 C.3   1 <1>  -0.1600 
 25 C      -10.0800    -8.6440     0.6650 C.3   1 <1>  -0.1600 
 26 C      -10.1190   -10.1250     0.2800 C.3   1 <1>  -0.2400 
 27 H       -2.4790     1.7680     2.4500 H     1 <1>   0.1500 
 28 H       -2.1340     3.2550     0.5210 H     1 <1>   0.1500 
 29 H       -3.7510     0.7600    -3.2240 H     1 <1>   0.1500 
 30 H       -2.7810     2.5060    -1.7350 H     1 <1>   0.1500 
 31 H       -4.7180    -1.5000    -3.4250 H     1 <1>   0.1500 
 32 H       -5.0730    -4.4410     1.5820 H     1 <1>   0.0800 
 33 H       -5.7760    -2.9510     1.0550 H     1 <1>   0.0800 
 34 H       -4.8140    -5.8260    -1.8980 H     1 <1>   0.0800 
 35 H       -4.5230    -6.2510    -0.2390 H     1 <1>   0.0800 
 36 H       -7.4250    -4.5170     2.0330 H     1 <1>   0.0800 
 37 H       -6.5890    -7.3120    -1.0400 H     1 <1>   0.0800 
 38 H       -7.2100    -5.7650    -1.5450 H     1 <1>   0.0800 
 39 H       -6.6600    -6.5930     1.2450 H     1 <1>   0.4500 
 40 H       -7.9310    -3.7070    -0.8460 H     1 <1>   0.0800 
 41 H       -8.1930    -2.7390     0.5820 H     1 <1>   0.0800 
 42 H       -8.9350    -6.4910     1.7090 H     1 <1>   0.0800 
 43 H      -10.6290    -5.8780     0.0880 H     1 <1>   0.0800 
 44 H       -9.4300    -5.6260    -1.1560 H     1 <1>   0.0800 
 45 H       -8.6760    -8.0740    -0.8420 H     1 <1>   0.0800 
 46 H       -7.9520    -8.5630     0.6730 H     1 <1>   0.0800 
 47 H      -10.1990    -8.5600     1.7330 H     1 <1>   0.0800 
 48 H      -10.9150    -8.1490     0.1980 H     1 <1>   0.0800 
 49 H       -9.3210   -10.6670     0.7570 H     1 <1>   0.0800 
 50 H      -10.0320   -10.2450    -0.7860 H     1 <1>   0.0800 
 51 H      -11.0530   -10.5600     0.5910 H     1 <1>   0.0800 
@<TRIPOS>BOND
  1   1   2  1   
  2   2   3  ar  
  3   2   4  ar  
  4   3   5  ar  
  5   3   6  ar  
  6   4   7  ar  
  7   4  27  1   
  8   5   8  ar  
  9   6   9  ar  
 10   6  10  ar  
 11   7  10  ar  
 12   7  28  1   
 13   8  11  1   
 14   8  12  ar  
 15   9  12  ar  
 16   9  29  1   
 17  10  30  1   
 18  11  13  2   
 19  11  14  am  
 20  12  31  1   
 21  14  15  1   
 22  14  16  1   
 23  15  17  1   
 24  15  32  1   
 25  15  33  1   
 26  16  18  1   
 27  16  34  1   
 28  16  35  1   
 29  17  19  1   
 30  17  20  1   
 31  17  36  1   
 32  18  19  1   
 33  18  37  1   
 34  18  38  1   
 35  19  21  1   
 36  19  39  1   
 37  20  22  1   
 38  20  40  1   
 39  20  41  1   
 40  21  23  1   
 41  21  24  1   
 42  21  42  1   
 43  22  23  1   
 44  23  43  1   
 45  23  44  1   
 46  24  25  1   
 47  24  45  1   
 48  24  46  1   
 49  25  26  1   
 50  25  47  1   
 51  25  48  1   
 52  26  49  1   
 53  26  50  1   
 54  26  51  1   
@<TRIPOS>SUBSTRUCTURE
  1 ****  15 GROUP 4 **** **** 0

# MOE 2024.06 (io_trps.svl 2023.06)
