@<TRIPOS>MOLECULE
NONAME
39 39 1 0 0 
SMALL
USER_CHARGES


@<TRIPOS>ATOM
  1 O        0.0010    -0.7010     0.6670 O.2   1 <1>  -0.5700 
  2 C        0.9520    -1.2640     0.1630 C.2   1 <1>   0.5440 
  3 N        1.8490    -0.5240    -0.5560 N.am  1 <1>  -0.7300 
  4 C        1.1190    -2.6980     0.3100 C.ar  1 <1>   0.0860 
  5 C        1.7880     0.9390    -0.7380 C.3   1 <1>   0.1400 
  6 C        0.0490    -3.5380     0.5610 C.ar  1 <1>  -0.1500 
  7 C        2.3500    -3.3380     0.2190 C.ar  1 <1>  -0.1500 
  8 C        3.2090     1.4890    -0.7330 C.3   1 <1>  -0.2400 
  9 C        0.2240    -4.9070     0.6950 C.ar  1 <1>   0.4100 
 10 C        2.4310    -4.7080     0.3630 C.ar  1 <1>   0.1600 
 11 N        1.4030    -5.5030     0.5940 N.ar  1 <1>  -0.6200 
 12 N       -0.8680    -5.7030     0.9440 N.pl3 1 <1>  -0.8690 
 13 C       -0.7210    -7.1160     1.4530 C.3   1 <1>   0.2700 
 14 C       -1.9760    -7.9700     1.2470 C.2   1 <1>   0.5690 
 15 O       -2.2580    -8.8160     2.0630 O.2   1 <1>  -0.5700 
 16 N       -2.7400    -7.7400     0.1460 N.am  1 <1>  -0.7300 
 17 C       -3.9610    -8.4570    -0.2270 C.3   1 <1>   0.2200 
 18 C       -3.7390    -9.0960    -1.5930 C.3   1 <1>  -0.2400 
 19 C       -5.1100    -7.4550    -0.2610 C.3   1 <1>  -0.2400 
 20 H        2.5620    -0.9990    -1.1080 H     1 <1>   0.3700 
 21 H        1.2160     1.3860     0.0610 H     1 <1>   0.0800 
 22 H        1.3020     1.1630    -1.6720 H     1 <1>   0.0800 
 23 H       -0.9370    -3.1230     0.6520 H     1 <1>   0.1500 
 24 H        3.2440    -2.7700     0.0450 H     1 <1>   0.1500 
 25 H        3.6890     1.2650     0.2030 H     1 <1>   0.0800 
 26 H        3.1800     2.5570    -0.8510 H     1 <1>   0.0800 
 27 H        3.7790     1.0720    -1.5430 H     1 <1>   0.0800 
 28 H        3.3960    -5.1810     0.2870 H     1 <1>   0.1500 
 29 H       -1.6730    -5.2200     1.3500 H     1 <1>   0.4000 
 30 H       -0.4890    -7.0900     2.5030 H     1 <1>   0.0800 
 31 H        0.0900    -7.6070     0.9460 H     1 <1>   0.0800 
 32 H       -2.4390    -6.9950    -0.4860 H     1 <1>   0.3700 
 33 H       -4.1710    -9.2240     0.5020 H     1 <1>   0.0800 
 34 H       -3.5290    -8.3480    -2.3360 H     1 <1>   0.0800 
 35 H       -4.6190    -9.6370    -1.8890 H     1 <1>   0.0800 
 36 H       -2.9190    -9.7890    -1.5420 H     1 <1>   0.0800 
 37 H       -4.9200    -6.6790    -0.9800 H     1 <1>   0.0800 
 38 H       -5.2410    -7.0170     0.7120 H     1 <1>   0.0800 
 39 H       -6.0220    -7.9560    -0.5300 H     1 <1>   0.0800 
@<TRIPOS>BOND
  1   1   2  2   
  2   2   3  am  
  3   2   4  1   
  4   3   5  1   
  5   3  20  1   
  6   4   6  ar  
  7   4   7  ar  
  8   5   8  1   
  9   5  21  1   
 10   5  22  1   
 11   6   9  ar  
 12   6  23  1   
 13   7  10  ar  
 14   7  24  1   
 15   8  25  1   
 16   8  26  1   
 17   8  27  1   
 18   9  11  ar  
 19   9  12  1   
 20  10  11  ar  
 21  10  28  1   
 22  12  13  1   
 23  12  29  1   
 24  13  14  1   
 25  13  30  1   
 26  13  31  1   
 27  14  15  2   
 28  14  16  am  
 29  16  17  1   
 30  16  32  1   
 31  17  18  1   
 32  17  19  1   
 33  17  33  1   
 34  18  34  1   
 35  18  35  1   
 36  18  36  1   
 37  19  37  1   
 38  19  38  1   
 39  19  39  1   
@<TRIPOS>SUBSTRUCTURE
  1 ****   9 GROUP 4 **** **** 0

# MOE 2024.06 (io_trps.svl 2023.06)
