@<TRIPOS>MOLECULE
NONAME
54 56 1 0 0 
SMALL
USER_CHARGES


@<TRIPOS>ATOM
  1 S        1.2590    -0.1150    -0.2180 S.3   1 <1>  -0.4600 
  2 C        0.9590    -1.8640    -0.5560 C.3   1 <1>   0.0700 
  3 C        2.2620     0.4370    -1.6270 C.3   1 <1>  -0.0100 
  4 C        0.1410    -2.3980     0.6230 C.3   1 <1>   0.3430 
  5 N       -0.1540    -3.8640     0.5090 N.4   1 <1>  -0.9590 
  6 C       -1.0860    -4.1580    -0.6260 C.3   1 <1>   0.3430 
  7 C       -0.6900    -4.3700     1.8080 C.3   1 <1>   0.3430 
  8 C       -1.3020    -5.6630    -0.7400 C.3   1 <1>  -0.1600 
  9 C       -0.9060    -5.8810     1.7330 C.3   1 <1>  -0.1600 
 10 C       -1.8370    -6.2250     0.5740 C.3   1 <1>   0.2200 
 11 N       -1.9600    -7.6810     0.4550 N.am  1 <1>  -0.7300 
 12 C       -3.0770    -8.3390     0.0420 C.2   1 <1>   0.5690 
 13 O       -4.0680    -7.7210    -0.2700 O.2   1 <1>  -0.5700 
 14 C       -3.0550    -9.8720    -0.0280 C.3   1 <1>   0.2610 
 15 O       -1.8420   -10.3560     0.5480 O.3   1 <1>  -0.5600 
 16 C       -4.3210   -10.4640     0.6570 C.3   1 <1>   0.3640 
 17 C       -1.7090   -11.7600     0.5550 C.3   1 <1>   0.1810 
 18 N       -4.0820   -11.7950     1.2690 N.am  1 <1>  -0.7300 
 19 C       -5.4710   -10.6100    -0.3390 C.ar  1 <1>  -0.1440 
 20 C       -2.9040   -12.4520     1.2100 C.2   1 <1>   0.5690 
 21 C       -5.5010   -11.6530    -1.2580 C.ar  1 <1>  -0.1500 
 22 C       -6.5090    -9.6890    -0.3390 C.ar  1 <1>  -0.1500 
 23 O       -2.7990   -13.5730     1.6370 O.2   1 <1>  -0.5700 
 24 C       -6.5480   -11.7710    -2.1560 C.ar  1 <1>  -0.1500 
 25 C       -7.5570    -9.8060    -1.2350 C.ar  1 <1>  -0.1500 
 26 C       -7.5780   -10.8480    -2.1440 C.ar  1 <1>  -0.1500 
 27 H        0.4240    -1.9150    -1.4870 H     1 <1>   0.0800 
 28 H        1.9210    -2.3410    -0.6310 H     1 <1>   0.0800 
 29 H        2.4750     1.4820    -1.4860 H     1 <1>   0.0800 
 30 H        1.6940     0.2860    -2.5270 H     1 <1>   0.0800 
 31 H        3.1720    -0.1360    -1.6390 H     1 <1>   0.0800 
 32 H       -0.7810    -1.8430     0.6900 H     1 <1>   0.0800 
 33 H        0.7010    -2.2140     1.5260 H     1 <1>   0.0800 
 34 H        0.7320    -4.3570     0.3300 H     1 <1>   0.4500 
 35 H       -2.0340    -3.6720    -0.4560 H     1 <1>   0.0800 
 36 H       -0.6770    -3.7870    -1.5520 H     1 <1>   0.0800 
 37 H        0.0010    -4.1470     2.6060 H     1 <1>   0.0800 
 38 H       -1.6280    -3.8850     2.0300 H     1 <1>   0.0800 
 39 H       -0.3790    -6.1440    -1.0100 H     1 <1>   0.0800 
 40 H       -2.0200    -5.8510    -1.5200 H     1 <1>   0.0800 
 41 H       -1.3500    -6.2150     2.6550 H     1 <1>   0.0800 
 42 H        0.0430    -6.3730     1.6170 H     1 <1>   0.0800 
 43 H       -2.8140    -5.8080     0.7660 H     1 <1>   0.0800 
 44 H       -1.1590    -8.2680     0.7170 H     1 <1>   0.3700 
 45 H       -3.0520   -10.1530    -1.0660 H     1 <1>   0.0800 
 46 H       -4.6260    -9.7950     1.4440 H     1 <1>   0.0800 
 47 H       -1.6050   -12.1020    -0.4590 H     1 <1>   0.0800 
 48 H       -0.8150   -12.0040     1.1000 H     1 <1>   0.0800 
 49 H       -4.8960   -12.2850     1.6420 H     1 <1>   0.3700 
 50 H       -4.7120   -12.3850    -1.2820 H     1 <1>   0.1500 
 51 H       -6.5080    -8.8650     0.3560 H     1 <1>   0.1500 
 52 H       -6.5630   -12.5830    -2.8620 H     1 <1>   0.1500 
 53 H       -8.3540    -9.0840    -1.2270 H     1 <1>   0.1500 
 54 H       -8.3920   -10.9390    -2.8420 H     1 <1>   0.1500 
@<TRIPOS>BOND
  1   1   2  1   
  2   1   3  1   
  3   2   4  1   
  4   2  27  1   
  5   2  28  1   
  6   3  29  1   
  7   3  30  1   
  8   3  31  1   
  9   4   5  1   
 10   4  32  1   
 11   4  33  1   
 12   5   6  1   
 13   5   7  1   
 14   5  34  1   
 15   6   8  1   
 16   6  35  1   
 17   6  36  1   
 18   7   9  1   
 19   7  37  1   
 20   7  38  1   
 21   8  10  1   
 22   8  39  1   
 23   8  40  1   
 24   9  10  1   
 25   9  41  1   
 26   9  42  1   
 27  10  11  1   
 28  10  43  1   
 29  11  12  am  
 30  11  44  1   
 31  12  13  2   
 32  12  14  1   
 33  14  15  1   
 34  14  16  1   
 35  14  45  1   
 36  15  17  1   
 37  16  18  1   
 38  16  19  1   
 39  16  46  1   
 40  17  20  1   
 41  17  47  1   
 42  17  48  1   
 43  18  20  am  
 44  18  49  1   
 45  19  21  ar  
 46  19  22  ar  
 47  20  23  2   
 48  21  24  ar  
 49  21  50  1   
 50  22  25  ar  
 51  22  51  1   
 52  24  26  ar  
 53  24  52  1   
 54  25  26  ar  
 55  25  53  1   
 56  26  54  1   
@<TRIPOS>SUBSTRUCTURE
  1 ****  12 GROUP 4 **** **** 0

# MOE 2024.06 (io_trps.svl 2023.06)
