@<TRIPOS>MOLECULE
NONAME
48 51 1 0 0 
SMALL
USER_CHARGES


@<TRIPOS>ATOM
  1 O       -0.6680    -0.9300    -0.2240 O.3   1 <1>  -0.2800 
  2 C       -0.5830     0.3570    -0.0280 C.2   1 <1>   0.4780 
  3 C       -1.8500    -1.2450     0.1830 C.2   1 <1>   0.2980 
  4 N       -1.6850     0.8080     0.4820 N.2   1 <1>  -0.3380 
  5 C        0.6090     1.0890    -0.3660 C.2   1 <1>   0.1400 
  6 N       -2.4990    -0.2340     0.6190 N.2   1 <1>  -0.3380 
  7 C       -2.3340    -2.6910     0.1140 C.3   1 <1>   0.5230 
  8 O        1.6580     0.4690    -0.8980 O.3   1 <1>  -0.2800 
  9 C        0.9060     2.4120    -0.2380 C.2   1 <1>  -0.1500 
 10 N       -3.8250    -2.8100     0.3040 N.4   1 <1>  -0.9590 
 11 C        2.6080     1.3560    -1.1110 C.2   1 <1>  -0.0100 
 12 C        2.2040     2.5830    -0.7230 C.2   1 <1>  -0.1500 
 13 C       -4.3110    -4.2040     0.5690 C.3   1 <1>   0.4230 
 14 C       -4.4960    -2.2020    -0.8870 C.3   1 <1>   0.3430 
 15 C       -5.8350    -4.1600     0.7840 C.3   1 <1>  -0.1600 
 16 C       -3.6610    -4.8580     1.8130 C.3   1 <1>  -0.1600 
 17 C       -6.0040    -2.1250    -0.6670 C.3   1 <1>  -0.1600 
 18 C       -6.5860    -3.5090    -0.3820 C.3   1 <1>  -0.1600 
 19 C       -2.3030    -5.5680     1.6160 C.3   1 <1>  -0.0170 
 20 C       -2.1810    -6.2690     0.2720 C.ar  1 <1>   0.1670 
 21 N       -1.8610    -5.5030    -0.7630 N.ar  1 <1>  -0.6200 
 22 C       -2.4040    -7.6350     0.1900 C.ar  1 <1>  -0.1500 
 23 C       -1.7370    -6.1360    -1.9220 C.ar  1 <1>   0.1600 
 24 C       -2.2850    -8.2740    -1.0250 C.ar  1 <1>  -0.1500 
 25 C       -1.9390    -7.4930    -2.1050 C.ar  1 <1>  -0.1500 
 26 H       -1.8180    -3.2290     0.8820 H     1 <1>   0.0800 
 27 H       -2.0520    -3.1120    -0.8360 H     1 <1>   0.0800 
 28 H        0.2760     3.1900     0.1570 H     1 <1>   0.1500 
 29 H       -4.0690    -2.2230     1.1120 H     1 <1>   0.4500 
 30 H        3.5400     1.0310    -1.5420 H     1 <1>   0.1500 
 31 H        2.7440     3.5140    -0.7650 H     1 <1>   0.1500 
 32 H       -4.1210    -4.8190    -0.2960 H     1 <1>   0.0800 
 33 H       -4.2930    -2.7980    -1.7620 H     1 <1>   0.0800 
 34 H       -4.1200    -1.2060    -1.0610 H     1 <1>   0.0800 
 35 H       -6.0570    -3.6300     1.6940 H     1 <1>   0.0800 
 36 H       -6.2070    -5.1640     0.9000 H     1 <1>   0.0800 
 37 H       -4.3290    -5.6330     2.1470 H     1 <1>   0.0800 
 38 H       -3.5980    -4.1500     2.6200 H     1 <1>   0.0800 
 39 H       -6.4680    -1.7160    -1.5480 H     1 <1>   0.0800 
 40 H       -6.2150    -1.4540     0.1490 H     1 <1>   0.0800 
 41 H       -7.6330    -3.4250    -0.1450 H     1 <1>   0.0800 
 42 H       -6.4960    -4.1280    -1.2610 H     1 <1>   0.0800 
 43 H       -2.1800    -6.2930     2.4020 H     1 <1>   0.0800 
 44 H       -1.4810    -4.8860     1.7270 H     1 <1>   0.0800 
 45 H       -2.6640    -8.2050     1.0650 H     1 <1>   0.1500 
 46 H       -1.4580    -5.5460    -2.7800 H     1 <1>   0.1500 
 47 H       -2.4500    -9.3340    -1.1250 H     1 <1>   0.1500 
 48 H       -1.8210    -7.9330    -3.0800 H     1 <1>   0.1500 
@<TRIPOS>BOND
  1   1   2  1   
  2   1   3  1   
  3   2   4  2   
  4   2   5  1   
  5   3   6  2   
  6   3   7  1   
  7   4   6  1   
  8   5   8  1   
  9   5   9  2   
 10   7  10  1   
 11   7  26  1   
 12   7  27  1   
 13   8  11  1   
 14   9  12  1   
 15   9  28  1   
 16  10  13  1   
 17  10  14  1   
 18  10  29  1   
 19  11  12  2   
 20  11  30  1   
 21  12  31  1   
 22  13  15  1   
 23  13  16  1   
 24  13  32  1   
 25  14  17  1   
 26  14  33  1   
 27  14  34  1   
 28  15  18  1   
 29  15  35  1   
 30  15  36  1   
 31  16  19  1   
 32  16  37  1   
 33  16  38  1   
 34  17  18  1   
 35  17  39  1   
 36  17  40  1   
 37  18  41  1   
 38  18  42  1   
 39  19  20  1   
 40  19  43  1   
 41  19  44  1   
 42  20  21  ar  
 43  20  22  ar  
 44  21  23  ar  
 45  22  24  ar  
 46  22  45  1   
 47  23  25  ar  
 48  23  46  1   
 49  24  25  ar  
 50  24  47  1   
 51  25  48  1   
@<TRIPOS>SUBSTRUCTURE
  1 ****   7 GROUP 4 **** **** 0

# MOE 2024.06 (io_trps.svl 2023.06)
