@<TRIPOS>MOLECULE
NONAME
40 42 1 0 0 
SMALL
USER_CHARGES


@<TRIPOS>ATOM
  1 CL       0.3650    -2.8240     3.5270 Cl    1 <1>  -0.1770 
  2 C        1.3760    -2.3010     2.1900 C.ar  1 <1>   0.1770 
  3 C        1.4510    -3.0380     1.0150 C.ar  1 <1>   0.4100 
  4 C        2.1080    -1.1500     2.2830 C.ar  1 <1>   0.1600 
  5 N        2.2140    -2.6260     0.0170 N.ar  1 <1>  -0.6200 
  6 N        0.7510    -4.2090     0.8470 N.pl3 1 <1>  -0.8690 
  7 N        2.8750    -0.7310     1.2910 N.ar  1 <1>  -0.6200 
  8 C        2.8810    -1.5030     0.2160 C.ar  1 <1>   0.4770 
  9 C        0.4210    -4.7840    -0.4620 C.3   1 <1>   0.4330 
 10 C        3.7530    -1.0390    -0.9270 C.3   1 <1>  -0.0960 
 11 C       -1.0130    -5.2970    -0.4000 C.ar  1 <1>  -0.1430 
 12 C        1.4120    -5.9020    -0.7640 C.3   1 <1>  -0.2400 
 13 C       -1.3930    -6.2520     0.5360 C.ar  1 <1>  -0.1500 
 14 C       -1.9670    -4.8000    -1.2780 C.ar  1 <1>  -0.1500 
 15 C       -2.6980    -6.7130     0.5910 C.ar  1 <1>   0.0820 
 16 C       -3.2750    -5.2500    -1.2240 C.ar  1 <1>  -0.1500 
 17 O       -2.9950    -7.6230     1.5490 O.3   1 <1>  -0.3630 
 18 C       -3.6490    -6.2080    -0.2980 C.ar  1 <1>   0.0820 
 19 C       -3.5070    -8.8680     1.1400 C.3   1 <1>   0.1200 
 20 O       -4.9480    -6.5900    -0.2810 O.3   1 <1>  -0.3630 
 21 C       -4.9920    -8.7550     0.7920 C.3   1 <1>  -0.1600 
 22 C       -5.2410    -7.9500    -0.4840 C.3   1 <1>   0.1200 
 23 H        2.0680    -0.5600     3.1820 H     1 <1>   0.1500 
 24 H        0.0230    -4.4100     1.5380 H     1 <1>   0.4000 
 25 H        0.4980    -4.0260    -1.2240 H     1 <1>   0.0800 
 26 H        4.0950    -1.8830    -1.4970 H     1 <1>   0.0800 
 27 H        4.6060    -0.5080    -0.5480 H     1 <1>   0.0800 
 28 H        3.1860    -0.3880    -1.5640 H     1 <1>   0.0800 
 29 H        1.3950    -6.6470     0.0090 H     1 <1>   0.0800 
 30 H        2.4030    -5.4930    -0.8400 H     1 <1>   0.0800 
 31 H        1.1590    -6.3650    -1.7000 H     1 <1>   0.0800 
 32 H       -0.6800    -6.6470     1.2360 H     1 <1>   0.1500 
 33 H       -1.6980    -4.0540    -2.0060 H     1 <1>   0.1500 
 34 H       -4.0140    -4.8560    -1.8980 H     1 <1>   0.1500 
 35 H       -3.3740    -9.5470     1.9630 H     1 <1>   0.0800 
 36 H       -2.9280    -9.2180     0.3020 H     1 <1>   0.0800 
 37 H       -5.5350    -8.3240     1.6150 H     1 <1>   0.0800 
 38 H       -5.3710    -9.7480     0.6370 H     1 <1>   0.0800 
 39 H       -4.6440    -8.3110    -1.3040 H     1 <1>   0.0800 
 40 H       -6.2800    -8.0100    -0.7580 H     1 <1>   0.0800 
@<TRIPOS>BOND
  1   1   2  1   
  2   2   3  ar  
  3   2   4  ar  
  4   3   5  ar  
  5   3   6  1   
  6   4   7  ar  
  7   4  23  1   
  8   5   8  ar  
  9   6   9  1   
 10   6  24  1   
 11   7   8  ar  
 12   8  10  1   
 13   9  11  1   
 14   9  12  1   
 15   9  25  1   
 16  10  26  1   
 17  10  27  1   
 18  10  28  1   
 19  11  13  ar  
 20  11  14  ar  
 21  12  29  1   
 22  12  30  1   
 23  12  31  1   
 24  13  15  ar  
 25  13  32  1   
 26  14  16  ar  
 27  14  33  1   
 28  15  17  1   
 29  15  18  ar  
 30  16  18  ar  
 31  16  34  1   
 32  17  19  1   
 33  18  20  1   
 34  19  21  1   
 35  19  35  1   
 36  19  36  1   
 37  20  22  1   
 38  21  22  1   
 39  21  37  1   
 40  21  38  1   
 41  22  39  1   
 42  22  40  1   
@<TRIPOS>SUBSTRUCTURE
  1 ****  11 GROUP 4 **** **** 0

# MOE 2024.06 (io_trps.svl 2023.06)
