@<TRIPOS>MOLECULE
NONAME
51 52 1 0 0 
SMALL
USER_CHARGES


@<TRIPOS>ATOM
  1 O        0.6510     0.3990    -0.1770 O.co2 1 <1>  -0.9000 
  2 C        1.6800    -0.0810    -0.6470 C.2   1 <1>   0.9060 
  3 O        1.7420    -0.7290    -1.6860 O.co2 1 <1>  -0.9000 
  4 C        2.9550     0.3020     0.0110 C.3   1 <1>  -0.2660 
  5 C        3.0610     1.7710    -0.3070 C.3   1 <1>   0.3430 
  6 N        4.2730     2.3330     0.3390 N.4   1 <1>  -0.9590 
  7 C        4.1940     3.8270     0.3870 C.3   1 <1>   0.3430 
  8 C        5.5260     1.8930    -0.3590 C.3   1 <1>   0.3430 
  9 C        5.4570     4.4390     1.0240 C.3   1 <1>   0.1100 
 10 C        6.7810     2.5190     0.2860 C.3   1 <1>   0.1100 
 11 N        6.6980     3.9940     0.3430 N.3   1 <1>  -0.8100 
 12 C        7.9050     4.5700     1.0120 C.3   1 <1>   0.1710 
 13 C        7.9270     6.1010     1.0990 C.2   1 <1>   0.5690 
 14 O        7.6630     6.6220     2.1560 O.2   1 <1>  -0.5700 
 15 N        8.2150     6.8240    -0.0160 N.am  1 <1>  -0.7300 
 16 C        8.3230     8.3020    -0.0720 C.3   1 <1>   0.1400 
 17 C        9.6590     8.7280    -0.7010 C.3   1 <1>  -0.0800 
 18 C       10.8640     8.2560     0.1380 C.3   1 <1>  -0.1600 
 19 C        9.6930    10.2580    -0.8680 C.3   1 <1>  -0.1600 
 20 C       12.1940     8.7320    -0.4640 C.3   1 <1>  -0.1600 
 21 C       11.0210    10.7310    -1.4750 C.3   1 <1>  -0.1600 
 22 C       12.2130    10.2560    -0.6360 C.3   1 <1>  -0.1600 
 23 H        3.7490    -0.2780    -0.4160 H     1 <1>   0.0800 
 24 H        2.8590     0.1220     1.0630 H     1 <1>   0.0800 
 25 H        2.1750     2.2620     0.0680 H     1 <1>   0.0800 
 26 H        3.0930     1.9120    -1.3760 H     1 <1>   0.0800 
 27 H        4.2890     1.9790     1.3010 H     1 <1>   0.4500 
 28 H        3.3270     4.1300     0.9510 H     1 <1>   0.0800 
 29 H        4.0930     4.2160    -0.6130 H     1 <1>   0.0800 
 30 H        5.4870     2.1900    -1.3940 H     1 <1>   0.0800 
 31 H        5.6070     0.8190    -0.3260 H     1 <1>   0.0800 
 32 H        5.4950     4.1770     2.0680 H     1 <1>   0.0800 
 33 H        5.3770     5.5120     0.9610 H     1 <1>   0.0800 
 34 H        7.6430     2.2360    -0.2940 H     1 <1>   0.0800 
 35 H        6.9050     2.1180     1.2780 H     1 <1>   0.0800 
 36 H        8.7860     4.2600     0.4800 H     1 <1>   0.0800 
 37 H        7.9780     4.1840     2.0140 H     1 <1>   0.0800 
 38 H        8.3620     6.3380    -0.9010 H     1 <1>   0.3700 
 39 H        8.2420     8.7130     0.9210 H     1 <1>   0.0800 
 40 H        7.5050     8.6860    -0.6580 H     1 <1>   0.0800 
 41 H        9.7250     8.2880    -1.6810 H     1 <1>   0.0800 
 42 H       10.8750     7.1830     0.1990 H     1 <1>   0.0800 
 43 H       10.7720     8.6390     1.1410 H     1 <1>   0.0800 
 44 H        9.5610    10.7270     0.0930 H     1 <1>   0.0800 
 45 H        8.8840    10.5740    -1.5030 H     1 <1>   0.0800 
 46 H       12.3390     8.2640    -1.4220 H     1 <1>   0.0800 
 47 H       13.0060     8.4320     0.1760 H     1 <1>   0.0800 
 48 H       11.0280    11.8060    -1.5330 H     1 <1>   0.0800 
 49 H       11.1140    10.3460    -2.4760 H     1 <1>   0.0800 
 50 H       13.1310    10.5550    -1.1100 H     1 <1>   0.0800 
 51 H       12.1750    10.7230     0.3340 H     1 <1>   0.0800 
@<TRIPOS>BOND
  1   1   2  ar  
  2   2   3  ar  
  3   2   4  1   
  4   4   5  1   
  5   4  23  1   
  6   4  24  1   
  7   5   6  1   
  8   5  25  1   
  9   5  26  1   
 10   6   7  1   
 11   6   8  1   
 12   6  27  1   
 13   7   9  1   
 14   7  28  1   
 15   7  29  1   
 16   8  10  1   
 17   8  30  1   
 18   8  31  1   
 19   9  11  1   
 20   9  32  1   
 21   9  33  1   
 22  10  11  1   
 23  10  34  1   
 24  10  35  1   
 25  11  12  1   
 26  12  13  1   
 27  12  36  1   
 28  12  37  1   
 29  13  14  2   
 30  13  15  am  
 31  15  16  1   
 32  15  38  1   
 33  16  17  1   
 34  16  39  1   
 35  16  40  1   
 36  17  18  1   
 37  17  19  1   
 38  17  41  1   
 39  18  20  1   
 40  18  42  1   
 41  18  43  1   
 42  19  21  1   
 43  19  44  1   
 44  19  45  1   
 45  20  22  1   
 46  20  46  1   
 47  20  47  1   
 48  21  22  1   
 49  21  48  1   
 50  21  49  1   
 51  22  50  1   
 52  22  51  1   
@<TRIPOS>SUBSTRUCTURE
  1 ****  11 GROUP 4 **** **** 0

# MOE 2024.06 (io_trps.svl 2023.06)
