@<TRIPOS>MOLECULE
NONAME
45 48 1 0 0 
SMALL
USER_CHARGES


@<TRIPOS>ATOM
  1 O       -0.4130     0.4630     0.6750 O.2   1 <1>  -0.5700 
  2 C       -1.3520     0.9970     0.1050 C.2   1 <1>   0.7150 
  3 N       -2.5010     0.2400    -0.0300 N.am  1 <1>  -0.6600 
  4 C       -1.2250     2.3600    -0.3830 C.2   1 <1>   0.1020 
  5 C       -3.7880     0.6860    -0.6290 C.3   1 <1>   0.1400 
  6 C       -2.5650    -1.2040     0.3070 C.3   1 <1>   0.1400 
  7 N       -2.0060     2.9590    -1.2490 N.2   1 <1>  -0.3380 
  8 N       -0.2460     3.2110    -0.0110 N.pl3 1 <1>   0.0480 
  9 C       -4.7740    -0.4330    -0.2970 C.3   1 <1>   0.2000 
 10 C       -3.8990    -1.6900    -0.2730 C.3   1 <1>  -0.0800 
 11 N       -1.5470     4.1870    -1.4450 N.2   1 <1>  -0.3380 
 12 C       -0.5020     4.3150    -0.7050 C.2   1 <1>   0.0070 
 13 C        0.9110     3.0220     0.9010 C.3   1 <1>   0.0960 
 14 O       -5.2860    -0.2000     0.9710 O.3   1 <1>  -0.6800 
 15 C       -4.5060    -2.8890     0.4800 C.3   1 <1>   0.0200 
 16 C        0.3520     5.5680    -0.6100 C.3   1 <1>   0.0200 
 17 C        1.5860     4.3630     1.2410 C.3   1 <1>  -0.1600 
 18 C       -3.6720    -4.1540     0.3570 C.2   1 <1>  -0.0400 
 19 C        1.7290     5.2570    -0.0020 C.3   1 <1>  -0.1600 
 20 O       -4.0000    -5.1920     1.0790 O.3   1 <1>  -0.0190 
 21 C       -2.5970    -4.4900    -0.3740 C.2   1 <1>  -0.1500 
 22 N       -3.2030    -6.2010     0.8740 N.2   1 <1>  -0.4100 
 23 C       -2.3470    -5.8060     0.0030 C.2   1 <1>   0.1080 
 24 C       -1.2230    -6.6650    -0.5330 C.3   1 <1>  -0.0590 
 25 H       -4.1110     1.6340    -0.2320 H     1 <1>   0.0800 
 26 H       -3.6680     0.7670    -1.6960 H     1 <1>   0.0800 
 27 H       -1.7280    -1.7310    -0.1190 H     1 <1>   0.0800 
 28 H       -2.5460    -1.3150     1.3780 H     1 <1>   0.0800 
 29 H       -5.5950    -0.4930    -0.9920 H     1 <1>   0.0800 
 30 H       -3.7270    -1.9810    -1.2940 H     1 <1>   0.0800 
 31 H        0.5800     2.5400     1.8030 H     1 <1>   0.0800 
 32 H        1.6150     2.3740     0.4090 H     1 <1>   0.0800 
 33 H       -4.5540     0.0670     1.5640 H     1 <1>   0.4000 
 34 H       -5.4900    -3.0920     0.0950 H     1 <1>   0.0800 
 35 H       -4.6100    -2.6530     1.5250 H     1 <1>   0.0800 
 36 H        0.4660     6.0010    -1.5880 H     1 <1>   0.0800 
 37 H       -0.1650     6.2790     0.0100 H     1 <1>   0.0800 
 38 H        0.9980     4.8730     1.9840 H     1 <1>   0.0800 
 39 H        2.5550     4.1730     1.6690 H     1 <1>   0.0800 
 40 H        2.3330     4.7520    -0.7370 H     1 <1>   0.0800 
 41 H        2.2240     6.1770     0.2570 H     1 <1>   0.0800 
 42 H       -2.0330    -3.9230    -1.0900 H     1 <1>   0.1500 
 43 H       -1.3050    -6.7490    -1.6010 H     1 <1>   0.0800 
 44 H       -1.2760    -7.6490    -0.1020 H     1 <1>   0.0800 
 45 H       -0.2760    -6.2260    -0.2820 H     1 <1>   0.0800 
@<TRIPOS>BOND
  1   1   2  2   
  2   2   3  am  
  3   2   4  1   
  4   3   5  1   
  5   3   6  1   
  6   4   7  2   
  7   4   8  1   
  8   5   9  1   
  9   5  25  1   
 10   5  26  1   
 11   6  10  1   
 12   6  27  1   
 13   6  28  1   
 14   7  11  1   
 15   8  12  1   
 16   8  13  1   
 17   9  10  1   
 18   9  14  1   
 19   9  29  1   
 20  10  15  1   
 21  10  30  1   
 22  11  12  2   
 23  12  16  1   
 24  13  17  1   
 25  13  31  1   
 26  13  32  1   
 27  14  33  1   
 28  15  18  1   
 29  15  34  1   
 30  15  35  1   
 31  16  19  1   
 32  16  36  1   
 33  16  37  1   
 34  17  19  1   
 35  17  38  1   
 36  17  39  1   
 37  18  20  1   
 38  18  21  2   
 39  19  40  1   
 40  19  41  1   
 41  20  22  1   
 42  21  23  1   
 43  21  42  1   
 44  22  23  2   
 45  23  24  1   
 46  24  43  1   
 47  24  44  1   
 48  24  45  1   
@<TRIPOS>SUBSTRUCTURE
  1 ****   3 GROUP 4 **** **** 0

# MOE 2024.06 (io_trps.svl 2023.06)
