@<TRIPOS>MOLECULE
NONAME
53 55 1 0 0 
SMALL
USER_CHARGES


@<TRIPOS>ATOM
  1 O        0.1240     0.3800     0.5260 O.2   1 <1>  -0.5700 
  2 C       -0.9170     0.9890     0.4820 C.2   1 <1>   0.5690 
  3 N       -2.1090     0.3570     0.2620 N.am  1 <1>  -0.6600 
  4 C       -0.8620     2.4940     0.6600 C.3   1 <1>  -0.0990 
  5 C       -3.4460     0.9880     0.1300 C.3   1 <1>   0.1400 
  6 C       -2.2040    -1.1140     0.0960 C.3   1 <1>   0.1400 
  7 C       -0.6210     3.1960    -0.6800 C.3   1 <1>  -0.0160 
  8 C       -4.3580    -0.1340    -0.3650 C.3   1 <1>   0.2000 
  9 C       -3.7020    -1.4250     0.1160 C.3   1 <1>  -0.0800 
 10 C       -0.6110     4.7040    -0.4930 C.ar  1 <1>  -0.1440 
 11 O       -5.6360    -0.0180     0.1540 O.3   1 <1>  -0.6800 
 12 C       -4.0870    -2.6530    -0.7240 C.3   1 <1>   0.0210 
 13 C        0.5460     5.3480    -0.0870 C.ar  1 <1>  -0.1500 
 14 C       -1.7570     5.4480    -0.7220 C.ar  1 <1>  -0.1500 
 15 C       -3.3180    -3.8800    -0.2740 C.2   1 <1>   0.1080 
 16 C        0.5660     6.7290     0.0920 C.ar  1 <1>   0.0820 
 17 C       -1.7450     6.8210    -0.5470 C.ar  1 <1>  -0.1500 
 18 N       -3.3850    -4.3470     0.9340 N.2   1 <1>  -0.7070 
 19 C       -2.4610    -4.6230    -1.0780 C.2   1 <1>  -0.1500 
 20 O        1.6780     7.4050     0.4910 O.3   1 <1>  -0.3630 
 21 C       -0.5900     7.4690    -0.1410 C.ar  1 <1>  -0.1430 
 22 N       -2.5620    -5.4130     0.9320 N.pl3 1 <1>   0.3000 
 23 C       -1.9900    -5.6000    -0.2760 C.2   1 <1>  -0.3320 
 24 C        2.8960     6.7420     0.7470 C.3   1 <1>   0.0400 
 25 C       -0.5940     8.9790     0.0460 C.3   1 <1>  -0.0970 
 26 C       -1.0120    -6.7160    -0.5920 C.3   1 <1>  -0.0600 
 27 H       -1.7680     2.8510     1.1100 H     1 <1>   0.0800 
 28 H       -0.0560     2.7250     1.3320 H     1 <1>   0.0800 
 29 H       -3.7670     1.3400     1.0950 H     1 <1>   0.0800 
 30 H       -3.4200     1.7980    -0.5770 H     1 <1>   0.0800 
 31 H       -1.7620    -1.3890    -0.8470 H     1 <1>   0.0800 
 32 H       -1.6870    -1.6260     0.8910 H     1 <1>   0.0800 
 33 H       -1.3880     2.9210    -1.3820 H     1 <1>   0.0800 
 34 H        0.3210     2.8740    -1.0890 H     1 <1>   0.0800 
 35 H       -4.4220    -0.1000    -1.4400 H     1 <1>   0.0800 
 36 H       -3.9690    -1.6060     1.1430 H     1 <1>   0.0800 
 37 H       -5.6370    -0.2480     1.1040 H     1 <1>   0.4000 
 38 H       -3.8860    -2.4690    -1.7630 H     1 <1>   0.0800 
 39 H       -5.1390    -2.8470    -0.6140 H     1 <1>   0.0800 
 40 H        1.4250     4.7570     0.0870 H     1 <1>   0.1500 
 41 H       -2.6650     4.9670    -1.0390 H     1 <1>   0.1500 
 42 H       -2.6430     7.3830    -0.7300 H     1 <1>   0.1500 
 43 H       -2.2380    -4.4360    -2.1140 H     1 <1>   0.1500 
 44 H       -2.4130    -5.9890     1.7690 H     1 <1>   0.2700 
 45 H        3.6200     7.4790     1.0430 H     1 <1>   0.0800 
 46 H        3.2200     6.2500    -0.1520 H     1 <1>   0.0800 
 47 H        2.7470     6.0350     1.5430 H     1 <1>   0.0800 
 48 H       -1.5590     9.3970    -0.1740 H     1 <1>   0.0800 
 49 H        0.1320     9.4280    -0.6070 H     1 <1>   0.0800 
 50 H       -0.3380     9.2200     1.0630 H     1 <1>   0.0800 
 51 H       -0.6980    -6.6520    -1.6190 H     1 <1>   0.0800 
 52 H       -1.4760    -7.6730    -0.4340 H     1 <1>   0.0800 
 53 H       -0.1430    -6.6380     0.0370 H     1 <1>   0.0800 
@<TRIPOS>BOND
  1   1   2  2   
  2   2   3  am  
  3   2   4  1   
  4   3   5  1   
  5   3   6  1   
  6   4   7  1   
  7   4  27  1   
  8   4  28  1   
  9   5   8  1   
 10   5  29  1   
 11   5  30  1   
 12   6   9  1   
 13   6  31  1   
 14   6  32  1   
 15   7  10  1   
 16   7  33  1   
 17   7  34  1   
 18   8   9  1   
 19   8  11  1   
 20   8  35  1   
 21   9  12  1   
 22   9  36  1   
 23  10  13  ar  
 24  10  14  ar  
 25  11  37  1   
 26  12  15  1   
 27  12  38  1   
 28  12  39  1   
 29  13  16  ar  
 30  13  40  1   
 31  14  17  ar  
 32  14  41  1   
 33  15  18  2   
 34  15  19  1   
 35  16  20  1   
 36  16  21  ar  
 37  17  21  ar  
 38  17  42  1   
 39  18  22  1   
 40  19  23  2   
 41  19  43  1   
 42  20  24  1   
 43  21  25  1   
 44  22  23  1   
 45  22  44  1   
 46  23  26  1   
 47  24  45  1   
 48  24  46  1   
 49  24  47  1   
 50  25  48  1   
 51  25  49  1   
 52  25  50  1   
 53  26  51  1   
 54  26  52  1   
 55  26  53  1   
@<TRIPOS>SUBSTRUCTURE
  1 ****   2 GROUP 4 **** **** 0

# MOE 2024.06 (io_trps.svl 2023.06)
