@<TRIPOS>MOLECULE
F1913-0052
30 31 1 0 0 
SMALL
USER_CHARGES


@<TRIPOS>ATOM
  1 O       -4.1910    -0.9930    -1.1950 O.co2 1 <1>  -0.9000 
  2 C       -4.2550    -0.2010    -0.2500 C.2   1 <1>   0.9060 
  3 O       -3.4930     0.7590    -0.1240 O.co2 1 <1>  -0.9000 
  4 C       -5.3270    -0.4200     0.7940 C.3   1 <1>  -0.2660 
  5 C       -6.7380    -0.2440     0.2080 C.3   1 <1>  -0.1600 
  6 C       -7.8350    -0.5730     1.2320 C.3   1 <1>   0.0200 
  7 C       -9.2360    -0.4230     0.6600 C.2   1 <1>   0.0060 
  8 N      -10.2740    -0.1050     1.3680 N.2   1 <1>  -0.5650 
  9 N       -9.5170    -0.6220    -0.6500 N.pl3 1 <1>   0.0330 
 10 C      -11.2760    -0.0930     0.4710 C.2   1 <1>   0.0460 
 11 C      -10.8390    -0.4110    -0.7600 C.2   1 <1>  -0.3320 
 12 C      -12.7170     0.2320     0.8010 C.3   1 <1>   0.0210 
 13 C      -11.6940    -0.4940    -2.0080 C.3   1 <1>   0.0200 
 14 C      -13.5120     0.4980    -0.4950 C.3   1 <1>  -0.1600 
 15 C      -13.1820    -0.5240    -1.6050 C.3   1 <1>  -0.1600 
 16 H       -5.1650     0.2770     1.5940 H     1 <1>   0.0800 
 17 H       -5.2020    -1.4150     1.1730 H     1 <1>   0.0800 
 18 H       -6.8250    -0.8970    -0.6430 H     1 <1>   0.0800 
 19 H       -6.8520     0.7710    -0.1340 H     1 <1>   0.0800 
 20 H       -7.7390     0.0780     2.0820 H     1 <1>   0.0800 
 21 H       -7.7150    -1.5850     1.5740 H     1 <1>   0.0800 
 22 H       -8.8430    -0.8710    -1.3790 H     1 <1>   0.2700 
 23 H      -12.7520     1.0950     1.4400 H     1 <1>   0.0800 
 24 H      -13.1370    -0.6030     1.3310 H     1 <1>   0.0800 
 25 H      -11.4520    -1.3800    -2.5680 H     1 <1>   0.0800 
 26 H      -11.4990     0.3670    -2.6220 H     1 <1>   0.0800 
 27 H      -13.2690     1.4840    -0.8510 H     1 <1>   0.0800 
 28 H      -14.5650     0.4770    -0.2760 H     1 <1>   0.0800 
 29 H      -13.4220    -1.5100    -1.2450 H     1 <1>   0.0800 
 30 H      -13.7900    -0.3330    -2.4720 H     1 <1>   0.0800 
@<TRIPOS>BOND
  1   1   2  ar  
  2   2   3  ar  
  3   2   4  1   
  4   4   5  1   
  5   4  16  1   
  6   4  17  1   
  7   5   6  1   
  8   5  18  1   
  9   5  19  1   
 10   6   7  1   
 11   6  20  1   
 12   6  21  1   
 13   7   8  2   
 14   7   9  1   
 15   8  10  1   
 16   9  11  1   
 17   9  22  1   
 18  10  11  2   
 19  10  12  1   
 20  11  13  1   
 21  12  14  1   
 22  12  23  1   
 23  12  24  1   
 24  13  15  1   
 25  13  25  1   
 26  13  26  1   
 27  14  15  1   
 28  14  27  1   
 29  14  28  1   
 30  15  29  1   
 31  15  30  1   
@<TRIPOS>SUBSTRUCTURE
  1 ****   7 GROUP 4 **** **** 0

# MOE 2024.06 (io_trps.svl 2023.06)
