@<TRIPOS>MOLECULE
NONAME
57 59 1 0 0 
SMALL
USER_CHARGES


@<TRIPOS>ATOM
  1 CL      -0.8460    -0.9670    -1.4100 Cl    1 <1>  -0.1770 
  2 C       -1.5950     0.5530    -0.9760 C.ar  1 <1>   0.1770 
  3 C       -2.7810     0.5820    -0.2410 C.ar  1 <1>   0.0540 
  4 C       -0.9700     1.7080    -1.4090 C.ar  1 <1>  -0.1500 
  5 C       -3.4390    -0.6140     0.2340 C.2   1 <1>   0.4620 
  6 C       -3.3270     1.8390     0.0250 C.ar  1 <1>  -0.1500 
  7 C       -1.5300     2.9410    -1.1220 C.ar  1 <1>  -0.1500 
  8 N       -2.8950    -1.5740     0.8920 N.2   1 <1>  -0.4100 
  9 N       -4.7460    -0.8160     0.0460 N.2   1 <1>  -0.5650 
 10 C       -2.7130     3.0020    -0.4060 C.ar  1 <1>  -0.1500 
 11 O       -3.8140    -2.4530     1.1410 O.3   1 <1>  -0.0190 
 12 C       -4.8940    -1.9420     0.6090 C.2   1 <1>   0.2980 
 13 C       -6.1970    -2.7120     0.7140 C.3   1 <1>   0.0200 
 14 C       -6.1580    -4.0090    -0.1080 C.3   1 <1>  -0.1600 
 15 C       -7.4950    -4.7750    -0.0410 C.3   1 <1>  -0.0990 
 16 C       -7.5150    -6.0810    -0.8310 C.2   1 <1>   0.5690 
 17 O       -6.5430    -6.3660    -1.4890 O.2   1 <1>  -0.5700 
 18 N       -8.6150    -6.9040    -0.7830 N.am  1 <1>  -0.6600 
 19 C       -8.6240    -8.2080    -1.5150 C.3   1 <1>   0.1400 
 20 C       -9.9000    -6.5860    -0.1070 C.3   1 <1>   0.1400 
 21 C       -8.9740    -9.4170    -0.6110 C.3   1 <1>   0.0000 
 22 C      -10.2180    -7.6790     0.9100 C.3   1 <1>  -0.1600 
 23 C      -10.2240    -9.0600     0.2450 C.3   1 <1>   0.2000 
 24 C       -9.4090   -10.5830    -1.5380 C.3   1 <1>   0.1200 
 25 C       -7.7280    -9.9070     0.2000 C.3   1 <1>  -0.1600 
 26 O      -10.4260   -10.0100     1.2270 O.3   1 <1>  -0.6800 
 27 O       -8.3930   -10.9780    -2.4030 O.3   1 <1>  -0.6800 
 28 C       -7.2160    -9.0530     1.3730 C.3   1 <1>  -0.1600 
 29 C       -5.8990    -9.6120     1.9170 C.3   1 <1>  -0.2400 
 30 H       -0.0550     1.6410    -1.9690 H     1 <1>   0.1500 
 31 H       -4.2480     1.9000     0.5790 H     1 <1>   0.1500 
 32 H       -1.0500     3.8450    -1.4550 H     1 <1>   0.1500 
 33 H       -3.1550     3.9590    -0.1830 H     1 <1>   0.1500 
 34 H       -6.3820    -2.9360     1.7500 H     1 <1>   0.0800 
 35 H       -6.9950    -2.0840     0.3590 H     1 <1>   0.0800 
 36 H       -5.3670    -4.6430     0.2570 H     1 <1>   0.0800 
 37 H       -5.9370    -3.7700    -1.1350 H     1 <1>   0.0800 
 38 H       -8.2760    -4.1440    -0.4240 H     1 <1>   0.0800 
 39 H       -7.7110    -5.0060     0.9860 H     1 <1>   0.0800 
 40 H       -9.3530    -8.1290    -2.3030 H     1 <1>   0.0800 
 41 H       -7.6710    -8.3810    -1.9830 H     1 <1>   0.0800 
 42 H       -9.8630    -5.6350     0.3910 H     1 <1>   0.0800 
 43 H      -10.6800    -6.5400    -0.8480 H     1 <1>   0.0800 
 44 H      -11.1920    -7.4900     1.3250 H     1 <1>   0.0800 
 45 H       -9.5070    -7.6220     1.7090 H     1 <1>   0.0800 
 46 H      -11.0930    -9.0940    -0.3910 H     1 <1>   0.0800 
 47 H      -10.2590   -10.3050    -2.1370 H     1 <1>   0.0800 
 48 H       -9.6820   -11.4440    -0.9500 H     1 <1>   0.0800 
 49 H       -7.9330   -10.8930     0.5820 H     1 <1>   0.0800 
 50 H       -6.9100   -10.0240    -0.4910 H     1 <1>   0.0800 
 51 H       -9.6040   -10.1170     1.7450 H     1 <1>   0.4000 
 52 H       -8.1040   -10.2450    -2.9790 H     1 <1>   0.4000 
 53 H       -7.0480    -8.0410     1.0540 H     1 <1>   0.0800 
 54 H       -7.9310    -9.0510     2.1740 H     1 <1>   0.0800 
 55 H       -5.1410    -9.5950     1.1540 H     1 <1>   0.0800 
 56 H       -6.0280   -10.6260     2.2550 H     1 <1>   0.0800 
 57 H       -5.5600    -9.0160     2.7450 H     1 <1>   0.0800 
@<TRIPOS>BOND
  1   1   2  1   
  2   2   3  ar  
  3   2   4  ar  
  4   3   5  1   
  5   3   6  ar  
  6   4   7  ar  
  7   4  30  1   
  8   5   8  2   
  9   5   9  1   
 10   6  10  ar  
 11   6  31  1   
 12   7  10  ar  
 13   7  32  1   
 14   8  11  1   
 15   9  12  2   
 16  10  33  1   
 17  11  12  1   
 18  12  13  1   
 19  13  14  1   
 20  13  34  1   
 21  13  35  1   
 22  14  15  1   
 23  14  36  1   
 24  14  37  1   
 25  15  16  1   
 26  15  38  1   
 27  15  39  1   
 28  16  17  2   
 29  16  18  am  
 30  18  19  1   
 31  18  20  1   
 32  19  21  1   
 33  19  40  1   
 34  19  41  1   
 35  20  22  1   
 36  20  42  1   
 37  20  43  1   
 38  21  23  1   
 39  21  24  1   
 40  21  25  1   
 41  22  23  1   
 42  22  44  1   
 43  22  45  1   
 44  23  26  1   
 45  23  46  1   
 46  24  27  1   
 47  24  47  1   
 48  24  48  1   
 49  25  28  1   
 50  25  49  1   
 51  25  50  1   
 52  26  51  1   
 53  27  52  1   
 54  28  29  1   
 55  28  53  1   
 56  28  54  1   
 57  29  55  1   
 58  29  56  1   
 59  29  57  1   
@<TRIPOS>SUBSTRUCTURE
  1 ****  14 GROUP 4 **** **** 0

# MOE 2024.06 (io_trps.svl 2023.06)
