@<TRIPOS>MOLECULE
NONAME
60 62 1 0 0 
SMALL
USER_CHARGES


@<TRIPOS>ATOM
  1 O       -2.4250     4.8470     1.4640 O.2   1 <1>  -0.5700 
  2 C       -2.2590     3.9030     0.7090 C.2   1 <1>   0.5440 
  3 N       -2.7590     2.6650     1.0790 N.am  1 <1>  -0.6600 
  4 C       -1.5510     4.1120    -0.5480 C.ar  1 <1>   0.3960 
  5 C       -2.2840     1.3720     0.5070 C.3   1 <1>   0.0600 
  6 C       -3.6820     2.5130     2.2410 C.3   1 <1>   0.0600 
  7 N       -0.3530     4.7100    -0.5380 N.ar  1 <1>  -0.6200 
  8 C       -2.1470     3.6970    -1.7390 C.ar  1 <1>   0.1600 
  9 C        0.2100     4.8560    -1.7220 C.ar  1 <1>   0.4100 
 10 N       -1.6120     3.8260    -2.9430 N.ar  1 <1>  -0.6200 
 11 N        1.4540     5.5040    -1.7150 N.pl3 1 <1>  -0.8380 
 12 C       -0.4320     4.4110    -2.8960 C.ar  1 <1>   0.1600 
 13 C        2.2280     5.6750    -0.4080 C.3   1 <1>   0.2090 
 14 C        2.3370     5.3760    -2.9180 C.3   1 <1>   0.1290 
 15 C        2.2450     7.1520     0.1040 C.3   1 <1>   0.5030 
 16 N        0.8540     7.7100    -0.1240 N.4   1 <1>  -0.9590 
 17 C        3.3060     7.9620    -0.6950 C.3   1 <1>  -0.1600 
 18 C        2.6360     7.2030     1.6020 C.3   1 <1>  -0.1600 
 19 C        0.7500     9.1440    -0.5380 C.3   1 <1>   0.3430 
 20 C       -0.1430     7.3790     0.9520 C.3   1 <1>   0.3430 
 21 C        4.7610     7.5250    -0.4480 C.3   1 <1>  -0.1600 
 22 C        4.0850     6.7560     1.8730 C.3   1 <1>  -0.1600 
 23 C       -0.6630     9.4810    -1.0140 C.3   1 <1>  -0.1600 
 24 C       -1.5680     7.7240     0.5100 C.3   1 <1>  -0.1600 
 25 C        5.0910     7.5650     1.0480 C.3   1 <1>  -0.1600 
 26 C       -1.7040     9.1800     0.0650 C.3   1 <1>  -0.1600 
 27 H       -1.4050     1.5140    -0.0980 H     1 <1>   0.0800 
 28 H       -3.0600     0.9320    -0.0940 H     1 <1>   0.0800 
 29 H       -2.0340     0.6930     1.3040 H     1 <1>   0.0800 
 30 H       -4.1370     3.4560     2.4920 H     1 <1>   0.0800 
 31 H       -3.1330     2.1570     3.0960 H     1 <1>   0.0800 
 32 H       -4.4620     1.8120     2.0030 H     1 <1>   0.0800 
 33 H       -3.1180     3.2360    -1.6840 H     1 <1>   0.1500 
 34 H        0.0600     4.5580    -3.8370 H     1 <1>   0.1500 
 35 H        3.2290     5.3090    -0.5350 H     1 <1>   0.0800 
 36 H        1.8100     5.0540     0.3640 H     1 <1>   0.0800 
 37 H        1.9070     5.9060    -3.7500 H     1 <1>   0.0800 
 38 H        2.4520     4.3370    -3.1820 H     1 <1>   0.0800 
 39 H        3.3140     5.7860    -2.7280 H     1 <1>   0.0800 
 40 H        0.5540     7.1270    -0.9290 H     1 <1>   0.4500 
 41 H        3.2710     8.9950    -0.3990 H     1 <1>   0.0800 
 42 H        3.0980     7.9070    -1.7490 H     1 <1>   0.0800 
 43 H        1.9940     6.5670     2.1850 H     1 <1>   0.0800 
 44 H        2.5250     8.2120     1.9590 H     1 <1>   0.0800 
 45 H        1.4300     9.3480    -1.3480 H     1 <1>   0.0800 
 46 H        1.0110     9.7780     0.2930 H     1 <1>   0.0800 
 47 H        0.0900     7.9370     1.8440 H     1 <1>   0.0800 
 48 H       -0.0970     6.3300     1.1940 H     1 <1>   0.0800 
 49 H        5.4270     8.1930    -0.9690 H     1 <1>   0.0800 
 50 H        4.9440     6.5380    -0.8340 H     1 <1>   0.0800 
 51 H        4.2000     5.7090     1.6500 H     1 <1>   0.0800 
 52 H        4.3070     6.8830     2.9200 H     1 <1>   0.0800 
 53 H       -0.8820     8.9180    -1.9050 H     1 <1>   0.0800 
 54 H       -0.7080    10.5250    -1.2710 H     1 <1>   0.0800 
 55 H       -2.2390     7.5370     1.3300 H     1 <1>   0.0800 
 56 H       -1.8580     7.0700    -0.2920 H     1 <1>   0.0800 
 57 H        5.0870     8.5880     1.3870 H     1 <1>   0.0800 
 58 H        6.0840     7.1790     1.2090 H     1 <1>   0.0800 
 59 H       -2.6950     9.3540    -0.3200 H     1 <1>   0.0800 
 60 H       -1.5560     9.8340     0.9090 H     1 <1>   0.0800 
@<TRIPOS>BOND
  1   1   2  2   
  2   2   3  am  
  3   2   4  1   
  4   3   5  1   
  5   3   6  1   
  6   4   7  ar  
  7   4   8  ar  
  8   5  27  1   
  9   5  28  1   
 10   5  29  1   
 11   6  30  1   
 12   6  31  1   
 13   6  32  1   
 14   7   9  ar  
 15   8  10  ar  
 16   8  33  1   
 17   9  11  1   
 18   9  12  ar  
 19  10  12  ar  
 20  11  13  1   
 21  11  14  1   
 22  12  34  1   
 23  13  15  1   
 24  13  35  1   
 25  13  36  1   
 26  14  37  1   
 27  14  38  1   
 28  14  39  1   
 29  15  16  1   
 30  15  17  1   
 31  15  18  1   
 32  16  19  1   
 33  16  20  1   
 34  16  40  1   
 35  17  21  1   
 36  17  41  1   
 37  17  42  1   
 38  18  22  1   
 39  18  43  1   
 40  18  44  1   
 41  19  23  1   
 42  19  45  1   
 43  19  46  1   
 44  20  24  1   
 45  20  47  1   
 46  20  48  1   
 47  21  25  1   
 48  21  49  1   
 49  21  50  1   
 50  22  25  1   
 51  22  51  1   
 52  22  52  1   
 53  23  26  1   
 54  23  53  1   
 55  23  54  1   
 56  24  26  1   
 57  24  55  1   
 58  24  56  1   
 59  25  57  1   
 60  25  58  1   
 61  26  59  1   
 62  26  60  1   
@<TRIPOS>SUBSTRUCTURE
  1 ****   7 GROUP 4 **** **** 0

# MOE 2024.06 (io_trps.svl 2023.06)
