@<TRIPOS>MOLECULE
NONAME
65 68 1 0 0 
SMALL
USER_CHARGES


@<TRIPOS>ATOM
  1 O       -0.1640     1.0930     1.6410 O.2   1 <1>  -0.5700 
  2 C       -0.0020     2.2210     1.2410 C.2   1 <1>   0.5690 
  3 N       -1.0680     3.0800     1.0880 N.am  1 <1>  -0.6600 
  4 C        1.4540     2.5770     0.9110 C.3   1 <1>  -0.0190 
  5 C       -2.4620     2.5760     1.3040 C.3   1 <1>   0.1400 
  6 C       -1.0270     4.5100     0.6490 C.3   1 <1>   0.1400 
  7 C        2.0320     3.7940     1.6570 C.3   1 <1>  -0.1600 
  8 C        1.7280     2.6600    -0.6010 C.3   1 <1>  -0.1600 
  9 C       -3.2630     2.5520    -0.0280 C.3   1 <1>   0.0000 
 10 C       -2.3000     4.9220    -0.1090 C.3   1 <1>  -0.1600 
 11 C        3.5110     3.9800     1.3250 C.3   1 <1>   0.3430 
 12 C        3.2120     2.8880    -0.8790 C.3   1 <1>   0.3430 
 13 C       -4.7670     2.4820     0.3210 C.3   1 <1>   0.2000 
 14 C       -2.8550     3.7520    -0.9330 C.3   1 <1>  -0.1600 
 15 C       -3.0300     1.2140    -0.7500 C.3   1 <1>  -0.1600 
 16 N        3.6860     4.1070    -0.1580 N.4   1 <1>  -0.9590 
 17 O       -5.5400     2.7690    -0.8100 O.3   1 <1>  -0.5600 
 18 C       -5.0070     1.0150     0.6960 C.3   1 <1>  -0.1600 
 19 C       -3.9750     0.1980    -0.0930 C.3   1 <1>  -0.1600 
 20 C        5.0740     4.4650    -0.5790 C.3   1 <1>   0.4230 
 21 C       -6.8240     3.2380    -0.5470 C.3   1 <1>   0.0400 
 22 C        6.1340     3.4910    -0.0330 C.3   1 <1>  -0.1600 
 23 C        5.3920     5.9100    -0.1720 C.3   1 <1>  -0.1600 
 24 C        7.5340     3.8900    -0.5220 C.3   1 <1>  -0.1600 
 25 C        6.7920     6.3150    -0.6590 C.3   1 <1>  -0.1600 
 26 C        7.8610     5.3420    -0.1460 C.3   1 <1>  -0.1600 
 27 H        2.0260     1.7330     1.2610 H     1 <1>   0.0800 
 28 H       -2.4560     1.5980     1.7520 H     1 <1>   0.0800 
 29 H       -2.9440     3.2340     2.0050 H     1 <1>   0.0800 
 30 H       -0.9060     5.1430     1.5120 H     1 <1>   0.0800 
 31 H       -0.1930     4.6650    -0.0030 H     1 <1>   0.0800 
 32 H        1.9290     3.6360     2.7170 H     1 <1>   0.0800 
 33 H        1.5080     4.6990     1.4170 H     1 <1>   0.0800 
 34 H        1.1530     3.4380    -1.0670 H     1 <1>   0.0800 
 35 H        1.4290     1.7320    -1.0590 H     1 <1>   0.0800 
 36 H       -3.0470     5.2540     0.5900 H     1 <1>   0.0800 
 37 H       -2.0780     5.7530    -0.7550 H     1 <1>   0.0800 
 38 H        4.0680     3.1300     1.6860 H     1 <1>   0.0800 
 39 H        3.8810     4.8610     1.8230 H     1 <1>   0.0800 
 40 H        3.3650     3.0010    -1.9410 H     1 <1>   0.0800 
 41 H        3.7720     2.0280    -0.5480 H     1 <1>   0.0800 
 42 H       -5.0290     3.1670     1.1100 H     1 <1>   0.0800 
 43 H       -2.0820     3.4320    -1.6100 H     1 <1>   0.0800 
 44 H       -3.6750     4.0900    -1.5400 H     1 <1>   0.0800 
 45 H       -3.3110     1.3170    -1.7840 H     1 <1>   0.0800 
 46 H       -2.0030     0.8960    -0.7000 H     1 <1>   0.0800 
 47 H        3.0880     4.8830    -0.4630 H     1 <1>   0.4500 
 48 H       -4.8240     0.8870     1.7480 H     1 <1>   0.0800 
 49 H       -6.0110     0.6980     0.4840 H     1 <1>   0.0800 
 50 H       -3.4280    -0.4510     0.5700 H     1 <1>   0.0800 
 51 H       -4.4570    -0.3990    -0.8480 H     1 <1>   0.0800 
 52 H        5.1220     4.4240    -1.6560 H     1 <1>   0.0800 
 53 H       -7.3230     3.3890    -1.4880 H     1 <1>   0.0800 
 54 H       -6.7570     4.1740    -0.0200 H     1 <1>   0.0800 
 55 H       -7.3630     2.5120     0.0350 H     1 <1>   0.0800 
 56 H        6.1430     3.5040     1.0420 H     1 <1>   0.0800 
 57 H        5.9320     2.4890    -0.3650 H     1 <1>   0.0800 
 58 H        4.6710     6.5810    -0.6040 H     1 <1>   0.0800 
 59 H        5.3670     6.0160     0.8970 H     1 <1>   0.0800 
 60 H        8.2710     3.2350    -0.0870 H     1 <1>   0.0800 
 61 H        7.5930     3.7790    -1.5920 H     1 <1>   0.0800 
 62 H        6.8130     6.3310    -1.7360 H     1 <1>   0.0800 
 63 H        7.0220     7.3110    -0.3160 H     1 <1>   0.0800 
 64 H        8.8190     5.6120    -0.5590 H     1 <1>   0.0800 
 65 H        7.9390     5.4260     0.9260 H     1 <1>   0.0800 
@<TRIPOS>BOND
  1   1   2  2   
  2   2   3  am  
  3   2   4  1   
  4   3   5  1   
  5   3   6  1   
  6   4   7  1   
  7   4   8  1   
  8   4  27  1   
  9   5   9  1   
 10   5  28  1   
 11   5  29  1   
 12   6  10  1   
 13   6  30  1   
 14   6  31  1   
 15   7  11  1   
 16   7  32  1   
 17   7  33  1   
 18   8  12  1   
 19   8  34  1   
 20   8  35  1   
 21   9  13  1   
 22   9  14  1   
 23   9  15  1   
 24  10  14  1   
 25  10  36  1   
 26  10  37  1   
 27  11  16  1   
 28  11  38  1   
 29  11  39  1   
 30  12  16  1   
 31  12  40  1   
 32  12  41  1   
 33  13  17  1   
 34  13  18  1   
 35  13  42  1   
 36  14  43  1   
 37  14  44  1   
 38  15  19  1   
 39  15  45  1   
 40  15  46  1   
 41  16  20  1   
 42  16  47  1   
 43  17  21  1   
 44  18  19  1   
 45  18  48  1   
 46  18  49  1   
 47  19  50  1   
 48  19  51  1   
 49  20  22  1   
 50  20  23  1   
 51  20  52  1   
 52  21  53  1   
 53  21  54  1   
 54  21  55  1   
 55  22  24  1   
 56  22  56  1   
 57  22  57  1   
 58  23  25  1   
 59  23  58  1   
 60  23  59  1   
 61  24  26  1   
 62  24  60  1   
 63  24  61  1   
 64  25  26  1   
 65  25  62  1   
 66  25  63  1   
 67  26  64  1   
 68  26  65  1   
@<TRIPOS>SUBSTRUCTURE
  1 ****   4 GROUP 4 **** **** 0

# MOE 2024.06 (io_trps.svl 2023.06)
