@<TRIPOS>MOLECULE
NONAME
52 54 1 0 0 
SMALL
USER_CHARGES


@<TRIPOS>ATOM
  1 O       -0.3440     0.8610     0.1930 O.2   1 <1>  -0.5700 
  2 C       -0.1530     1.9880    -0.1840 C.2   1 <1>   0.5690 
  3 N       -0.5730     3.0410     0.5530 N.am  1 <1>  -0.7300 
  4 C        0.5530     2.2440    -1.5210 C.3   1 <1>   0.1810 
  5 C       -0.3120     4.4520     0.1870 C.3   1 <1>   0.3640 
  6 O        1.0720     3.5530    -1.6260 O.3   1 <1>  -0.5600 
  7 C       -1.5630     5.2690     0.4760 C.ar  1 <1>  -0.1440 
  8 C        0.1490     4.5780    -1.2860 C.3   1 <1>   0.2610 
  9 C       -2.7930     4.9030    -0.0540 C.ar  1 <1>   0.1600 
 10 C       -1.4980     6.3940     1.2770 C.ar  1 <1>  -0.1500 
 11 C        0.6850     5.9860    -1.6000 C.2   1 <1>   0.5690 
 12 N       -3.9290     5.5530     0.1410 N.ar  1 <1>  -0.6200 
 13 C       -2.6720     7.0850     1.4870 C.ar  1 <1>  -0.1500 
 14 O       -0.0350     6.6640    -2.2980 O.2   1 <1>  -0.5700 
 15 N        1.8910     6.4840    -1.1430 N.am  1 <1>  -0.6600 
 16 C       -3.8410     6.6300     0.9040 C.ar  1 <1>   0.1600 
 17 C        2.4270     7.7570    -1.7320 C.3   1 <1>   0.2840 
 18 C        2.8590     5.7350    -0.2830 C.3   1 <1>   0.1400 
 19 C        2.7450     8.8120    -0.6750 C.ar  1 <1>  -0.1430 
 20 C        2.7770     6.1910     1.1810 C.3   1 <1>  -0.1600 
 21 C        1.7500     9.5480    -0.0360 C.ar  1 <1>  -0.1430 
 22 C        4.0760     9.0480    -0.3560 C.ar  1 <1>  -0.1500 
 23 C        3.2650     5.0980     2.1380 C.3   1 <1>  -0.2400 
 24 C        2.1030    10.4890     0.9200 C.ar  1 <1>  -0.1500 
 25 C        0.2760     9.3570    -0.3660 C.3   1 <1>  -0.0970 
 26 C        4.4190     9.9890     0.5970 C.ar  1 <1>  -0.1500 
 27 C        3.4300    10.7100     1.2390 C.ar  1 <1>  -0.1500 
 28 H       -1.0430     2.8590     1.4420 H     1 <1>   0.3700 
 29 H       -0.1390     2.0870    -2.3280 H     1 <1>   0.0800 
 30 H        1.3730     1.5570    -1.6290 H     1 <1>   0.0800 
 31 H        0.4770     4.8040     0.8210 H     1 <1>   0.0800 
 32 H       -0.7100     4.4340    -1.9170 H     1 <1>   0.0800 
 33 H       -2.8530     4.0230    -0.6720 H     1 <1>   0.1500 
 34 H       -0.5780     6.7310     1.7220 H     1 <1>   0.1500 
 35 H       -2.6840     7.9700     2.0970 H     1 <1>   0.1500 
 36 H       -4.7520     7.1790     1.0740 H     1 <1>   0.1500 
 37 H        3.3180     7.5250    -2.2880 H     1 <1>   0.0800 
 38 H        1.7340     8.1790    -2.4380 H     1 <1>   0.0800 
 39 H        2.6630     4.6820    -0.3340 H     1 <1>   0.0800 
 40 H        3.8600     5.8810    -0.6500 H     1 <1>   0.0800 
 41 H        3.3880     7.0640     1.3210 H     1 <1>   0.0800 
 42 H        1.7690     6.4610     1.4340 H     1 <1>   0.0800 
 43 H        4.8590     8.4970    -0.8470 H     1 <1>   0.1500 
 44 H        4.2860     4.8370     1.9200 H     1 <1>   0.0800 
 45 H        2.6560     4.2150     2.0520 H     1 <1>   0.0800 
 46 H        3.2140     5.4510     3.1530 H     1 <1>   0.0800 
 47 H        1.3430    11.0610     1.4220 H     1 <1>   0.1500 
 48 H       -0.3380    10.0530     0.1750 H     1 <1>   0.0800 
 49 H       -0.0320     8.3630    -0.1090 H     1 <1>   0.0800 
 50 H        0.1060     9.5080    -1.4170 H     1 <1>   0.0800 
 51 H        5.4530    10.1620     0.8390 H     1 <1>   0.1500 
 52 H        3.6910    11.4430     1.9810 H     1 <1>   0.1500 
@<TRIPOS>BOND
  1   1   2  2   
  2   2   3  am  
  3   2   4  1   
  4   3   5  1   
  5   3  28  1   
  6   4   6  1   
  7   4  29  1   
  8   4  30  1   
  9   5   7  1   
 10   5   8  1   
 11   5  31  1   
 12   6   8  1   
 13   7   9  ar  
 14   7  10  ar  
 15   8  11  1   
 16   8  32  1   
 17   9  12  ar  
 18   9  33  1   
 19  10  13  ar  
 20  10  34  1   
 21  11  14  2   
 22  11  15  am  
 23  12  16  ar  
 24  13  16  ar  
 25  13  35  1   
 26  15  17  1   
 27  15  18  1   
 28  16  36  1   
 29  17  19  1   
 30  17  37  1   
 31  17  38  1   
 32  18  20  1   
 33  18  39  1   
 34  18  40  1   
 35  19  21  ar  
 36  19  22  ar  
 37  20  23  1   
 38  20  41  1   
 39  20  42  1   
 40  21  24  ar  
 41  21  25  1   
 42  22  26  ar  
 43  22  43  1   
 44  23  44  1   
 45  23  45  1   
 46  23  46  1   
 47  24  27  ar  
 48  24  47  1   
 49  25  48  1   
 50  25  49  1   
 51  25  50  1   
 52  26  27  ar  
 53  26  51  1   
 54  27  52  1   
@<TRIPOS>SUBSTRUCTURE
  1 ****  11 GROUP 4 **** **** 0

# MOE 2024.06 (io_trps.svl 2023.06)
