@<TRIPOS>MOLECULE
NONAME
38 39 1 0 0 
SMALL
USER_CHARGES


@<TRIPOS>ATOM
  1 F       -1.0430    -2.5850    -2.3920 F     1 <1>  -0.1900 
  2 C       -1.8240    -2.2310    -1.4010 C.ar  1 <1>   0.1900 
  3 C       -2.3010    -3.1670    -0.4760 C.ar  1 <1>   0.0820 
  4 C       -2.1580    -0.8920    -1.3370 C.ar  1 <1>  -0.1500 
  5 O       -1.9900    -4.4990    -0.4760 O.3   1 <1>  -0.3630 
  6 C       -3.1600    -2.7120     0.5260 C.ar  1 <1>  -0.1440 
  7 C       -2.9990    -0.4570    -0.3280 C.ar  1 <1>  -0.1500 
  8 C       -0.7830    -4.9880    -1.0230 C.3   1 <1>   0.0400 
  9 C       -3.4950    -1.3640     0.5930 C.ar  1 <1>  -0.1500 
 10 C       -3.7330    -3.6740     1.5580 C.3   1 <1>   0.2540 
 11 N       -4.8140    -4.4640     0.9520 N.3   1 <1>  -0.8100 
 12 C       -4.9790    -5.8040     1.5590 C.3   1 <1>   0.2900 
 13 C       -6.0810    -3.7280     0.7830 C.3   1 <1>   0.1100 
 14 C       -4.8360    -6.8610     0.4790 C.2   1 <1>   0.0060 
 15 C       -6.9550    -4.3680    -0.3030 C.3   1 <1>   0.1200 
 16 N       -5.4230    -8.0160     0.4730 N.2   1 <1>  -0.5650 
 17 N       -4.0520    -6.6460    -0.5970 N.pl3 1 <1>   0.0330 
 18 O       -8.1660    -3.6900    -0.3720 O.3   1 <1>  -0.6800 
 19 C       -4.9940    -8.5840    -0.6720 C.2   1 <1>   0.0770 
 20 C       -4.1560    -7.7610    -1.3400 C.2   1 <1>  -0.3020 
 21 H       -1.7690    -0.2050    -2.0660 H     1 <1>   0.1500 
 22 H       -3.2700     0.5830    -0.2630 H     1 <1>   0.1500 
 23 H       -0.6280    -5.9850    -0.6540 H     1 <1>   0.0800 
 24 H        0.0280    -4.3520    -0.7130 H     1 <1>   0.0800 
 25 H       -0.8670    -5.0080    -2.0950 H     1 <1>   0.0800 
 26 H       -4.1540    -1.0120     1.3680 H     1 <1>   0.1500 
 27 H       -4.1020    -3.1440     2.4200 H     1 <1>   0.0800 
 28 H       -2.9380    -4.3230     1.8840 H     1 <1>   0.0800 
 29 H       -5.9430    -5.9000     2.0290 H     1 <1>   0.0800 
 30 H       -4.2280    -5.9850     2.3070 H     1 <1>   0.0800 
 31 H       -5.8720    -2.7190     0.4740 H     1 <1>   0.0800 
 32 H       -6.6100    -3.6990     1.7190 H     1 <1>   0.0800 
 33 H       -7.1620    -5.4030    -0.0940 H     1 <1>   0.0800 
 34 H       -6.4720    -4.2840    -1.2610 H     1 <1>   0.0800 
 35 H       -3.5270    -5.7740    -0.7610 H     1 <1>   0.2700 
 36 H       -8.7340    -3.9260     0.3860 H     1 <1>   0.4000 
 37 H       -5.3180    -9.5700    -0.9600 H     1 <1>   0.1500 
 38 H       -3.6440    -7.9000    -2.2740 H     1 <1>   0.1500 
@<TRIPOS>BOND
  1   1   2  1   
  2   2   3  ar  
  3   2   4  ar  
  4   3   5  1   
  5   3   6  ar  
  6   4   7  ar  
  7   4  21  1   
  8   5   8  1   
  9   6   9  ar  
 10   6  10  1   
 11   7   9  ar  
 12   7  22  1   
 13   8  23  1   
 14   8  24  1   
 15   8  25  1   
 16   9  26  1   
 17  10  11  1   
 18  10  27  1   
 19  10  28  1   
 20  11  12  1   
 21  11  13  1   
 22  12  14  1   
 23  12  29  1   
 24  12  30  1   
 25  13  15  1   
 26  13  31  1   
 27  13  32  1   
 28  14  16  2   
 29  14  17  1   
 30  15  18  1   
 31  15  33  1   
 32  15  34  1   
 33  16  19  1   
 34  17  20  1   
 35  17  35  1   
 36  18  36  1   
 37  19  20  2   
 38  19  37  1   
 39  20  38  1   
@<TRIPOS>SUBSTRUCTURE
  1 ****  11 GROUP 4 **** **** 0

# MOE 2024.06 (io_trps.svl 2023.06)
