@<TRIPOS>MOLECULE
NONAME
45 46 1 0 0 
SMALL
USER_CHARGES


@<TRIPOS>ATOM
  1 O        1.8150    -0.5400     1.9070 O.2   1 <1>  -0.5700 
  2 C        1.8190    -0.8400     0.7380 C.2   1 <1>   0.5690 
  3 N        2.1910     0.0200    -0.2530 N.am  1 <1>  -0.4940 
  4 C        1.3510    -2.2160     0.3340 C.3   1 <1>  -0.0990 
  5 C        2.2380     1.4250    -0.1660 C.2   1 <1>  -0.0880 
  6 C       -0.1440    -2.1670     0.0360 C.3   1 <1>   0.1200 
  7 N        3.3420     2.2160    -0.0230 N.pl3 1 <1>   0.3140 
  8 C        1.1530     2.2440    -0.2430 C.2   1 <1>  -0.0540 
  9 O       -0.5100    -3.3910    -0.5080 O.3   1 <1>  -0.5600 
 10 N        2.9770     3.5310    -0.0410 N.2   1 <1>  -0.7070 
 11 C        4.7910     1.7870     0.1330 C.3   1 <1>   0.2560 
 12 C       -0.2350     1.8840    -0.3710 C.ar  1 <1>   0.0540 
 13 C        1.6900     3.5260    -0.1630 C.2   1 <1>   0.1390 
 14 C       -1.8660    -3.4860    -0.8050 C.3   1 <1>   0.0400 
 15 C        5.2370     0.9570    -1.0840 C.3   1 <1>  -0.2400 
 16 C        4.9640     0.9620     1.4190 C.3   1 <1>  -0.2400 
 17 C        5.7260     3.0110     0.2330 C.3   1 <1>  -0.2400 
 18 C       -0.8980     1.2350     0.6660 C.ar  1 <1>  -0.1500 
 19 C       -0.9470     2.1610    -1.5340 C.ar  1 <1>  -0.1500 
 20 C       -2.2240     0.8650     0.5460 C.ar  1 <1>  -0.1500 
 21 C       -2.2750     1.7930    -1.6610 C.ar  1 <1>  -0.1500 
 22 C       -2.9160     1.1420    -0.6210 C.ar  1 <1>  -0.1500 
 23 H        2.1240    -0.3530    -1.2010 H     1 <1>   0.3700 
 24 H        1.5350    -2.9030     1.1390 H     1 <1>   0.0800 
 25 H        1.8900    -2.5420    -0.5350 H     1 <1>   0.0800 
 26 H       -0.3690    -1.3930    -0.6790 H     1 <1>   0.0800 
 27 H       -0.7030    -2.0000     0.9410 H     1 <1>   0.0800 
 28 H        1.0940     4.4230    -0.1950 H     1 <1>   0.1500 
 29 H       -2.0490    -4.4590    -1.2250 H     1 <1>   0.0800 
 30 H       -2.1290    -2.7260    -1.5200 H     1 <1>   0.0800 
 31 H       -2.4370    -3.3700     0.1010 H     1 <1>   0.0800 
 32 H        4.6940     0.0330    -1.1440 H     1 <1>   0.0800 
 33 H        6.2820     0.7170    -1.0080 H     1 <1>   0.0800 
 34 H        5.0830     1.5170    -1.9900 H     1 <1>   0.0800 
 35 H        4.4230     0.0360     1.3610 H     1 <1>   0.0800 
 36 H        4.6030     1.5180     2.2660 H     1 <1>   0.0800 
 37 H        6.0000     0.7280     1.5810 H     1 <1>   0.0800 
 38 H        5.6480     3.6170    -0.6530 H     1 <1>   0.0800 
 39 H        6.7500     2.7030     0.3420 H     1 <1>   0.0800 
 40 H        5.4630     3.6130     1.0850 H     1 <1>   0.0800 
 41 H       -0.3580     1.0230     1.5740 H     1 <1>   0.1500 
 42 H       -0.4510     2.6660    -2.3430 H     1 <1>   0.1500 
 43 H       -2.7190     0.3650     1.3610 H     1 <1>   0.1500 
 44 H       -2.8110     2.0140    -2.5680 H     1 <1>   0.1500 
 45 H       -3.9490     0.8580    -0.7170 H     1 <1>   0.1500 
@<TRIPOS>BOND
  1   1   2  2   
  2   2   3  am  
  3   2   4  1   
  4   3   5  1   
  5   3  23  1   
  6   4   6  1   
  7   4  24  1   
  8   4  25  1   
  9   5   7  1   
 10   5   8  2   
 11   6   9  1   
 12   6  26  1   
 13   6  27  1   
 14   7  10  1   
 15   7  11  1   
 16   8  12  1   
 17   8  13  1   
 18   9  14  1   
 19  10  13  2   
 20  11  15  1   
 21  11  16  1   
 22  11  17  1   
 23  12  18  ar  
 24  12  19  ar  
 25  13  28  1   
 26  14  29  1   
 27  14  30  1   
 28  14  31  1   
 29  15  32  1   
 30  15  33  1   
 31  15  34  1   
 32  16  35  1   
 33  16  36  1   
 34  16  37  1   
 35  17  38  1   
 36  17  39  1   
 37  17  40  1   
 38  18  20  ar  
 39  18  41  1   
 40  19  21  ar  
 41  19  42  1   
 42  20  22  ar  
 43  20  43  1   
 44  21  22  ar  
 45  21  44  1   
 46  22  45  1   
@<TRIPOS>SUBSTRUCTURE
  1 ****   3 GROUP 4 **** **** 0

# MOE 2024.06 (io_trps.svl 2023.06)
