@<TRIPOS>MOLECULE
NONAME
49 51 1 0 0 
SMALL
USER_CHARGES


@<TRIPOS>ATOM
  1 O        1.2460    -1.8080     2.5270 O.2   1 <1>  -0.5700 
  2 C        1.5120    -1.9250     1.3460 C.2   1 <1>   0.5440 
  3 N        1.6980    -0.7890     0.5920 N.am  1 <1>  -0.6600 
  4 C        1.6140    -3.2480     0.7630 C.ar  1 <1>   0.0860 
  5 C        1.6120     0.5660     1.1830 C.3   1 <1>   0.1400 
  6 C        1.6070    -0.7260    -0.8840 C.3   1 <1>   0.1400 
  7 C        0.6550    -4.2200     0.9730 C.ar  1 <1>  -0.1500 
  8 C        2.6800    -3.6400    -0.0360 C.ar  1 <1>  -0.1500 
  9 C        1.6690     1.5190    -0.0060 C.3   1 <1>  -0.1600 
 10 C        1.1530     0.6970    -1.1840 C.3   1 <1>  -0.1600 
 11 C        0.7650    -5.4740     0.3900 C.ar  1 <1>   0.4100 
 12 C        2.7110    -4.9110    -0.5730 C.ar  1 <1>   0.1600 
 13 N        1.7800    -5.8280    -0.3870 N.ar  1 <1>  -0.6200 
 14 N       -0.2160    -6.4060     0.6240 N.pl3 1 <1>  -0.8690 
 15 C       -0.4830    -7.5210    -0.2940 C.3   1 <1>   0.4330 
 16 C       -2.0010    -7.6540    -0.4730 C.ar  1 <1>  -0.1430 
 17 C        0.1990    -8.7860     0.2200 C.3   1 <1>  -0.2400 
 18 C       -2.9140    -7.9750     0.5370 C.ar  1 <1>  -0.1430 
 19 C       -2.4860    -7.4230    -1.7550 C.ar  1 <1>  -0.1500 
 20 C       -4.2660    -8.0600     0.2330 C.ar  1 <1>  -0.1500 
 21 C       -2.5280    -8.2580     1.9850 C.3   1 <1>  -0.0970 
 22 C       -3.8350    -7.5070    -2.0430 C.ar  1 <1>  -0.1500 
 23 C       -4.7360    -7.8270    -1.0460 C.ar  1 <1>  -0.1430 
 24 C       -6.2190    -7.9260    -1.3490 C.3   1 <1>  -0.0970 
 25 H        2.4240     0.7330     1.8700 H     1 <1>   0.0800 
 26 H        0.6740     0.6640     1.7040 H     1 <1>   0.0800 
 27 H        0.9070    -1.4510    -1.2660 H     1 <1>   0.0800 
 28 H        2.5820    -0.9000    -1.3050 H     1 <1>   0.0800 
 29 H       -0.1870    -4.0020     1.6020 H     1 <1>   0.1500 
 30 H        3.4820    -2.9520    -0.2280 H     1 <1>   0.1500 
 31 H        2.6930     1.8020    -0.1760 H     1 <1>   0.0800 
 32 H        1.0840     2.4050     0.1660 H     1 <1>   0.0800 
 33 H        0.0780     0.7240    -1.2040 H     1 <1>   0.0800 
 34 H        1.5310     1.0490    -2.1270 H     1 <1>   0.0800 
 35 H        3.5480    -5.1930    -1.1890 H     1 <1>   0.1500 
 36 H       -1.1030    -6.0310     0.9610 H     1 <1>   0.4000 
 37 H       -0.0500    -7.2920    -1.2530 H     1 <1>   0.0800 
 38 H       -0.0550    -8.9850     1.2410 H     1 <1>   0.0800 
 39 H        1.2640    -8.6650     0.1500 H     1 <1>   0.0800 
 40 H       -0.0920    -9.6230    -0.3860 H     1 <1>   0.0800 
 41 H       -1.8100    -7.1680    -2.5530 H     1 <1>   0.1500 
 42 H       -4.9710    -8.3140     1.0050 H     1 <1>   0.1500 
 43 H       -1.7190    -7.6360     2.3150 H     1 <1>   0.0800 
 44 H       -2.2400    -9.2890     2.0870 H     1 <1>   0.0800 
 45 H       -3.3590    -8.0760     2.6420 H     1 <1>   0.0800 
 46 H       -4.1780    -7.3250    -3.0460 H     1 <1>   0.1500 
 47 H       -6.7960    -7.5770    -0.5110 H     1 <1>   0.0800 
 48 H       -6.4810    -8.9490    -1.5500 H     1 <1>   0.0800 
 49 H       -6.4710    -7.3280    -2.2060 H     1 <1>   0.0800 
@<TRIPOS>BOND
  1   1   2  2   
  2   2   3  am  
  3   2   4  1   
  4   3   5  1   
  5   3   6  1   
  6   4   7  ar  
  7   4   8  ar  
  8   5   9  1   
  9   5  25  1   
 10   5  26  1   
 11   6  10  1   
 12   6  27  1   
 13   6  28  1   
 14   7  11  ar  
 15   7  29  1   
 16   8  12  ar  
 17   8  30  1   
 18   9  10  1   
 19   9  31  1   
 20   9  32  1   
 21  10  33  1   
 22  10  34  1   
 23  11  13  ar  
 24  11  14  1   
 25  12  13  ar  
 26  12  35  1   
 27  14  15  1   
 28  14  36  1   
 29  15  16  1   
 30  15  17  1   
 31  15  37  1   
 32  16  18  ar  
 33  16  19  ar  
 34  17  38  1   
 35  17  39  1   
 36  17  40  1   
 37  18  20  ar  
 38  18  21  1   
 39  19  22  ar  
 40  19  41  1   
 41  20  23  ar  
 42  20  42  1   
 43  21  43  1   
 44  21  44  1   
 45  21  45  1   
 46  22  23  ar  
 47  22  46  1   
 48  23  24  1   
 49  24  47  1   
 50  24  48  1   
 51  24  49  1   
@<TRIPOS>SUBSTRUCTURE
  1 ****  11 GROUP 4 **** **** 0

# MOE 2024.06 (io_trps.svl 2023.06)
