@<TRIPOS>MOLECULE
NONAME
41 43 1 0 0 
SMALL
USER_CHARGES


@<TRIPOS>ATOM
  1 O       -0.2570    -0.4300    -0.8640 O.3   1 <1>  -0.5600 
  2 C       -0.1620    -1.5590    -0.0380 C.3   1 <1>   0.2800 
  3 C       -1.0470     0.6530    -0.4590 C.3   1 <1>   0.1200 
  4 C       -1.5070    -1.8470     0.6810 C.3   1 <1>  -0.1600 
  5 C        0.9590    -1.2970     0.9910 C.3   1 <1>  -0.1600 
  6 C        0.2240    -2.7070    -0.9990 C.3   1 <1>  -0.1600 
  7 C       -2.5270     0.2670    -0.2590 C.3   1 <1>   0.2000 
  8 C       -2.7380    -1.2570    -0.0220 C.3   1 <1>   0.2800 
  9 C        2.3320    -1.6600     0.4350 C.3   1 <1>   0.2090 
 10 C        1.1290    -3.7560    -0.3520 C.3   1 <1>   0.2090 
 11 O       -3.0020     1.0220     0.8200 O.3   1 <1>  -0.6800 
 12 O       -2.8860    -1.8790    -1.2470 O.3   1 <1>  -0.6800 
 13 C       -4.0260    -1.5980     0.7400 C.3   1 <1>  -0.2400 
 14 N        2.3740    -3.1320     0.1830 N.pl3 1 <1>  -0.8380 
 15 C        3.6040    -3.7510    -0.0280 C.ar  1 <1>   0.4100 
 16 N        4.6200    -2.9690    -0.3790 N.ar  1 <1>  -0.6200 
 17 C        3.7600    -5.1420     0.1240 C.ar  1 <1>   0.1600 
 18 C        5.7410    -3.6410    -0.5740 C.ar  1 <1>   0.1600 
 19 N        4.8780    -5.8180    -0.0730 N.ar  1 <1>  -0.6200 
 20 C        5.8690    -5.0150    -0.4290 C.ar  1 <1>   0.1600 
 21 H       -0.6250     1.0500     0.4460 H     1 <1>   0.0800 
 22 H       -0.9750     1.4020    -1.2280 H     1 <1>   0.0800 
 23 H       -1.6280    -2.9030     0.8330 H     1 <1>   0.0800 
 24 H       -1.4670    -1.4120     1.6630 H     1 <1>   0.0800 
 25 H        0.9580    -0.2700     1.3030 H     1 <1>   0.0800 
 26 H        0.8070    -1.9000     1.8690 H     1 <1>   0.0800 
 27 H       -0.6530    -3.1900    -1.3830 H     1 <1>   0.0800 
 28 H        0.7570    -2.3070    -1.8440 H     1 <1>   0.0800 
 29 H       -3.0990     0.5720    -1.1180 H     1 <1>   0.0800 
 30 H        3.0980    -1.3970     1.1450 H     1 <1>   0.0800 
 31 H        2.5190    -1.1280    -0.4830 H     1 <1>   0.0800 
 32 H        1.3810    -4.5020    -1.0870 H     1 <1>   0.0800 
 33 H        0.6060    -4.2390     0.4560 H     1 <1>   0.0800 
 34 H       -2.5480     0.7630     1.6420 H     1 <1>   0.4000 
 35 H       -3.1240    -2.8130    -1.1170 H     1 <1>   0.4000 
 36 H       -3.9890    -1.2070     1.7410 H     1 <1>   0.0800 
 37 H       -4.1680    -2.6610     0.8060 H     1 <1>   0.0800 
 38 H       -4.8730    -1.1550     0.2440 H     1 <1>   0.0800 
 39 H        2.8990    -5.7030     0.4320 H     1 <1>   0.1500 
 40 H        6.6050    -3.0710    -0.8650 H     1 <1>   0.1500 
 41 H        6.8250    -5.4700    -0.6130 H     1 <1>   0.1500 
@<TRIPOS>BOND
  1   1   2  1   
  2   1   3  1   
  3   2   4  1   
  4   2   5  1   
  5   2   6  1   
  6   3   7  1   
  7   3  21  1   
  8   3  22  1   
  9   4   8  1   
 10   4  23  1   
 11   4  24  1   
 12   5   9  1   
 13   5  25  1   
 14   5  26  1   
 15   6  10  1   
 16   6  27  1   
 17   6  28  1   
 18   7   8  1   
 19   7  11  1   
 20   7  29  1   
 21   8  12  1   
 22   8  13  1   
 23   9  14  1   
 24   9  30  1   
 25   9  31  1   
 26  10  14  1   
 27  10  32  1   
 28  10  33  1   
 29  11  34  1   
 30  12  35  1   
 31  13  36  1   
 32  13  37  1   
 33  13  38  1   
 34  14  15  1   
 35  15  16  ar  
 36  15  17  ar  
 37  16  18  ar  
 38  17  19  ar  
 39  17  39  1   
 40  18  20  ar  
 41  18  40  1   
 42  19  20  ar  
 43  20  41  1   
@<TRIPOS>SUBSTRUCTURE
  1 ****   6 GROUP 4 **** **** 0

# MOE 2024.06 (io_trps.svl 2023.06)
