@<TRIPOS>MOLECULE
NONAME
54 57 1 0 0 
SMALL
USER_CHARGES


@<TRIPOS>ATOM
  1 F        0.1900    -0.1610     0.4060 F     1 <1>  -0.1900 
  2 C        1.0750    -0.8970     1.0240 C.ar  1 <1>   0.1900 
  3 C        1.2710    -2.2250     0.6330 C.ar  1 <1>   0.0530 
  4 C        1.7710    -0.2990     2.0580 C.ar  1 <1>  -0.1500 
  5 C        0.5500    -2.8580    -0.4520 C.2   1 <1>   0.0870 
  6 C        2.2260    -2.9370     1.3610 C.ar  1 <1>  -0.1500 
  7 C        2.7110    -1.0370     2.7530 C.ar  1 <1>  -0.1500 
  8 O        0.4920    -4.1830    -0.5160 O.3   1 <1>  -0.2800 
  9 C       -0.1360    -2.3510    -1.5130 C.2   1 <1>  -0.1500 
 10 C        2.9340    -2.3580     2.4010 C.ar  1 <1>  -0.1500 
 11 C       -0.2140    -4.5350    -1.5710 C.2   1 <1>  -0.0400 
 12 C       -0.6310    -3.4370    -2.2360 C.2   1 <1>  -0.1500 
 13 C       -0.4410    -6.0100    -1.8650 C.3   1 <1>   0.2900 
 14 N       -1.2470    -6.6640    -0.8090 N.3   1 <1>  -0.8100 
 15 C       -1.2740    -8.1230    -0.9590 C.3   1 <1>   0.1100 
 16 C       -2.5950    -6.0780    -0.7060 C.3   1 <1>   0.1100 
 17 C       -1.9930    -8.7730     0.2490 C.3   1 <1>   0.4230 
 18 C       -3.3190    -6.6730     0.5050 C.3   1 <1>  -0.1600 
 19 N       -1.9080   -10.2940     0.2750 N.4   1 <1>  -0.9590 
 20 C       -3.4320    -8.2190     0.4500 C.3   1 <1>   0.0000 
 21 C       -2.9100   -10.9450     1.1810 C.3   1 <1>   0.3430 
 22 C       -1.9280   -10.9620    -1.0680 C.3   1 <1>   0.2630 
 23 C       -3.9980    -8.7310     1.8080 C.3   1 <1>  -0.1600 
 24 C       -4.3510    -8.6580    -0.7250 C.3   1 <1>   0.1200 
 25 C       -3.3100   -10.0110     2.3220 C.3   1 <1>  -0.1600 
 26 O       -5.5740    -8.0090    -0.6930 O.3   1 <1>  -0.6800 
 27 H        1.5770     0.7280     2.3120 H     1 <1>   0.1500 
 28 H        2.4170    -3.9650     1.1060 H     1 <1>   0.1500 
 29 H        3.2640    -0.5910     3.5610 H     1 <1>   0.1500 
 30 H       -0.2870    -1.3200    -1.7740 H     1 <1>   0.1500 
 31 H        3.6640    -2.9380     2.9400 H     1 <1>   0.1500 
 32 H       -1.2220    -3.3720    -3.1320 H     1 <1>   0.1500 
 33 H        0.5220    -6.4840    -1.9290 H     1 <1>   0.0800 
 34 H       -0.9350    -6.1120    -2.8160 H     1 <1>   0.0800 
 35 H       -1.7610    -8.3730    -1.8840 H     1 <1>   0.0800 
 36 H       -0.2590    -8.4800    -0.9890 H     1 <1>   0.0800 
 37 H       -2.5210    -5.0130    -0.5630 H     1 <1>   0.0800 
 38 H       -3.1540    -6.2540    -1.6100 H     1 <1>   0.0800 
 39 H       -1.4430    -8.4270     1.1090 H     1 <1>   0.0800 
 40 H       -2.7690    -6.3710     1.3800 H     1 <1>   0.0800 
 41 H       -4.2920    -6.2200     0.5820 H     1 <1>   0.0800 
 42 H       -0.9850   -10.4880     0.6910 H     1 <1>   0.4500 
 43 H       -3.7970   -11.1970     0.6220 H     1 <1>   0.0800 
 44 H       -2.5020   -11.8590     1.5820 H     1 <1>   0.0800 
 45 H       -2.8560   -10.7610    -1.5760 H     1 <1>   0.0800 
 46 H       -1.8230   -12.0290    -0.9550 H     1 <1>   0.0800 
 47 H       -1.1150   -10.6070    -1.6800 H     1 <1>   0.0800 
 48 H       -3.8870    -7.9790     2.5720 H     1 <1>   0.0800 
 49 H       -5.0550    -8.9140     1.7220 H     1 <1>   0.0800 
 50 H       -4.5500    -9.7130    -0.6950 H     1 <1>   0.0800 
 51 H       -3.9100    -8.4220    -1.6770 H     1 <1>   0.0800 
 52 H       -3.9810   -10.5290     2.9860 H     1 <1>   0.0800 
 53 H       -2.4340    -9.7580     2.8940 H     1 <1>   0.0800 
 54 H       -6.0410    -8.1430     0.1550 H     1 <1>   0.4000 
@<TRIPOS>BOND
  1   1   2  1   
  2   2   3  ar  
  3   2   4  ar  
  4   3   5  1   
  5   3   6  ar  
  6   4   7  ar  
  7   4  27  1   
  8   5   8  1   
  9   5   9  2   
 10   6  10  ar  
 11   6  28  1   
 12   7  10  ar  
 13   7  29  1   
 14   8  11  1   
 15   9  12  1   
 16   9  30  1   
 17  10  31  1   
 18  11  12  2   
 19  11  13  1   
 20  12  32  1   
 21  13  14  1   
 22  13  33  1   
 23  13  34  1   
 24  14  15  1   
 25  14  16  1   
 26  15  17  1   
 27  15  35  1   
 28  15  36  1   
 29  16  18  1   
 30  16  37  1   
 31  16  38  1   
 32  17  19  1   
 33  17  20  1   
 34  17  39  1   
 35  18  20  1   
 36  18  40  1   
 37  18  41  1   
 38  19  21  1   
 39  19  22  1   
 40  19  42  1   
 41  20  23  1   
 42  20  24  1   
 43  21  25  1   
 44  21  43  1   
 45  21  44  1   
 46  22  45  1   
 47  22  46  1   
 48  22  47  1   
 49  23  25  1   
 50  23  48  1   
 51  23  49  1   
 52  24  26  1   
 53  24  50  1   
 54  24  51  1   
 55  25  52  1   
 56  25  53  1   
 57  26  54  1   
@<TRIPOS>SUBSTRUCTURE
  1 ****  14 GROUP 4 **** **** 0

# MOE 2024.06 (io_trps.svl 2023.06)
