@<TRIPOS>MOLECULE
NONAME
49 49 1 0 0 
SMALL
USER_CHARGES


@<TRIPOS>ATOM
  1 O        0.0220     1.6360    -0.5690 O.3   1 <1>  -0.6800 
  2 C       -0.0580     2.2450     0.6560 C.3   1 <1>   0.2800 
  3 C        0.2570     3.7440     0.4790 C.3   1 <1>  -0.1600 
  4 C       -1.4880     2.0430     1.1530 C.3   1 <1>  -0.2400 
  5 C        0.9330     1.5260     1.5690 C.3   1 <1>  -0.2400 
  6 C        1.6210     4.0570    -0.1690 C.3   1 <1>  -0.1600 
  7 C        1.8120     5.5720    -0.3500 C.3   1 <1>  -0.1600 
  8 C        3.1850     5.9370    -0.9270 C.3   1 <1>   0.2890 
  9 N        3.3130     7.4010    -0.8870 N.pl3 1 <1>  -0.8690 
 10 C        3.3540     5.5090    -2.3810 C.3   1 <1>  -0.2400 
 11 C        4.2150     8.2280    -0.3540 C.ar  1 <1>   0.7710 
 12 N        3.9780     9.5120    -0.4980 N.ar  1 <1>  -0.6200 
 13 N        5.2930     7.7500     0.2850 N.ar  1 <1>  -0.1790 
 14 C        4.8560    10.3640     0.0010 C.ar  1 <1>   0.4100 
 15 C        6.1980     8.5880     0.8440 C.ar  1 <1>   0.2110 
 16 N        4.6010    11.6800    -0.2130 N.pl3 1 <1>  -0.8380 
 17 C        5.9980     9.9250     0.7220 C.ar  1 <1>  -0.1440 
 18 C        5.5580    12.5820    -0.9110 C.3   1 <1>   0.1290 
 19 C        3.2150    12.2250    -0.1260 C.3   1 <1>   0.1290 
 20 C        6.9620    10.9090     1.3820 C.3   1 <1>  -0.0970 
 21 H       -0.6750     1.9870    -1.1510 H     1 <1>   0.4000 
 22 H        0.2170     4.2100     1.4470 H     1 <1>   0.0800 
 23 H       -0.5220     4.1900    -0.1150 H     1 <1>   0.0800 
 24 H       -2.1950     2.5150     0.4950 H     1 <1>   0.0800 
 25 H       -1.5990     2.4730     2.1310 H     1 <1>   0.0800 
 26 H       -1.7150     0.9940     1.2210 H     1 <1>   0.0800 
 27 H        1.9230     1.5460     1.1540 H     1 <1>   0.0800 
 28 H        0.6410     0.4990     1.6970 H     1 <1>   0.0800 
 29 H        0.9540     1.9940     2.5360 H     1 <1>   0.0800 
 30 H        1.6750     3.5650    -1.1240 H     1 <1>   0.0800 
 31 H        2.4100     3.6700     0.4500 H     1 <1>   0.0800 
 32 H        1.7040     6.0440     0.6120 H     1 <1>   0.0800 
 33 H        1.0380     5.9510    -0.9960 H     1 <1>   0.0800 
 34 H        3.9510     5.4750    -0.3280 H     1 <1>   0.0800 
 35 H        2.5510     7.8870    -1.3720 H     1 <1>   0.4000 
 36 H        2.5580     5.9020    -2.9890 H     1 <1>   0.0800 
 37 H        3.3410     4.4380    -2.4620 H     1 <1>   0.0800 
 38 H        4.2950     5.8560    -2.7690 H     1 <1>   0.0800 
 39 H        5.3760     6.7420     0.3270 H     1 <1>   0.4570 
 40 H        7.0390     8.1700     1.3720 H     1 <1>   0.1500 
 41 H        6.4170    12.0310    -1.2500 H     1 <1>   0.0800 
 42 H        5.8760    13.3640    -0.2430 H     1 <1>   0.0800 
 43 H        5.0830    13.0270    -1.7690 H     1 <1>   0.0800 
 44 H        2.5910    11.5700     0.4580 H     1 <1>   0.0800 
 45 H        2.7950    12.3140    -1.1130 H     1 <1>   0.0800 
 46 H        3.2290    13.1930     0.3430 H     1 <1>   0.0800 
 47 H        6.4100    11.6850     1.8840 H     1 <1>   0.0800 
 48 H        7.6010    11.3630     0.6450 H     1 <1>   0.0800 
 49 H        7.5840    10.4200     2.1110 H     1 <1>   0.0800 
@<TRIPOS>BOND
  1   1   2  1   
  2   1  21  1   
  3   2   3  1   
  4   2   4  1   
  5   2   5  1   
  6   3   6  1   
  7   3  22  1   
  8   3  23  1   
  9   4  24  1   
 10   4  25  1   
 11   4  26  1   
 12   5  27  1   
 13   5  28  1   
 14   5  29  1   
 15   6   7  1   
 16   6  30  1   
 17   6  31  1   
 18   7   8  1   
 19   7  32  1   
 20   7  33  1   
 21   8   9  1   
 22   8  10  1   
 23   8  34  1   
 24   9  11  1   
 25   9  35  1   
 26  10  36  1   
 27  10  37  1   
 28  10  38  1   
 29  11  12  ar  
 30  11  13  ar  
 31  12  14  ar  
 32  13  15  ar  
 33  13  39  1   
 34  14  16  1   
 35  14  17  ar  
 36  15  17  ar  
 37  15  40  1   
 38  16  18  1   
 39  16  19  1   
 40  17  20  1   
 41  18  41  1   
 42  18  42  1   
 43  18  43  1   
 44  19  44  1   
 45  19  45  1   
 46  19  46  1   
 47  20  47  1   
 48  20  48  1   
 49  20  49  1   
@<TRIPOS>SUBSTRUCTURE
  1 ****   9 GROUP 4 **** **** 0

# MOE 2024.06 (io_trps.svl 2023.06)
