@<TRIPOS>MOLECULE
NONAME
51 53 1 0 0 
SMALL
USER_CHARGES


@<TRIPOS>ATOM
  1 O       -0.1810    -0.1480     1.1160 O.2   1 <1>  -0.5700 
  2 C        0.8270    -0.6080     0.6410 C.2   1 <1>   0.5690 
  3 N        1.8690     0.1430     0.1730 N.am  1 <1>  -0.4940 
  4 C        0.9430    -2.1160     0.5570 C.3   1 <1>  -0.0990 
  5 C        2.0770     1.5450     0.1160 C.2   1 <1>  -0.0880 
  6 C       -0.1170    -2.7000    -0.3900 C.3   1 <1>  -0.0220 
  7 N        1.1470     2.5380     0.0040 N.pl3 1 <1>   0.3140 
  8 C        3.2850     2.1610     0.1440 C.2   1 <1>  -0.1810 
  9 C        0.0010    -4.2260    -0.4710 C.2   1 <1>  -0.1240 
 10 N        1.7320     3.7540    -0.0380 N.2   1 <1>  -0.7070 
 11 C       -0.3090     2.4420    -0.1530 C.3   1 <1>   0.0160 
 12 C        3.0020     3.5220     0.0520 C.2   1 <1>   0.1080 
 13 C        4.6620     1.5270     0.2590 C.3   1 <1>   0.0210 
 14 C        0.7960    -4.8270    -1.5100 C.2   1 <1>   0.3750 
 15 C       -0.6350    -5.0380     0.4310 C.2   1 <1>  -0.1690 
 16 C        4.0170     4.6520     0.0490 C.3   1 <1>   0.0210 
 17 C        5.0510     1.3650     1.7290 C.3   1 <1>  -0.2400 
 18 N        0.9440    -6.1020    -1.6450 N.2   1 <1>  -0.5760 
 19 C        1.5250    -3.9740    -2.5340 C.3   1 <1>  -0.1790 
 20 N       -0.4750    -6.4080     0.2630 N.pl3 1 <1>   0.6010 
 21 C       -1.5040    -4.6060     1.6150 C.3   1 <1>  -0.1020 
 22 C        4.4880     4.9690    -1.3740 C.3   1 <1>  -0.2400 
 23 C        0.2960    -6.9000    -0.7430 C.2   1 <1>   0.3120 
 24 N       -0.9620    -7.4290     0.9650 N.2   1 <1>  -0.7070 
 25 N        0.3200    -8.1950    -0.7140 N.2   1 <1>  -0.5650 
 26 C       -0.4570    -8.4460     0.3370 C.2   1 <1>   0.3660 
 27 H        2.6970    -0.3890    -0.0850 H     1 <1>   0.3700 
 28 H        0.8030    -2.5170     1.5440 H     1 <1>   0.0800 
 29 H        1.9260    -2.3940     0.2260 H     1 <1>   0.0800 
 30 H       -0.0270    -2.2480    -1.3600 H     1 <1>   0.0800 
 31 H       -1.0970    -2.4250    -0.0410 H     1 <1>   0.0800 
 32 H       -0.5480     1.6030    -0.7760 H     1 <1>   0.0800 
 33 H       -0.6750     3.3440    -0.6070 H     1 <1>   0.0800 
 34 H       -0.7570     2.3220     0.8160 H     1 <1>   0.0800 
 35 H        5.3890     2.1380    -0.2450 H     1 <1>   0.0800 
 36 H        4.6600     0.5660    -0.2220 H     1 <1>   0.0800 
 37 H        4.8560     4.3880     0.6650 H     1 <1>   0.0800 
 38 H        3.5570     5.5250     0.4760 H     1 <1>   0.0800 
 39 H        5.0720     2.3240     2.2140 H     1 <1>   0.0800 
 40 H        6.0240     0.9140     1.8100 H     1 <1>   0.0800 
 41 H        4.3340     0.7430     2.2360 H     1 <1>   0.0800 
 42 H        2.1560    -3.2540    -2.0490 H     1 <1>   0.0800 
 43 H        0.8160    -3.4720    -3.1660 H     1 <1>   0.0800 
 44 H        2.1450    -4.5930    -3.1590 H     1 <1>   0.0800 
 45 H       -1.1470    -5.0740     2.5170 H     1 <1>   0.0800 
 46 H       -2.5190    -4.9250     1.4550 H     1 <1>   0.0800 
 47 H       -1.5030    -3.5460     1.7790 H     1 <1>   0.0800 
 48 H        4.9530     4.1060    -1.8160 H     1 <1>   0.0800 
 49 H        5.1930     5.7800    -1.3600 H     1 <1>   0.0800 
 50 H        3.6440     5.2520    -1.9790 H     1 <1>   0.0800 
 51 H       -0.6480    -9.4640     0.6400 H     1 <1>   0.1500 
@<TRIPOS>BOND
  1   1   2  2   
  2   2   3  am  
  3   2   4  1   
  4   3   5  1   
  5   3  27  1   
  6   4   6  1   
  7   4  28  1   
  8   4  29  1   
  9   5   7  1   
 10   5   8  2   
 11   6   9  1   
 12   6  30  1   
 13   6  31  1   
 14   7  10  1   
 15   7  11  1   
 16   8  12  1   
 17   8  13  1   
 18   9  14  1   
 19   9  15  2   
 20  10  12  2   
 21  11  32  1   
 22  11  33  1   
 23  11  34  1   
 24  12  16  1   
 25  13  17  1   
 26  13  35  1   
 27  13  36  1   
 28  14  18  2   
 29  14  19  1   
 30  15  20  1   
 31  15  21  1   
 32  16  22  1   
 33  16  37  1   
 34  16  38  1   
 35  17  39  1   
 36  17  40  1   
 37  17  41  1   
 38  18  23  1   
 39  19  42  1   
 40  19  43  1   
 41  19  44  1   
 42  20  23  1   
 43  20  24  1   
 44  21  45  1   
 45  21  46  1   
 46  21  47  1   
 47  22  48  1   
 48  22  49  1   
 49  22  50  1   
 50  23  25  2   
 51  24  26  2   
 52  25  26  1   
 53  26  51  1   
@<TRIPOS>SUBSTRUCTURE
  1 ****   4 GROUP 4 **** **** 0

# MOE 2024.06 (io_trps.svl 2023.06)
