@<TRIPOS>MOLECULE
NONAME
54 56 1 0 0 
SMALL
USER_CHARGES


@<TRIPOS>ATOM
  1 O        0.9130     0.1010    -0.6750 O.3   1 <1>  -0.2800 
  2 C        0.8700    -1.1950    -0.7730 C.2   1 <1>   0.4780 
  3 C        1.3630     0.5000    -1.8180 C.2   1 <1>   0.2980 
  4 N        1.2760    -1.5730    -1.9430 N.2   1 <1>  -0.3380 
  5 C        0.4180    -1.9850     0.3440 C.2   1 <1>  -0.1520 
  6 N        1.5930    -0.4700    -2.6150 N.2   1 <1>  -0.3380 
  7 C        1.5810     1.9860    -2.0870 C.3   1 <1>   0.2900 
  8 N        0.3630    -3.3600     0.3830 N.pl3 1 <1>   0.0480 
  9 C       -0.0290    -1.5210     1.5530 C.2   1 <1>  -0.1500 
 10 N        2.6380     2.5720    -1.2150 N.3   1 <1>  -0.8100 
 11 C       -0.1120    -3.7280     1.6070 C.2   1 <1>  -0.3320 
 12 C        0.7480    -4.2800    -0.7110 C.3   1 <1>   0.0160 
 13 C       -0.3610    -2.6140     2.3450 C.2   1 <1>  -0.1500 
 14 C        2.6560     4.0500    -1.2750 C.3   1 <1>   0.1100 
 15 C        3.9600     1.9890    -1.5020 C.3   1 <1>   0.1100 
 16 C       -0.3240    -5.1640     2.0550 C.3   1 <1>  -0.0600 
 17 C        3.2850     4.7130    -0.0270 C.3   1 <1>   0.3430 
 18 C        4.7000     1.7270    -0.1890 C.3   1 <1>  -0.1600 
 19 N        4.6120     4.1360     0.3880 N.4   1 <1>  -0.9590 
 20 C        4.4290     2.7530     0.9100 C.3   1 <1>   0.3430 
 21 C        5.3090     4.9870     1.3930 C.3   1 <1>   0.3430 
 22 C        5.8400     6.2920     0.7710 C.3   1 <1>  -0.0800 
 23 C        6.7340     6.0450    -0.4570 C.3   1 <1>  -0.2400 
 24 C        6.6340     7.0720     1.8260 C.3   1 <1>  -0.2400 
 25 H        0.6460     2.4860    -1.9090 H     1 <1>   0.0800 
 26 H        1.8440     2.1210    -3.1230 H     1 <1>   0.0800 
 27 H       -0.1180    -0.4930     1.8580 H     1 <1>   0.1500 
 28 H        1.7800    -4.1170    -0.9630 H     1 <1>   0.0800 
 29 H        0.1340    -4.0820    -1.5710 H     1 <1>   0.0800 
 30 H        0.6150    -5.3010    -0.4090 H     1 <1>   0.0800 
 31 H       -0.7420    -2.5600     3.3500 H     1 <1>   0.1500 
 32 H        1.6440     4.4140    -1.3450 H     1 <1>   0.0800 
 33 H        3.1690     4.3790    -2.1630 H     1 <1>   0.0800 
 34 H        4.5330     2.6480    -2.1330 H     1 <1>   0.0800 
 35 H        3.8720     1.0510    -2.0280 H     1 <1>   0.0800 
 36 H       -1.0320    -5.6540     1.4110 H     1 <1>   0.0800 
 37 H       -0.7070    -5.1860     3.0600 H     1 <1>   0.0800 
 38 H        0.6070    -5.7010     2.0340 H     1 <1>   0.0800 
 39 H        2.5900     4.6200     0.7900 H     1 <1>   0.0800 
 40 H        3.3970     5.7640    -0.2340 H     1 <1>   0.0800 
 41 H        5.7560     1.6590    -0.3790 H     1 <1>   0.0800 
 42 H        4.3900     0.7650     0.1790 H     1 <1>   0.0800 
 43 H        5.2130     4.0720    -0.4410 H     1 <1>   0.4500 
 44 H        5.0990     2.5670     1.7330 H     1 <1>   0.0800 
 45 H        3.4180     2.6290     1.2650 H     1 <1>   0.0800 
 46 H        6.1480     4.4430     1.7960 H     1 <1>   0.0800 
 47 H        4.6420     5.2170     2.2080 H     1 <1>   0.0800 
 48 H        5.0090     6.9110     0.4790 H     1 <1>   0.0800 
 49 H        7.5540     5.3920    -0.2090 H     1 <1>   0.0800 
 50 H        7.1460     6.9770    -0.8050 H     1 <1>   0.0800 
 51 H        6.1790     5.6170    -1.2710 H     1 <1>   0.0800 
 52 H        7.4980     6.5160     2.1500 H     1 <1>   0.0800 
 53 H        6.0220     7.2860     2.6850 H     1 <1>   0.0800 
 54 H        6.9730     8.0110     1.4220 H     1 <1>   0.0800 
@<TRIPOS>BOND
  1   1   2  1   
  2   1   3  1   
  3   2   4  2   
  4   2   5  1   
  5   3   6  2   
  6   3   7  1   
  7   4   6  1   
  8   5   8  1   
  9   5   9  2   
 10   7  10  1   
 11   7  25  1   
 12   7  26  1   
 13   8  11  1   
 14   8  12  1   
 15   9  13  1   
 16   9  27  1   
 17  10  14  1   
 18  10  15  1   
 19  11  13  2   
 20  11  16  1   
 21  12  28  1   
 22  12  29  1   
 23  12  30  1   
 24  13  31  1   
 25  14  17  1   
 26  14  32  1   
 27  14  33  1   
 28  15  18  1   
 29  15  34  1   
 30  15  35  1   
 31  16  36  1   
 32  16  37  1   
 33  16  38  1   
 34  17  19  1   
 35  17  39  1   
 36  17  40  1   
 37  18  20  1   
 38  18  41  1   
 39  18  42  1   
 40  19  20  1   
 41  19  21  1   
 42  19  43  1   
 43  20  44  1   
 44  20  45  1   
 45  21  22  1   
 46  21  46  1   
 47  21  47  1   
 48  22  23  1   
 49  22  24  1   
 50  22  48  1   
 51  23  49  1   
 52  23  50  1   
 53  23  51  1   
 54  24  52  1   
 55  24  53  1   
 56  24  54  1   
@<TRIPOS>SUBSTRUCTURE
  1 ****   1 GROUP 4 **** **** 0

# MOE 2024.06 (io_trps.svl 2023.06)
