@<TRIPOS>MOLECULE
NONAME
47 49 1 0 0 
SMALL
USER_CHARGES


@<TRIPOS>ATOM
  1 O       -2.2420    -0.1660     2.2900 O.2   1 <1>  -0.5700 
  2 C       -2.3230     0.3540     1.2050 C.2   1 <1>   0.5690 
  3 N       -2.4640    -0.3660     0.0500 N.am  1 <1>  -0.6600 
  4 C       -2.2170     1.8610     1.1590 C.3   1 <1>  -0.0990 
  5 C       -2.3870    -1.8670     0.1020 C.3   1 <1>   0.3640 
  6 C       -2.7150     0.2630    -1.2900 C.3   1 <1>   0.1400 
  7 C       -0.7830     2.2510     0.7860 C.3   1 <1>   0.0960 
  8 C       -0.9320    -2.3470     0.0100 C.ar  1 <1>  -0.1440 
  9 C       -3.2620    -2.5940    -0.9690 C.3   1 <1>   0.2000 
 10 C       -2.9030    -0.7680    -2.4100 C.3   1 <1>   0.1200 
 11 N       -0.7790     3.5080     0.0190 N.pl3 1 <1>   0.3140 
 12 C       -0.5850    -3.5110     0.6840 C.ar  1 <1>  -0.1500 
 13 C        0.0510    -1.6820    -0.7140 C.ar  1 <1>  -0.1500 
 14 O       -3.7770    -1.7580    -1.9760 O.3   1 <1>  -0.5600 
 15 C       -4.4620    -3.3060    -0.3330 C.3   1 <1>   0.1200 
 16 N       -1.0500     3.5040    -1.3010 N.2   1 <1>  -0.7070 
 17 C       -0.5540     4.7630     0.4720 C.2   1 <1>  -0.3320 
 18 C        0.7060    -4.0060     0.6290 C.ar  1 <1>  -0.1500 
 19 C        1.3440    -2.1750    -0.7710 C.ar  1 <1>  -0.1500 
 20 O       -4.0340    -4.3700     0.4580 O.3   1 <1>  -0.6800 
 21 C       -0.9820     4.7510    -1.6570 C.2   1 <1>   0.1390 
 22 C       -0.6760     5.5860    -0.5910 C.2   1 <1>  -0.1500 
 23 C       -0.2310     5.1290     1.9110 C.3   1 <1>  -0.0600 
 24 C        1.6720    -3.3380    -0.1000 C.ar  1 <1>  -0.1500 
 25 H       -2.9250     2.2530     0.4540 H     1 <1>   0.0800 
 26 H       -2.4590     2.2620     2.1260 H     1 <1>   0.0800 
 27 H       -2.7450    -2.1790     1.0680 H     1 <1>   0.0800 
 28 H       -3.6090     0.8590    -1.2340 H     1 <1>   0.0800 
 29 H       -1.9000     0.9160    -1.5490 H     1 <1>   0.0800 
 30 H       -0.3390     1.4960     0.1640 H     1 <1>   0.0800 
 31 H       -0.1780     2.3560     1.6670 H     1 <1>   0.0800 
 32 H       -2.6610    -3.3340    -1.4680 H     1 <1>   0.0800 
 33 H       -1.9690    -1.2210    -2.6940 H     1 <1>   0.0800 
 34 H       -3.3350    -0.2980    -3.2760 H     1 <1>   0.0800 
 35 H       -1.3250    -4.0400     1.2610 H     1 <1>   0.1500 
 36 H       -0.1710    -0.7730    -1.2390 H     1 <1>   0.1500 
 37 H       -5.1170    -3.6970    -1.0920 H     1 <1>   0.0800 
 38 H       -5.0070    -2.6230     0.2960 H     1 <1>   0.0800 
 39 H        0.9580    -4.9090     1.1580 H     1 <1>   0.1500 
 40 H        2.0950    -1.6500    -1.3350 H     1 <1>   0.1500 
 41 H       -3.7520    -5.1230    -0.0990 H     1 <1>   0.4000 
 42 H       -1.1470     5.0900    -2.6660 H     1 <1>   0.1500 
 43 H       -0.5690     6.6550    -0.6380 H     1 <1>   0.1500 
 44 H       -0.1160     6.1940     2.0050 H     1 <1>   0.0800 
 45 H        0.6870     4.6600     2.2180 H     1 <1>   0.0800 
 46 H       -1.0240     4.8120     2.5640 H     1 <1>   0.0800 
 47 H        2.6770    -3.7210    -0.1430 H     1 <1>   0.1500 
@<TRIPOS>BOND
  1   1   2  2   
  2   2   3  am  
  3   2   4  1   
  4   3   5  1   
  5   3   6  1   
  6   4   7  1   
  7   4  25  1   
  8   4  26  1   
  9   5   8  1   
 10   5   9  1   
 11   5  27  1   
 12   6  10  1   
 13   6  28  1   
 14   6  29  1   
 15   7  11  1   
 16   7  30  1   
 17   7  31  1   
 18   8  12  ar  
 19   8  13  ar  
 20   9  14  1   
 21   9  15  1   
 22   9  32  1   
 23  10  14  1   
 24  10  33  1   
 25  10  34  1   
 26  11  16  1   
 27  11  17  1   
 28  12  18  ar  
 29  12  35  1   
 30  13  19  ar  
 31  13  36  1   
 32  15  20  1   
 33  15  37  1   
 34  15  38  1   
 35  16  21  2   
 36  17  22  2   
 37  17  23  1   
 38  18  24  ar  
 39  18  39  1   
 40  19  24  ar  
 41  19  40  1   
 42  20  41  1   
 43  21  22  1   
 44  21  42  1   
 45  22  43  1   
 46  23  44  1   
 47  23  45  1   
 48  23  46  1   
 49  24  47  1   
@<TRIPOS>SUBSTRUCTURE
  1 ****   3 GROUP 4 **** **** 0

# MOE 2024.06 (io_trps.svl 2023.06)
