@<TRIPOS>MOLECULE
NONAME
53 57 1 0 0 
SMALL
USER_CHARGES


@<TRIPOS>ATOM
  1 S        0.2040    -1.7020     0.3580 S.3   1 <1>  -0.0800 
  2 C       -1.2330    -2.2780    -0.4990 C.2   1 <1>  -0.0450 
  3 C       -0.3250    -0.0360     0.2750 C.2   1 <1>  -0.1100 
  4 C       -1.3940    -3.6850    -0.7610 C.2   1 <1>   0.7150 
  5 C       -2.0140    -1.2090    -0.7980 C.2   1 <1>  -0.1500 
  6 C       -1.5070     0.0500    -0.3620 C.2   1 <1>  -0.1500 
  7 O       -2.3560    -4.1040    -1.3770 O.2   1 <1>  -0.5700 
  8 N       -0.5260    -4.6250    -0.2660 N.am  1 <1>  -0.6600 
  9 C       -0.6710    -5.0060     1.1720 C.3   1 <1>   0.2200 
 10 C        0.0720    -5.5980    -1.2130 C.3   1 <1>   0.1400 
 11 C        0.5240    -5.8380     1.7040 C.3   1 <1>   0.1200 
 12 C       -2.0510    -5.6840     1.4010 C.3   1 <1>   0.3430 
 13 C       -0.3130    -7.0460    -0.8950 C.3   1 <1>  -0.0800 
 14 O        0.3820    -7.2150     1.4600 O.3   1 <1>  -0.5600 
 15 N       -2.1780    -7.0660     0.8260 N.4   1 <1>  -0.9590 
 16 C        0.6340    -7.6650     0.1590 C.3   1 <1>   0.1200 
 17 C       -1.8260    -7.1980    -0.6240 C.3   1 <1>   0.3430 
 18 C       -3.4740    -7.7050     1.1570 C.3   1 <1>   0.4860 
 19 C       -3.3480    -9.1920     0.8900 C.ar  1 <1>  -0.1430 
 20 C       -4.0200    -9.7620    -0.1840 C.ar  1 <1>  -0.1500 
 21 C       -2.5510    -9.9900     1.7030 C.ar  1 <1>  -0.1500 
 22 C       -3.8860   -11.1130    -0.4490 C.ar  1 <1>   0.0830 
 23 C       -2.4140   -11.3420     1.4370 C.ar  1 <1>  -0.1500 
 24 O       -4.5600   -11.6400    -1.5000 O.3   1 <1>  -0.3630 
 25 C       -3.0710   -11.9060     0.3590 C.ar  1 <1>   0.0830 
 26 C       -4.6760   -13.0510    -1.5400 C.3   1 <1>   0.1200 
 27 O       -2.9040   -13.2280     0.1070 O.3   1 <1>  -0.3630 
 28 C       -3.3430   -13.7070    -1.1510 C.3   1 <1>   0.1200 
 29 H        0.3090     0.7140     0.7150 H     1 <1>   0.1500 
 30 H       -2.9510    -1.2710    -1.3260 H     1 <1>   0.1500 
 31 H       -2.0480     0.9620    -0.5470 H     1 <1>   0.1500 
 32 H       -0.6750    -4.0880     1.7340 H     1 <1>   0.0800 
 33 H       -0.2600    -5.3610    -2.2120 H     1 <1>   0.0800 
 34 H        1.1440    -5.4850    -1.2050 H     1 <1>   0.0800 
 35 H        0.5730    -5.7270     2.7740 H     1 <1>   0.0800 
 36 H        1.4590    -5.4920     1.2970 H     1 <1>   0.0800 
 37 H       -2.8160    -5.0500     0.9830 H     1 <1>   0.0800 
 38 H       -2.2170    -5.7380     2.4630 H     1 <1>   0.0800 
 39 H       -0.1200    -7.5850    -1.8050 H     1 <1>   0.0800 
 40 H       -1.4340    -7.6110     1.3020 H     1 <1>   0.4500 
 41 H        1.6650    -7.4560    -0.0770 H     1 <1>   0.0800 
 42 H        0.5110    -8.7350     0.1700 H     1 <1>   0.0800 
 43 H       -2.1150    -8.1790    -0.9640 H     1 <1>   0.0800 
 44 H       -2.3780    -6.4760    -1.2070 H     1 <1>   0.0800 
 45 H       -3.7110    -7.5520     2.1970 H     1 <1>   0.0800 
 46 H       -4.2630    -7.2820     0.5570 H     1 <1>   0.0800 
 47 H       -4.6550    -9.1790    -0.8270 H     1 <1>   0.1500 
 48 H       -2.0290    -9.5750     2.5490 H     1 <1>   0.1500 
 49 H       -1.7980   -11.9680     2.0600 H     1 <1>   0.1500 
 50 H       -5.4500   -13.3430    -0.8530 H     1 <1>   0.0800 
 51 H       -4.9650   -13.3330    -2.5360 H     1 <1>   0.0800 
 52 H       -2.5870   -13.4770    -1.8800 H     1 <1>   0.0800 
 53 H       -3.4500   -14.7750    -1.0800 H     1 <1>   0.0800 
@<TRIPOS>BOND
  1   1   2  1   
  2   1   3  1   
  3   2   4  1   
  4   2   5  2   
  5   3   6  2   
  6   3  29  1   
  7   4   7  2   
  8   4   8  am  
  9   5   6  1   
 10   5  30  1   
 11   6  31  1   
 12   8   9  1   
 13   8  10  1   
 14   9  11  1   
 15   9  12  1   
 16   9  32  1   
 17  10  13  1   
 18  10  33  1   
 19  10  34  1   
 20  11  14  1   
 21  11  35  1   
 22  11  36  1   
 23  12  15  1   
 24  12  37  1   
 25  12  38  1   
 26  13  16  1   
 27  13  17  1   
 28  13  39  1   
 29  14  16  1   
 30  15  17  1   
 31  15  18  1   
 32  15  40  1   
 33  16  41  1   
 34  16  42  1   
 35  17  43  1   
 36  17  44  1   
 37  18  19  1   
 38  18  45  1   
 39  18  46  1   
 40  19  20  ar  
 41  19  21  ar  
 42  20  22  ar  
 43  20  47  1   
 44  21  23  ar  
 45  21  48  1   
 46  22  24  1   
 47  22  25  ar  
 48  23  25  ar  
 49  23  49  1   
 50  24  26  1   
 51  25  27  1   
 52  26  28  1   
 53  26  50  1   
 54  26  51  1   
 55  27  28  1   
 56  28  52  1   
 57  28  53  1   
@<TRIPOS>SUBSTRUCTURE
  1 ****  17 GROUP 4 **** **** 0

# MOE 2024.06 (io_trps.svl 2023.06)
