@<TRIPOS>MOLECULE
NONAME
39 41 1 0 0 
SMALL
USER_CHARGES


@<TRIPOS>ATOM
  1 O       -1.2850     0.4630     1.9230 O.2   1 <1>  -0.5700 
  2 C       -1.8770     0.9150     0.9570 C.2   1 <1>   0.5440 
  3 N       -2.9220     0.1560     0.4590 N.am  1 <1>  -0.6600 
  4 C       -1.4750     2.2180     0.4090 C.ar  1 <1>   0.3960 
  5 C       -3.8780     0.5570    -0.6040 C.3   1 <1>   0.1400 
  6 C       -3.2830    -1.1780     1.0030 C.3   1 <1>   0.1400 
  7 N       -1.5950     2.4750    -0.9090 N.ar  1 <1>  -0.6200 
  8 C       -0.9610     3.1740     1.2910 C.ar  1 <1>  -0.1500 
  9 C       -5.0280    -0.4450    -0.4920 C.3   1 <1>   0.2000 
 10 C       -4.3800    -1.7120     0.0720 C.3   1 <1>  -0.0800 
 11 C       -1.2030     3.6660    -1.3010 C.ar  1 <1>   0.3920 
 12 C       -0.5610     4.4190     0.8520 C.ar  1 <1>  -0.1500 
 13 O       -5.9320     0.0290     0.4440 O.3   1 <1>  -0.6800 
 14 C       -3.7850    -2.5770    -1.0550 C.3   1 <1>   0.0200 
 15 O       -1.3290     3.8750    -2.5970 O.3   1 <1>  -0.5320 
 16 C       -0.6910     4.6650    -0.4930 C.ar  1 <1>  -0.1500 
 17 C       -3.1520    -3.8420    -0.5070 C.2   1 <1>  -0.0400 
 18 O       -3.8920    -4.7480     0.0730 O.3   1 <1>  -0.0190 
 19 C       -1.8810    -4.2690    -0.4820 C.2   1 <1>  -0.1500 
 20 N       -3.1840    -5.7590     0.4880 N.2   1 <1>  -0.4100 
 21 C       -1.9680    -5.4970     0.1680 C.2   1 <1>   0.1080 
 22 C       -0.7950    -6.4060     0.4630 C.3   1 <1>  -0.0590 
 23 H       -4.2180     1.5710    -0.4770 H     1 <1>   0.0800 
 24 H       -3.3960     0.4580    -1.5610 H     1 <1>   0.0800 
 25 H       -2.4190    -1.8190     1.0440 H     1 <1>   0.0800 
 26 H       -3.6680    -1.0540     2.0020 H     1 <1>   0.0800 
 27 H       -0.8740     2.9280     2.3350 H     1 <1>   0.1500 
 28 H       -5.5530    -0.5960    -1.4200 H     1 <1>   0.0800 
 29 H       -5.0950    -2.3040     0.6160 H     1 <1>   0.0800 
 30 H       -0.1660     5.1590     1.5280 H     1 <1>   0.1500 
 31 H       -5.4500     0.2650     1.2620 H     1 <1>   0.4000 
 32 H       -3.0390    -2.0220    -1.5970 H     1 <1>   0.0800 
 33 H       -4.5600    -2.8580    -1.7450 H     1 <1>   0.0800 
 34 H       -1.6680     3.0650    -3.0120 H     1 <1>   0.4500 
 35 H       -0.4040     5.6060    -0.9250 H     1 <1>   0.1500 
 36 H       -0.9880    -3.8030    -0.8550 H     1 <1>   0.1500 
 37 H       -0.0590    -5.8760     1.0370 H     1 <1>   0.0800 
 38 H       -0.3550    -6.7420    -0.4580 H     1 <1>   0.0800 
 39 H       -1.1260    -7.2610     1.0240 H     1 <1>   0.0800 
@<TRIPOS>BOND
  1   1   2  2   
  2   2   3  am  
  3   2   4  1   
  4   3   5  1   
  5   3   6  1   
  6   4   7  ar  
  7   4   8  ar  
  8   5   9  1   
  9   5  23  1   
 10   5  24  1   
 11   6  10  1   
 12   6  25  1   
 13   6  26  1   
 14   7  11  ar  
 15   8  12  ar  
 16   8  27  1   
 17   9  10  1   
 18   9  13  1   
 19   9  28  1   
 20  10  14  1   
 21  10  29  1   
 22  11  15  1   
 23  11  16  ar  
 24  12  16  ar  
 25  12  30  1   
 26  13  31  1   
 27  14  17  1   
 28  14  32  1   
 29  14  33  1   
 30  15  34  1   
 31  16  35  1   
 32  17  18  1   
 33  17  19  2   
 34  18  20  1   
 35  19  21  1   
 36  19  36  1   
 37  20  21  2   
 38  21  22  1   
 39  22  37  1   
 40  22  38  1   
 41  22  39  1   
@<TRIPOS>SUBSTRUCTURE
  1 ****   3 GROUP 4 **** **** 0

# MOE 2024.06 (io_trps.svl 2023.06)
