@<TRIPOS>MOLECULE
NONAME
60 63 1 0 0 
SMALL
USER_CHARGES


@<TRIPOS>ATOM
  1 O        3.7100    -2.6610     2.3010 O.2   1 <1>  -0.5700 
  2 C        2.9690    -3.0000     1.4070 C.2   1 <1>   0.5690 
  3 N        2.7460    -2.1910     0.3220 N.am  1 <1>  -0.6600 
  4 C        2.3280    -4.3810     1.5050 C.3   1 <1>   0.1810 
  5 C        1.8340    -2.4750    -0.8070 C.3   1 <1>   0.1400 
  6 C        3.3420    -0.8440     0.2010 C.3   1 <1>   0.1400 
  7 O        0.9110    -4.3110     1.4280 O.3   1 <1>  -0.3620 
  8 C        2.0880    -1.3480    -1.8010 C.3   1 <1>  -0.1600 
  9 C        2.5820    -0.1850    -0.9450 C.3   1 <1>  -0.1600 
 10 C        0.1490    -5.4300     1.4080 C.ar  1 <1>   0.0820 
 11 C        0.6610    -6.7190     1.5240 C.ar  1 <1>  -0.1500 
 12 C       -1.2150    -5.2500     1.2590 C.ar  1 <1>  -0.1500 
 13 C       -0.1920    -7.8070     1.4760 C.ar  1 <1>  -0.1500 
 14 C       -2.0670    -6.3380     1.2120 C.ar  1 <1>  -0.1500 
 15 C       -1.5580    -7.6240     1.3150 C.ar  1 <1>  -0.1440 
 16 C       -2.4880    -8.8200     1.2350 C.3   1 <1>   0.4860 
 17 N       -2.1770    -9.5630    -0.0080 N.4   1 <1>  -0.9590 
 18 C       -2.2430    -8.7680    -1.2740 C.3   1 <1>   0.3430 
 19 C       -2.9220   -10.8230    -0.2300 C.3   1 <1>   0.3430 
 20 C       -2.8240    -9.7180    -2.3340 C.3   1 <1>   0.2000 
 21 C       -2.7010   -11.1130    -1.7160 C.3   1 <1>  -0.0800 
 22 O       -4.1700    -9.4320    -2.5310 O.3   1 <1>  -0.6800 
 23 C       -1.3120   -11.7370    -2.0310 C.3   1 <1>   0.0210 
 24 C       -0.4740   -12.1150    -0.8180 C.2   1 <1>   0.1080 
 25 N        0.1240   -11.2480    -0.0530 N.2   1 <1>  -0.7070 
 26 C       -0.2480   -13.4240    -0.4090 C.2   1 <1>  -0.1500 
 27 N        0.7880   -12.0050     0.8550 N.pl3 1 <1>   0.3000 
 28 C        0.5600   -13.3200     0.6650 C.2   1 <1>  -0.3320 
 29 C        1.1550   -14.4210     1.5260 C.3   1 <1>  -0.0600 
 30 H        2.5900    -4.8260     2.4470 H     1 <1>   0.0800 
 31 H        2.6860    -4.9910     0.6980 H     1 <1>   0.0800 
 32 H        2.0370    -3.4390    -1.2410 H     1 <1>   0.0800 
 33 H        0.8170    -2.4390    -0.4540 H     1 <1>   0.0800 
 34 H        3.2360    -0.2940     1.1210 H     1 <1>   0.0800 
 35 H        4.3860    -0.9450    -0.0410 H     1 <1>   0.0800 
 36 H        2.8610    -1.6520    -2.4850 H     1 <1>   0.0800 
 37 H        1.2030    -1.0990    -2.3590 H     1 <1>   0.0800 
 38 H        1.7440     0.3540    -0.5400 H     1 <1>   0.0800 
 39 H        3.2050     0.4980    -1.4960 H     1 <1>   0.0800 
 40 H        1.7130    -6.8930     1.6520 H     1 <1>   0.1500 
 41 H       -1.6020    -4.2480     1.1820 H     1 <1>   0.1500 
 42 H        0.2250    -8.7960     1.5650 H     1 <1>   0.1500 
 43 H       -3.1240    -6.1640     1.0960 H     1 <1>   0.1500 
 44 H       -3.5130    -8.4890     1.2240 H     1 <1>   0.0800 
 45 H       -2.3360    -9.4530     2.0940 H     1 <1>   0.0800 
 46 H       -1.1840    -9.8810     0.0720 H     1 <1>   0.4500 
 47 H       -2.8700    -7.8980    -1.1690 H     1 <1>   0.0800 
 48 H       -1.2500    -8.4580    -1.5540 H     1 <1>   0.0800 
 49 H       -2.5540   -11.6200     0.3970 H     1 <1>   0.0800 
 50 H       -3.9720   -10.6710    -0.0390 H     1 <1>   0.0800 
 51 H       -2.3310    -9.6180    -3.2870 H     1 <1>   0.0800 
 52 H       -3.4650   -11.7730    -2.0910 H     1 <1>   0.0800 
 53 H       -4.7090    -9.5190    -1.7230 H     1 <1>   0.4000 
 54 H       -0.7180   -11.0680    -2.6290 H     1 <1>   0.0800 
 55 H       -1.4600   -12.6200    -2.6280 H     1 <1>   0.0800 
 56 H       -0.6330   -14.3170    -0.8710 H     1 <1>   0.1500 
 57 H        1.4000   -11.6110     1.5810 H     1 <1>   0.2700 
 58 H        0.8330   -15.3840     1.1710 H     1 <1>   0.0800 
 59 H        0.8400   -14.3110     2.5480 H     1 <1>   0.0800 
 60 H        2.2300   -14.3870     1.4850 H     1 <1>   0.0800 
@<TRIPOS>BOND
  1   1   2  2   
  2   2   3  am  
  3   2   4  1   
  4   3   5  1   
  5   3   6  1   
  6   4   7  1   
  7   4  30  1   
  8   4  31  1   
  9   5   8  1   
 10   5  32  1   
 11   5  33  1   
 12   6   9  1   
 13   6  34  1   
 14   6  35  1   
 15   7  10  1   
 16   8   9  1   
 17   8  36  1   
 18   8  37  1   
 19   9  38  1   
 20   9  39  1   
 21  10  11  ar  
 22  10  12  ar  
 23  11  13  ar  
 24  11  40  1   
 25  12  14  ar  
 26  12  41  1   
 27  13  15  ar  
 28  13  42  1   
 29  14  15  ar  
 30  14  43  1   
 31  15  16  1   
 32  16  17  1   
 33  16  44  1   
 34  16  45  1   
 35  17  18  1   
 36  17  19  1   
 37  17  46  1   
 38  18  20  1   
 39  18  47  1   
 40  18  48  1   
 41  19  21  1   
 42  19  49  1   
 43  19  50  1   
 44  20  21  1   
 45  20  22  1   
 46  20  51  1   
 47  21  23  1   
 48  21  52  1   
 49  22  53  1   
 50  23  24  1   
 51  23  54  1   
 52  23  55  1   
 53  24  25  2   
 54  24  26  1   
 55  25  27  1   
 56  26  28  2   
 57  26  56  1   
 58  27  28  1   
 59  27  57  1   
 60  28  29  1   
 61  29  58  1   
 62  29  59  1   
 63  29  60  1   
@<TRIPOS>SUBSTRUCTURE
  1 ****  13 GROUP 4 **** **** 0

# MOE 2024.06 (io_trps.svl 2023.06)
