@<TRIPOS>MOLECULE
NONAME
55 58 1 0 0 
SMALL
USER_CHARGES


@<TRIPOS>ATOM
  1 O       -1.1390    -0.7030     1.3500 O.3   1 <1>  -0.6800 
  2 C       -2.1310    -1.5460     0.8750 C.3   1 <1>   0.2000 
  3 C       -1.5570    -2.9580     0.6600 C.3   1 <1>   0.2090 
  4 C       -2.6550    -0.9560    -0.4380 C.3   1 <1>  -0.1600 
  5 N       -2.5840    -3.8510     0.0260 N.pl3 1 <1>  -0.8380 
  6 C       -3.6490    -1.9210    -1.1060 C.3   1 <1>  -0.1600 
  7 C       -2.9480    -5.0730     0.4980 C.ar  1 <1>   0.4100 
  8 C       -3.0600    -3.3250    -1.2920 C.3   1 <1>   0.2090 
  9 N       -3.3200    -5.9860    -0.3810 N.ar  1 <1>  -0.6200 
 10 C       -2.9340    -5.3570     1.8780 C.ar  1 <1>  -0.1500 
 11 C       -3.6510    -7.1970     0.0480 C.ar  1 <1>   0.7710 
 12 C       -3.2860    -6.5940     2.3000 C.ar  1 <1>   0.2110 
 13 N       -3.6370    -7.4970     1.3590 N.ar  1 <1>  -0.1790 
 14 N       -4.0000    -8.1480    -0.8630 N.pl3 1 <1>  -0.8380 
 15 C       -4.1070    -9.6210    -0.5690 C.3   1 <1>   0.3900 
 16 C       -4.1520    -7.8240    -2.3210 C.3   1 <1>   0.1290 
 17 C       -5.1260    -9.9330     0.5290 C.2   1 <1>   0.1080 
 18 N       -4.8010    -9.9970     1.7920 N.2   1 <1>  -0.7070 
 19 C       -6.4820   -10.1870     0.3280 C.2   1 <1>  -0.1810 
 20 N       -5.9470   -10.3510     2.4200 N.pl3 1 <1>   0.3000 
 21 C       -6.9710   -10.4530     1.5540 C.2   1 <1>  -0.3320 
 22 C       -7.2750   -10.1800    -0.9680 C.3   1 <1>   0.0210 
 23 C       -8.3890   -10.8240     1.9510 C.3   1 <1>   0.0200 
 24 C       -7.9810   -11.5200    -1.2100 C.3   1 <1>  -0.1600 
 25 C       -8.8890   -12.0420     1.1650 C.3   1 <1>  -0.1600 
 26 C       -9.2090   -11.7590    -0.3130 C.3   1 <1>  -0.1600 
 27 H       -0.9280    -0.8950     2.2830 H     1 <1>   0.4000 
 28 H       -2.9200    -1.5770     1.6060 H     1 <1>   0.0800 
 29 H       -1.2140    -3.3610     1.5930 H     1 <1>   0.0800 
 30 H       -0.7120    -2.8900    -0.0050 H     1 <1>   0.0800 
 31 H       -1.8280    -0.7860    -1.1060 H     1 <1>   0.0800 
 32 H       -3.1380    -0.0150    -0.2440 H     1 <1>   0.0800 
 33 H       -3.9370    -1.5300    -2.0650 H     1 <1>   0.0800 
 34 H       -4.5390    -1.9990    -0.5060 H     1 <1>   0.0800 
 35 H       -3.8140    -3.9670    -1.7140 H     1 <1>   0.0800 
 36 H       -2.2300    -3.2890    -1.9780 H     1 <1>   0.0800 
 37 H       -2.6630    -4.5880     2.5730 H     1 <1>   0.1500 
 38 H       -3.3070    -6.8840     3.3380 H     1 <1>   0.1500 
 39 H       -3.9750    -8.4380     1.6000 H     1 <1>   0.4570 
 40 H       -3.1430    -9.9900    -0.2650 H     1 <1>   0.0800 
 41 H       -4.3800   -10.1600    -1.4590 H     1 <1>   0.0800 
 42 H       -4.3290    -6.7730    -2.4760 H     1 <1>   0.0800 
 43 H       -4.9880    -8.3580    -2.7370 H     1 <1>   0.0800 
 44 H       -3.2570    -8.1020    -2.8520 H     1 <1>   0.0800 
 45 H       -6.0040   -10.5310     3.4320 H     1 <1>   0.2700 
 46 H       -6.6200    -9.9820    -1.7960 H     1 <1>   0.0800 
 47 H       -8.0000    -9.3860    -0.9360 H     1 <1>   0.0800 
 48 H       -9.0440    -9.9850     1.7840 H     1 <1>   0.0800 
 49 H       -8.4190   -11.0570     3.0010 H     1 <1>   0.0800 
 50 H       -7.2780   -12.3270    -1.0880 H     1 <1>   0.0800 
 51 H       -8.3150   -11.5380    -2.2330 H     1 <1>   0.0800 
 52 H       -9.7920   -12.3900     1.6360 H     1 <1>   0.0800 
 53 H       -8.1660   -12.8370     1.2350 H     1 <1>   0.0800 
 54 H       -9.7320   -12.6160    -0.7010 H     1 <1>   0.0800 
 55 H       -9.8830   -10.9220    -0.3860 H     1 <1>   0.0800 
@<TRIPOS>BOND
  1   1   2  1   
  2   1  27  1   
  3   2   3  1   
  4   2   4  1   
  5   2  28  1   
  6   3   5  1   
  7   3  29  1   
  8   3  30  1   
  9   4   6  1   
 10   4  31  1   
 11   4  32  1   
 12   5   7  1   
 13   5   8  1   
 14   6   8  1   
 15   6  33  1   
 16   6  34  1   
 17   7   9  ar  
 18   7  10  ar  
 19   8  35  1   
 20   8  36  1   
 21   9  11  ar  
 22  10  12  ar  
 23  10  37  1   
 24  11  13  ar  
 25  11  14  1   
 26  12  13  ar  
 27  12  38  1   
 28  13  39  1   
 29  14  15  1   
 30  14  16  1   
 31  15  17  1   
 32  15  40  1   
 33  15  41  1   
 34  16  42  1   
 35  16  43  1   
 36  16  44  1   
 37  17  18  2   
 38  17  19  1   
 39  18  20  1   
 40  19  21  2   
 41  19  22  1   
 42  20  21  1   
 43  20  45  1   
 44  21  23  1   
 45  22  24  1   
 46  22  46  1   
 47  22  47  1   
 48  23  25  1   
 49  23  48  1   
 50  23  49  1   
 51  24  26  1   
 52  24  50  1   
 53  24  51  1   
 54  25  26  1   
 55  25  52  1   
 56  25  53  1   
 57  26  54  1   
 58  26  55  1   
@<TRIPOS>SUBSTRUCTURE
  1 ****  11 GROUP 4 **** **** 0

# MOE 2024.06 (io_trps.svl 2023.06)
