@<TRIPOS>MOLECULE
NONAME
52 55 1 0 0 
SMALL
USER_CHARGES


@<TRIPOS>ATOM
  1 O       -3.5610    -3.6140     2.1320 O.2   1 <1>  -0.5700 
  2 C       -2.6500    -4.0250     1.4380 C.2   1 <1>   0.6900 
  3 N       -2.0060    -3.2020     0.5370 N.am  1 <1>  -0.4770 
  4 N       -2.2740    -5.3290     1.5360 N.am  1 <1>  -0.4900 
  5 C       -2.5970    -2.0490    -0.0010 C.ar  1 <1>   0.1170 
  6 C       -0.7150    -3.6410    -0.0560 C.3   1 <1>   0.1400 
  7 C       -1.3460    -5.9310     0.7580 C.2   1 <1>   0.5690 
  8 C       -3.6190    -2.1280    -0.9600 C.ar  1 <1>   0.0860 
  9 C       -2.1530    -0.8010     0.4230 C.ar  1 <1>  -0.1500 
 10 C       -0.7440    -5.1370    -0.3800 C.3   1 <1>  -0.0990 
 11 O       -1.0010    -7.0720     0.9420 O.2   1 <1>  -0.5700 
 12 C       -4.1100    -3.4090    -1.4100 C.2   1 <1>   0.5440 
 13 C       -4.1520    -0.9440    -1.4690 C.ar  1 <1>  -0.1500 
 14 C       -2.6960     0.3600    -0.0900 C.ar  1 <1>  -0.1500 
 15 O       -3.4460    -4.0660    -2.1920 O.2   1 <1>  -0.5700 
 16 N       -5.2970    -3.9320    -0.9450 N.am  1 <1>  -0.6600 
 17 C       -3.7000     0.2890    -1.0410 C.ar  1 <1>  -0.1500 
 18 C       -6.2010    -3.2320     0.0160 C.3   1 <1>   0.1400 
 19 C       -5.4570    -5.3940    -0.7730 C.3   1 <1>   0.1400 
 20 C       -6.7040    -4.3110     0.9840 C.3   1 <1>   0.2000 
 21 C       -5.8410    -5.5310     0.6950 C.3   1 <1>  -0.0800 
 22 O       -6.4990    -3.9120     2.2950 O.3   1 <1>  -0.6800 
 23 C       -6.3830    -6.9050     1.1040 C.3   1 <1>   0.0210 
 24 C       -5.2590    -7.9190     0.9640 C.2   1 <1>   0.1080 
 25 N       -4.1200    -7.7750     1.5720 N.2   1 <1>  -0.7070 
 26 C       -5.2810    -9.0480     0.1540 C.2   1 <1>  -0.1500 
 27 N       -3.3650    -8.8020     1.1350 N.pl3 1 <1>   0.3000 
 28 C       -4.0510    -9.5910     0.2810 C.2   1 <1>  -0.3320 
 29 C       -3.4680   -10.8250    -0.3820 C.3   1 <1>  -0.0600 
 30 H       -2.8620    -5.9460     2.1010 H     1 <1>   0.3700 
 31 H       -0.5150    -3.0810    -0.9550 H     1 <1>   0.0800 
 32 H        0.0690    -3.4390     0.6530 H     1 <1>   0.0800 
 33 H       -1.3780    -0.7460     1.1660 H     1 <1>   0.1500 
 34 H        0.2530    -5.4870    -0.5770 H     1 <1>   0.0800 
 35 H       -1.3330    -5.3050    -1.2620 H     1 <1>   0.0800 
 36 H       -4.9300    -1.0020    -2.2100 H     1 <1>   0.1500 
 37 H       -2.3430     1.3200     0.2490 H     1 <1>   0.1500 
 38 H       -4.1230     1.1930    -1.4450 H     1 <1>   0.1500 
 39 H       -5.6720    -2.4630     0.5520 H     1 <1>   0.0800 
 40 H       -7.0270    -2.8000    -0.5200 H     1 <1>   0.0800 
 41 H       -6.2430    -5.7460    -1.4180 H     1 <1>   0.0800 
 42 H       -4.5450    -5.9270    -0.9870 H     1 <1>   0.0800 
 43 H       -7.7530    -4.5050     0.8370 H     1 <1>   0.0800 
 44 H       -4.9360    -5.3990     1.2420 H     1 <1>   0.0800 
 45 H       -5.5320    -3.7640     2.4400 H     1 <1>   0.4000 
 46 H       -7.2230    -7.1820     0.4940 H     1 <1>   0.0800 
 47 H       -6.6950    -6.8780     2.1330 H     1 <1>   0.0800 
 48 H       -6.1070    -9.3850    -0.4460 H     1 <1>   0.1500 
 49 H       -2.3720    -8.8980     1.3960 H     1 <1>   0.2700 
 50 H       -4.1990   -11.2790    -1.0280 H     1 <1>   0.0800 
 51 H       -3.1750   -11.5440     0.3630 H     1 <1>   0.0800 
 52 H       -2.6080   -10.5590    -0.9700 H     1 <1>   0.0800 
@<TRIPOS>BOND
  1   1   2  2   
  2   2   3  am  
  3   2   4  am  
  4   3   5  1   
  5   3   6  1   
  6   4   7  am  
  7   4  30  1   
  8   5   8  ar  
  9   5   9  ar  
 10   6  10  1   
 11   6  31  1   
 12   6  32  1   
 13   7  10  1   
 14   7  11  2   
 15   8  12  1   
 16   8  13  ar  
 17   9  14  ar  
 18   9  33  1   
 19  10  34  1   
 20  10  35  1   
 21  12  15  2   
 22  12  16  am  
 23  13  17  ar  
 24  13  36  1   
 25  14  17  ar  
 26  14  37  1   
 27  16  18  1   
 28  16  19  1   
 29  17  38  1   
 30  18  20  1   
 31  18  39  1   
 32  18  40  1   
 33  19  21  1   
 34  19  41  1   
 35  19  42  1   
 36  20  21  1   
 37  20  22  1   
 38  20  43  1   
 39  21  23  1   
 40  21  44  1   
 41  22  45  1   
 42  23  24  1   
 43  23  46  1   
 44  23  47  1   
 45  24  25  2   
 46  24  26  1   
 47  25  27  1   
 48  26  28  2   
 49  26  48  1   
 50  27  28  1   
 51  27  49  1   
 52  28  29  1   
 53  29  50  1   
 54  29  51  1   
 55  29  52  1   
@<TRIPOS>SUBSTRUCTURE
  1 ****   2 GROUP 4 **** **** 0

# MOE 2024.06 (io_trps.svl 2023.06)
