@<TRIPOS>MOLECULE
NONAME
36 37 1 0 0 
SMALL
USER_CHARGES


@<TRIPOS>ATOM
  1 O       -0.0540    -0.2800    -0.2710 O.2   1 <1>  -0.5700 
  2 C        0.6660    -1.2330    -0.4420 C.2   1 <1>   0.5690 
  3 N        2.0200    -1.1280    -0.3640 N.am  1 <1>  -0.7300 
  4 C        0.0390    -2.5770    -0.7850 C.3   1 <1>  -0.0190 
  5 C        2.7570     0.1060    -0.0320 C.3   1 <1>   0.1400 
  6 C       -1.2410    -2.8260     0.0070 C.3   1 <1>   0.2090 
  7 C        0.8960    -3.8190    -0.4990 C.3   1 <1>  -0.1600 
  8 C        3.8210    -0.2290     1.0060 C.3   1 <1>  -0.2400 
  9 N       -1.3440    -4.3040     0.1080 N.pl3 1 <1>  -0.8380 
 10 C       -0.1100    -4.9560    -0.3710 C.3   1 <1>   0.2090 
 11 C       -2.5470    -4.9670     0.2030 C.ar  1 <1>   0.7200 
 12 N       -2.5230    -6.2850     0.0000 N.ar  1 <1>  -0.6200 
 13 N       -3.6190    -4.2340     0.4920 N.ar  1 <1>  -0.6200 
 14 C       -3.6750    -6.9070     0.1030 C.ar  1 <1>   0.1600 
 15 C       -4.7560    -4.8850     0.5870 C.ar  1 <1>   0.1600 
 16 C       -4.8530    -6.2460     0.4010 C.ar  1 <1>   0.0820 
 17 O       -6.0780    -6.8360     0.5200 O.3   1 <1>  -0.3630 
 18 C       -6.2170    -8.2310     0.3510 C.3   1 <1>   0.0400 
 19 H        2.5970    -1.9500    -0.5350 H     1 <1>   0.3700 
 20 H       -0.2220    -2.5630    -1.8270 H     1 <1>   0.0800 
 21 H        2.0790     0.8470     0.3600 H     1 <1>   0.0800 
 22 H        3.2140     0.5000    -0.9240 H     1 <1>   0.0800 
 23 H       -2.0940    -2.3980    -0.4930 H     1 <1>   0.0800 
 24 H       -1.1650    -2.4130     0.9990 H     1 <1>   0.0800 
 25 H        1.4030    -3.7130     0.4440 H     1 <1>   0.0800 
 26 H        1.6140    -4.0130    -1.2740 H     1 <1>   0.0800 
 27 H        3.3600    -0.6200     1.8950 H     1 <1>   0.0800 
 28 H        4.3600     0.6640     1.2680 H     1 <1>   0.0800 
 29 H        4.5200    -0.9460     0.6150 H     1 <1>   0.0800 
 30 H        0.2200    -5.7060     0.3280 H     1 <1>   0.0800 
 31 H       -0.2980    -5.4100    -1.3300 H     1 <1>   0.0800 
 32 H       -3.6700    -7.9680    -0.0570 H     1 <1>   0.1500 
 33 H       -5.6440    -4.3250     0.8220 H     1 <1>   0.1500 
 34 H       -7.2530    -8.4830     0.4910 H     1 <1>   0.0800 
 35 H       -5.6170    -8.7350     1.0880 H     1 <1>   0.0800 
 36 H       -5.9100    -8.4960    -0.6460 H     1 <1>   0.0800 
@<TRIPOS>BOND
  1   1   2  2   
  2   2   3  am  
  3   2   4  1   
  4   3   5  1   
  5   3  19  1   
  6   4   6  1   
  7   4   7  1   
  8   4  20  1   
  9   5   8  1   
 10   5  21  1   
 11   5  22  1   
 12   6   9  1   
 13   6  23  1   
 14   6  24  1   
 15   7  10  1   
 16   7  25  1   
 17   7  26  1   
 18   8  27  1   
 19   8  28  1   
 20   8  29  1   
 21   9  10  1   
 22   9  11  1   
 23  10  30  1   
 24  10  31  1   
 25  11  12  ar  
 26  11  13  ar  
 27  12  14  ar  
 28  13  15  ar  
 29  14  16  ar  
 30  14  32  1   
 31  15  16  ar  
 32  15  33  1   
 33  16  17  1   
 34  17  18  1   
 35  18  34  1   
 36  18  35  1   
 37  18  36  1   
@<TRIPOS>SUBSTRUCTURE
  1 ****   9 GROUP 4 **** **** 0

# MOE 2024.06 (io_trps.svl 2023.06)
