@<TRIPOS>MOLECULE
NONAME
52 54 1 0 0 
SMALL
USER_CHARGES


@<TRIPOS>ATOM
  1 O        0.9640     1.9360    -2.0740 O.2   1 <1>  -0.5700 
  2 C        0.4110     2.9250    -1.6660 C.2   1 <1>   0.5690 
  3 N       -0.3110     2.8950    -0.5260 N.am  1 <1>  -0.7300 
  4 C        0.4810     4.2310    -2.4560 C.3   1 <1>   0.1810 
  5 C       -1.1150     4.0380    -0.0240 C.3   1 <1>   0.3640 
  6 O        0.2290     5.3560    -1.6460 O.3   1 <1>  -0.5600 
  7 C       -2.5660     3.5700     0.0850 C.ar  1 <1>  -0.1440 
  8 C       -0.9960     5.3100    -0.9150 C.3   1 <1>   0.2610 
  9 C       -3.1780     2.8680    -0.9480 C.ar  1 <1>  -0.1500 
 10 C       -3.3000     3.8490     1.2300 C.ar  1 <1>  -0.1500 
 11 C       -1.1430     6.5790    -0.0610 C.2   1 <1>   0.5690 
 12 C       -4.4930     2.4510    -0.8340 C.ar  1 <1>  -0.1500 
 13 C       -4.6150     3.4330     1.3440 C.ar  1 <1>  -0.1500 
 14 O       -2.0100     6.6470     0.7780 O.2   1 <1>  -0.5700 
 15 N       -0.2840     7.6140    -0.2660 N.am  1 <1>  -0.7300 
 16 C       -5.2120     2.7330     0.3120 C.ar  1 <1>  -0.1500 
 17 C       -0.2920     8.9050     0.4410 C.3   1 <1>   0.2200 
 18 C       -0.5950    10.0210    -0.5590 C.3   1 <1>  -0.1600 
 19 C        1.0660     9.1230     1.1080 C.3   1 <1>  -0.1600 
 20 C       -0.5420    11.3890     0.1260 C.3   1 <1>   0.1400 
 21 C        1.1200    10.4930     1.7890 C.3   1 <1>   0.1400 
 22 N        0.7700    11.5580     0.8100 N.am  1 <1>  -0.6600 
 23 C        1.5800    12.6490     0.6200 C.2   1 <1>   0.7800 
 24 O        2.6340    12.7960     1.2100 O.2   1 <1>  -0.5700 
 25 O        1.1790    13.5820    -0.2460 O.3   1 <1>  -0.4300 
 26 C        1.9580    14.7310    -0.4850 C.3   1 <1>   0.1200 
 27 C        1.2310    15.5920    -1.5130 C.3   1 <1>  -0.2400 
 28 H       -0.4160     2.0050    -0.0370 H     1 <1>   0.3700 
 29 H       -0.2390     4.2120    -3.2530 H     1 <1>   0.0800 
 30 H        1.4650     4.3400    -2.8750 H     1 <1>   0.0800 
 31 H       -0.7530     4.2800     0.9620 H     1 <1>   0.0800 
 32 H       -1.7960     5.3100    -1.6330 H     1 <1>   0.0800 
 33 H       -2.6350     2.6340    -1.8470 H     1 <1>   0.1500 
 34 H       -2.8550     4.4010     2.0410 H     1 <1>   0.1500 
 35 H       -4.9560     1.9050    -1.6380 H     1 <1>   0.1500 
 36 H       -5.1730     3.6580     2.2360 H     1 <1>   0.1500 
 37 H        0.4540     7.4780    -0.9630 H     1 <1>   0.3700 
 38 H       -6.2350     2.4100     0.4020 H     1 <1>   0.1500 
 39 H       -1.0590     8.8950     1.1990 H     1 <1>   0.0800 
 40 H        0.1210    10.0080    -1.3610 H     1 <1>   0.0800 
 41 H       -1.5770     9.8750    -0.9720 H     1 <1>   0.0800 
 42 H        1.2310     8.3580     1.8450 H     1 <1>   0.0800 
 43 H        1.8530     9.0710     0.3770 H     1 <1>   0.0800 
 44 H       -1.3280    11.4630     0.8580 H     1 <1>   0.0800 
 45 H       -0.6970    12.1610    -0.6080 H     1 <1>   0.0800 
 46 H        2.1060    10.6550     2.1910 H     1 <1>   0.0800 
 47 H        0.4190    10.5260     2.6050 H     1 <1>   0.0800 
 48 H        2.0800    15.2590     0.4460 H     1 <1>   0.0800 
 49 H        2.9220    14.4190    -0.8520 H     1 <1>   0.0800 
 50 H        0.2680    15.8840    -1.1360 H     1 <1>   0.0800 
 51 H        1.1100    15.0470    -2.4320 H     1 <1>   0.0800 
 52 H        1.8040    16.4790    -1.7130 H     1 <1>   0.0800 
@<TRIPOS>BOND
  1   1   2  2   
  2   2   3  am  
  3   2   4  1   
  4   3   5  1   
  5   3  28  1   
  6   4   6  1   
  7   4  29  1   
  8   4  30  1   
  9   5   7  1   
 10   5   8  1   
 11   5  31  1   
 12   6   8  1   
 13   7   9  ar  
 14   7  10  ar  
 15   8  11  1   
 16   8  32  1   
 17   9  12  ar  
 18   9  33  1   
 19  10  13  ar  
 20  10  34  1   
 21  11  14  2   
 22  11  15  am  
 23  12  16  ar  
 24  12  35  1   
 25  13  16  ar  
 26  13  36  1   
 27  15  17  1   
 28  15  37  1   
 29  16  38  1   
 30  17  18  1   
 31  17  19  1   
 32  17  39  1   
 33  18  20  1   
 34  18  40  1   
 35  18  41  1   
 36  19  21  1   
 37  19  42  1   
 38  19  43  1   
 39  20  22  1   
 40  20  44  1   
 41  20  45  1   
 42  21  22  1   
 43  21  46  1   
 44  21  47  1   
 45  22  23  am  
 46  23  24  2   
 47  23  25  1   
 48  25  26  1   
 49  26  27  1   
 50  26  48  1   
 51  26  49  1   
 52  27  50  1   
 53  27  51  1   
 54  27  52  1   
@<TRIPOS>SUBSTRUCTURE
  1 ****  15 GROUP 4 **** **** 0

# MOE 2024.06 (io_trps.svl 2023.06)
