@<TRIPOS>MOLECULE
NONAME
52 55 1 0 0 
SMALL
USER_CHARGES


@<TRIPOS>ATOM
  1 O        0.4740     0.1620     0.8840 O.3   1 <1>  -0.5600 
  2 C        1.3650     0.8040     0.0320 C.3   1 <1>   0.1200 
  3 C        0.3040    -1.1930     0.5860 C.3   1 <1>   0.1200 
  4 C        2.7520     0.1580     0.1730 C.3   1 <1>   0.1900 
  5 C        1.6440    -1.9720     0.6590 C.3   1 <1>   0.1900 
  6 N        2.6990    -1.2940    -0.1550 N.3   1 <1>  -0.8100 
  7 C        3.7630     0.8940    -0.7290 C.3   1 <1>   0.3430 
  8 C        1.4440    -3.4260     0.1770 C.3   1 <1>  -0.1600 
  9 C        4.0450    -1.8960    -0.0100 C.3   1 <1>   0.1100 
 10 N        5.1400     0.2880    -0.6520 N.4   1 <1>  -0.9590 
 11 C        0.3140    -4.1810     0.8990 C.3   1 <1>  -0.1600 
 12 C        5.0850    -1.1910    -0.9050 C.3   1 <1>   0.3430 
 13 C        6.0940     0.9700    -1.5660 C.3   1 <1>   0.4860 
 14 C        0.2870    -5.6550     0.4850 C.3   1 <1>  -0.2400 
 15 C        6.2300     2.4150    -1.1310 C.ar  1 <1>  -0.1440 
 16 C        6.9840     2.7370    -0.0060 C.ar  1 <1>  -0.1500 
 17 C        5.5960     3.4220    -1.8580 C.ar  1 <1>  -0.1500 
 18 C        7.0780     4.0610     0.3780 C.ar  1 <1>  -0.1440 
 19 C        5.6980     4.7460    -1.4620 C.ar  1 <1>  -0.1500 
 20 C        6.4440     5.0410    -0.3390 C.ar  1 <1>   0.0820 
 21 C        7.8070     4.7060     1.5210 C.3   1 <1>  -0.0170 
 22 O        6.6380     6.2690     0.1640 O.3   1 <1>  -0.3620 
 23 C        7.4890     6.1960     1.3000 C.3   1 <1>   0.1200 
 24 H        0.9960     0.7280    -0.9770 H     1 <1>   0.0800 
 25 H        1.3940     1.8400     0.3200 H     1 <1>   0.0800 
 26 H       -0.3960    -1.5840     1.3030 H     1 <1>   0.0800 
 27 H       -0.1280    -1.2770    -0.3950 H     1 <1>   0.0800 
 28 H        3.0580     0.2830     1.1980 H     1 <1>   0.0800 
 29 H        1.9510    -1.9930     1.6920 H     1 <1>   0.0800 
 30 H        3.8040     1.9310    -0.4340 H     1 <1>   0.0800 
 31 H        3.4020     0.8510    -1.7430 H     1 <1>   0.0800 
 32 H        1.2420    -3.4220    -0.8800 H     1 <1>   0.0800 
 33 H        2.3440    -3.9850     0.3470 H     1 <1>   0.0800 
 34 H        4.3590    -1.8580     1.0200 H     1 <1>   0.0800 
 35 H        4.0220    -2.9270    -0.3110 H     1 <1>   0.0800 
 36 H        5.4770     0.4450     0.3050 H     1 <1>   0.4500 
 37 H        0.4560    -4.1190     1.9650 H     1 <1>   0.0800 
 38 H       -0.6420    -3.7470     0.6610 H     1 <1>   0.0800 
 39 H        4.8150    -1.3720    -1.9330 H     1 <1>   0.0800 
 40 H        6.0540    -1.6300    -0.7340 H     1 <1>   0.0800 
 41 H        7.0600     0.4930    -1.5200 H     1 <1>   0.0800 
 42 H        5.7370     0.9220    -2.5820 H     1 <1>   0.0800 
 43 H        1.2120    -6.1400     0.7430 H     1 <1>   0.0800 
 44 H        0.1310    -5.7450    -0.5770 H     1 <1>   0.0800 
 45 H       -0.5160    -6.1640     0.9900 H     1 <1>   0.0800 
 46 H        7.4980     1.9860     0.5680 H     1 <1>   0.1500 
 47 H        5.0220     3.1930    -2.7390 H     1 <1>   0.1500 
 48 H        5.2200     5.5410    -2.0060 H     1 <1>   0.1500 
 49 H        8.8650     4.5270     1.4660 H     1 <1>   0.0800 
 50 H        7.4260     4.3710     2.4690 H     1 <1>   0.0800 
 51 H        8.3780     6.7620     1.0860 H     1 <1>   0.0800 
 52 H        6.9680     6.6230     2.1390 H     1 <1>   0.0800 
@<TRIPOS>BOND
  1   1   2  1   
  2   1   3  1   
  3   2   4  1   
  4   2  24  1   
  5   2  25  1   
  6   3   5  1   
  7   3  26  1   
  8   3  27  1   
  9   4   6  1   
 10   4   7  1   
 11   4  28  1   
 12   5   6  1   
 13   5   8  1   
 14   5  29  1   
 15   6   9  1   
 16   7  10  1   
 17   7  30  1   
 18   7  31  1   
 19   8  11  1   
 20   8  32  1   
 21   8  33  1   
 22   9  12  1   
 23   9  34  1   
 24   9  35  1   
 25  10  12  1   
 26  10  13  1   
 27  10  36  1   
 28  11  14  1   
 29  11  37  1   
 30  11  38  1   
 31  12  39  1   
 32  12  40  1   
 33  13  15  1   
 34  13  41  1   
 35  13  42  1   
 36  14  43  1   
 37  14  44  1   
 38  14  45  1   
 39  15  16  ar  
 40  15  17  ar  
 41  16  18  ar  
 42  16  46  1   
 43  17  19  ar  
 44  17  47  1   
 45  18  20  ar  
 46  18  21  1   
 47  19  20  ar  
 48  19  48  1   
 49  20  22  1   
 50  21  23  1   
 51  21  49  1   
 52  21  50  1   
 53  22  23  1   
 54  23  51  1   
 55  23  52  1   
@<TRIPOS>SUBSTRUCTURE
  1 ****   7 GROUP 4 **** **** 0

# MOE 2024.06 (io_trps.svl 2023.06)
