@<TRIPOS>MOLECULE
NONAME
47 49 1 0 0 
SMALL
USER_CHARGES


@<TRIPOS>ATOM
  1 O        0.0670    -0.4540     0.3840 O.3   1 <1>  -0.3630 
  2 C        0.0200    -1.8020     0.5160 C.ar  1 <1>   0.0830 
  3 C        1.0020     0.1740    -0.4640 C.3   1 <1>   0.0400 
  4 C        0.8230    -2.6840    -0.1990 C.ar  1 <1>  -0.1500 
  5 C       -0.8900    -2.3030     1.4280 C.ar  1 <1>  -0.1500 
  6 C        0.7150    -4.0540    -0.0120 C.ar  1 <1>  -0.1430 
  7 C       -1.0080    -3.6660     1.6210 C.ar  1 <1>  -0.1500 
  8 C       -0.2180    -4.5490     0.8980 C.ar  1 <1>  -0.1440 
  9 C        1.6390    -4.9670    -0.8110 C.3   1 <1>  -0.0970 
 10 C       -0.4040    -6.0380     1.1180 C.3   1 <1>   0.4860 
 11 N       -1.2550    -6.5600     0.0160 N.4   1 <1>  -0.9590 
 12 C       -2.6540    -6.0250     0.0540 C.3   1 <1>   0.3430 
 13 C       -1.3240    -8.0520    -0.0210 C.3   1 <1>   0.3430 
 14 C       -3.5590    -7.2100    -0.2870 C.3   1 <1>   0.2000 
 15 C       -2.7910    -8.4370     0.1870 C.3   1 <1>  -0.0800 
 16 O       -4.7860    -7.1320     0.3510 O.3   1 <1>  -0.6800 
 17 C       -3.2040    -9.7240    -0.5530 C.3   1 <1>  -0.0170 
 18 C       -2.4480   -10.9470    -0.0510 C.ar  1 <1>   0.1670 
 19 N       -1.1360   -10.9470    -0.2340 N.ar  1 <1>  -0.6200 
 20 C       -3.1410   -11.9920     0.5600 C.ar  1 <1>   0.1600 
 21 C       -0.5730   -12.0600     0.2150 C.ar  1 <1>   0.1600 
 22 N       -2.5750   -13.0920     1.0240 N.ar  1 <1>  -0.6200 
 23 C       -1.2690   -13.0960     0.8250 C.ar  1 <1>   0.1600 
 24 H        0.8640     1.2370    -0.3830 H     1 <1>   0.0800 
 25 H        0.8230    -0.1400    -1.4770 H     1 <1>   0.0800 
 26 H        1.9950    -0.0900    -0.1470 H     1 <1>   0.0800 
 27 H        1.5390    -2.3050    -0.9040 H     1 <1>   0.1500 
 28 H       -1.5010    -1.6130     1.9850 H     1 <1>   0.1500 
 29 H       -1.7220    -4.0190     2.3450 H     1 <1>   0.1500 
 30 H        2.4040    -4.3940    -1.3060 H     1 <1>   0.0800 
 31 H        1.0900    -5.4990    -1.5650 H     1 <1>   0.0800 
 32 H        2.1340    -5.6680    -0.1640 H     1 <1>   0.0800 
 33 H       -0.8710    -6.2170     2.0730 H     1 <1>   0.0800 
 34 H        0.5580    -6.5250     1.1120 H     1 <1>   0.0800 
 35 H       -0.8190    -6.2200    -0.8510 H     1 <1>   0.4500 
 36 H       -2.8870    -5.6750     1.0460 H     1 <1>   0.0800 
 37 H       -2.7830    -5.2200    -0.6510 H     1 <1>   0.0800 
 38 H       -0.9970    -8.4070    -0.9870 H     1 <1>   0.0800 
 39 H       -0.7020    -8.5060     0.7340 H     1 <1>   0.0800 
 40 H       -3.7350    -7.2360    -1.3500 H     1 <1>   0.0800 
 41 H       -2.9390    -8.5740     1.2440 H     1 <1>   0.0800 
 42 H       -4.7280    -7.2750     1.3170 H     1 <1>   0.4000 
 43 H       -3.0190    -9.6210    -1.6090 H     1 <1>   0.0800 
 44 H       -4.2620    -9.8770    -0.4290 H     1 <1>   0.0800 
 45 H       -4.2080   -11.9210     0.6720 H     1 <1>   0.1500 
 46 H        0.4920   -12.1620     0.0960 H     1 <1>   0.1500 
 47 H       -0.7230   -13.9620     1.1600 H     1 <1>   0.1500 
@<TRIPOS>BOND
  1   1   2  1   
  2   1   3  1   
  3   2   4  ar  
  4   2   5  ar  
  5   3  24  1   
  6   3  25  1   
  7   3  26  1   
  8   4   6  ar  
  9   4  27  1   
 10   5   7  ar  
 11   5  28  1   
 12   6   8  ar  
 13   6   9  1   
 14   7   8  ar  
 15   7  29  1   
 16   8  10  1   
 17   9  30  1   
 18   9  31  1   
 19   9  32  1   
 20  10  11  1   
 21  10  33  1   
 22  10  34  1   
 23  11  12  1   
 24  11  13  1   
 25  11  35  1   
 26  12  14  1   
 27  12  36  1   
 28  12  37  1   
 29  13  15  1   
 30  13  38  1   
 31  13  39  1   
 32  14  15  1   
 33  14  16  1   
 34  14  40  1   
 35  15  17  1   
 36  15  41  1   
 37  16  42  1   
 38  17  18  1   
 39  17  43  1   
 40  17  44  1   
 41  18  19  ar  
 42  18  20  ar  
 43  19  21  ar  
 44  20  22  ar  
 45  20  45  1   
 46  21  23  ar  
 47  21  46  1   
 48  22  23  ar  
 49  23  47  1   
@<TRIPOS>SUBSTRUCTURE
  1 ****  11 GROUP 4 **** **** 0

# MOE 2024.06 (io_trps.svl 2023.06)
