@<TRIPOS>MOLECULE
NONAME
58 61 1 0 0 
SMALL
USER_CHARGES


@<TRIPOS>ATOM
  1 S       -1.3640     0.7400     0.4440 S.o2  1 <1>   1.0900 
  2 O        0.0420     0.6270     0.7550 O.2   1 <1>  -0.6500 
  3 O       -2.1210     1.9310     0.7470 O.2   1 <1>  -0.6500 
  4 C       -2.1670    -0.6960     1.0960 C.3   1 <1>  -0.0550 
  5 C       -1.5890     0.2660    -1.2630 C.3   1 <1>  -0.0550 
  6 C       -1.8020    -1.8040     0.1110 C.3   1 <1>   0.1760 
  7 C       -1.9700    -1.2250    -1.3100 C.3   1 <1>  -0.1600 
  8 N       -2.6400    -3.0130     0.3090 N.pl3 1 <1>   0.3140 
  9 N       -3.9760    -2.9180     0.4300 N.2   1 <1>  -0.7070 
 10 C       -2.2300    -4.3080     0.3410 C.2   1 <1>  -0.3320 
 11 C       -4.3950    -4.1400     0.5290 C.2   1 <1>   0.1080 
 12 C       -3.3440    -5.0610     0.4770 C.2   1 <1>   0.0630 
 13 C       -0.7780    -4.7500     0.2210 C.3   1 <1>  -0.0600 
 14 C       -5.8660    -4.4530     0.6900 C.3   1 <1>  -0.0590 
 15 N       -3.3790    -6.4760     0.5630 N.am  1 <1>  -0.4930 
 16 C       -4.2180    -7.3370    -0.0780 C.2   1 <1>   0.5690 
 17 O       -5.0960    -6.9800    -0.8250 O.2   1 <1>  -0.5700 
 18 C       -4.0480    -8.8410     0.1440 C.3   1 <1>  -0.0190 
 19 C       -3.7690    -9.5600    -1.1920 C.3   1 <1>  -0.1600 
 20 C       -5.3020    -9.4330     0.8170 C.3   1 <1>  -0.1600 
 21 C       -3.7510   -11.0800    -1.0450 C.3   1 <1>   0.3430 
 22 C       -5.2510   -10.9560     0.9160 C.3   1 <1>   0.3430 
 23 N       -5.0310   -11.5350    -0.4420 N.4   1 <1>  -0.9590 
 24 C       -5.1390   -13.0250    -0.4340 C.3   1 <1>   0.5230 
 25 C       -6.5940   -13.4380    -0.3010 C.2   1 <1>  -0.0400 
 26 O       -7.2210   -13.2390     0.8430 O.3   1 <1>  -0.2800 
 27 C       -7.4230   -14.0190    -1.1970 C.2   1 <1>  -0.1500 
 28 C       -8.4550   -13.6830     0.7070 C.2   1 <1>  -0.0100 
 29 C       -8.6460   -14.1770    -0.5340 C.2   1 <1>  -0.1500 
 30 H       -3.2300    -0.5410     1.0990 H     1 <1>   0.0800 
 31 H       -1.8290    -0.9210     2.0880 H     1 <1>   0.0800 
 32 H       -0.6830     0.4400    -1.8130 H     1 <1>   0.0800 
 33 H       -2.3730     0.8490    -1.7090 H     1 <1>   0.0800 
 34 H       -0.7710    -2.0640     0.2640 H     1 <1>   0.0800 
 35 H       -1.3590    -1.7600    -2.0150 H     1 <1>   0.0800 
 36 H       -3.0020    -1.3070    -1.6120 H     1 <1>   0.0800 
 37 H       -0.3570    -4.3920    -0.7020 H     1 <1>   0.0800 
 38 H       -0.7030    -5.8220     0.2280 H     1 <1>   0.0800 
 39 H       -0.2010    -4.3640     1.0430 H     1 <1>   0.0800 
 40 H       -6.3630    -3.6320     1.1730 H     1 <1>   0.0800 
 41 H       -5.9970    -5.3380     1.2840 H     1 <1>   0.0800 
 42 H       -6.3060    -4.6070    -0.2770 H     1 <1>   0.0800 
 43 H       -2.6230    -6.8660     1.1190 H     1 <1>   0.3700 
 44 H       -3.2070    -8.9990     0.7970 H     1 <1>   0.0800 
 45 H       -2.8220    -9.2310    -1.5830 H     1 <1>   0.0800 
 46 H       -4.5190    -9.2910    -1.9170 H     1 <1>   0.0800 
 47 H       -6.1830    -9.1520     0.2630 H     1 <1>   0.0800 
 48 H       -5.4070    -9.0200     1.8050 H     1 <1>   0.0800 
 49 H       -2.9240   -11.3740    -0.4180 H     1 <1>   0.0800 
 50 H       -3.6180   -11.5280    -2.0170 H     1 <1>   0.0800 
 51 H       -6.1810   -11.3090     1.3310 H     1 <1>   0.0800 
 52 H       -4.4520   -11.2530     1.5770 H     1 <1>   0.0800 
 53 H       -5.8060   -11.1980    -1.0300 H     1 <1>   0.4500 
 54 H       -4.5660   -13.4420     0.3780 H     1 <1>   0.0800 
 55 H       -4.7580   -13.4210    -1.3600 H     1 <1>   0.0800 
 56 H       -7.2390   -14.3200    -2.2140 H     1 <1>   0.1500 
 57 H       -9.1340   -13.6120     1.5400 H     1 <1>   0.1500 
 58 H       -9.5380   -14.6120    -0.9540 H     1 <1>   0.1500 
@<TRIPOS>BOND
  1   1   2  2   
  2   1   3  2   
  3   1   4  1   
  4   1   5  1   
  5   4   6  1   
  6   4  30  1   
  7   4  31  1   
  8   5   7  1   
  9   5  32  1   
 10   5  33  1   
 11   6   7  1   
 12   6   8  1   
 13   6  34  1   
 14   7  35  1   
 15   7  36  1   
 16   8   9  1   
 17   8  10  1   
 18   9  11  2   
 19  10  12  2   
 20  10  13  1   
 21  11  12  1   
 22  11  14  1   
 23  12  15  1   
 24  13  37  1   
 25  13  38  1   
 26  13  39  1   
 27  14  40  1   
 28  14  41  1   
 29  14  42  1   
 30  15  16  am  
 31  15  43  1   
 32  16  17  2   
 33  16  18  1   
 34  18  19  1   
 35  18  20  1   
 36  18  44  1   
 37  19  21  1   
 38  19  45  1   
 39  19  46  1   
 40  20  22  1   
 41  20  47  1   
 42  20  48  1   
 43  21  23  1   
 44  21  49  1   
 45  21  50  1   
 46  22  23  1   
 47  22  51  1   
 48  22  52  1   
 49  23  24  1   
 50  23  53  1   
 51  24  25  1   
 52  24  54  1   
 53  24  55  1   
 54  25  26  1   
 55  25  27  2   
 56  26  28  1   
 57  27  29  1   
 58  27  56  1   
 59  28  29  2   
 60  28  57  1   
 61  29  58  1   
@<TRIPOS>SUBSTRUCTURE
  1 ****  16 GROUP 4 **** **** 0

# MOE 2024.06 (io_trps.svl 2023.06)
