@<TRIPOS>MOLECULE
NONAME
49 50 1 0 0 
SMALL
USER_CHARGES


@<TRIPOS>ATOM
  1 S        0.8190     0.1750    -0.4880 S.o2  1 <1>   1.3330 
  2 O        1.9300     0.1310     0.4360 O.2   1 <1>  -0.6500 
  3 O        1.0670     0.0780    -1.9090 O.2   1 <1>  -0.6500 
  4 N       -0.2690    -1.0520    -0.0530 N.am  1 <1>  -0.8490 
  5 C       -0.1230     1.6720    -0.2060 C.3   1 <1>  -0.0550 
  6 C        0.0090    -2.3100    -0.7520 C.3   1 <1>   0.1160 
  7 C       -0.3290    -1.2900     1.3940 C.3   1 <1>   0.1160 
  8 C        0.6270     2.9490    -0.6340 C.3   1 <1>  -0.0800 
  9 C       -0.2140     4.2270    -0.5610 C.3   1 <1>   0.2000 
 10 C        1.8720     3.2610     0.2100 C.3   1 <1>   0.1400 
 11 O       -0.9030     4.2460     0.6430 O.3   1 <1>  -0.6800 
 12 C        0.8300     5.3400    -0.5270 C.3   1 <1>   0.1400 
 13 N        1.9620     4.7420     0.2230 N.am  1 <1>  -0.6600 
 14 C        2.9240     5.4430     0.9110 C.2   1 <1>   0.5440 
 15 O        3.7160     4.8200     1.5910 O.2   1 <1>  -0.5700 
 16 C        2.9940     6.8850     0.8600 C.ar  1 <1>   0.0860 
 17 C        3.2150     7.6120    -0.3230 C.ar  1 <1>   0.0820 
 18 C        2.8080     7.6140     2.0360 C.ar  1 <1>  -0.1500 
 19 O        3.4630     7.0250    -1.5160 O.3   1 <1>  -0.3630 
 20 C        3.1850     8.9970    -0.3220 C.ar  1 <1>  -0.1500 
 21 C        2.7960     8.9940     2.0380 C.ar  1 <1>  -0.1500 
 22 C        4.5130     6.0830    -1.6190 C.3   1 <1>   0.0400 
 23 C        2.9740     9.6990     0.8580 C.ar  1 <1>   0.0820 
 24 O        2.9360    11.0480     0.9380 O.3   1 <1>  -0.3620 
 25 C        3.1190    11.8620    -0.1990 C.3   1 <1>   0.0400 
 26 H       -1.0360     1.6100    -0.7660 H     1 <1>   0.0800 
 27 H       -0.3840     1.7380     0.8310 H     1 <1>   0.0800 
 28 H       -0.7080    -3.0620    -0.4680 H     1 <1>   0.0800 
 29 H        1.0010    -2.6580    -0.5180 H     1 <1>   0.0800 
 30 H       -0.0630    -2.1640    -1.8170 H     1 <1>   0.0800 
 31 H       -1.0930    -2.0150     1.6170 H     1 <1>   0.0800 
 32 H       -0.5680    -0.3770     1.9110 H     1 <1>   0.0800 
 33 H        0.6180    -1.6560     1.7560 H     1 <1>   0.0800 
 34 H        0.9500     2.8290    -1.6540 H     1 <1>   0.0800 
 35 H       -0.9200     4.3270    -1.3670 H     1 <1>   0.0800 
 36 H        2.7620     2.8300    -0.2170 H     1 <1>   0.0800 
 37 H        1.7610     2.9080     1.2220 H     1 <1>   0.0800 
 38 H       -0.2540     4.3680     1.3670 H     1 <1>   0.4000 
 39 H        0.4530     6.2310    -0.0550 H     1 <1>   0.0800 
 40 H        1.1560     5.5710    -1.5270 H     1 <1>   0.0800 
 41 H        2.6670     7.0770     2.9590 H     1 <1>   0.1500 
 42 H        3.3370     9.5040    -1.2550 H     1 <1>   0.1500 
 43 H        2.6460     9.5400     2.9530 H     1 <1>   0.1500 
 44 H        4.8830     6.1030    -2.6280 H     1 <1>   0.0800 
 45 H        4.1350     5.1020    -1.3940 H     1 <1>   0.0800 
 46 H        5.3010     6.3490    -0.9350 H     1 <1>   0.0800 
 47 H        3.0470    12.8890     0.1100 H     1 <1>   0.0800 
 48 H        2.3470    11.6410    -0.9150 H     1 <1>   0.0800 
 49 H        4.0940    11.6710    -0.6120 H     1 <1>   0.0800 
@<TRIPOS>BOND
  1   1   2  2   
  2   1   3  2   
  3   1   4  am  
  4   1   5  1   
  5   4   6  1   
  6   4   7  1   
  7   5   8  1   
  8   5  26  1   
  9   5  27  1   
 10   6  28  1   
 11   6  29  1   
 12   6  30  1   
 13   7  31  1   
 14   7  32  1   
 15   7  33  1   
 16   8   9  1   
 17   8  10  1   
 18   8  34  1   
 19   9  11  1   
 20   9  12  1   
 21   9  35  1   
 22  10  13  1   
 23  10  36  1   
 24  10  37  1   
 25  11  38  1   
 26  12  13  1   
 27  12  39  1   
 28  12  40  1   
 29  13  14  am  
 30  14  15  2   
 31  14  16  1   
 32  16  17  ar  
 33  16  18  ar  
 34  17  19  1   
 35  17  20  ar  
 36  18  21  ar  
 37  18  41  1   
 38  19  22  1   
 39  20  23  ar  
 40  20  42  1   
 41  21  23  ar  
 42  21  43  1   
 43  22  44  1   
 44  22  45  1   
 45  22  46  1   
 46  23  24  1   
 47  24  25  1   
 48  25  47  1   
 49  25  48  1   
 50  25  49  1   
@<TRIPOS>SUBSTRUCTURE
  1 ****  13 GROUP 4 **** **** 0

# MOE 2024.06 (io_trps.svl 2023.06)
