@<TRIPOS>MOLECULE
NONAME
42 43 1 0 0 
SMALL
USER_CHARGES


@<TRIPOS>ATOM
  1 CL      -0.4880     4.3070    -3.1950 Cl    1 <1>  -0.1770 
  2 C        0.3250     4.6570    -1.6820 C.ar  1 <1>   0.1770 
  3 C       -0.3570     5.3500    -0.6890 C.ar  1 <1>  -0.1440 
  4 C        1.6380     4.2380    -1.5070 C.ar  1 <1>  -0.1440 
  5 C        0.2940     5.6290     0.5010 C.ar  1 <1>  -0.1500 
  6 C       -1.7960     5.8030    -0.8950 C.3   1 <1>  -0.0960 
  7 C        2.2730     4.5310    -0.3110 C.ar  1 <1>  -0.1500 
  8 C        2.3740     3.4710    -2.5960 C.3   1 <1>  -0.0960 
  9 C        1.6160     5.2290     0.6890 C.ar  1 <1>   0.0820 
 10 O        2.3400     5.5080     1.8040 O.3   1 <1>  -0.3630 
 11 C        1.8620     6.3460     2.8530 C.3   1 <1>   0.2610 
 12 C        1.6860     7.8040     2.3910 C.2   1 <1>   0.5690 
 13 C        2.8670     6.2240     4.0020 C.3   1 <1>  -0.2400 
 14 O        1.0830     8.5690     3.1090 O.2   1 <1>  -0.5700 
 15 N        2.1910     8.1700     1.1790 N.am  1 <1>  -0.4930 
 16 C        2.0240     9.3760     0.4630 C.2   1 <1>   0.0630 
 17 C        2.1510     9.5350    -0.8720 C.2   1 <1>  -0.3320 
 18 C        1.6950    10.6420     0.9450 C.2   1 <1>   0.1390 
 19 N        1.9100    10.8460    -1.1260 N.pl3 1 <1>   0.3140 
 20 C        2.4750     8.5000    -1.9410 C.3   1 <1>  -0.0600 
 21 N        1.6300    11.5280    -0.0030 N.2   1 <1>  -0.7070 
 22 C        1.9240    11.5140    -2.4330 C.3   1 <1>   0.0160 
 23 H       -0.2390     6.1620     1.2660 H     1 <1>   0.1500 
 24 H       -1.8560     6.4600    -1.7440 H     1 <1>   0.0800 
 25 H       -2.1650     6.3300    -0.0330 H     1 <1>   0.0800 
 26 H       -2.4290     4.9510    -1.0700 H     1 <1>   0.0800 
 27 H        3.2890     4.2210    -0.1420 H     1 <1>   0.1500 
 28 H        1.8540     2.5560    -2.8150 H     1 <1>   0.0800 
 29 H        3.3750     3.2280    -2.2890 H     1 <1>   0.0800 
 30 H        2.4250     4.0630    -3.4920 H     1 <1>   0.0800 
 31 H        0.9120     5.9610     3.1770 H     1 <1>   0.0800 
 32 H        3.8310     6.5880     3.6950 H     1 <1>   0.0800 
 33 H        2.9500     5.1990     4.3140 H     1 <1>   0.0800 
 34 H        2.5320     6.8110     4.8390 H     1 <1>   0.0800 
 35 H        2.6150     7.4090     0.6470 H     1 <1>   0.3700 
 36 H        1.5150    10.8600     1.9840 H     1 <1>   0.1500 
 37 H        2.5870     7.5230    -1.5060 H     1 <1>   0.0800 
 38 H        3.3900     8.7580    -2.4420 H     1 <1>   0.0800 
 39 H        1.6800     8.4540    -2.6640 H     1 <1>   0.0800 
 40 H        2.8950    11.4010    -2.8770 H     1 <1>   0.0800 
 41 H        1.7100    12.5580    -2.2960 H     1 <1>   0.0800 
 42 H        1.1750    11.0730    -3.0620 H     1 <1>   0.0800 
@<TRIPOS>BOND
  1   1   2  1   
  2   2   3  ar  
  3   2   4  ar  
  4   3   5  ar  
  5   3   6  1   
  6   4   7  ar  
  7   4   8  1   
  8   5   9  ar  
  9   5  23  1   
 10   6  24  1   
 11   6  25  1   
 12   6  26  1   
 13   7   9  ar  
 14   7  27  1   
 15   8  28  1   
 16   8  29  1   
 17   8  30  1   
 18   9  10  1   
 19  10  11  1   
 20  11  12  1   
 21  11  13  1   
 22  11  31  1   
 23  12  14  2   
 24  12  15  am  
 25  13  32  1   
 26  13  33  1   
 27  13  34  1   
 28  15  16  1   
 29  15  35  1   
 30  16  17  2   
 31  16  18  1   
 32  17  19  1   
 33  17  20  1   
 34  18  21  2   
 35  18  36  1   
 36  19  21  1   
 37  19  22  1   
 38  20  37  1   
 39  20  38  1   
 40  20  39  1   
 41  22  40  1   
 42  22  41  1   
 43  22  42  1   
@<TRIPOS>SUBSTRUCTURE
  1 ****  15 GROUP 4 **** **** 0

# MOE 2024.06 (io_trps.svl 2023.06)
