@<TRIPOS>MOLECULE
NONAME
54 56 1 0 0 
SMALL
USER_CHARGES


@<TRIPOS>ATOM
  1 O        0.6280    -0.6330    -1.0100 O.2   1 <1>  -0.5700 
  2 C        1.5930    -0.8500    -0.3180 C.2   1 <1>   0.5690 
  3 N        2.3670     0.1300     0.2400 N.am  1 <1>  -0.4940 
  4 C        1.9660    -2.3120    -0.0670 C.3   1 <1>  -0.0190 
  5 C        2.3030     1.5420     0.1360 C.2   1 <1>  -0.0880 
  6 C        2.2580    -3.0350    -1.3980 C.3   1 <1>  -0.1600 
  7 C        0.8400    -3.0370     0.6960 C.3   1 <1>  -0.1600 
  8 N        1.2000     2.3340    -0.0040 N.pl3 1 <1>   0.3140 
  9 C        3.3660     2.3820     0.1900 C.2   1 <1>  -0.1810 
 10 C        2.4830    -4.5340    -1.2130 C.3   1 <1>   0.3430 
 11 C        1.0950    -4.5370     0.8330 C.3   1 <1>   0.3430 
 12 N        1.5360     3.6410    -0.0350 N.2   1 <1>  -0.7070 
 13 C       -0.2190     1.9600    -0.0290 C.3   1 <1>   0.0160 
 14 C        2.8250     3.6610     0.0770 C.2   1 <1>   0.1080 
 15 C        4.8370     2.0280     0.3350 C.3   1 <1>   0.0210 
 16 N        1.3100    -5.1300    -0.5190 N.4   1 <1>  -0.9590 
 17 C        3.6010     4.9670     0.0760 C.3   1 <1>   0.0210 
 18 C        5.2440     2.0120     1.8100 C.3   1 <1>  -0.2400 
 19 C        1.4000    -6.6200    -0.4630 C.3   1 <1>   0.5230 
 20 C        4.0140     5.3640    -1.3450 C.3   1 <1>  -0.2400 
 21 C        0.0220    -7.2150    -0.2340 C.2   1 <1>  -0.0400 
 22 O       -0.5640    -7.0550     0.9380 O.3   1 <1>  -0.2800 
 23 C       -0.7690    -7.9320    -1.0620 C.2   1 <1>  -0.1500 
 24 C       -1.7340    -7.6610     0.8870 C.2   1 <1>  -0.0100 
 25 C       -1.9240    -8.2230    -0.3250 C.2   1 <1>  -0.1500 
 26 H        3.1930    -0.1860     0.7440 H     1 <1>   0.3700 
 27 H        2.8570    -2.3410     0.5360 H     1 <1>   0.0800 
 28 H        3.1300    -2.6010    -1.8550 H     1 <1>   0.0800 
 29 H        1.4390    -2.8890    -2.0820 H     1 <1>   0.0800 
 30 H       -0.1000    -2.8920     0.1910 H     1 <1>   0.0800 
 31 H        0.7390    -2.6080     1.6780 H     1 <1>   0.0800 
 32 H        3.3760    -4.6980    -0.6310 H     1 <1>   0.0800 
 33 H        2.6160    -4.9950    -2.1790 H     1 <1>   0.0800 
 34 H        0.2440    -4.9920     1.3140 H     1 <1>   0.0800 
 35 H        1.9620    -4.7060     1.4520 H     1 <1>   0.0800 
 36 H       -0.3850     1.1390     0.6410 H     1 <1>   0.0800 
 37 H       -0.4890     1.6810    -1.0300 H     1 <1>   0.0800 
 38 H       -0.8100     2.8020     0.2800 H     1 <1>   0.0800 
 39 H        5.4360     2.7420    -0.2010 H     1 <1>   0.0800 
 40 H        5.0200     1.0630    -0.1030 H     1 <1>   0.0800 
 41 H        0.4650    -4.9200    -1.0680 H     1 <1>   0.4500 
 42 H        4.4700     4.8750     0.6990 H     1 <1>   0.0800 
 43 H        2.9760     5.7360     0.4940 H     1 <1>   0.0800 
 44 H        5.0890     2.9820     2.2470 H     1 <1>   0.0800 
 45 H        6.2830     1.7520     1.9060 H     1 <1>   0.0800 
 46 H        4.6530     1.2960     2.3530 H     1 <1>   0.0800 
 47 H        2.0670    -6.9300     0.3250 H     1 <1>   0.0800 
 48 H        1.7800    -6.9960    -1.3980 H     1 <1>   0.0800 
 49 H        4.6410     4.6050    -1.7770 H     1 <1>   0.0800 
 50 H        4.5470     6.2970    -1.3310 H     1 <1>   0.0800 
 51 H        3.1360     5.4730    -1.9580 H     1 <1>   0.0800 
 52 H       -0.6010    -8.2460    -2.0790 H     1 <1>   0.1500 
 53 H       -2.3710    -7.6470     1.7560 H     1 <1>   0.1500 
 54 H       -2.7710    -8.7850    -0.6790 H     1 <1>   0.1500 
@<TRIPOS>BOND
  1   1   2  2   
  2   2   3  am  
  3   2   4  1   
  4   3   5  1   
  5   3  26  1   
  6   4   6  1   
  7   4   7  1   
  8   4  27  1   
  9   5   8  1   
 10   5   9  2   
 11   6  10  1   
 12   6  28  1   
 13   6  29  1   
 14   7  11  1   
 15   7  30  1   
 16   7  31  1   
 17   8  12  1   
 18   8  13  1   
 19   9  14  1   
 20   9  15  1   
 21  10  16  1   
 22  10  32  1   
 23  10  33  1   
 24  11  16  1   
 25  11  34  1   
 26  11  35  1   
 27  12  14  2   
 28  13  36  1   
 29  13  37  1   
 30  13  38  1   
 31  14  17  1   
 32  15  18  1   
 33  15  39  1   
 34  15  40  1   
 35  16  19  1   
 36  16  41  1   
 37  17  20  1   
 38  17  42  1   
 39  17  43  1   
 40  18  44  1   
 41  18  45  1   
 42  18  46  1   
 43  19  21  1   
 44  19  47  1   
 45  19  48  1   
 46  20  49  1   
 47  20  50  1   
 48  20  51  1   
 49  21  22  1   
 50  21  23  2   
 51  22  24  1   
 52  23  25  1   
 53  23  52  1   
 54  24  25  2   
 55  24  53  1   
 56  25  54  1   
@<TRIPOS>SUBSTRUCTURE
  1 ****   2 GROUP 4 **** **** 0

# MOE 2024.06 (io_trps.svl 2023.06)
