@<TRIPOS>MOLECULE
NONAME
47 48 1 0 0 
SMALL
USER_CHARGES


@<TRIPOS>ATOM
  1 N       -0.7850    -0.0050    -1.0080 N.ar  1 <1>  -0.6200 
  2 C       -1.9900    -0.4780    -1.2710 C.ar  1 <1>   0.1600 
  3 C       -0.2310    -0.4400     0.1100 C.ar  1 <1>   0.1600 
  4 C       -2.6730    -1.3750    -0.4670 C.ar  1 <1>  -0.1500 
  5 C       -0.8260    -1.3380     0.9820 C.ar  1 <1>  -0.1500 
  6 C       -2.0830    -1.8360     0.6970 C.ar  1 <1>  -0.1430 
  7 C       -2.7670    -2.8310     1.6160 C.3   1 <1>   0.4870 
  8 N       -3.1280    -4.0310     0.8190 N.4   1 <1>  -0.9590 
  9 C       -4.5470    -4.4460     0.9910 C.3   1 <1>   0.5230 
 10 C       -2.1890    -5.1820     0.9030 C.3   1 <1>   0.3430 
 11 C       -5.1420    -4.6590    -0.3910 C.2   1 <1>   0.0060 
 12 C       -0.8370    -4.8350     0.2800 C.3   1 <1>  -0.1600 
 13 N       -4.5690    -4.2370    -1.4690 N.2   1 <1>  -0.3380 
 14 N       -6.3000    -5.2810    -0.6600 N.pl3 1 <1>   0.0480 
 15 C        0.0500    -6.0820     0.1730 C.3   1 <1>  -0.1600 
 16 N       -5.3480    -4.5790    -2.4870 N.2   1 <1>  -0.3380 
 17 C       -6.3640    -5.1940    -1.9910 C.2   1 <1>   0.0360 
 18 C       -7.2940    -5.9130     0.2490 C.3   1 <1>   0.1760 
 19 C        1.4060    -5.7330    -0.4470 C.3   1 <1>  -0.2400 
 20 C       -7.4380    -7.4040    -0.0740 C.3   1 <1>  -0.2400 
 21 C       -8.6440    -5.1960     0.1410 C.3   1 <1>  -0.2400 
 22 H       -2.4590    -0.1320    -2.1780 H     1 <1>   0.1500 
 23 H        0.7500    -0.0600     0.3430 H     1 <1>   0.1500 
 24 H       -3.6550    -1.6890    -0.7760 H     1 <1>   0.1500 
 25 H       -0.2910    -1.6300     1.8680 H     1 <1>   0.1500 
 26 H       -3.6510    -2.3690     2.0240 H     1 <1>   0.0800 
 27 H       -2.1140    -3.1010     2.4290 H     1 <1>   0.0800 
 28 H       -3.0990    -3.7240    -0.1720 H     1 <1>   0.4500 
 29 H       -5.1060    -3.6720     1.4900 H     1 <1>   0.0800 
 30 H       -4.6070    -5.3510     1.5710 H     1 <1>   0.0800 
 31 H       -2.6040    -6.0150     0.3570 H     1 <1>   0.0800 
 32 H       -2.0530    -5.4850     1.9290 H     1 <1>   0.0800 
 33 H       -0.3280    -4.1060     0.8830 H     1 <1>   0.0800 
 34 H       -0.9860    -4.4300    -0.7070 H     1 <1>   0.0800 
 35 H       -0.4320    -6.8250    -0.4410 H     1 <1>   0.0800 
 36 H        0.2120    -6.5080     1.1500 H     1 <1>   0.0800 
 37 H       -7.1770    -5.5940    -2.5720 H     1 <1>   0.1500 
 38 H       -6.9420    -5.8200     1.2610 H     1 <1>   0.0800 
 39 H        1.2780    -5.3280    -1.4360 H     1 <1>   0.0800 
 40 H        2.0150    -6.6180    -0.5210 H     1 <1>   0.0800 
 41 H        1.9280    -5.0120     0.1570 H     1 <1>   0.0800 
 42 H       -7.8300    -7.5480    -1.0660 H     1 <1>   0.0800 
 43 H       -8.1180    -7.8670     0.6210 H     1 <1>   0.0800 
 44 H       -6.4890    -7.9040     0.0050 H     1 <1>   0.0800 
 45 H       -9.0580    -5.2980    -0.8470 H     1 <1>   0.0800 
 46 H       -8.5370    -4.1500     0.3700 H     1 <1>   0.0800 
 47 H       -9.3430    -5.6200     0.8400 H     1 <1>   0.0800 
@<TRIPOS>BOND
  1   1   2  ar  
  2   1   3  ar  
  3   2   4  ar  
  4   2  22  1   
  5   3   5  ar  
  6   3  23  1   
  7   4   6  ar  
  8   4  24  1   
  9   5   6  ar  
 10   5  25  1   
 11   6   7  1   
 12   7   8  1   
 13   7  26  1   
 14   7  27  1   
 15   8   9  1   
 16   8  10  1   
 17   8  28  1   
 18   9  11  1   
 19   9  29  1   
 20   9  30  1   
 21  10  12  1   
 22  10  31  1   
 23  10  32  1   
 24  11  13  2   
 25  11  14  1   
 26  12  15  1   
 27  12  33  1   
 28  12  34  1   
 29  13  16  1   
 30  14  17  1   
 31  14  18  1   
 32  15  19  1   
 33  15  35  1   
 34  15  36  1   
 35  16  17  2   
 36  17  37  1   
 37  18  20  1   
 38  18  21  1   
 39  18  38  1   
 40  19  39  1   
 41  19  40  1   
 42  19  41  1   
 43  20  42  1   
 44  20  43  1   
 45  20  44  1   
 46  21  45  1   
 47  21  46  1   
 48  21  47  1   
@<TRIPOS>SUBSTRUCTURE
  1 ****   8 GROUP 4 **** **** 0

# MOE 2024.06 (io_trps.svl 2023.06)
