@<TRIPOS>MOLECULE
NONAME
49 51 1 0 0 
SMALL
USER_CHARGES


@<TRIPOS>ATOM
  1 O        2.8430    -1.2160     2.0140 O.2   1 <1>  -0.5700 
  2 C        2.6940    -1.1820     0.8060 C.2   1 <1>   0.5440 
  3 N        2.9830    -0.0060     0.1430 N.am  1 <1>  -0.6600 
  4 C        2.2620    -2.3650     0.0970 C.ar  1 <1>   0.0860 
  5 C        3.3880     1.2100     0.9420 C.3   1 <1>   0.2200 
  6 C        3.1700    -0.0100    -1.3460 C.3   1 <1>   0.1400 
  7 C        0.9540    -2.5030    -0.3810 C.ar  1 <1>   0.0830 
  8 C        3.1650    -3.3940    -0.1630 C.ar  1 <1>  -0.1500 
  9 C        2.8570     2.5260     0.3540 C.3   1 <1>   0.1200 
 10 C        4.9210     1.2400     1.1450 C.3   1 <1>   0.3430 
 11 C        4.1690     1.0320    -1.8870 C.3   1 <1>  -0.0800 
 12 O        0.0460    -1.5300    -0.1520 O.3   1 <1>  -0.3630 
 13 C        0.5700    -3.6220    -1.1150 C.ar  1 <1>  -0.1440 
 14 C        2.7870    -4.5120    -0.8800 C.ar  1 <1>  -0.1500 
 15 O        3.7180     3.0370    -0.6190 O.3   1 <1>  -0.5600 
 16 N        5.6270     0.4370     0.1030 N.4   1 <1>  -0.9590 
 17 C        3.6040     2.4590    -1.8750 C.3   1 <1>   0.1200 
 18 C        5.5900     0.9570    -1.2920 C.3   1 <1>   0.3430 
 19 C       -0.5610    -1.5130     1.1220 C.3   1 <1>   0.0400 
 20 C        1.4930    -4.6250    -1.3570 C.ar  1 <1>  -0.1500 
 21 C       -0.8480    -3.7550    -1.6540 C.3   1 <1>  -0.0970 
 22 C        6.9900    -0.1040     0.4730 C.3   1 <1>   0.2370 
 23 C        7.2610    -1.4350    -0.2390 C.2   1 <1>   0.9060 
 24 O        8.4180    -1.8220    -0.3890 O.co2 1 <1>  -0.9000 
 25 O        6.2670    -2.0280    -0.6880 O.co2 1 <1>  -0.9000 
 26 H        2.9370     1.1380     1.9170 H     1 <1>   0.0800 
 27 H        3.5240    -0.9820    -1.6500 H     1 <1>   0.0800 
 28 H        2.2090     0.1360    -1.8100 H     1 <1>   0.0800 
 29 H        4.1810    -3.3090     0.1910 H     1 <1>   0.1500 
 30 H        2.8140     3.2640     1.1360 H     1 <1>   0.0800 
 31 H        1.8660     2.4070    -0.0490 H     1 <1>   0.0800 
 32 H        5.1300     0.8140     2.1120 H     1 <1>   0.0800 
 33 H        5.2740     2.2570     1.1430 H     1 <1>   0.0800 
 34 H        4.2830     0.7980    -2.9300 H     1 <1>   0.0800 
 35 H        3.5060    -5.2900    -1.0720 H     1 <1>   0.1500 
 36 H        5.0820    -0.4500     0.0270 H     1 <1>   0.4500 
 37 H        2.5730     2.4820    -2.1850 H     1 <1>   0.0800 
 38 H        4.1700     3.0770    -2.5510 H     1 <1>   0.0800 
 39 H        6.0550     1.9280    -1.3340 H     1 <1>   0.0800 
 40 H        6.1670     0.2870    -1.9100 H     1 <1>   0.0800 
 41 H       -1.2970    -0.7300     1.1350 H     1 <1>   0.0800 
 42 H        0.1870    -1.3270     1.8710 H     1 <1>   0.0800 
 43 H       -1.0320    -2.4650     1.2950 H     1 <1>   0.0800 
 44 H        1.2150    -5.5000    -1.9180 H     1 <1>   0.1500 
 45 H       -0.9350    -4.6020    -2.3090 H     1 <1>   0.0800 
 46 H       -1.1160    -2.8710    -2.2040 H     1 <1>   0.0800 
 47 H       -1.5370    -3.8770    -0.8390 H     1 <1>   0.0800 
 48 H        7.7650     0.5920     0.2080 H     1 <1>   0.0800 
 49 H        7.0380    -0.2960     1.5280 H     1 <1>   0.0800 
@<TRIPOS>BOND
  1   1   2  2   
  2   2   3  am  
  3   2   4  1   
  4   3   5  1   
  5   3   6  1   
  6   4   7  ar  
  7   4   8  ar  
  8   5   9  1   
  9   5  10  1   
 10   5  26  1   
 11   6  11  1   
 12   6  27  1   
 13   6  28  1   
 14   7  12  1   
 15   7  13  ar  
 16   8  14  ar  
 17   8  29  1   
 18   9  15  1   
 19   9  30  1   
 20   9  31  1   
 21  10  16  1   
 22  10  32  1   
 23  10  33  1   
 24  11  17  1   
 25  11  18  1   
 26  11  34  1   
 27  12  19  1   
 28  13  20  ar  
 29  13  21  1   
 30  14  20  ar  
 31  14  35  1   
 32  15  17  1   
 33  16  18  1   
 34  16  22  1   
 35  16  36  1   
 36  17  37  1   
 37  17  38  1   
 38  18  39  1   
 39  18  40  1   
 40  19  41  1   
 41  19  42  1   
 42  19  43  1   
 43  20  44  1   
 44  21  45  1   
 45  21  46  1   
 46  21  47  1   
 47  22  23  1   
 48  22  48  1   
 49  22  49  1   
 50  23  24  ar  
 51  23  25  ar  
@<TRIPOS>SUBSTRUCTURE
  1 ****   3 GROUP 4 **** **** 0

# MOE 2024.06 (io_trps.svl 2023.06)
