@<TRIPOS>MOLECULE
NONAME
44 45 1 0 0 
SMALL
USER_CHARGES


@<TRIPOS>ATOM
  1 O       -0.7510     0.6460    -0.4150 O.2   1 <1>  -0.5700 
  2 C       -1.8950     1.0550    -0.3320 C.2   1 <1>   0.5440 
  3 N       -2.1510     2.3800    -0.6390 N.am  1 <1>  -0.6600 
  4 C       -2.9380     0.1390     0.0680 C.ar  1 <1>   0.0860 
  5 C       -1.0440     3.3660    -0.7840 C.3   1 <1>   0.0600 
  6 C       -3.4860     2.8870    -1.0600 C.3   1 <1>   0.0600 
  7 C       -2.9810    -1.1500    -0.4560 C.ar  1 <1>   0.1600 
  8 C       -3.9310     0.4730     0.9840 C.ar  1 <1>  -0.1500 
  9 N       -3.8920    -2.0700    -0.1880 N.ar  1 <1>  -0.6200 
 10 C       -4.8820    -0.4730     1.2810 C.ar  1 <1>  -0.1500 
 11 C       -4.8370    -1.7270     0.6770 C.ar  1 <1>   0.4100 
 12 N       -5.7980    -2.6510     0.9850 N.pl3 1 <1>  -0.8690 
 13 C       -6.0280    -3.8980     0.2220 C.3   1 <1>   0.4330 
 14 C       -7.5040    -3.9140    -0.1580 C.ar  1 <1>  -0.1430 
 15 C       -5.5880    -5.1360     1.0480 C.3   1 <1>  -0.0800 
 16 C       -8.4960    -4.1070     0.7950 C.ar  1 <1>   0.1600 
 17 C       -7.8840    -3.7230    -1.4730 C.ar  1 <1>  -0.1500 
 18 C       -4.0840    -5.1100     1.3750 C.3   1 <1>  -0.2400 
 19 C       -5.9080    -6.4540     0.3190 C.3   1 <1>  -0.2400 
 20 N       -9.7960    -4.1270     0.5490 N.ar  1 <1>  -0.6200 
 21 C       -9.2340    -3.7430    -1.7490 C.ar  1 <1>  -0.1500 
 22 C      -10.1340    -3.9460    -0.7170 C.ar  1 <1>   0.1600 
 23 H       -0.1550     3.0120    -0.2880 H     1 <1>   0.0800 
 24 H       -1.3280     4.3050    -0.3430 H     1 <1>   0.0800 
 25 H       -0.8230     3.5120    -1.8260 H     1 <1>   0.0800 
 26 H       -4.1640     2.0740    -1.2510 H     1 <1>   0.0800 
 27 H       -3.3880     3.4620    -1.9650 H     1 <1>   0.0800 
 28 H       -3.8940     3.5160    -0.2880 H     1 <1>   0.0800 
 29 H       -2.2020    -1.4270    -1.1470 H     1 <1>   0.1500 
 30 H       -3.9410     1.4450     1.4450 H     1 <1>   0.1500 
 31 H       -5.6640    -0.2610     1.9840 H     1 <1>   0.1500 
 32 H       -6.6540    -2.2960     1.4070 H     1 <1>   0.4000 
 33 H       -5.4480    -3.8850    -0.6850 H     1 <1>   0.0800 
 34 H       -6.1250    -5.1340     1.9800 H     1 <1>   0.0800 
 35 H       -8.2080    -4.2510     1.8220 H     1 <1>   0.1500 
 36 H       -7.1590    -3.5610    -2.2530 H     1 <1>   0.1500 
 37 H       -3.5020    -5.0770     0.4710 H     1 <1>   0.0800 
 38 H       -3.8020    -5.9800     1.9390 H     1 <1>   0.0800 
 39 H       -3.8420    -4.2400     1.9610 H     1 <1>   0.0800 
 40 H       -5.4010    -6.4930    -0.6290 H     1 <1>   0.0800 
 41 H       -6.9660    -6.5520     0.1460 H     1 <1>   0.0800 
 42 H       -5.5920    -7.2940     0.9110 H     1 <1>   0.0800 
 43 H       -9.5890    -3.6020    -2.7540 H     1 <1>   0.1500 
 44 H      -11.1860    -3.9590    -0.9450 H     1 <1>   0.1500 
@<TRIPOS>BOND
  1   1   2  2   
  2   2   3  am  
  3   2   4  1   
  4   3   5  1   
  5   3   6  1   
  6   4   7  ar  
  7   4   8  ar  
  8   5  23  1   
  9   5  24  1   
 10   5  25  1   
 11   6  26  1   
 12   6  27  1   
 13   6  28  1   
 14   7   9  ar  
 15   7  29  1   
 16   8  10  ar  
 17   8  30  1   
 18   9  11  ar  
 19  10  11  ar  
 20  10  31  1   
 21  11  12  1   
 22  12  13  1   
 23  12  32  1   
 24  13  14  1   
 25  13  15  1   
 26  13  33  1   
 27  14  16  ar  
 28  14  17  ar  
 29  15  18  1   
 30  15  19  1   
 31  15  34  1   
 32  16  20  ar  
 33  16  35  1   
 34  17  21  ar  
 35  17  36  1   
 36  18  37  1   
 37  18  38  1   
 38  18  39  1   
 39  19  40  1   
 40  19  41  1   
 41  19  42  1   
 42  20  22  ar  
 43  21  22  ar  
 44  21  43  1   
 45  22  44  1   
@<TRIPOS>SUBSTRUCTURE
  1 ****  11 GROUP 4 **** **** 0

# MOE 2024.06 (io_trps.svl 2023.06)
