@<TRIPOS>MOLECULE
NONAME
46 49 1 0 0 
SMALL
USER_CHARGES


@<TRIPOS>ATOM
  1 O        1.6930    -0.0940     1.9220 O.3   1 <1>  -0.6800 
  2 C        1.6410    -0.2480     0.5400 C.3   1 <1>   0.2000 
  3 C        2.4650    -1.4650     0.1140 C.3   1 <1>  -0.0800 
  4 C        2.3840     0.9270    -0.1080 C.3   1 <1>   0.2090 
  5 C        3.9010    -0.9470     0.0830 C.3   1 <1>   0.2090 
  6 C        2.3180    -2.7320     0.9790 C.3   1 <1>   0.0210 
  7 N        3.8230     0.5210    -0.1760 N.pl3 1 <1>  -0.8380 
  8 C        3.1870    -3.8620     0.4540 C.2   1 <1>   0.1080 
  9 C        4.8720     1.3650    -0.2790 C.ar  1 <1>   0.4610 
 10 N        4.4860    -3.8540     0.5110 N.2   1 <1>  -0.7070 
 11 C        2.6940    -5.0220    -0.1320 C.2   1 <1>  -0.1500 
 12 N        6.1050     0.8810    -0.0810 N.ar  1 <1>  -0.1790 
 13 C        4.8110     2.7440    -0.5740 C.ar  1 <1>   0.0000 
 14 N        4.8540    -5.0350    -0.0310 N.pl3 1 <1>   0.3000 
 15 C        3.7870    -5.7530    -0.4330 C.2   1 <1>  -0.3320 
 16 C        7.2370     1.6550    -0.1330 C.ar  1 <1>   0.5280 
 17 C        5.9810     3.4630    -0.6140 C.ar  1 <1>   0.1050 
 18 C        3.8320     3.7010    -0.8850 C.2   1 <1>   0.1390 
 19 C        3.8770    -7.1210    -1.0860 C.3   1 <1>  -0.0600 
 20 N        7.2150     2.9170    -0.3890 N.ar  1 <1>  -0.5670 
 21 C        8.5630     0.9720     0.1290 C.3   1 <1>  -0.0970 
 22 N        5.6550     4.7410    -0.9150 N.pl3 1 <1>   0.3140 
 23 N        4.3230     4.8790    -1.0850 N.2   1 <1>  -0.7070 
 24 C        6.5620     5.8880    -1.0670 C.3   1 <1>   0.0160 
 25 H        1.1220    -0.7470     2.3720 H     1 <1>   0.4000 
 26 H        0.6090    -0.2970     0.2370 H     1 <1>   0.0800 
 27 H        2.1920    -1.7150    -0.8960 H     1 <1>   0.0800 
 28 H        2.2450     1.8220     0.4740 H     1 <1>   0.0800 
 29 H        2.0130     1.0790    -1.1080 H     1 <1>   0.0800 
 30 H        4.4630    -1.4520    -0.6860 H     1 <1>   0.0800 
 31 H        4.3610    -1.1170     1.0430 H     1 <1>   0.0800 
 32 H        1.2910    -3.0500     0.9850 H     1 <1>   0.0800 
 33 H        2.6120    -2.5350     1.9940 H     1 <1>   0.0800 
 34 H        1.6590    -5.2660    -0.2960 H     1 <1>   0.1500 
 35 H        6.1770    -0.1050     0.1440 H     1 <1>   0.4570 
 36 H        5.8350    -5.3290    -0.1060 H     1 <1>   0.2700 
 37 H        2.7790     3.4950    -0.9600 H     1 <1>   0.1500 
 38 H        2.8920    -7.4890    -1.3100 H     1 <1>   0.0800 
 39 H        4.3590    -7.8180    -0.4230 H     1 <1>   0.0800 
 40 H        4.4370    -7.0620    -2.0020 H     1 <1>   0.0800 
 41 H        9.3650     1.6860     0.0640 H     1 <1>   0.0800 
 42 H        8.7380     0.2020    -0.6010 H     1 <1>   0.0800 
 43 H        8.5740     0.5420     1.1140 H     1 <1>   0.0800 
 44 H        7.5720     5.5860    -0.8590 H     1 <1>   0.0800 
 45 H        6.2660     6.6600    -0.3820 H     1 <1>   0.0800 
 46 H        6.4930     6.2570    -2.0740 H     1 <1>   0.0800 
@<TRIPOS>BOND
  1   1   2  1   
  2   1  25  1   
  3   2   3  1   
  4   2   4  1   
  5   2  26  1   
  6   3   5  1   
  7   3   6  1   
  8   3  27  1   
  9   4   7  1   
 10   4  28  1   
 11   4  29  1   
 12   5   7  1   
 13   5  30  1   
 14   5  31  1   
 15   6   8  1   
 16   6  32  1   
 17   6  33  1   
 18   7   9  1   
 19   8  10  2   
 20   8  11  1   
 21   9  12  ar  
 22   9  13  ar  
 23  10  14  1   
 24  11  15  2   
 25  11  34  1   
 26  12  16  ar  
 27  12  35  1   
 28  13  17  ar  
 29  13  18  1   
 30  14  15  1   
 31  14  36  1   
 32  15  19  1   
 33  16  20  ar  
 34  16  21  1   
 35  17  20  ar  
 36  17  22  1   
 37  18  23  2   
 38  18  37  1   
 39  19  38  1   
 40  19  39  1   
 41  19  40  1   
 42  21  41  1   
 43  21  42  1   
 44  21  43  1   
 45  22  23  1   
 46  22  24  1   
 47  24  44  1   
 48  24  45  1   
 49  24  46  1   
@<TRIPOS>SUBSTRUCTURE
  1 ****   7 GROUP 4 **** **** 0

# MOE 2024.06 (io_trps.svl 2023.06)
