@<TRIPOS>MOLECULE
NONAME
56 59 1 0 0 
SMALL
USER_CHARGES


@<TRIPOS>ATOM
  1 O        1.3200     2.9840    -2.3380 O.2   1 <1>  -0.5700 
  2 C        0.9840     3.1590    -1.1840 C.2   1 <1>   0.5440 
  3 N       -0.2500     3.7110    -0.9110 N.am  1 <1>  -0.6600 
  4 C        1.9110     2.8090    -0.1430 C.ar  1 <1>   0.0860 
  5 C       -0.7230     3.9860     0.4780 C.3   1 <1>   0.1400 
  6 C       -1.2120     4.0420    -1.9970 C.3   1 <1>   0.1400 
  7 C        1.7960     1.6810     0.6670 C.ar  1 <1>   0.3100 
  8 C        2.9960     3.6270     0.0910 C.ar  1 <1>   0.1600 
  9 C       -2.2280     4.2820     0.5200 C.3   1 <1>  -0.1600 
 10 C       -2.4860     3.2240    -1.7870 C.3   1 <1>  -0.1600 
 11 N        2.6810     1.4620     1.6340 N.ar  1 <1>  -0.6200 
 12 C        0.7270     0.7090     0.5240 C.ar  1 <1>   0.0000 
 13 N        3.8780     3.4100     1.0390 N.ar  1 <1>  -0.6200 
 14 C       -3.0580     3.3090    -0.3440 C.3   1 <1>   0.2800 
 15 C        3.6660     2.3260     1.7620 C.ar  1 <1>   0.4770 
 16 C        0.3500     0.1810    -0.7140 C.ar  1 <1>  -0.1500 
 17 C        0.0420     0.2420     1.6470 C.ar  1 <1>  -0.1500 
 18 O       -4.3320     3.8990    -0.4090 O.3   1 <1>  -0.5600 
 19 C       -3.1610     1.9180     0.3430 C.3   1 <1>  -0.1600 
 20 C        4.6700     2.0560     2.8570 C.3   1 <1>  -0.0970 
 21 C       -0.6680    -0.7480    -0.8240 C.ar  1 <1>  -0.1500 
 22 C       -0.9720    -0.6930     1.5450 C.ar  1 <1>  -0.1500 
 23 C       -5.3940     3.0920    -0.8370 C.3   1 <1>   0.1200 
 24 C       -4.4710     1.7110     1.1110 C.3   1 <1>   0.2800 
 25 C       -1.3320    -1.1890     0.3060 C.ar  1 <1>  -0.1500 
 26 C       -5.6510     1.9540     0.1620 C.3   1 <1>  -0.1600 
 27 O       -4.5480     2.6810     2.0930 O.3   1 <1>  -0.6800 
 28 C       -4.5310     0.3270     1.7930 C.3   1 <1>   0.1200 
 29 O       -5.6470     0.2400     2.6130 O.3   1 <1>  -0.6800 
 30 H       -0.1810     4.8270     0.8770 H     1 <1>   0.0800 
 31 H       -0.5180     3.1340     1.1000 H     1 <1>   0.0800 
 32 H       -0.7990     3.8220    -2.9670 H     1 <1>   0.0800 
 33 H       -1.4340     5.0950    -1.9680 H     1 <1>   0.0800 
 34 H        3.1320     4.4960    -0.5310 H     1 <1>   0.1500 
 35 H       -2.3840     5.2870     0.1690 H     1 <1>   0.0800 
 36 H       -2.5520     4.2520     1.5430 H     1 <1>   0.0800 
 37 H       -2.2450     2.2100    -2.0450 H     1 <1>   0.0800 
 38 H       -3.2110     3.5680    -2.5010 H     1 <1>   0.0800 
 39 H        0.8660     0.4910    -1.6070 H     1 <1>   0.1500 
 40 H        0.3180     0.6140     2.6190 H     1 <1>   0.1500 
 41 H       -2.3280     1.7560     0.9990 H     1 <1>   0.0800 
 42 H       -3.1030     1.1420    -0.3970 H     1 <1>   0.0800 
 43 H        4.4430     1.1340     3.3600 H     1 <1>   0.0800 
 44 H        4.6490     2.8600     3.5680 H     1 <1>   0.0800 
 45 H        5.6530     1.9880     2.4300 H     1 <1>   0.0800 
 46 H       -0.9370    -1.1350    -1.7920 H     1 <1>   0.1500 
 47 H       -1.4740    -1.0410     2.4320 H     1 <1>   0.1500 
 48 H       -5.1580     2.6970    -1.8100 H     1 <1>   0.0800 
 49 H       -6.2670     3.7170    -0.9260 H     1 <1>   0.0800 
 50 H       -2.1180    -1.9190     0.2220 H     1 <1>   0.1500 
 51 H       -5.8420     1.0610    -0.4040 H     1 <1>   0.0800 
 52 H       -6.5450     2.1510     0.7280 H     1 <1>   0.0800 
 53 H       -4.5840     3.5420     1.6200 H     1 <1>   0.4000 
 54 H       -3.6590     0.1820     2.4060 H     1 <1>   0.0800 
 55 H       -4.5830    -0.4640     1.0660 H     1 <1>   0.0800 
 56 H       -5.7150     1.0920     3.0970 H     1 <1>   0.4000 
@<TRIPOS>BOND
  1   1   2  2   
  2   2   3  am  
  3   2   4  1   
  4   3   5  1   
  5   3   6  1   
  6   4   7  ar  
  7   4   8  ar  
  8   5   9  1   
  9   5  30  1   
 10   5  31  1   
 11   6  10  1   
 12   6  32  1   
 13   6  33  1   
 14   7  11  ar  
 15   7  12  1   
 16   8  13  ar  
 17   8  34  1   
 18   9  14  1   
 19   9  35  1   
 20   9  36  1   
 21  10  14  1   
 22  10  37  1   
 23  10  38  1   
 24  11  15  ar  
 25  12  16  ar  
 26  12  17  ar  
 27  13  15  ar  
 28  14  18  1   
 29  14  19  1   
 30  15  20  1   
 31  16  21  ar  
 32  16  39  1   
 33  17  22  ar  
 34  17  40  1   
 35  18  23  1   
 36  19  24  1   
 37  19  41  1   
 38  19  42  1   
 39  20  43  1   
 40  20  44  1   
 41  20  45  1   
 42  21  25  ar  
 43  21  46  1   
 44  22  25  ar  
 45  22  47  1   
 46  23  26  1   
 47  23  48  1   
 48  23  49  1   
 49  24  26  1   
 50  24  27  1   
 51  24  28  1   
 52  25  50  1   
 53  26  51  1   
 54  26  52  1   
 55  27  53  1   
 56  28  29  1   
 57  28  54  1   
 58  28  55  1   
 59  29  56  1   
@<TRIPOS>SUBSTRUCTURE
  1 ****   5 GROUP 4 **** **** 0

# MOE 2024.06 (io_trps.svl 2023.06)
