@<TRIPOS>MOLECULE
NONAME
52 54 1 0 0 
SMALL
USER_CHARGES


@<TRIPOS>ATOM
  1 F       -2.9370    -0.1660    -1.4350 F     1 <1>  -0.1900 
  2 C       -2.6730     0.2330    -0.2180 C.ar  1 <1>   0.1900 
  3 C       -2.8730    -0.6430     0.8450 C.ar  1 <1>  -0.1440 
  4 C       -2.2090     1.5220    -0.0480 C.ar  1 <1>  -0.1500 
  5 C       -2.5950    -0.1940     2.1310 C.ar  1 <1>  -0.1500 
  6 C       -3.3840    -2.0620     0.6250 C.3   1 <1>  -0.0160 
  7 C       -1.9430     1.9280     1.2440 C.ar  1 <1>   0.1900 
  8 C       -2.1280     1.0970     2.3350 C.ar  1 <1>  -0.1500 
  9 C       -4.9080    -2.0680     0.4670 C.3   1 <1>  -0.0990 
 10 F       -1.5030     3.1400     1.4440 F     1 <1>  -0.1900 
 11 C       -5.4200    -3.4690     0.2130 C.2   1 <1>   0.5690 
 12 O       -5.6940    -4.1910     1.1430 O.2   1 <1>  -0.5700 
 13 N       -5.6340    -3.8990    -1.0630 N.am  1 <1>  -0.6600 
 14 C       -6.9100    -3.4760    -1.7160 C.3   1 <1>   0.1400 
 15 C       -5.2920    -5.3240    -1.3870 C.3   1 <1>   0.1400 
 16 C       -8.0990    -4.3540    -1.2280 C.3   1 <1>   0.4230 
 17 C       -6.5050    -6.2700    -1.2090 C.3   1 <1>   0.3430 
 18 N       -7.6280    -5.5840    -0.4770 N.4   1 <1>  -0.9590 
 19 C       -9.0280    -4.7450    -2.4000 C.3   1 <1>   0.1200 
 20 C       -8.7920    -6.4430    -0.0890 C.3   1 <1>   0.4230 
 21 O      -10.0740    -5.5580    -1.9510 O.3   1 <1>  -0.5600 
 22 C       -9.6860    -6.7460    -1.3160 C.3   1 <1>   0.1200 
 23 C       -8.3140    -7.7110     0.6370 C.3   1 <1>  -0.1600 
 24 C       -9.4560    -8.4370     1.3650 C.3   1 <1>  -0.1600 
 25 C       -8.9260    -9.6460     2.1410 C.3   1 <1>  -0.2400 
 26 H       -2.0610     2.1810    -0.8830 H     1 <1>   0.1500 
 27 H       -2.7390    -0.8430     2.9780 H     1 <1>   0.1500 
 28 H       -2.9240    -2.4780    -0.2560 H     1 <1>   0.0800 
 29 H       -3.1060    -2.6840     1.4580 H     1 <1>   0.0800 
 30 H       -1.9080     1.4560     3.3250 H     1 <1>   0.1500 
 31 H       -5.1870    -1.4290    -0.3500 H     1 <1>   0.0800 
 32 H       -5.3630    -1.6860     1.3630 H     1 <1>   0.0800 
 33 H       -7.1170    -2.4430    -1.4930 H     1 <1>   0.0800 
 34 H       -6.7970    -3.5540    -2.7840 H     1 <1>   0.0800 
 35 H       -4.9230    -5.3870    -2.3960 H     1 <1>   0.0800 
 36 H       -4.4970    -5.6530    -0.7380 H     1 <1>   0.0800 
 37 H       -8.6850    -3.7510    -0.5540 H     1 <1>   0.0800 
 38 H       -6.1800    -7.1400    -0.6640 H     1 <1>   0.0800 
 39 H       -6.8460    -6.5980    -2.1770 H     1 <1>   0.0800 
 40 H       -7.1760    -5.2170     0.3870 H     1 <1>   0.4500 
 41 H       -8.4910    -5.2720    -3.1690 H     1 <1>   0.0800 
 42 H       -9.4690    -3.8640    -2.8340 H     1 <1>   0.0800 
 43 H       -9.3980    -5.8870     0.6090 H     1 <1>   0.0800 
 44 H      -10.5860    -7.2480    -1.0070 H     1 <1>   0.0800 
 45 H       -9.1760    -7.3710    -2.0280 H     1 <1>   0.0800 
 46 H       -7.8630    -8.3940    -0.0610 H     1 <1>   0.0800 
 47 H       -7.5770    -7.4330     1.3720 H     1 <1>   0.0800 
 48 H       -9.9380    -7.7660     2.0560 H     1 <1>   0.0800 
 49 H      -10.1960    -8.7810     0.6620 H     1 <1>   0.0800 
 50 H       -8.2070    -9.3390     2.8810 H     1 <1>   0.0800 
 51 H       -8.4590   -10.3520     1.4760 H     1 <1>   0.0800 
 52 H       -9.7360   -10.1430     2.6450 H     1 <1>   0.0800 
@<TRIPOS>BOND
  1   1   2  1   
  2   2   3  ar  
  3   2   4  ar  
  4   3   5  ar  
  5   3   6  1   
  6   4   7  ar  
  7   4  26  1   
  8   5   8  ar  
  9   5  27  1   
 10   6   9  1   
 11   6  28  1   
 12   6  29  1   
 13   7   8  ar  
 14   7  10  1   
 15   8  30  1   
 16   9  11  1   
 17   9  31  1   
 18   9  32  1   
 19  11  12  2   
 20  11  13  am  
 21  13  14  1   
 22  13  15  1   
 23  14  16  1   
 24  14  33  1   
 25  14  34  1   
 26  15  17  1   
 27  15  35  1   
 28  15  36  1   
 29  16  18  1   
 30  16  19  1   
 31  16  37  1   
 32  17  18  1   
 33  17  38  1   
 34  17  39  1   
 35  18  20  1   
 36  18  40  1   
 37  19  21  1   
 38  19  41  1   
 39  19  42  1   
 40  20  22  1   
 41  20  23  1   
 42  20  43  1   
 43  21  22  1   
 44  22  44  1   
 45  22  45  1   
 46  23  24  1   
 47  23  46  1   
 48  23  47  1   
 49  24  25  1   
 50  24  48  1   
 51  24  49  1   
 52  25  50  1   
 53  25  51  1   
 54  25  52  1   
@<TRIPOS>SUBSTRUCTURE
  1 ****  11 GROUP 4 **** **** 0

# MOE 2024.06 (io_trps.svl 2023.06)
