@<TRIPOS>MOLECULE
NONAME
56 59 1 0 0 
SMALL
USER_CHARGES


@<TRIPOS>ATOM
  1 S       -0.4760    -0.0980    -1.4710 S.o2  1 <1>   1.5760 
  2 O       -1.4260     0.8730    -1.9670 O.2   1 <1>  -0.6500 
  3 O       -0.2020    -1.3040    -2.2210 O.2   1 <1>  -0.6500 
  4 N       -0.9320    -0.5390     0.1050 N.am  1 <1>  -0.8490 
  5 N        0.9820     0.6850    -1.1430 N.am  1 <1>  -0.8490 
  6 C       -0.9880    -2.0030     0.3170 C.3   1 <1>   0.1960 
  7 C       -2.2190     0.0470     0.5360 C.3   1 <1>   0.1960 
  8 C        0.8090     1.8980    -0.3440 C.3   1 <1>   0.1960 
  9 C        2.0020    -0.2110    -0.6000 C.3   1 <1>   0.1960 
 10 C       -2.2370    -2.6620    -0.3210 C.3   1 <1>   0.3440 
 11 C       -3.4410    -0.6500    -0.1130 C.3   1 <1>   0.2950 
 12 C        2.1300     2.6700    -0.2520 C.3   1 <1>  -0.1600 
 13 C        3.3530     0.5070    -0.5150 C.3   1 <1>  -0.1600 
 14 O       -3.3990    -2.0240     0.1410 O.3   1 <1>  -0.5600 
 15 C       -2.2870    -4.1450     0.0340 C.ar  1 <1>  -0.1430 
 16 C       -4.7570    -0.1180     0.4610 C.3   1 <1>  -0.1950 
 17 C        3.2860     1.8140     0.2960 C.3   1 <1>   0.0000 
 18 C       -2.9200    -4.6000     1.1830 C.ar  1 <1>  -0.1500 
 19 C       -1.6720    -5.0640    -0.8050 C.ar  1 <1>  -0.1500 
 20 C       -6.0380    -0.2410    -0.3020 C.3   1 <1>  -0.2000 
 21 C       -5.4020     1.1070    -0.1090 C.3   1 <1>  -0.2000 
 22 C        4.6070     2.5800     0.1330 C.3   1 <1>  -0.2400 
 23 C        3.0860     1.5180     1.7940 C.3   1 <1>  -0.2400 
 24 C       -2.9360    -5.9490     1.4890 C.ar  1 <1>  -0.1500 
 25 C       -1.6860    -6.4140    -0.4990 C.ar  1 <1>  -0.1500 
 26 C       -2.3180    -6.8580     0.6490 C.ar  1 <1>  -0.1500 
 27 H       -0.0990    -2.4710    -0.0670 H     1 <1>   0.0800 
 28 H       -1.0130    -2.2010     1.3750 H     1 <1>   0.0800 
 29 H       -2.3040    -0.0520     1.6040 H     1 <1>   0.0800 
 30 H       -2.2440     1.1000     0.3160 H     1 <1>   0.0800 
 31 H        0.0730     2.5330    -0.8080 H     1 <1>   0.0800 
 32 H        0.4580     1.6440     0.6420 H     1 <1>   0.0800 
 33 H        1.7060    -0.5600     0.3740 H     1 <1>   0.0800 
 34 H        2.1090    -1.0670    -1.2450 H     1 <1>   0.0800 
 35 H       -2.2120    -2.5620    -1.3920 H     1 <1>   0.0800 
 36 H       -3.4350    -0.5050    -1.1800 H     1 <1>   0.0800 
 37 H        2.3740     3.0150    -1.2410 H     1 <1>   0.0800 
 38 H        1.9900     3.5380     0.3660 H     1 <1>   0.0800 
 39 H        4.0800    -0.1570    -0.0850 H     1 <1>   0.0800 
 40 H        3.6710     0.7220    -1.5210 H     1 <1>   0.0800 
 41 H       -4.8130    -0.2480     1.5280 H     1 <1>   0.1000 
 42 H       -3.4080    -3.9020     1.8410 H     1 <1>   0.1500 
 43 H       -1.1760    -4.7320    -1.7020 H     1 <1>   0.1500 
 44 H       -6.0150    -0.6960    -1.2780 H     1 <1>   0.1000 
 45 H       -6.9350    -0.4810     0.2410 H     1 <1>   0.1000 
 46 H       -5.8750     1.8060     0.5590 H     1 <1>   0.1000 
 47 H       -4.9610     1.5890    -0.9660 H     1 <1>   0.1000 
 48 H        4.5770     3.5050     0.6820 H     1 <1>   0.0800 
 49 H        4.7880     2.8090    -0.9020 H     1 <1>   0.0800 
 50 H        5.4320     1.9950     0.4980 H     1 <1>   0.0800 
 51 H        3.0500     2.4360     2.3540 H     1 <1>   0.0800 
 52 H        3.9030     0.9290     2.1710 H     1 <1>   0.0800 
 53 H        2.1750     0.9800     1.9780 H     1 <1>   0.0800 
 54 H       -3.4310    -6.2910     2.3810 H     1 <1>   0.1500 
 55 H       -1.2070    -7.1190    -1.1560 H     1 <1>   0.1500 
 56 H       -2.3320    -7.9080     0.8860 H     1 <1>   0.1500 
@<TRIPOS>BOND
  1   1   2  2   
  2   1   3  2   
  3   1   4  am  
  4   1   5  am  
  5   4   6  1   
  6   4   7  1   
  7   5   8  1   
  8   5   9  1   
  9   6  10  1   
 10   6  27  1   
 11   6  28  1   
 12   7  11  1   
 13   7  29  1   
 14   7  30  1   
 15   8  12  1   
 16   8  31  1   
 17   8  32  1   
 18   9  13  1   
 19   9  33  1   
 20   9  34  1   
 21  10  14  1   
 22  10  15  1   
 23  10  35  1   
 24  11  14  1   
 25  11  16  1   
 26  11  36  1   
 27  12  17  1   
 28  12  37  1   
 29  12  38  1   
 30  13  17  1   
 31  13  39  1   
 32  13  40  1   
 33  15  18  ar  
 34  15  19  ar  
 35  16  20  1   
 36  16  21  1   
 37  16  41  1   
 38  17  22  1   
 39  17  23  1   
 40  18  24  ar  
 41  18  42  1   
 42  19  25  ar  
 43  19  43  1   
 44  20  21  1   
 45  20  44  1   
 46  20  45  1   
 47  21  46  1   
 48  21  47  1   
 49  22  48  1   
 50  22  49  1   
 51  22  50  1   
 52  23  51  1   
 53  23  52  1   
 54  23  53  1   
 55  24  26  ar  
 56  24  54  1   
 57  25  26  ar  
 58  25  55  1   
 59  26  56  1   
@<TRIPOS>SUBSTRUCTURE
  1 ****   4 GROUP 4 **** **** 0

# MOE 2024.06 (io_trps.svl 2023.06)
