@<TRIPOS>MOLECULE
NONAME
22 23 1 0 0 
SMALL
USER_CHARGES


@<TRIPOS>ATOM
  1 F       -7.6710    -1.9900     1.2170 F     1 <1>  -0.3400 
  2 C       -8.0860    -1.4650     0.0670 C.3   1 <1>   1.2010 
  3 F       -7.5000    -2.1920    -0.8800 F     1 <1>  -0.3400 
  4 F       -9.3890    -1.7040    -0.0170 F     1 <1>  -0.3400 
  5 C       -7.6690     0.0300    -0.0440 C.2   1 <1>   0.1080 
  6 N       -8.4640     1.0610    -0.2150 N.2   1 <1>  -0.7070 
  7 C       -6.3380     0.4530     0.0290 C.2   1 <1>  -0.1810 
  8 N       -7.6700     2.1460    -0.2510 N.pl3 1 <1>   0.3000 
  9 C       -6.3760     1.7940    -0.1020 C.2   1 <1>  -0.3320 
 10 C       -5.0650    -0.3520     0.2170 C.3   1 <1>   0.5240 
 11 C       -5.1510     2.6890    -0.0800 C.3   1 <1>   0.0200 
 12 N       -3.9200     0.4930    -0.2390 N.4   1 <1>  -0.9060 
 13 C       -3.9210     1.8710     0.3680 C.3   1 <1>   0.3430 
 14 H       -8.0500     3.0960    -0.3760 H     1 <1>   0.2700 
 15 H       -5.1110    -1.2610    -0.3620 H     1 <1>   0.0800 
 16 H       -4.9520    -0.6090     1.2590 H     1 <1>   0.0800 
 17 H       -5.2970     3.5110     0.6000 H     1 <1>   0.0800 
 18 H       -4.9800     3.0970    -1.0620 H     1 <1>   0.0800 
 19 H       -4.0130     0.5940    -1.2570 H     1 <1>   0.4500 
 20 H       -3.0340     0.0110    -0.0510 H     1 <1>   0.4500 
 21 H       -3.9400     1.7810     1.4430 H     1 <1>   0.0800 
 22 H       -3.0230     2.4010     0.0950 H     1 <1>   0.0800 
@<TRIPOS>BOND
  1   1   2  1   
  2   2   3  1   
  3   2   4  1   
  4   2   5  1   
  5   5   6  2   
  6   5   7  1   
  7   6   8  1   
  8   7   9  2   
  9   7  10  1   
 10   8   9  1   
 11   8  14  1   
 12   9  11  1   
 13  10  12  1   
 14  10  15  1   
 15  10  16  1   
 16  11  13  1   
 17  11  17  1   
 18  11  18  1   
 19  12  13  1   
 20  12  19  1   
 21  12  20  1   
 22  13  21  1   
 23  13  22  1   
@<TRIPOS>SUBSTRUCTURE
  1 ****   7 GROUP 4 **** **** 0

# MOE 2024.06 (io_trps.svl 2023.06)
