@<TRIPOS>MOLECULE
NONAME
49 51 1 0 0 
SMALL
USER_CHARGES


@<TRIPOS>ATOM
  1 CL      -1.6020     0.3140    -2.0180 Cl    1 <1>  -0.1770 
  2 C       -2.2950    -0.7230    -0.7850 C.ar  1 <1>   0.1770 
  3 C       -2.5470    -0.3160     0.5320 C.ar  1 <1>   0.0820 
  4 C       -2.5860    -2.0100    -1.1940 C.ar  1 <1>  -0.1500 
  5 O       -2.3230     0.9010     1.0900 O.3   1 <1>  -0.3630 
  6 C       -3.0960    -1.2490     1.3990 C.ar  1 <1>  -0.1500 
  7 C       -3.1320    -2.9540    -0.3250 C.ar  1 <1>   0.0860 
  8 C       -1.8360     2.0270     0.4000 C.3   1 <1>   0.1200 
  9 C       -3.3850    -2.5350     0.9830 C.ar  1 <1>  -0.1500 
 10 C       -3.4200    -4.3040    -0.7790 C.2   1 <1>   0.5440 
 11 C       -1.7900     3.2020     1.3780 C.3   1 <1>  -0.1600 
 12 O       -3.5830    -4.5420    -1.9590 O.2   1 <1>  -0.5700 
 13 N       -3.5090    -5.3420     0.1040 N.am  1 <1>  -0.7300 
 14 C       -1.2670     4.4720     0.6980 C.3   1 <1>  -0.2400 
 15 C       -3.7780    -6.7520    -0.2590 C.3   1 <1>   0.2200 
 16 C       -5.2130    -7.0930     0.1070 C.3   1 <1>  -0.0800 
 17 C       -2.9960    -7.6720     0.6700 C.3   1 <1>   0.1200 
 18 C       -5.0950    -7.4590     1.5920 C.3   1 <1>   0.1200 
 19 C       -5.7500    -8.2590    -0.7440 C.3   1 <1>  -0.0170 
 20 O       -3.7500    -7.7550     1.8420 O.3   1 <1>  -0.5600 
 21 C       -7.1960    -8.5810    -0.3970 C.ar  1 <1>  -0.1430 
 22 C       -7.5450    -9.6920     0.3430 C.ar  1 <1>  -0.1500 
 23 C       -8.2350    -7.7720    -0.8090 C.ar  1 <1>  -0.1500 
 24 C       -8.8790    -9.9300     0.6320 C.ar  1 <1>   0.1600 
 25 C       -9.5360    -8.1000    -0.4660 C.ar  1 <1>   0.1600 
 26 N       -9.8830    -9.1590     0.2470 N.ar  1 <1>  -0.6200 
 27 H       -2.3830    -2.2920    -2.2130 H     1 <1>   0.1500 
 28 H       -3.3000    -0.9520     2.4140 H     1 <1>   0.1500 
 29 H       -0.8480     1.8030     0.0370 H     1 <1>   0.0800 
 30 H       -2.5030     2.2430    -0.4160 H     1 <1>   0.0800 
 31 H       -3.8210    -3.2200     1.6890 H     1 <1>   0.1500 
 32 H       -2.7810     3.3850     1.7570 H     1 <1>   0.0800 
 33 H       -1.1460     2.9510     2.2030 H     1 <1>   0.0800 
 34 H       -3.3360    -5.1970     1.1000 H     1 <1>   0.3700 
 35 H       -1.9060     4.7510    -0.1210 H     1 <1>   0.0800 
 36 H       -0.2700     4.3170     0.3250 H     1 <1>   0.0800 
 37 H       -1.2440     5.2840     1.4050 H     1 <1>   0.0800 
 38 H       -3.5480    -6.9270    -1.2970 H     1 <1>   0.0800 
 39 H       -5.8580    -6.2430    -0.0300 H     1 <1>   0.0800 
 40 H       -2.0130    -7.2980     0.8950 H     1 <1>   0.0800 
 41 H       -2.9240    -8.6610     0.2550 H     1 <1>   0.0800 
 42 H       -5.6940    -8.3100     1.8650 H     1 <1>   0.0800 
 43 H       -5.3630    -6.6220     2.2130 H     1 <1>   0.0800 
 44 H       -5.1420    -9.1360    -0.6040 H     1 <1>   0.0800 
 45 H       -5.6990    -7.9930    -1.7860 H     1 <1>   0.0800 
 46 H       -6.7960   -10.3750     0.6990 H     1 <1>   0.1500 
 47 H       -8.0460    -6.8900    -1.3940 H     1 <1>   0.1500 
 48 H       -9.1330   -10.8010     1.2120 H     1 <1>   0.1500 
 49 H      -10.3340    -7.4570    -0.7960 H     1 <1>   0.1500 
@<TRIPOS>BOND
  1   1   2  1   
  2   2   3  ar  
  3   2   4  ar  
  4   3   5  1   
  5   3   6  ar  
  6   4   7  ar  
  7   4  27  1   
  8   5   8  1   
  9   6   9  ar  
 10   6  28  1   
 11   7   9  ar  
 12   7  10  1   
 13   8  11  1   
 14   8  29  1   
 15   8  30  1   
 16   9  31  1   
 17  10  12  2   
 18  10  13  am  
 19  11  14  1   
 20  11  32  1   
 21  11  33  1   
 22  13  15  1   
 23  13  34  1   
 24  14  35  1   
 25  14  36  1   
 26  14  37  1   
 27  15  16  1   
 28  15  17  1   
 29  15  38  1   
 30  16  18  1   
 31  16  19  1   
 32  16  39  1   
 33  17  20  1   
 34  17  40  1   
 35  17  41  1   
 36  18  20  1   
 37  18  42  1   
 38  18  43  1   
 39  19  21  1   
 40  19  44  1   
 41  19  45  1   
 42  21  22  ar  
 43  21  23  ar  
 44  22  24  ar  
 45  22  46  1   
 46  23  25  ar  
 47  23  47  1   
 48  24  26  ar  
 49  24  48  1   
 50  25  26  ar  
 51  25  49  1   
@<TRIPOS>SUBSTRUCTURE
  1 ****  10 GROUP 4 **** **** 0

# MOE 2024.06 (io_trps.svl 2023.06)
