@<TRIPOS>MOLECULE
NONAME
42 44 1 0 0 
SMALL
USER_CHARGES


@<TRIPOS>ATOM
  1 CL       0.4560     0.3230    -0.4520 Cl    1 <1>  -0.1230 
  2 C        2.1030    -0.1420    -0.0560 C.2   1 <1>   0.1230 
  3 C        3.2460     0.6460    -0.2260 C.2   1 <1>   0.2030 
  4 C        2.4880    -1.3120     0.4840 C.2   1 <1>  -0.3320 
  5 N        4.3040    -0.0270     0.2120 N.2   1 <1>  -0.7070 
  6 C        3.2530     1.9810    -0.8050 C.2   1 <1>   0.7160 
  7 N        3.8260    -1.2170     0.6300 N.pl3 1 <1>   0.3000 
  8 C        1.6680    -2.5300     0.8770 C.3   1 <1>  -0.0600 
  9 O        2.5290     2.2480    -1.7470 O.2   1 <1>  -0.5700 
 10 N        4.1120     2.9780    -0.3660 N.am  1 <1>  -0.6600 
 11 C        4.8210     2.8850     0.9670 C.3   1 <1>   0.2200 
 12 C        4.4360     4.1190    -1.2810 C.3   1 <1>   0.1400 
 13 C        4.7780     4.2090     1.7480 C.3   1 <1>   0.1200 
 14 C        6.2710     2.3700     0.8040 C.3   1 <1>   0.3430 
 15 C        5.7840     4.8170    -1.0110 C.3   1 <1>  -0.0800 
 16 O        5.8380     5.0440     1.3990 O.3   1 <1>  -0.5600 
 17 N        6.7580     2.4840    -0.6120 N.4   1 <1>  -0.9590 
 18 C        5.7140     5.7460     0.2100 C.3   1 <1>   0.1200 
 19 C        7.0320     3.9070    -0.9850 C.3   1 <1>   0.3430 
 20 C        8.0390     1.6750    -0.7450 C.3   1 <1>   0.2370 
 21 C        9.1870     2.1520     0.1500 C.2   1 <1>   0.9060 
 22 O        9.2550     1.6960     1.2950 O.co2 1 <1>  -0.9000 
 23 O        9.9090     3.0590    -0.2750 O.co2 1 <1>  -0.9000 
 24 H        4.4330    -1.9540     1.0150 H     1 <1>   0.2700 
 25 H        0.6260    -2.3650     0.6620 H     1 <1>   0.0800 
 26 H        1.7700    -2.7270     1.9290 H     1 <1>   0.0800 
 27 H        1.9930    -3.3940     0.3250 H     1 <1>   0.0800 
 28 H        4.2950     2.1790     1.5840 H     1 <1>   0.0800 
 29 H        4.4440     3.7520    -2.2950 H     1 <1>   0.0800 
 30 H        3.6390     4.8400    -1.2180 H     1 <1>   0.0800 
 31 H        4.8970     3.9980     2.7960 H     1 <1>   0.0800 
 32 H        3.8420     4.7240     1.6110 H     1 <1>   0.0800 
 33 H        6.2940     1.3340     1.0990 H     1 <1>   0.0800 
 34 H        6.9330     2.9010     1.4700 H     1 <1>   0.0800 
 35 H        5.9320     5.4830    -1.8410 H     1 <1>   0.0800 
 36 H        6.0150     2.0980    -1.2060 H     1 <1>   0.4500 
 37 H        4.7980     6.3120     0.2310 H     1 <1>   0.0800 
 38 H        6.5360     6.4420     0.1790 H     1 <1>   0.0800 
 39 H        7.7600     4.3210    -0.3030 H     1 <1>   0.0800 
 40 H        7.4810     3.9170    -1.9650 H     1 <1>   0.0800 
 41 H        7.8470     0.6490    -0.4910 H     1 <1>   0.0800 
 42 H        8.3920     1.7140    -1.7580 H     1 <1>   0.0800 
@<TRIPOS>BOND
  1   1   2  1   
  2   2   3  1   
  3   2   4  2   
  4   3   5  2   
  5   3   6  1   
  6   4   7  1   
  7   4   8  1   
  8   5   7  1   
  9   6   9  2   
 10   6  10  am  
 11   7  24  1   
 12   8  25  1   
 13   8  26  1   
 14   8  27  1   
 15  10  11  1   
 16  10  12  1   
 17  11  13  1   
 18  11  14  1   
 19  11  28  1   
 20  12  15  1   
 21  12  29  1   
 22  12  30  1   
 23  13  16  1   
 24  13  31  1   
 25  13  32  1   
 26  14  17  1   
 27  14  33  1   
 28  14  34  1   
 29  15  18  1   
 30  15  19  1   
 31  15  35  1   
 32  16  18  1   
 33  17  19  1   
 34  17  20  1   
 35  17  36  1   
 36  18  37  1   
 37  18  38  1   
 38  19  39  1   
 39  19  40  1   
 40  20  21  1   
 41  20  41  1   
 42  20  42  1   
 43  21  22  ar  
 44  21  23  ar  
@<TRIPOS>SUBSTRUCTURE
  1 ****  11 GROUP 4 **** **** 0

# MOE 2024.06 (io_trps.svl 2023.06)
