@<TRIPOS>MOLECULE
NONAME
51 54 1 0 0 
SMALL
USER_CHARGES


@<TRIPOS>ATOM
  1 O       -3.2120     1.8620    -1.4740 O.2   1 <1>  -0.5700 
  2 C       -2.5610     1.5660    -0.5040 C.2   1 <1>   0.5690 
  3 N       -2.4950     0.2940    -0.0440 N.am  1 <1>  -0.7300 
  4 C       -1.7850     2.6380     0.2270 C.3   1 <1>  -0.0990 
  5 C       -3.1600    -0.8690    -0.6700 C.3   1 <1>   0.2200 
  6 C       -0.3090     2.6470    -0.1970 C.3   1 <1>  -0.0650 
  7 C       -4.2540    -1.3780     0.2570 C.3   1 <1>  -0.0800 
  8 C       -2.1940    -2.0460    -0.6920 C.3   1 <1>   0.1200 
  9 C        0.5340     3.6270     0.6340 C.3   1 <1>  -0.1900 
 10 C       -3.5010    -2.3650     1.1630 C.3   1 <1>   0.1200 
 11 C       -5.3830    -2.0680    -0.5380 C.3   1 <1>  -0.0160 
 12 O       -2.2430    -2.5790     0.5940 O.3   1 <1>  -0.5600 
 13 C        1.9770     3.3020     0.8410 C.3   1 <1>  -0.2000 
 14 C        1.0030     3.2060     1.9870 C.3   1 <1>  -0.2000 
 15 C        0.1670     5.1000     0.4100 C.3   1 <1>  -0.1450 
 16 C       -6.5490    -2.6290     0.2880 C.ar  1 <1>  -0.1440 
 17 C       -7.4990    -3.4860    -0.3220 C.ar  1 <1>   0.0000 
 18 C       -6.7400    -2.3370     1.6100 C.ar  1 <1>  -0.1500 
 19 C       -8.5440    -4.0010     0.4840 C.ar  1 <1>   0.3100 
 20 C       -7.4780    -3.8600    -1.6870 C.ar  1 <1>  -0.1500 
 21 C       -7.8150    -2.8920     2.3130 C.ar  1 <1>   0.1600 
 22 N       -8.6880    -3.6950     1.7970 N.ar  1 <1>  -0.6200 
 23 C       -9.4880    -4.8670    -0.0920 C.ar  1 <1>  -0.1500 
 24 C       -8.4160    -4.7030    -2.2190 C.ar  1 <1>  -0.1500 
 25 C       -9.4330    -5.2170    -1.4130 C.ar  1 <1>  -0.1500 
 26 H       -1.9160     0.0590     0.7650 H     1 <1>   0.3700 
 27 H       -2.2360     3.5880     0.0080 H     1 <1>   0.0800 
 28 H       -1.8610     2.4680     1.2850 H     1 <1>   0.0800 
 29 H       -3.5150    -0.6140    -1.6550 H     1 <1>   0.0800 
 30 H       -0.2380     2.9050    -1.2400 H     1 <1>   0.0800 
 31 H        0.0900     1.6530    -0.0860 H     1 <1>   0.0800 
 32 H       -4.6740    -0.5620     0.8190 H     1 <1>   0.0800 
 33 H       -1.1860    -1.7540    -0.9280 H     1 <1>   0.0800 
 34 H       -2.5270    -2.8050    -1.3780 H     1 <1>   0.0800 
 35 H       -4.0040    -3.3140     1.2440 H     1 <1>   0.0800 
 36 H       -3.3490    -1.9540     2.1460 H     1 <1>   0.0800 
 37 H       -4.9450    -2.8770    -1.0970 H     1 <1>   0.0800 
 38 H       -5.7880    -1.3630    -1.2430 H     1 <1>   0.0800 
 39 H        2.3790     2.3910     0.4320 H     1 <1>   0.1000 
 40 H        2.7020     4.0980     0.8500 H     1 <1>   0.1000 
 41 H        1.0620     3.9380     2.7740 H     1 <1>   0.1000 
 42 H        0.7460     2.2290     2.3570 H     1 <1>   0.1000 
 43 H        0.8440     5.7450     0.9420 H     1 <1>   0.0800 
 44 H       -0.8280     5.3020     0.7620 H     1 <1>   0.0800 
 45 H        0.2220     5.3410    -0.6360 H     1 <1>   0.0800 
 46 H       -6.0920    -1.6830     2.1610 H     1 <1>   0.1500 
 47 H       -6.7120    -3.4740    -2.3320 H     1 <1>   0.1500 
 48 H       -7.9210    -2.6340     3.3530 H     1 <1>   0.1500 
 49 H      -10.2640    -5.2460     0.5470 H     1 <1>   0.1500 
 50 H       -8.3840    -4.9790    -3.2590 H     1 <1>   0.1500 
 51 H      -10.1650    -5.8820    -1.8410 H     1 <1>   0.1500 
@<TRIPOS>BOND
  1   1   2  2   
  2   2   3  am  
  3   2   4  1   
  4   3   5  1   
  5   3  26  1   
  6   4   6  1   
  7   4  27  1   
  8   4  28  1   
  9   5   7  1   
 10   5   8  1   
 11   5  29  1   
 12   6   9  1   
 13   6  30  1   
 14   6  31  1   
 15   7  10  1   
 16   7  11  1   
 17   7  32  1   
 18   8  12  1   
 19   8  33  1   
 20   8  34  1   
 21   9  13  1   
 22   9  14  1   
 23   9  15  1   
 24  10  12  1   
 25  10  35  1   
 26  10  36  1   
 27  11  16  1   
 28  11  37  1   
 29  11  38  1   
 30  13  14  1   
 31  13  39  1   
 32  13  40  1   
 33  14  41  1   
 34  14  42  1   
 35  15  43  1   
 36  15  44  1   
 37  15  45  1   
 38  16  17  ar  
 39  16  18  ar  
 40  17  19  ar  
 41  17  20  ar  
 42  18  21  ar  
 43  18  46  1   
 44  19  22  ar  
 45  19  23  ar  
 46  20  24  ar  
 47  20  47  1   
 48  21  22  ar  
 49  21  48  1   
 50  23  25  ar  
 51  23  49  1   
 52  24  25  ar  
 53  24  50  1   
 54  25  51  1   
@<TRIPOS>SUBSTRUCTURE
  1 ****   7 GROUP 4 **** **** 0

# MOE 2024.06 (io_trps.svl 2023.06)
