@<TRIPOS>MOLECULE
NONAME
33 34 1 0 0 
SMALL
USER_CHARGES


@<TRIPOS>ATOM
  1 O       -0.1800    -0.5580     1.8310 O.co2 1 <1>  -0.9000 
  2 C        0.7850    -0.6020     1.0500 C.2   1 <1>   0.9060 
  3 O        1.5040     0.3550     0.7740 O.co2 1 <1>  -0.9000 
  4 C        0.9990    -1.9500     0.3580 C.3   1 <1>   0.2370 
  5 N       -0.2690    -2.7740     0.4470 N.4   1 <1>  -0.9590 
  6 C       -1.2750    -2.4130    -0.5850 C.3   1 <1>   0.3430 
  7 C       -0.1250    -4.2510     0.4920 C.3   1 <1>   0.3430 
  8 C       -2.1790    -3.6430    -0.6720 C.3   1 <1>   0.2000 
  9 C       -1.2150    -4.8110    -0.4330 C.3   1 <1>  -0.0800 
 10 O       -3.1340    -3.5980     0.3400 O.3   1 <1>  -0.6800 
 11 C       -1.8650    -6.1080     0.0870 C.3   1 <1>   0.0200 
 12 C       -0.8510    -7.2340     0.1630 C.2   1 <1>  -0.0400 
 13 O        0.1650    -7.1470     0.9790 O.3   1 <1>  -0.0190 
 14 C       -0.7580    -8.4050    -0.4850 C.2   1 <1>  -0.1500 
 15 N        0.9390    -8.1870     0.9040 N.2   1 <1>  -0.4100 
 16 C        0.4060    -8.9670     0.0330 C.2   1 <1>   0.1080 
 17 C        0.9730   -10.3110    -0.3670 C.3   1 <1>  -0.0590 
 18 H        1.8030    -2.4440     0.8700 H     1 <1>   0.0800 
 19 H        1.2830    -1.7760    -0.6630 H     1 <1>   0.0800 
 20 H       -0.6500    -2.3960     1.3470 H     1 <1>   0.4500 
 21 H       -1.8220    -1.5220    -0.3190 H     1 <1>   0.0800 
 22 H       -0.7820    -2.2630    -1.5310 H     1 <1>   0.0800 
 23 H        0.8500    -4.5590     0.1510 H     1 <1>   0.0800 
 24 H       -0.2690    -4.6010     1.5020 H     1 <1>   0.0800 
 25 H       -2.6950    -3.7120    -1.6150 H     1 <1>   0.0800 
 26 H       -0.7400    -5.0350    -1.3720 H     1 <1>   0.0800 
 27 H       -2.7720    -3.2240     1.1690 H     1 <1>   0.4000 
 28 H       -2.6630    -6.3990    -0.5740 H     1 <1>   0.0800 
 29 H       -2.2890    -5.9590     1.0660 H     1 <1>   0.0800 
 30 H       -1.4010    -8.8410    -1.2280 H     1 <1>   0.1500 
 31 H        1.2060   -10.3130    -1.4160 H     1 <1>   0.0800 
 32 H        0.2570   -11.0850    -0.1600 H     1 <1>   0.0800 
 33 H        1.8710   -10.5110     0.1890 H     1 <1>   0.0800 
@<TRIPOS>BOND
  1   1   2  ar  
  2   2   3  ar  
  3   2   4  1   
  4   4   5  1   
  5   4  18  1   
  6   4  19  1   
  7   5   6  1   
  8   5   7  1   
  9   5  20  1   
 10   6   8  1   
 11   6  21  1   
 12   6  22  1   
 13   7   9  1   
 14   7  23  1   
 15   7  24  1   
 16   8   9  1   
 17   8  10  1   
 18   8  25  1   
 19   9  11  1   
 20   9  26  1   
 21  10  27  1   
 22  11  12  1   
 23  11  28  1   
 24  11  29  1   
 25  12  13  1   
 26  12  14  2   
 27  13  15  1   
 28  14  16  1   
 29  14  30  1   
 30  15  16  2   
 31  16  17  1   
 32  17  31  1   
 33  17  32  1   
 34  17  33  1   
@<TRIPOS>SUBSTRUCTURE
  1 ****   7 GROUP 4 **** **** 0

# MOE 2024.06 (io_trps.svl 2023.06)
