@<TRIPOS>MOLECULE
NONAME
38 39 1 0 0 
SMALL
USER_CHARGES


@<TRIPOS>ATOM
  1 S       -1.8040    -0.6460     0.5160 S.3   1 <1>  -0.0800 
  2 C       -2.2630    -1.1840    -1.0680 C.2   1 <1>   0.4420 
  3 C       -1.1530     0.7690    -0.2360 C.2   1 <1>   0.1980 
  4 N       -1.9290    -0.3420    -1.9780 N.2   1 <1>  -0.3380 
  5 N       -2.9050    -2.4000    -1.1470 N.am  1 <1>  -0.4940 
  6 N       -1.2970     0.7690    -1.4970 N.2   1 <1>  -0.3380 
  7 C       -0.5050     1.8240     0.6320 C.3   1 <1>   0.0200 
  8 C       -3.3760    -3.0710    -2.2410 C.2   1 <1>   0.5690 
  9 C        0.0170     2.9500    -0.2690 C.3   1 <1>   0.3430 
 10 O       -3.2870    -2.6580    -3.3670 O.2   1 <1>  -0.5700 
 11 C       -4.0530    -4.4170    -2.0290 C.3   1 <1>   0.0440 
 12 N        0.7390     4.0260     0.4900 N.4   1 <1>  -0.9590 
 13 C       -4.1010    -4.8300    -0.5610 C.ar  1 <1>  -0.1430 
 14 C       -0.1780     4.8300     1.3620 C.3   1 <1>   0.2630 
 15 C        1.4450     4.9280    -0.4740 C.3   1 <1>   0.2630 
 16 C       -3.0830    -5.5560     0.0250 C.ar  1 <1>  -0.1500 
 17 C       -5.1540    -4.4780     0.2600 C.ar  1 <1>  -0.1500 
 18 C       -3.1590    -5.8770     1.3700 C.ar  1 <1>   0.1600 
 19 C       -5.1330    -4.8500     1.5940 C.ar  1 <1>   0.1600 
 20 N       -4.1560    -5.5320     2.1670 N.ar  1 <1>  -0.6200 
 21 H       -3.0530    -2.8790    -0.2590 H     1 <1>   0.3700 
 22 H        0.3070     1.3750     1.1730 H     1 <1>   0.0800 
 23 H       -1.2400     2.1960     1.3210 H     1 <1>   0.0800 
 24 H       -0.8110     3.3780    -0.8130 H     1 <1>   0.0800 
 25 H        0.6860     2.5140    -0.9940 H     1 <1>   0.0800 
 26 H       -3.5210    -5.1560    -2.5990 H     1 <1>   0.0800 
 27 H       -5.0500    -4.3600    -2.4250 H     1 <1>   0.0800 
 28 H        1.4580     3.5830     1.0850 H     1 <1>   0.4500 
 29 H       -0.9490     5.2940     0.7670 H     1 <1>   0.0800 
 30 H        0.3730     5.6030     1.8720 H     1 <1>   0.0800 
 31 H       -0.6450     4.2020     2.1030 H     1 <1>   0.0800 
 32 H        0.7340     5.4130    -1.1240 H     1 <1>   0.0800 
 33 H        2.1340     4.3630    -1.0800 H     1 <1>   0.0800 
 34 H        1.9990     5.6860     0.0570 H     1 <1>   0.0800 
 35 H       -2.2300    -5.8770    -0.5480 H     1 <1>   0.1500 
 36 H       -5.9910    -3.9200    -0.1200 H     1 <1>   0.1500 
 37 H       -2.3580    -6.4450     1.8130 H     1 <1>   0.1500 
 38 H       -5.9620    -4.5700     2.2230 H     1 <1>   0.1500 
@<TRIPOS>BOND
  1   1   2  1   
  2   1   3  1   
  3   2   4  2   
  4   2   5  1   
  5   3   6  2   
  6   3   7  1   
  7   4   6  1   
  8   5   8  am  
  9   5  21  1   
 10   7   9  1   
 11   7  22  1   
 12   7  23  1   
 13   8  10  2   
 14   8  11  1   
 15   9  12  1   
 16   9  24  1   
 17   9  25  1   
 18  11  13  1   
 19  11  26  1   
 20  11  27  1   
 21  12  14  1   
 22  12  15  1   
 23  12  28  1   
 24  13  16  ar  
 25  13  17  ar  
 26  14  29  1   
 27  14  30  1   
 28  14  31  1   
 29  15  32  1   
 30  15  33  1   
 31  15  34  1   
 32  16  18  ar  
 33  16  35  1   
 34  17  19  ar  
 35  17  36  1   
 36  18  20  ar  
 37  18  37  1   
 38  19  20  ar  
 39  19  38  1   
@<TRIPOS>SUBSTRUCTURE
  1 ****   2 GROUP 4 **** **** 0

# MOE 2024.06 (io_trps.svl 2023.06)
