@<TRIPOS>MOLECULE
NONAME
45 47 1 0 0 
SMALL
USER_CHARGES


@<TRIPOS>ATOM
  1 CL      -1.2970     0.1500    -0.9070 Cl    1 <1>  -0.1770 
  2 C       -1.0270    -1.5720    -0.8440 C.ar  1 <1>   0.1770 
  3 C       -1.7300    -2.3320     0.0700 C.ar  1 <1>  -0.1500 
  4 C       -0.1170    -2.1460    -1.7100 C.ar  1 <1>  -0.1500 
  5 C       -1.5360    -3.7070     0.1360 C.ar  1 <1>  -0.0090 
  6 C        0.0880    -3.5130    -1.6560 C.ar  1 <1>  -0.1500 
  7 S       -2.4730    -4.7290     1.3080 S.o2  1 <1>   1.4470 
  8 C       -0.6190    -4.2790    -0.7410 C.ar  1 <1>  -0.1500 
  9 O       -1.6350    -5.8150     1.7690 O.2   1 <1>  -0.6500 
 10 O       -3.1500    -3.8950     2.2740 O.2   1 <1>  -0.6500 
 11 N       -3.6690    -5.4490     0.3450 N.am  1 <1>  -0.8490 
 12 C       -4.3770    -6.5020     1.0950 C.3   1 <1>   0.1960 
 13 C       -4.6360    -4.4760    -0.1870 C.3   1 <1>   0.1960 
 14 C       -5.3270    -7.2900     0.1570 C.3   1 <1>   0.4230 
 15 C       -5.5860    -5.1880    -1.1620 C.3   1 <1>  -0.1600 
 16 N       -6.0170    -8.4670     0.7910 N.4   1 <1>  -0.9590 
 17 C       -6.3650    -6.3330    -0.4610 C.3   1 <1>  -0.1060 
 18 C       -6.7980    -9.2530    -0.2000 C.3   1 <1>   0.3430 
 19 C       -5.1700    -9.3230     1.6640 C.3   1 <1>   0.2630 
 20 C       -7.2590    -5.7680     0.6580 C.2   1 <1>   0.9060 
 21 C       -7.2110    -7.0980    -1.5060 C.3   1 <1>  -0.1600 
 22 C       -7.8330    -8.3650    -0.8970 C.3   1 <1>  -0.1600 
 23 O       -7.7470    -4.6470     0.5300 O.co2 1 <1>  -0.9000 
 24 O       -7.4620    -6.4570     1.6710 O.co2 1 <1>  -0.9000 
 25 H       -2.4300    -1.8490     0.7300 H     1 <1>   0.1500 
 26 H        0.4200    -1.5310    -2.4110 H     1 <1>   0.1500 
 27 H        0.7940    -3.9800    -2.3220 H     1 <1>   0.1500 
 28 H       -0.4540    -5.3440    -0.7060 H     1 <1>   0.1500 
 29 H       -3.6490    -7.1820     1.4970 H     1 <1>   0.0800 
 30 H       -4.9250    -6.0640     1.9140 H     1 <1>   0.0800 
 31 H       -5.1950    -4.0170     0.6160 H     1 <1>   0.0800 
 32 H       -4.1220    -3.6950    -0.7190 H     1 <1>   0.0800 
 33 H       -4.7140    -7.6650    -0.6430 H     1 <1>   0.0800 
 34 H       -6.2830    -4.4650    -1.5520 H     1 <1>   0.0800 
 35 H       -5.0140    -5.5650    -1.9910 H     1 <1>   0.0800 
 36 H       -6.7290    -7.9710     1.3940 H     1 <1>   0.4500 
 37 H       -6.1300    -9.6710    -0.9350 H     1 <1>   0.0800 
 38 H       -7.3080   -10.0620     0.2980 H     1 <1>   0.0800 
 39 H       -4.3680    -9.7630     1.0940 H     1 <1>   0.0800 
 40 H       -5.7650   -10.1090     2.0990 H     1 <1>   0.0800 
 41 H       -4.7500    -8.7360     2.4650 H     1 <1>   0.0800 
 42 H       -7.9950    -6.4540    -1.8700 H     1 <1>   0.0800 
 43 H       -6.5950    -7.3750    -2.3440 H     1 <1>   0.0800 
 44 H       -8.3200    -8.9310    -1.6710 H     1 <1>   0.0800 
 45 H       -8.5920    -8.0890    -0.1830 H     1 <1>   0.0800 
@<TRIPOS>BOND
  1   1   2  1   
  2   2   3  ar  
  3   2   4  ar  
  4   3   5  ar  
  5   3  25  1   
  6   4   6  ar  
  7   4  26  1   
  8   5   7  1   
  9   5   8  ar  
 10   6   8  ar  
 11   6  27  1   
 12   7   9  2   
 13   7  10  2   
 14   7  11  am  
 15   8  28  1   
 16  11  12  1   
 17  11  13  1   
 18  12  14  1   
 19  12  29  1   
 20  12  30  1   
 21  13  15  1   
 22  13  31  1   
 23  13  32  1   
 24  14  16  1   
 25  14  17  1   
 26  14  33  1   
 27  15  17  1   
 28  15  34  1   
 29  15  35  1   
 30  16  18  1   
 31  16  19  1   
 32  16  36  1   
 33  17  20  1   
 34  17  21  1   
 35  18  22  1   
 36  18  37  1   
 37  18  38  1   
 38  19  39  1   
 39  19  40  1   
 40  19  41  1   
 41  20  23  ar  
 42  20  24  ar  
 43  21  22  1   
 44  21  42  1   
 45  21  43  1   
 46  22  44  1   
 47  22  45  1   
@<TRIPOS>SUBSTRUCTURE
  1 ****  11 GROUP 4 **** **** 0

# MOE 2024.06 (io_trps.svl 2023.06)
