@<TRIPOS>MOLECULE
NONAME
46 49 1 0 0 
SMALL
USER_CHARGES


@<TRIPOS>ATOM
  1 O       -3.4100     4.2260     0.7640 O.2   1 <1>  -0.5700 
  2 C       -2.9200     3.3840     0.0540 C.2   1 <1>   0.5690 
  3 N       -3.7100     2.4510    -0.5800 N.am  1 <1>  -0.6600 
  4 C       -1.3990     3.3110    -0.0080 C.3   1 <1>   0.0440 
  5 C       -5.1110     2.2070    -0.1130 C.3   1 <1>   0.1400 
  6 C       -3.2530     1.4720    -1.6130 C.3   1 <1>   0.1400 
  7 C       -0.9310     1.9240     0.4220 C.ar  1 <1>  -0.1440 
  8 C       -5.3960     0.7090     0.1810 C.3   1 <1>   0.4230 
  9 C       -3.3300     0.0120    -1.1060 C.3   1 <1>   0.3430 
 10 C       -1.5370     1.3010     1.5050 C.ar  1 <1>   0.1600 
 11 C        0.0510     1.2460    -0.2730 C.ar  1 <1>  -0.1500 
 12 N       -4.1560    -0.1680     0.1450 N.4   1 <1>  -0.9590 
 13 C       -6.4750     0.1630    -0.7810 C.3   1 <1>   0.1200 
 14 N       -1.3160     0.0530     1.8800 N.ar  1 <1>  -0.6200 
 15 C        0.3450    -0.0320     0.1510 C.ar  1 <1>  -0.1500 
 16 C       -4.5380    -1.5960     0.4100 C.3   1 <1>   0.5180 
 17 O       -6.7630    -1.1740    -0.4870 O.3   1 <1>  -0.5600 
 18 C       -0.3580    -0.5750     1.2130 C.ar  1 <1>   0.1600 
 19 C       -3.2860    -2.4950     0.3730 C.3   1 <1>  -0.1950 
 20 C       -5.6700    -2.0510    -0.5460 C.3   1 <1>   0.1200 
 21 C       -2.6700    -3.0750    -0.8670 C.3   1 <1>  -0.2000 
 22 C       -3.3410    -3.9740     0.1320 C.3   1 <1>  -0.2000 
 23 H       -1.0750     3.5420    -1.0050 H     1 <1>   0.0800 
 24 H       -0.9820     4.0480     0.6560 H     1 <1>   0.0800 
 25 H       -5.3010     2.7640     0.7900 H     1 <1>   0.0800 
 26 H       -5.7960     2.5850    -0.8520 H     1 <1>   0.0800 
 27 H       -3.8860     1.5700    -2.4780 H     1 <1>   0.0800 
 28 H       -2.2520     1.6880    -1.9410 H     1 <1>   0.0800 
 29 H       -5.8240     0.6610     1.1690 H     1 <1>   0.0800 
 30 H       -2.3270    -0.3320    -0.9090 H     1 <1>   0.0800 
 31 H       -3.7240    -0.6010    -1.8980 H     1 <1>   0.0800 
 32 H       -2.2600     1.8530     2.0850 H     1 <1>   0.1500 
 33 H        0.5740     1.6890    -1.1050 H     1 <1>   0.1500 
 34 H       -3.5360     0.1180     0.9210 H     1 <1>   0.4500 
 35 H       -6.1610     0.2320    -1.8080 H     1 <1>   0.0800 
 36 H       -7.3900     0.7190    -0.6670 H     1 <1>   0.0800 
 37 H        1.1150    -0.6060    -0.3350 H     1 <1>   0.1500 
 38 H       -4.9400    -1.6600     1.4080 H     1 <1>   0.0800 
 39 H       -0.1160    -1.5760     1.5310 H     1 <1>   0.1500 
 40 H       -2.6240    -2.2230     1.1750 H     1 <1>   0.1000 
 41 H       -6.0290    -3.0220    -0.2540 H     1 <1>   0.0800 
 42 H       -5.3290    -2.1070    -1.5640 H     1 <1>   0.0800 
 43 H       -3.1400    -2.9880    -1.8320 H     1 <1>   0.1000 
 44 H       -1.5960    -3.1250    -0.9450 H     1 <1>   0.1000 
 45 H       -2.7200    -4.6190     0.7330 H     1 <1>   0.1000 
 46 H       -4.2490    -4.4680    -0.1700 H     1 <1>   0.1000 
@<TRIPOS>BOND
  1   1   2  2   
  2   2   3  am  
  3   2   4  1   
  4   3   5  1   
  5   3   6  1   
  6   4   7  1   
  7   4  23  1   
  8   4  24  1   
  9   5   8  1   
 10   5  25  1   
 11   5  26  1   
 12   6   9  1   
 13   6  27  1   
 14   6  28  1   
 15   7  10  ar  
 16   7  11  ar  
 17   8  12  1   
 18   8  13  1   
 19   8  29  1   
 20   9  12  1   
 21   9  30  1   
 22   9  31  1   
 23  10  14  ar  
 24  10  32  1   
 25  11  15  ar  
 26  11  33  1   
 27  12  16  1   
 28  12  34  1   
 29  13  17  1   
 30  13  35  1   
 31  13  36  1   
 32  14  18  ar  
 33  15  18  ar  
 34  15  37  1   
 35  16  19  1   
 36  16  20  1   
 37  16  38  1   
 38  17  20  1   
 39  18  39  1   
 40  19  21  1   
 41  19  22  1   
 42  19  40  1   
 43  20  41  1   
 44  20  42  1   
 45  21  22  1   
 46  21  43  1   
 47  21  44  1   
 48  22  45  1   
 49  22  46  1   
@<TRIPOS>SUBSTRUCTURE
  1 ****  12 GROUP 4 **** **** 0

# MOE 2024.06 (io_trps.svl 2023.06)
