@<TRIPOS>MOLECULE
NONAME
20 20 1 0 0 
SMALL
USER_CHARGES


@<TRIPOS>ATOM
  1 C        1.1730     6.3220     0.4970 C.2   1 <1>  -0.2880 
  2 C        1.6560     5.0750     0.4890 C.2   1 <1>  -0.2880 
  3 C       -0.0190     6.8340    -0.2990 C.3   1 <1>  -0.0220 
  4 C        1.1170     3.9030    -0.3170 C.3   1 <1>  -0.0220 
  5 C       -1.3420     6.3180     0.2860 C.3   1 <1>  -0.0220 
  6 C       -0.2060     3.3860     0.2670 C.3   1 <1>  -0.0220 
  7 C       -1.8810     5.1450    -0.5210 C.2   1 <1>  -0.2880 
  8 C       -1.3980     3.8980    -0.5290 C.2   1 <1>  -0.2880 
  9 H        1.6090     7.0900     1.1140 H     1 <1>   0.1500 
 10 H        2.4980     4.7950     1.0990 H     1 <1>   0.1500 
 11 H        0.0700     6.5360    -1.3290 H     1 <1>   0.0800 
 12 H       -0.0120     7.9100    -0.2730 H     1 <1>   0.0800 
 13 H        1.8470     3.1130    -0.3040 H     1 <1>   0.0800 
 14 H        0.9780     4.1940    -1.3440 H     1 <1>   0.0800 
 15 H       -2.0720     7.1080     0.2720 H     1 <1>   0.0800 
 16 H       -1.2030     6.0260     1.3120 H     1 <1>   0.0800 
 17 H       -0.2950     3.6840     1.2970 H     1 <1>   0.0800 
 18 H       -0.2130     2.3110     0.2410 H     1 <1>   0.0800 
 19 H       -2.7240     5.4260    -1.1310 H     1 <1>   0.1500 
 20 H       -1.8340     3.1300    -1.1460 H     1 <1>   0.1500 
@<TRIPOS>BOND
  1   1   2  2   
  2   1   3  1   
  3   1   9  1   
  4   2   4  1   
  5   2  10  1   
  6   3   5  1   
  7   3  11  1   
  8   3  12  1   
  9   4   6  1   
 10   4  13  1   
 11   4  14  1   
 12   5   7  1   
 13   5  15  1   
 14   5  16  1   
 15   6   8  1   
 16   6  17  1   
 17   6  18  1   
 18   7   8  2   
 19   7  19  1   
 20   8  20  1   
@<TRIPOS>SUBSTRUCTURE
  1 ****   4 GROUP 4 **** **** 0

# MOE 2024.06 (io_trps.svl 2023.06)
