@<TRIPOS>MOLECULE
NONAME
57 60 1 0 0 
SMALL
USER_CHARGES


@<TRIPOS>ATOM
  1 CL      -0.9270    -0.9540     2.3770 Cl    1 <1>  -0.1770 
  2 C       -0.7330    -2.0280     1.0030 C.ar  1 <1>   0.1770 
  3 C       -1.7160    -2.0980     0.0070 C.ar  1 <1>   0.1000 
  4 C        0.4160    -2.7930     0.9460 C.ar  1 <1>  -0.1500 
  5 N       -2.9000    -1.3510     0.0060 N.pl3 1 <1>  -0.8380 
  6 C       -1.4930    -2.9710    -1.0510 C.ar  1 <1>  -0.1500 
  7 C        0.6130    -3.6550    -0.1200 C.ar  1 <1>  -0.1500 
  8 C       -2.7560     0.0990    -0.2170 C.3   1 <1>   0.2090 
  9 C       -3.8960    -1.7070     1.0350 C.3   1 <1>   0.2090 
 10 C       -0.3450    -3.7410    -1.1170 C.ar  1 <1>  -0.1500 
 11 C       -4.0900     0.6250    -0.7360 C.3   1 <1>  -0.1600 
 12 C       -5.2600    -1.2250     0.5520 C.3   1 <1>  -0.1600 
 13 C       -5.2400     0.2800     0.2280 C.3   1 <1>   0.4230 
 14 N       -6.5520     0.6890    -0.3720 N.4   1 <1>  -0.9590 
 15 C       -7.7390     0.4280     0.5060 C.3   1 <1>   0.3430 
 16 C       -6.5760     2.1220    -0.8290 C.3   1 <1>   0.3430 
 17 C       -9.0350     0.4300    -0.3270 C.3   1 <1>   0.0000 
 18 C       -7.9940     2.6230    -1.1370 C.3   1 <1>  -0.1600 
 19 C      -10.2270     0.6400     0.6200 C.3   1 <1>   0.2000 
 20 C       -8.9720     1.4860    -1.4730 C.3   1 <1>  -0.1600 
 21 C       -9.3690    -0.9490    -0.9210 C.3   1 <1>  -0.1600 
 22 O      -10.3400     1.9840     0.9670 O.3   1 <1>  -0.5600 
 23 C      -11.4450     0.1060    -0.1390 C.3   1 <1>  -0.1600 
 24 C      -10.8900    -0.9350    -1.1240 C.3   1 <1>  -0.1600 
 25 C      -11.3070     2.2720     1.9310 C.3   1 <1>   0.0400 
 26 H        1.1490    -2.7130     1.7280 H     1 <1>   0.1500 
 27 H       -2.2340    -3.0420    -1.8270 H     1 <1>   0.1500 
 28 H        1.5050    -4.2550    -0.1740 H     1 <1>   0.1500 
 29 H       -2.4850     0.5890     0.7030 H     1 <1>   0.0800 
 30 H       -1.9770     0.2780    -0.9420 H     1 <1>   0.0800 
 31 H       -3.9060    -2.7760     1.1740 H     1 <1>   0.0800 
 32 H       -3.6380    -1.2430     1.9730 H     1 <1>   0.0800 
 33 H       -0.1960    -4.4110    -1.9470 H     1 <1>   0.1500 
 34 H       -4.2670     0.1850    -1.7010 H     1 <1>   0.0800 
 35 H       -3.9870     1.6870    -0.8490 H     1 <1>   0.0800 
 36 H       -5.9620    -1.4450     1.3320 H     1 <1>   0.0800 
 37 H       -5.5220    -1.7920    -0.3240 H     1 <1>   0.0800 
 38 H       -5.0840     0.8220     1.1470 H     1 <1>   0.0800 
 39 H       -6.6880     0.1110    -1.2100 H     1 <1>   0.4500 
 40 H       -7.6570    -0.5170     1.0120 H     1 <1>   0.0800 
 41 H       -7.8050     1.2040     1.2520 H     1 <1>   0.0800 
 42 H       -6.1420     2.7570    -0.0730 H     1 <1>   0.0800 
 43 H       -5.9770     2.2140    -1.7210 H     1 <1>   0.0800 
 44 H       -8.3620     3.1650    -0.2830 H     1 <1>   0.0800 
 45 H       -7.9530     3.3250    -1.9520 H     1 <1>   0.0800 
 46 H      -10.0870     0.0630     1.5200 H     1 <1>   0.0800 
 47 H       -8.6420     1.0280    -2.3890 H     1 <1>   0.0800 
 48 H       -9.9470     1.9010    -1.6670 H     1 <1>   0.0800 
 49 H       -8.8480    -1.1620    -1.8380 H     1 <1>   0.0800 
 50 H       -9.1310    -1.7220    -0.2090 H     1 <1>   0.0800 
 51 H      -12.1490    -0.3450     0.5390 H     1 <1>   0.0800 
 52 H      -11.9280     0.8990    -0.6840 H     1 <1>   0.0800 
 53 H      -11.3130    -1.9100    -0.9490 H     1 <1>   0.0800 
 54 H      -11.1250    -0.6350    -2.1320 H     1 <1>   0.0800 
 55 H      -11.2550     3.3240     2.1530 H     1 <1>   0.0800 
 56 H      -11.1070     1.7040     2.8240 H     1 <1>   0.0800 
 57 H      -12.2830     2.0390     1.5450 H     1 <1>   0.0800 
@<TRIPOS>BOND
  1   1   2  1   
  2   2   3  ar  
  3   2   4  ar  
  4   3   5  1   
  5   3   6  ar  
  6   4   7  ar  
  7   4  26  1   
  8   5   8  1   
  9   5   9  1   
 10   6  10  ar  
 11   6  27  1   
 12   7  10  ar  
 13   7  28  1   
 14   8  11  1   
 15   8  29  1   
 16   8  30  1   
 17   9  12  1   
 18   9  31  1   
 19   9  32  1   
 20  10  33  1   
 21  11  13  1   
 22  11  34  1   
 23  11  35  1   
 24  12  13  1   
 25  12  36  1   
 26  12  37  1   
 27  13  14  1   
 28  13  38  1   
 29  14  15  1   
 30  14  16  1   
 31  14  39  1   
 32  15  17  1   
 33  15  40  1   
 34  15  41  1   
 35  16  18  1   
 36  16  42  1   
 37  16  43  1   
 38  17  19  1   
 39  17  20  1   
 40  17  21  1   
 41  18  20  1   
 42  18  44  1   
 43  18  45  1   
 44  19  22  1   
 45  19  23  1   
 46  19  46  1   
 47  20  47  1   
 48  20  48  1   
 49  21  24  1   
 50  21  49  1   
 51  21  50  1   
 52  22  25  1   
 53  23  24  1   
 54  23  51  1   
 55  23  52  1   
 56  24  53  1   
 57  24  54  1   
 58  25  55  1   
 59  25  56  1   
 60  25  57  1   
@<TRIPOS>SUBSTRUCTURE
  1 ****  13 GROUP 4 **** **** 0

# MOE 2024.06 (io_trps.svl 2023.06)
