@<TRIPOS>MOLECULE
NONAME
50 52 1 0 0 
SMALL
USER_CHARGES


@<TRIPOS>ATOM
  1 O        1.0620     0.0720     0.8370 O.2   1 <1>  -0.5700 
  2 C        0.9280    -1.1270     0.9350 C.2   1 <1>   0.5690 
  3 N       -0.0820    -1.6200     1.6880 N.am  1 <1>  -0.7300 
  4 C        1.9040    -2.0890     0.2010 C.3   1 <1>   0.2510 
  5 C       -0.3260    -3.0680     1.8720 C.3   1 <1>   0.1400 
  6 N        1.6810    -3.5540     0.4540 N.3   1 <1>  -0.8100 
  7 C        3.3560    -1.7390     0.5710 C.3   1 <1>  -0.0990 
  8 C        0.2550    -3.8710     0.6970 C.3   1 <1>   0.1100 
  9 C        2.2170    -4.3730    -0.6640 C.3   1 <1>   0.2900 
 10 C        3.9460    -0.7800    -0.4350 C.2   1 <1>   0.5690 
 11 C        2.1730    -5.8640    -0.3640 C.2   1 <1>  -0.0400 
 12 O        4.7800    -1.1830    -1.2070 O.2   1 <1>  -0.5700 
 13 N        3.5180     0.5000    -0.4470 N.am  1 <1>  -0.7300 
 14 O        1.1090    -6.5640    -0.7120 O.3   1 <1>  -0.2800 
 15 C        3.0910    -6.6640     0.2200 C.2   1 <1>  -0.1500 
 16 C        4.0080     1.5610    -1.3390 C.3   1 <1>   0.3210 
 17 C        1.3190    -7.8150    -0.3570 C.2   1 <1>  -0.0400 
 18 C        2.5290    -7.9460     0.2250 C.2   1 <1>  -0.1500 
 19 C        4.6110     2.6640    -0.4970 C.2   1 <1>  -0.1810 
 20 C        0.2430    -8.8400    -0.6420 C.3   1 <1>  -0.0600 
 21 C        4.1190     3.8650    -0.1520 C.2   1 <1>  -0.0400 
 22 C        5.8650     2.6440     0.1140 C.2   1 <1>   0.1080 
 23 O        5.0160     4.4710     0.5790 O.3   1 <1>  -0.0190 
 24 C        2.8070     4.5610    -0.4440 C.3   1 <1>  -0.0600 
 25 N        6.0810     3.7410     0.7470 N.2   1 <1>  -0.4100 
 26 C        6.8510     1.4960     0.0560 C.3   1 <1>  -0.0590 
 27 H       -0.6650    -0.9560     2.2020 H     1 <1>   0.3700 
 28 H        1.7580    -1.9110    -0.8510 H     1 <1>   0.0800 
 29 H       -1.3850    -3.2500     1.9380 H     1 <1>   0.0800 
 30 H        0.1340    -3.3950     2.7890 H     1 <1>   0.0800 
 31 H        3.9740    -2.6160     0.5980 H     1 <1>   0.0800 
 32 H        3.3940    -1.2930     1.5470 H     1 <1>   0.0800 
 33 H       -0.3230    -3.6750    -0.1900 H     1 <1>   0.0800 
 34 H        0.1500    -4.9150     0.9350 H     1 <1>   0.0800 
 35 H        3.2430    -4.1070    -0.8460 H     1 <1>   0.0800 
 36 H        1.6630    -4.1790    -1.5670 H     1 <1>   0.0800 
 37 H        2.7510     0.7760     0.1850 H     1 <1>   0.3700 
 38 H        4.0580    -6.4020     0.6110 H     1 <1>   0.1500 
 39 H        3.1860     1.9420    -1.9180 H     1 <1>   0.0800 
 40 H        4.7480     1.1710    -2.0180 H     1 <1>   0.0800 
 41 H        2.9960    -8.8300     0.6220 H     1 <1>   0.1500 
 42 H       -0.6650    -8.5610    -0.1390 H     1 <1>   0.0800 
 43 H        0.5530    -9.8090    -0.2960 H     1 <1>   0.0800 
 44 H        0.0580    -8.8860    -1.6990 H     1 <1>   0.0800 
 45 H        2.1680     3.9340    -1.0390 H     1 <1>   0.0800 
 46 H        2.9920     5.4770    -0.9740 H     1 <1>   0.0800 
 47 H        2.3060     4.7880     0.4800 H     1 <1>   0.0800 
 48 H        7.0580     1.2380    -0.9650 H     1 <1>   0.0800 
 49 H        6.4410     0.6400     0.5590 H     1 <1>   0.0800 
 50 H        7.7690     1.7760     0.5390 H     1 <1>   0.0800 
@<TRIPOS>BOND
  1   1   2  2   
  2   2   3  am  
  3   2   4  1   
  4   3   5  1   
  5   3  27  1   
  6   4   6  1   
  7   4   7  1   
  8   4  28  1   
  9   5   8  1   
 10   5  29  1   
 11   5  30  1   
 12   6   8  1   
 13   6   9  1   
 14   7  10  1   
 15   7  31  1   
 16   7  32  1   
 17   8  33  1   
 18   8  34  1   
 19   9  11  1   
 20   9  35  1   
 21   9  36  1   
 22  10  12  2   
 23  10  13  am  
 24  11  14  1   
 25  11  15  2   
 26  13  16  1   
 27  13  37  1   
 28  14  17  1   
 29  15  18  1   
 30  15  38  1   
 31  16  19  1   
 32  16  39  1   
 33  16  40  1   
 34  17  18  2   
 35  17  20  1   
 36  18  41  1   
 37  19  21  2   
 38  19  22  1   
 39  20  42  1   
 40  20  43  1   
 41  20  44  1   
 42  21  23  1   
 43  21  24  1   
 44  22  25  2   
 45  22  26  1   
 46  23  25  1   
 47  24  45  1   
 48  24  46  1   
 49  24  47  1   
 50  26  48  1   
 51  26  49  1   
 52  26  50  1   
@<TRIPOS>SUBSTRUCTURE
  1 ****   7 GROUP 4 **** **** 0

# MOE 2024.06 (io_trps.svl 2023.06)
