@<TRIPOS>MOLECULE
NONAME
43 45 1 0 0 
SMALL
USER_CHARGES


@<TRIPOS>ATOM
  1 F       -0.0190     0.4350    -0.1910 F     1 <1>  -0.1900 
  2 C       -0.0510     1.7300    -0.0140 C.ar  1 <1>   0.1900 
  3 C       -1.2280     2.4030     0.3280 C.ar  1 <1>   0.0830 
  4 C        1.1440     2.4020    -0.1850 C.ar  1 <1>  -0.1500 
  5 O       -2.4600     1.8560     0.5270 O.3   1 <1>  -0.3630 
  6 C       -1.1590     3.7780     0.4860 C.ar  1 <1>  -0.1500 
  7 C        1.1790     3.7750    -0.0200 C.ar  1 <1>  -0.1500 
  8 C       -2.6990     0.4660     0.4970 C.3   1 <1>   0.0400 
  9 C        0.0260     4.4940     0.3100 C.ar  1 <1>   0.0860 
 10 C        0.0450     5.9350     0.4650 C.2   1 <1>   0.5440 
 11 O       -0.6250     6.4680     1.3270 O.2   1 <1>  -0.5700 
 12 N        0.8250     6.6960    -0.3740 N.am  1 <1>  -0.4940 
 13 C        0.9640     8.1030    -0.4210 C.2   1 <1>  -0.0880 
 14 N        2.1530     8.7690    -0.4210 N.pl3 1 <1>   0.3140 
 15 C       -0.0030     9.0500    -0.4850 C.2   1 <1>  -0.1810 
 16 N        1.9650    10.1100    -0.5080 N.2   1 <1>  -0.7070 
 17 C        3.5050     8.1530    -0.2930 C.3   1 <1>   0.1760 
 18 C        0.6780    10.2600    -0.5350 C.2   1 <1>   0.1390 
 19 C       -1.5110     8.8820    -0.5010 C.3   1 <1>  -0.0590 
 20 C        4.3230     8.7140     0.8710 C.3   1 <1>  -0.1600 
 21 C        4.3940     8.3930    -1.5150 C.3   1 <1>  -0.1600 
 22 C        5.7720     8.3670     0.5240 C.3   1 <1>  -0.1600 
 23 C        5.8330     8.2510    -1.0050 C.3   1 <1>  -0.1600 
 24 H        2.0330     1.8510    -0.4400 H     1 <1>   0.1500 
 25 H       -2.0550     4.3110     0.7550 H     1 <1>   0.1500 
 26 H        2.1160     4.2900    -0.1390 H     1 <1>   0.1500 
 27 H       -3.7350     0.3000     0.7310 H     1 <1>   0.0800 
 28 H       -2.0780    -0.0140     1.2320 H     1 <1>   0.0800 
 29 H       -2.4860     0.0950    -0.4900 H     1 <1>   0.0800 
 30 H        1.2940     6.1830    -1.1190 H     1 <1>   0.3700 
 31 H        3.3960     7.0960    -0.1460 H     1 <1>   0.0800 
 32 H        0.2000    11.2230    -0.5910 H     1 <1>   0.1500 
 33 H       -1.7730     7.8870    -0.8120 H     1 <1>   0.0800 
 34 H       -1.9580     9.5850    -1.1780 H     1 <1>   0.0800 
 35 H       -1.9010     9.0440     0.4880 H     1 <1>   0.0800 
 36 H        4.0200     8.2920     1.8130 H     1 <1>   0.0800 
 37 H        4.2190     9.7850     0.9070 H     1 <1>   0.0800 
 38 H        4.2500     9.4000    -1.8710 H     1 <1>   0.0800 
 39 H        4.1800     7.6990    -2.3080 H     1 <1>   0.0800 
 40 H        6.0350     7.4210     0.9680 H     1 <1>   0.0800 
 41 H        6.4480     9.1210     0.8910 H     1 <1>   0.0800 
 42 H        6.4550     9.0230    -1.4240 H     1 <1>   0.0800 
 43 H        6.2380     7.2920    -1.2830 H     1 <1>   0.0800 
@<TRIPOS>BOND
  1   1   2  1   
  2   2   3  ar  
  3   2   4  ar  
  4   3   5  1   
  5   3   6  ar  
  6   4   7  ar  
  7   4  24  1   
  8   5   8  1   
  9   6   9  ar  
 10   6  25  1   
 11   7   9  ar  
 12   7  26  1   
 13   8  27  1   
 14   8  28  1   
 15   8  29  1   
 16   9  10  1   
 17  10  11  2   
 18  10  12  am  
 19  12  13  1   
 20  12  30  1   
 21  13  14  1   
 22  13  15  2   
 23  14  16  1   
 24  14  17  1   
 25  15  18  1   
 26  15  19  1   
 27  16  18  2   
 28  17  20  1   
 29  17  21  1   
 30  17  31  1   
 31  18  32  1   
 32  19  33  1   
 33  19  34  1   
 34  19  35  1   
 35  20  22  1   
 36  20  36  1   
 37  20  37  1   
 38  21  23  1   
 39  21  38  1   
 40  21  39  1   
 41  22  23  1   
 42  22  40  1   
 43  22  41  1   
 44  23  42  1   
 45  23  43  1   
@<TRIPOS>SUBSTRUCTURE
  1 ****  12 GROUP 4 **** **** 0

# MOE 2024.06 (io_trps.svl 2023.06)
