@<TRIPOS>MOLECULE
NONAME
47 50 1 0 0 
SMALL
USER_CHARGES


@<TRIPOS>ATOM
  1 O        1.3970    -1.9820    -1.0580 O.2   1 <1>  -0.5700 
  2 C        0.8360    -2.5130    -0.1280 C.2   1 <1>   0.6900 
  3 N       -0.4190    -3.0450    -0.1660 N.am  1 <1>  -0.4200 
  4 N        1.3940    -2.6730     1.0890 N.am  1 <1>  -0.7300 
  5 C       -0.7060    -3.6270     1.0330 C.2   1 <1>   0.5690 
  6 C       -1.2720    -3.0900    -1.3880 C.3   1 <1>   0.2010 
  7 C        0.4820    -3.4460     1.9680 C.3   1 <1>   0.2010 
  8 O       -1.7220    -4.2210     1.3060 O.2   1 <1>  -0.5700 
  9 C       -1.3440    -4.4830    -2.0100 C.2   1 <1>   0.5690 
 10 O       -1.1730    -4.6160    -3.1970 O.2   1 <1>  -0.5700 
 11 N       -1.6040    -5.5480    -1.2110 N.am  1 <1>  -0.7300 
 12 C       -1.5280    -6.9710    -1.5980 C.3   1 <1>   0.2200 
 13 C       -2.5340    -7.8010    -0.8110 C.3   1 <1>  -0.0800 
 14 C       -0.2180    -7.5480    -1.0790 C.3   1 <1>   0.1200 
 15 C       -1.7970    -8.0540     0.5110 C.3   1 <1>   0.1200 
 16 C       -3.9270    -7.1570    -0.6390 C.3   1 <1>  -0.0170 
 17 O       -0.4390    -7.8210     0.2730 O.3   1 <1>  -0.5600 
 18 C       -4.9920    -8.0080     0.0620 C.ar  1 <1>  -0.1440 
 19 C       -6.2100    -7.4080     0.4720 C.ar  1 <1>   0.0000 
 20 C       -4.8440    -9.3430     0.3200 C.ar  1 <1>  -0.1500 
 21 C       -7.1590    -8.2190     1.1410 C.ar  1 <1>   0.3100 
 22 C       -6.5460    -6.0500     0.2530 C.ar  1 <1>  -0.1500 
 23 C       -5.8510   -10.0560     0.9800 C.ar  1 <1>   0.1600 
 24 N       -6.9650    -9.5380     1.3860 N.ar  1 <1>  -0.6200 
 25 C       -8.3660    -7.6450     1.5710 C.ar  1 <1>  -0.1500 
 26 C       -7.7330    -5.5220     0.6820 C.ar  1 <1>  -0.1500 
 27 C       -8.6560    -6.3260     1.3530 C.ar  1 <1>  -0.1500 
 28 H        2.3890    -2.5150     1.2630 H     1 <1>   0.3700 
 29 H       -2.2670    -2.7770    -1.1320 H     1 <1>   0.0800 
 30 H       -0.8830    -2.4060    -2.1220 H     1 <1>   0.0800 
 31 H        0.9090    -4.3970     2.2330 H     1 <1>   0.0800 
 32 H        0.2070    -2.8800     2.8390 H     1 <1>   0.0800 
 33 H       -1.6980    -5.3930    -0.1960 H     1 <1>   0.3700 
 34 H       -1.6290    -7.0810    -2.6650 H     1 <1>   0.0800 
 35 H       -2.6420    -8.7390    -1.3260 H     1 <1>   0.0800 
 36 H        0.6070    -6.8660    -1.1840 H     1 <1>   0.0800 
 37 H        0.0100    -8.4780    -1.5700 H     1 <1>   0.0800 
 38 H       -1.9190    -9.0640     0.8600 H     1 <1>   0.0800 
 39 H       -2.1130    -7.3660     1.2780 H     1 <1>   0.0800 
 40 H       -4.3010    -6.8830    -1.6100 H     1 <1>   0.0800 
 41 H       -3.8060    -6.2530    -0.0680 H     1 <1>   0.0800 
 42 H       -3.9720    -9.8980     0.0370 H     1 <1>   0.1500 
 43 H       -5.8580    -5.4090    -0.2660 H     1 <1>   0.1500 
 44 H       -5.6870   -11.1040     1.1640 H     1 <1>   0.1500 
 45 H       -9.0610    -8.2850     2.0830 H     1 <1>   0.1500 
 46 H       -7.9720    -4.4860     0.5100 H     1 <1>   0.1500 
 47 H       -9.5850    -5.8990     1.6890 H     1 <1>   0.1500 
@<TRIPOS>BOND
  1   1   2  2   
  2   2   3  am  
  3   2   4  am  
  4   3   5  am  
  5   3   6  1   
  6   4   7  1   
  7   4  28  1   
  8   5   7  1   
  9   5   8  2   
 10   6   9  1   
 11   6  29  1   
 12   6  30  1   
 13   7  31  1   
 14   7  32  1   
 15   9  10  2   
 16   9  11  am  
 17  11  12  1   
 18  11  33  1   
 19  12  13  1   
 20  12  14  1   
 21  12  34  1   
 22  13  15  1   
 23  13  16  1   
 24  13  35  1   
 25  14  17  1   
 26  14  36  1   
 27  14  37  1   
 28  15  17  1   
 29  15  38  1   
 30  15  39  1   
 31  16  18  1   
 32  16  40  1   
 33  16  41  1   
 34  18  19  ar  
 35  18  20  ar  
 36  19  21  ar  
 37  19  22  ar  
 38  20  23  ar  
 39  20  42  1   
 40  21  24  ar  
 41  21  25  ar  
 42  22  26  ar  
 43  22  43  1   
 44  23  24  ar  
 45  23  44  1   
 46  25  27  ar  
 47  25  45  1   
 48  26  27  ar  
 49  26  46  1   
 50  27  47  1   
@<TRIPOS>SUBSTRUCTURE
  1 ****  16 GROUP 4 **** **** 0

# MOE 2024.06 (io_trps.svl 2023.06)
