@<TRIPOS>MOLECULE
NONAME
47 50 1 0 0 
SMALL
USER_CHARGES


@<TRIPOS>ATOM
  1 O       -0.5130     2.1720     2.8740 O.2   1 <1>  -0.5700 
  2 C       -0.1350     2.8050     1.9010 C.2   1 <1>   0.5440 
  3 N       -1.0890     3.5060     1.1790 N.am  1 <1>  -0.6600 
  4 C        1.2910     2.7950     1.5770 C.ar  1 <1>   0.3960 
  5 C       -2.5470     3.1900     1.2780 C.3   1 <1>   0.1400 
  6 C       -0.7920     4.5480     0.1600 C.3   1 <1>   0.1400 
  7 N        1.7330     2.7530     0.3360 N.ar  1 <1>  -0.6200 
  8 C        2.1940     2.8190     2.6730 C.ar  1 <1>   0.1600 
  9 C       -3.0810     2.6640    -0.0800 C.3   1 <1>   0.0000 
 10 C       -1.2630     4.0610    -1.2140 C.3   1 <1>  -0.1600 
 11 C        3.0810     2.7420     0.2020 C.ar  1 <1>   0.3100 
 12 N        3.4890     2.8190     2.5880 N.ar  1 <1>  -0.6200 
 13 C       -4.5890     2.3670    -0.0100 C.3   1 <1>   0.2000 
 14 C       -2.7550     3.6830    -1.1960 C.3   1 <1>  -0.1600 
 15 C       -2.5050     1.2690    -0.3800 C.3   1 <1>  -0.1600 
 16 C        3.9570     2.7790     1.3160 C.ar  1 <1>   0.3100 
 17 C        3.6370     2.6980    -1.0870 C.ar  1 <1>  -0.1500 
 18 O       -5.2700     3.3460     0.7170 O.3   1 <1>  -0.5600 
 19 C       -4.7120     0.9910     0.6510 C.3   1 <1>  -0.1600 
 20 C       -3.3650     0.2890     0.4230 C.3   1 <1>  -0.1600 
 21 C        5.3410     2.7710     1.0900 C.ar  1 <1>  -0.1500 
 22 C        4.9940     2.6910    -1.2800 C.ar  1 <1>  -0.1500 
 23 C       -6.6550     3.3250     0.5750 C.3   1 <1>   0.0400 
 24 C        5.8560     2.7290    -0.1810 C.ar  1 <1>  -0.1500 
 25 H       -2.7300     2.4650     2.0520 H     1 <1>   0.0800 
 26 H       -3.0710     4.0890     1.5520 H     1 <1>   0.0800 
 27 H       -1.3210     5.4480     0.4230 H     1 <1>   0.0800 
 28 H        0.2570     4.7840     0.1340 H     1 <1>   0.0800 
 29 H        1.7550     2.8400     3.6560 H     1 <1>   0.1500 
 30 H       -1.0970     4.8370    -1.9400 H     1 <1>   0.0800 
 31 H       -0.6690     3.2110    -1.5040 H     1 <1>   0.0800 
 32 H       -4.9870     2.3300    -1.0110 H     1 <1>   0.0800 
 33 H       -3.0400     3.2900    -2.1560 H     1 <1>   0.0800 
 34 H       -3.3340     4.5740    -1.0250 H     1 <1>   0.0800 
 35 H       -2.6160     1.0490    -1.4270 H     1 <1>   0.0800 
 36 H       -1.4630     1.1820    -0.1250 H     1 <1>   0.0800 
 37 H        2.9600     2.6680    -1.9210 H     1 <1>   0.1500 
 38 H       -4.8830     1.0990     1.7080 H     1 <1>   0.0800 
 39 H       -5.5150     0.4300     0.2090 H     1 <1>   0.0800 
 40 H       -2.8960     0.0920     1.3730 H     1 <1>   0.0800 
 41 H       -3.4850    -0.6420    -0.1040 H     1 <1>   0.0800 
 42 H        5.9870     2.8000     1.9490 H     1 <1>   0.1500 
 43 H        5.4090     2.6570    -2.2740 H     1 <1>   0.1500 
 44 H       -7.0620     4.1310     1.1600 H     1 <1>   0.0800 
 45 H       -7.0400     2.3880     0.9360 H     1 <1>   0.0800 
 46 H       -6.9090     3.4670    -0.4610 H     1 <1>   0.0800 
 47 H        6.9200     2.7240    -0.3440 H     1 <1>   0.1500 
@<TRIPOS>BOND
  1   1   2  2   
  2   2   3  am  
  3   2   4  1   
  4   3   5  1   
  5   3   6  1   
  6   4   7  ar  
  7   4   8  ar  
  8   5   9  1   
  9   5  25  1   
 10   5  26  1   
 11   6  10  1   
 12   6  27  1   
 13   6  28  1   
 14   7  11  ar  
 15   8  12  ar  
 16   8  29  1   
 17   9  13  1   
 18   9  14  1   
 19   9  15  1   
 20  10  14  1   
 21  10  30  1   
 22  10  31  1   
 23  11  16  ar  
 24  11  17  ar  
 25  12  16  ar  
 26  13  18  1   
 27  13  19  1   
 28  13  32  1   
 29  14  33  1   
 30  14  34  1   
 31  15  20  1   
 32  15  35  1   
 33  15  36  1   
 34  16  21  ar  
 35  17  22  ar  
 36  17  37  1   
 37  18  23  1   
 38  19  20  1   
 39  19  38  1   
 40  19  39  1   
 41  20  40  1   
 42  20  41  1   
 43  21  24  ar  
 44  21  42  1   
 45  22  24  ar  
 46  22  43  1   
 47  23  44  1   
 48  23  45  1   
 49  23  46  1   
 50  24  47  1   
@<TRIPOS>SUBSTRUCTURE
  1 ****   2 GROUP 4 **** **** 0

# MOE 2024.06 (io_trps.svl 2023.06)
