@<TRIPOS>MOLECULE
NONAME
39 40 1 0 0 
SMALL
USER_CHARGES


@<TRIPOS>ATOM
  1 O       -1.9890     0.4910    -2.2780 O.2   1 <1>  -0.5700 
  2 C       -1.7840     0.5750    -1.0900 C.2   1 <1>   0.5690 
  3 N       -1.7330    -0.5220    -0.2960 N.am  1 <1>  -0.7300 
  4 C       -1.5890     1.9550    -0.4620 C.3   1 <1>   0.1810 
  5 C       -1.9050    -1.9260    -0.7300 C.3   1 <1>   0.2200 
  6 O       -1.5850     1.8920     0.9450 O.3   1 <1>  -0.5600 
  7 C       -3.2510    -2.4810    -0.2870 C.3   1 <1>  -0.0800 
  8 C       -0.9570    -2.8160     0.0630 C.3   1 <1>   0.1200 
  9 C       -1.4000     3.1200     1.5640 C.3   1 <1>   0.1200 
 10 C       -2.9790    -2.9310     1.1510 C.3   1 <1>   0.1200 
 11 C       -4.4530    -1.5290    -0.4350 C.3   1 <1>  -0.0160 
 12 O       -1.5920    -3.0540     1.2840 O.3   1 <1>  -0.5600 
 13 C       -1.4370     2.8820     3.0680 C.3   1 <1>  -0.2400 
 14 C       -5.7470    -2.2250    -0.0420 C.ar  1 <1>  -0.1440 
 15 C       -6.3150    -2.0650     1.2060 C.ar  1 <1>  -0.1500 
 16 C       -6.4190    -3.0550    -0.9160 C.ar  1 <1>  -0.1500 
 17 C       -7.4910    -2.7300     1.5120 C.ar  1 <1>   0.1600 
 18 C       -7.5900    -3.6720    -0.5100 C.ar  1 <1>   0.1600 
 19 N       -8.1420    -3.5310     0.6850 N.ar  1 <1>  -0.6200 
 20 H       -1.5920    -0.3750     0.7100 H     1 <1>   0.3700 
 21 H       -2.3910     2.5980    -0.7760 H     1 <1>   0.0800 
 22 H       -0.6500     2.3590    -0.7930 H     1 <1>   0.0800 
 23 H       -1.7500    -2.0120    -1.7920 H     1 <1>   0.0800 
 24 H       -3.4480    -3.3650    -0.8680 H     1 <1>   0.0800 
 25 H        0.0010    -2.3570     0.2340 H     1 <1>   0.0800 
 26 H       -0.8270    -3.7650    -0.4280 H     1 <1>   0.0800 
 27 H       -0.4460     3.5220     1.2660 H     1 <1>   0.0800 
 28 H       -2.1930     3.7860     1.2650 H     1 <1>   0.0800 
 29 H       -3.4400    -3.8780     1.3700 H     1 <1>   0.0800 
 30 H       -3.3060    -2.1930     1.8630 H     1 <1>   0.0800 
 31 H       -4.5210    -1.1970    -1.4570 H     1 <1>   0.0800 
 32 H       -4.3190    -0.6560     0.1790 H     1 <1>   0.0800 
 33 H       -0.6500     2.2080     3.3550 H     1 <1>   0.0800 
 34 H       -2.3870     2.4670     3.3540 H     1 <1>   0.0800 
 35 H       -1.2980     3.8130     3.5880 H     1 <1>   0.0800 
 36 H       -5.8550    -1.4320     1.9420 H     1 <1>   0.1500 
 37 H       -6.0430    -3.2270    -1.9080 H     1 <1>   0.1500 
 38 H       -7.9190    -2.5930     2.4910 H     1 <1>   0.1500 
 39 H       -8.1010    -4.3160    -1.2050 H     1 <1>   0.1500 
@<TRIPOS>BOND
  1   1   2  2   
  2   2   3  am  
  3   2   4  1   
  4   3   5  1   
  5   3  20  1   
  6   4   6  1   
  7   4  21  1   
  8   4  22  1   
  9   5   7  1   
 10   5   8  1   
 11   5  23  1   
 12   6   9  1   
 13   7  10  1   
 14   7  11  1   
 15   7  24  1   
 16   8  12  1   
 17   8  25  1   
 18   8  26  1   
 19   9  13  1   
 20   9  27  1   
 21   9  28  1   
 22  10  12  1   
 23  10  29  1   
 24  10  30  1   
 25  11  14  1   
 26  11  31  1   
 27  11  32  1   
 28  13  33  1   
 29  13  34  1   
 30  13  35  1   
 31  14  15  ar  
 32  14  16  ar  
 33  15  17  ar  
 34  15  36  1   
 35  16  18  ar  
 36  16  37  1   
 37  17  19  ar  
 38  17  38  1   
 39  18  19  ar  
 40  18  39  1   
@<TRIPOS>SUBSTRUCTURE
  1 ****  11 GROUP 4 **** **** 0

# MOE 2024.06 (io_trps.svl 2023.06)
