@<TRIPOS>MOLECULE
NONAME
47 50 1 0 0 
SMALL
USER_CHARGES


@<TRIPOS>ATOM
  1 S       -1.0410     0.2080    -1.7090 S.3   1 <1>  -0.0800 
  2 C        0.0070    -1.0570    -1.0960 C.2   1 <1>   0.4620 
  3 C       -2.4060    -0.8440    -1.4570 C.2   1 <1>  -0.1100 
  4 N       -0.6040    -2.1260    -0.7510 N.2   1 <1>  -0.5650 
  5 N        1.3410    -0.8310    -1.0320 N.pl3 1 <1>  -0.8840 
  6 C       -1.9670    -2.0100    -0.9520 C.2   1 <1>   0.0460 
  7 C       -2.8010    -3.2270    -0.5740 C.3   1 <1>   0.0210 
  8 C       -4.3130    -2.9960    -0.7330 C.3   1 <1>  -0.0990 
  9 C       -5.1680    -4.1960    -0.3510 C.2   1 <1>   0.5690 
 10 O       -4.6140    -5.2120    -0.0010 O.2   1 <1>  -0.5700 
 11 N       -6.5360    -4.1150    -0.4100 N.am  1 <1>  -0.6600 
 12 C       -7.3170    -2.9030    -0.8120 C.3   1 <1>   0.1400 
 13 C       -7.3600    -5.3190    -0.0780 C.3   1 <1>   0.1400 
 14 C       -8.3020    -2.4790     0.3010 C.3   1 <1>   0.1430 
 15 C       -8.8490    -4.9790     0.1080 C.3   1 <1>  -0.1600 
 16 C       -9.2660    -1.4810    -0.3170 C.ar  1 <1>   0.1670 
 17 C       -9.0230    -3.6990     0.9390 C.3   1 <1>  -0.1600 
 18 C       -7.5970    -1.6170     1.3840 C.3   1 <1>  -0.1600 
 19 N      -10.2430    -1.7770    -1.1410 N.ar  1 <1>  -0.6200 
 20 C       -8.9830    -0.2020     0.0670 C.ar  1 <1>  -0.1430 
 21 C       -7.7950    -0.1430     0.9930 C.3   1 <1>  -0.0170 
 22 C      -10.9330    -0.7270    -1.5600 C.ar  1 <1>   0.7200 
 23 C       -9.7760     0.8060    -0.4260 C.ar  1 <1>   0.1600 
 24 N      -10.7700     0.5500    -1.2470 N.ar  1 <1>  -0.6200 
 25 N      -11.9420    -0.9930    -2.3910 N.pl3 1 <1>  -0.9000 
 26 H       -3.3770    -0.4670    -1.7180 H     1 <1>   0.1500 
 27 H        1.9560    -1.5790    -0.7110 H     1 <1>   0.4000 
 28 H        1.7690     0.0280    -1.3730 H     1 <1>   0.4000 
 29 H       -2.5860    -3.4830     0.4490 H     1 <1>   0.0800 
 30 H       -2.4950    -4.0560    -1.1880 H     1 <1>   0.0800 
 31 H       -4.5210    -2.7540    -1.7590 H     1 <1>   0.0800 
 32 H       -4.5970    -2.1680    -0.1130 H     1 <1>   0.0800 
 33 H       -7.8760    -3.1460    -1.7000 H     1 <1>   0.0800 
 34 H       -6.6780    -2.0770    -1.0610 H     1 <1>   0.0800 
 35 H       -6.9820    -5.7490     0.8350 H     1 <1>   0.0800 
 36 H       -7.2460    -6.0530    -0.8580 H     1 <1>   0.0800 
 37 H       -9.3400    -5.8030     0.5950 H     1 <1>   0.0800 
 38 H       -9.3140    -4.8550    -0.8550 H     1 <1>   0.0800 
 39 H      -10.0700    -3.4860     1.0680 H     1 <1>   0.0800 
 40 H       -8.6130    -3.8970     1.9140 H     1 <1>   0.0800 
 41 H       -6.5580    -1.8720     1.4980 H     1 <1>   0.0800 
 42 H       -8.0830    -1.7640     2.3340 H     1 <1>   0.0800 
 43 H       -6.9370     0.2320     0.4620 H     1 <1>   0.0800 
 44 H       -7.9910     0.4720     1.8550 H     1 <1>   0.0800 
 45 H       -9.5950     1.8300    -0.1470 H     1 <1>   0.1500 
 46 H      -12.6440    -0.2620    -2.4630 H     1 <1>   0.4000 
 47 H      -12.2750    -1.9520    -2.3730 H     1 <1>   0.4000 
@<TRIPOS>BOND
  1   1   2  1   
  2   1   3  1   
  3   2   4  2   
  4   2   5  1   
  5   3   6  2   
  6   3  26  1   
  7   4   6  1   
  8   5  27  1   
  9   5  28  1   
 10   6   7  1   
 11   7   8  1   
 12   7  29  1   
 13   7  30  1   
 14   8   9  1   
 15   8  31  1   
 16   8  32  1   
 17   9  10  2   
 18   9  11  am  
 19  11  12  1   
 20  11  13  1   
 21  12  14  1   
 22  12  33  1   
 23  12  34  1   
 24  13  15  1   
 25  13  35  1   
 26  13  36  1   
 27  14  16  1   
 28  14  17  1   
 29  14  18  1   
 30  15  17  1   
 31  15  37  1   
 32  15  38  1   
 33  16  19  ar  
 34  16  20  ar  
 35  17  39  1   
 36  17  40  1   
 37  18  21  1   
 38  18  41  1   
 39  18  42  1   
 40  19  22  ar  
 41  20  21  1   
 42  20  23  ar  
 43  21  43  1   
 44  21  44  1   
 45  22  24  ar  
 46  22  25  1   
 47  23  24  ar  
 48  23  45  1   
 49  25  46  1   
 50  25  47  1   
@<TRIPOS>SUBSTRUCTURE
  1 ****  12 GROUP 4 **** **** 0

# MOE 2024.06 (io_trps.svl 2023.06)
