@<TRIPOS>MOLECULE
NONAME
50 52 1 0 0 
SMALL
USER_CHARGES


@<TRIPOS>ATOM
  1 O       -0.4970    -0.7720    -1.0080 O.3   1 <1>  -0.3630 
  2 C       -1.6680    -1.1720    -0.4780 C.ar  1 <1>   0.0830 
  3 C        0.4520    -0.2180    -0.1240 C.3   1 <1>   0.0400 
  4 C       -1.8600    -2.4860    -0.0730 C.ar  1 <1>  -0.1440 
  5 C       -2.7190    -0.2800    -0.3460 C.ar  1 <1>  -0.1440 
  6 C       -3.0930    -2.8250     0.4750 C.ar  1 <1>   0.1660 
  7 C       -0.7310    -3.5090    -0.2370 C.3   1 <1>  -0.0960 
  8 C       -3.8960    -0.7410     0.2120 C.ar  1 <1>   0.1600 
  9 C       -2.6030     1.1690    -0.8040 C.3   1 <1>  -0.0970 
 10 N       -4.1070    -1.9820     0.6230 N.ar  1 <1>  -0.6200 
 11 C       -3.3760    -4.2490     0.9530 C.3   1 <1>   0.4860 
 12 N       -4.2670    -4.9740    -0.0150 N.4   1 <1>  -0.9590 
 13 C       -5.6830    -4.4590     0.0020 C.3   1 <1>   0.3430 
 14 C       -4.3170    -6.4490     0.1840 C.3   1 <1>   0.3430 
 15 C       -6.5910    -5.6790     0.2120 C.3   1 <1>   0.2000 
 16 C       -5.7270    -6.8620    -0.2270 C.3   1 <1>  -0.0800 
 17 O       -6.9120    -5.7920     1.5610 O.3   1 <1>  -0.6800 
 18 C       -6.1380    -8.2510     0.3000 C.3   1 <1>  -0.0170 
 19 C       -5.0710    -9.2720    -0.0580 C.ar  1 <1>  -0.1430 
 20 C       -4.2290    -9.8130     0.8940 C.ar  1 <1>  -0.1500 
 21 C       -4.8800    -9.7030    -1.3560 C.ar  1 <1>  -0.1500 
 22 C       -3.2480   -10.7120     0.5090 C.ar  1 <1>   0.1600 
 23 C       -3.8680   -10.6060    -1.6360 C.ar  1 <1>   0.1600 
 24 N       -3.0400   -11.1060    -0.7350 N.ar  1 <1>  -0.6200 
 25 H        1.3230     0.0540    -0.6930 H     1 <1>   0.0800 
 26 H        0.7100    -0.9530     0.6170 H     1 <1>   0.0800 
 27 H        0.0310     0.6530     0.3440 H     1 <1>   0.0800 
 28 H       -1.1050    -4.4550    -0.5820 H     1 <1>   0.0800 
 29 H       -0.2210    -3.6470     0.6990 H     1 <1>   0.0800 
 30 H       -0.0090    -3.1790    -0.9630 H     1 <1>   0.0800 
 31 H       -4.7140    -0.0490     0.3270 H     1 <1>   0.1500 
 32 H       -3.5750     1.6020    -0.9580 H     1 <1>   0.0800 
 33 H       -2.0610     1.2250    -1.7310 H     1 <1>   0.0800 
 34 H       -2.0830     1.7490    -0.0630 H     1 <1>   0.0800 
 35 H       -3.8450    -4.2000     1.9210 H     1 <1>   0.0800 
 36 H       -2.4450    -4.7780     1.0610 H     1 <1>   0.0800 
 37 H       -3.8940    -4.7690    -0.9520 H     1 <1>   0.4500 
 38 H       -5.8420    -3.7320     0.7830 H     1 <1>   0.0800 
 39 H       -5.9070    -3.9990    -0.9460 H     1 <1>   0.0800 
 40 H       -3.5710    -6.9610    -0.4030 H     1 <1>   0.0800 
 41 H       -4.1710    -6.6880     1.2250 H     1 <1>   0.0800 
 42 H       -7.5130    -5.6030    -0.3410 H     1 <1>   0.0800 
 43 H       -5.7440    -6.9010    -1.3030 H     1 <1>   0.0800 
 44 H       -6.1350    -5.7480     2.1490 H     1 <1>   0.4000 
 45 H       -7.0790    -8.5430    -0.1350 H     1 <1>   0.0800 
 46 H       -6.2700    -8.2390     1.3680 H     1 <1>   0.0800 
 47 H       -4.3240    -9.5550     1.9340 H     1 <1>   0.1500 
 48 H       -5.5070    -9.3530    -2.1560 H     1 <1>   0.1500 
 49 H       -2.6000   -11.1290     1.2620 H     1 <1>   0.1500 
 50 H       -3.7310   -10.9350    -2.6530 H     1 <1>   0.1500 
@<TRIPOS>BOND
  1   1   2  1   
  2   1   3  1   
  3   2   4  ar  
  4   2   5  ar  
  5   3  25  1   
  6   3  26  1   
  7   3  27  1   
  8   4   6  ar  
  9   4   7  1   
 10   5   8  ar  
 11   5   9  1   
 12   6  10  ar  
 13   6  11  1   
 14   7  28  1   
 15   7  29  1   
 16   7  30  1   
 17   8  10  ar  
 18   8  31  1   
 19   9  32  1   
 20   9  33  1   
 21   9  34  1   
 22  11  12  1   
 23  11  35  1   
 24  11  36  1   
 25  12  13  1   
 26  12  14  1   
 27  12  37  1   
 28  13  15  1   
 29  13  38  1   
 30  13  39  1   
 31  14  16  1   
 32  14  40  1   
 33  14  41  1   
 34  15  16  1   
 35  15  17  1   
 36  15  42  1   
 37  16  18  1   
 38  16  43  1   
 39  17  44  1   
 40  18  19  1   
 41  18  45  1   
 42  18  46  1   
 43  19  20  ar  
 44  19  21  ar  
 45  20  22  ar  
 46  20  47  1   
 47  21  23  ar  
 48  21  48  1   
 49  22  24  ar  
 50  22  49  1   
 51  23  24  ar  
 52  23  50  1   
@<TRIPOS>SUBSTRUCTURE
  1 ****  12 GROUP 4 **** **** 0

# MOE 2024.06 (io_trps.svl 2023.06)
