@<TRIPOS>MOLECULE
NONAME
48 50 1 0 0 
SMALL
USER_CHARGES


@<TRIPOS>ATOM
  1 O       -1.3470     0.2840     1.1190 O.2   1 <1>  -0.5700 
  2 C       -2.1790     1.1650     0.9580 C.2   1 <1>   0.5440 
  3 N       -3.5070     0.8080     1.0530 N.am  1 <1>  -0.6600 
  4 C       -1.7810     2.5250     0.6740 C.ar  1 <1>   0.0860 
  5 C       -3.8980    -0.5150     1.6200 C.3   1 <1>   0.1400 
  6 C       -4.5460     1.3830     0.1500 C.3   1 <1>   0.1400 
  7 C       -0.7780     2.8210    -0.2700 C.ar  1 <1>   0.4100 
  8 C       -2.3900     3.5910     1.3250 C.ar  1 <1>  -0.1500 
  9 C       -4.0670    -1.5150     0.4530 C.3   1 <1>   0.4230 
 10 C       -4.7920     0.4000    -1.0040 C.3   1 <1>  -0.1600 
 11 N       -0.4000     4.0590    -0.5840 N.ar  1 <1>  -0.6200 
 12 N       -0.1210     1.8080    -0.9330 N.pl3 1 <1>  -0.8690 
 13 C       -1.9930     4.8680     1.0030 C.ar  1 <1>  -0.1500 
 14 N       -4.3340    -2.9310     0.8810 N.4   1 <1>  -0.9590 
 15 C       -5.1790    -1.0220    -0.5000 C.3   1 <1>  -0.1060 
 16 C       -1.0050     5.0430     0.0500 C.ar  1 <1>   0.1600 
 17 C        1.1020     2.0150    -1.7510 C.3   1 <1>   0.1290 
 18 C       -4.3620    -3.8610    -0.2750 C.3   1 <1>   0.3430 
 19 C       -3.4740    -3.4270     1.9880 C.3   1 <1>   0.2630 
 20 C       -6.5100    -0.9850     0.2770 C.2   1 <1>   0.9060 
 21 C       -5.2780    -1.9710    -1.7180 C.3   1 <1>  -0.1600 
 22 C       -5.4360    -3.4350    -1.2800 C.3   1 <1>  -0.1600 
 23 O       -6.7110    -1.8310     1.1640 O.co2 1 <1>  -0.9000 
 24 O       -7.3390    -0.1120     0.0230 O.co2 1 <1>  -0.9000 
 25 H       -3.1310    -0.8450     2.2960 H     1 <1>   0.0800 
 26 H       -4.8130    -0.4080     2.1750 H     1 <1>   0.0800 
 27 H       -5.4570     1.5440     0.7040 H     1 <1>   0.0800 
 28 H       -4.2310     2.3310    -0.2500 H     1 <1>   0.0800 
 29 H       -3.1560     3.4160     2.0610 H     1 <1>   0.1500 
 30 H       -3.1370    -1.5070    -0.0890 H     1 <1>   0.0800 
 31 H       -5.5830     0.7900    -1.6220 H     1 <1>   0.0800 
 32 H       -3.9040     0.3570    -1.6090 H     1 <1>   0.0800 
 33 H       -0.1740     0.8970    -0.4540 H     1 <1>   0.4000 
 34 H       -2.4390     5.7210     1.4810 H     1 <1>   0.1500 
 35 H       -5.3310    -2.8480     1.2180 H     1 <1>   0.4500 
 36 H       -0.6990     6.0440    -0.2000 H     1 <1>   0.1500 
 37 H        0.9300     2.7930    -2.4760 H     1 <1>   0.0800 
 38 H        1.3560     1.1070    -2.2680 H     1 <1>   0.0800 
 39 H        1.9200     2.3050    -1.1140 H     1 <1>   0.0800 
 40 H       -3.3990    -3.8640    -0.7590 H     1 <1>   0.0800 
 41 H       -4.5780    -4.8600     0.0660 H     1 <1>   0.0800 
 42 H       -2.4370    -3.3970     1.6970 H     1 <1>   0.0800 
 43 H       -3.7410    -4.4400     2.2370 H     1 <1>   0.0800 
 44 H       -3.6100    -2.8160     2.8650 H     1 <1>   0.0800 
 45 H       -6.1220    -1.6850    -2.3240 H     1 <1>   0.0800 
 46 H       -4.3920    -1.8810    -2.3230 H     1 <1>   0.0800 
 47 H       -5.3860    -4.0740    -2.1440 H     1 <1>   0.0800 
 48 H       -6.4070    -3.5790    -0.8360 H     1 <1>   0.0800 
@<TRIPOS>BOND
  1   1   2  2   
  2   2   3  am  
  3   2   4  1   
  4   3   5  1   
  5   3   6  1   
  6   4   7  ar  
  7   4   8  ar  
  8   5   9  1   
  9   5  25  1   
 10   5  26  1   
 11   6  10  1   
 12   6  27  1   
 13   6  28  1   
 14   7  11  ar  
 15   7  12  1   
 16   8  13  ar  
 17   8  29  1   
 18   9  14  1   
 19   9  15  1   
 20   9  30  1   
 21  10  15  1   
 22  10  31  1   
 23  10  32  1   
 24  11  16  ar  
 25  12  17  1   
 26  12  33  1   
 27  13  16  ar  
 28  13  34  1   
 29  14  18  1   
 30  14  19  1   
 31  14  35  1   
 32  15  20  1   
 33  15  21  1   
 34  16  36  1   
 35  17  37  1   
 36  17  38  1   
 37  17  39  1   
 38  18  22  1   
 39  18  40  1   
 40  18  41  1   
 41  19  42  1   
 42  19  43  1   
 43  19  44  1   
 44  20  23  ar  
 45  20  24  ar  
 46  21  22  1   
 47  21  45  1   
 48  21  46  1   
 49  22  47  1   
 50  22  48  1   
@<TRIPOS>SUBSTRUCTURE
  1 ****   3 GROUP 4 **** **** 0

# MOE 2024.06 (io_trps.svl 2023.06)
