@<TRIPOS>MOLECULE
NONAME
41 43 1 0 0 
SMALL
USER_CHARGES


@<TRIPOS>ATOM
  1 O       -2.5830     1.4320    -1.6460 O.2   1 <1>  -0.5700 
  2 C       -2.1810     1.2260    -0.5290 C.2   1 <1>   0.5690 
  3 N       -2.1380    -0.0190     0.0000 N.am  1 <1>  -0.7300 
  4 C       -1.7130     2.3910     0.3130 C.3   1 <1>  -0.0990 
  5 C       -2.5390    -1.2560    -0.7070 C.3   1 <1>   0.2200 
  6 C       -0.9630     3.4170    -0.5460 C.3   1 <1>   0.0960 
  7 C       -3.8360    -1.7750    -0.1070 C.3   1 <1>  -0.0800 
  8 C       -1.5690    -2.3730    -0.3470 C.3   1 <1>   0.1200 
  9 N       -0.4600     4.5170     0.2960 N.pl3 1 <1>   0.0480 
 10 C       -3.3480    -2.6120     1.0840 C.3   1 <1>   0.1200 
 11 C       -4.6300    -2.6160    -1.1250 C.3   1 <1>  -0.0170 
 12 O       -1.9740    -2.8150     0.9110 O.3   1 <1>  -0.5600 
 13 C        0.7240     4.6300     0.9000 C.2   1 <1>   0.0360 
 14 C       -1.0810     5.6380     0.6620 C.2   1 <1>   0.0360 
 15 C       -5.9360    -3.1230    -0.5330 C.ar  1 <1>  -0.1440 
 16 N        0.8140     5.7210     1.5770 N.2   1 <1>  -0.3380 
 17 N       -0.3440     6.3680     1.4250 N.2   1 <1>  -0.3380 
 18 C       -7.0180    -2.2870    -0.3420 C.ar  1 <1>  -0.1500 
 19 C       -6.1110    -4.4400    -0.1570 C.ar  1 <1>  -0.1500 
 20 C       -8.1860    -2.7920     0.2050 C.ar  1 <1>   0.1600 
 21 C       -7.3220    -4.8440     0.3810 C.ar  1 <1>   0.1600 
 22 N       -8.3630    -4.0510     0.5730 N.ar  1 <1>  -0.6200 
 23 H       -1.8190    -0.1840     0.9580 H     1 <1>   0.3700 
 24 H       -2.5760     2.8500     0.7590 H     1 <1>   0.0800 
 25 H       -1.0660     2.0290     1.0910 H     1 <1>   0.0800 
 26 H       -2.5940    -1.0850    -1.7700 H     1 <1>   0.0800 
 27 H       -1.6190     3.8240    -1.2960 H     1 <1>   0.0800 
 28 H       -0.1320     2.9480    -1.0420 H     1 <1>   0.0800 
 29 H       -4.4600    -0.9630     0.2250 H     1 <1>   0.0800 
 30 H       -0.5470    -2.0410    -0.3050 H     1 <1>   0.0800 
 31 H       -1.6590    -3.1980    -1.0320 H     1 <1>   0.0800 
 32 H       -3.8300    -3.5710     1.1490 H     1 <1>   0.0800 
 33 H       -3.4860    -2.0820     2.0110 H     1 <1>   0.0800 
 34 H       -4.0400    -3.4500    -1.4630 H     1 <1>   0.0800 
 35 H       -4.8580    -2.0110    -1.9870 H     1 <1>   0.0800 
 36 H        1.5010     3.8910     0.8240 H     1 <1>   0.1500 
 37 H       -2.0790     5.8900     0.3520 H     1 <1>   0.1500 
 38 H       -6.9650    -1.2490    -0.6140 H     1 <1>   0.1500 
 39 H       -5.3200    -5.1570    -0.2760 H     1 <1>   0.1500 
 40 H       -9.0190    -2.1250     0.3460 H     1 <1>   0.1500 
 41 H       -7.4390    -5.8740     0.6700 H     1 <1>   0.1500 
@<TRIPOS>BOND
  1   1   2  2   
  2   2   3  am  
  3   2   4  1   
  4   3   5  1   
  5   3  23  1   
  6   4   6  1   
  7   4  24  1   
  8   4  25  1   
  9   5   7  1   
 10   5   8  1   
 11   5  26  1   
 12   6   9  1   
 13   6  27  1   
 14   6  28  1   
 15   7  10  1   
 16   7  11  1   
 17   7  29  1   
 18   8  12  1   
 19   8  30  1   
 20   8  31  1   
 21   9  13  1   
 22   9  14  1   
 23  10  12  1   
 24  10  32  1   
 25  10  33  1   
 26  11  15  1   
 27  11  34  1   
 28  11  35  1   
 29  13  16  2   
 30  13  36  1   
 31  14  17  2   
 32  14  37  1   
 33  15  18  ar  
 34  15  19  ar  
 35  16  17  1   
 36  18  20  ar  
 37  18  38  1   
 38  19  21  ar  
 39  19  39  1   
 40  20  22  ar  
 41  20  40  1   
 42  21  22  ar  
 43  21  41  1   
@<TRIPOS>SUBSTRUCTURE
  1 ****   3 GROUP 4 **** **** 0

# MOE 2024.06 (io_trps.svl 2023.06)
