@<TRIPOS>MOLECULE
NONAME
46 48 1 0 0 
SMALL
USER_CHARGES


@<TRIPOS>ATOM
  1 O       -1.8670     0.4790    -1.8920 O.2   1 <1>  -0.5700 
  2 C       -1.8420     0.7150    -0.6990 C.2   1 <1>   0.5440 
  3 N       -1.8920    -0.3470     0.1580 N.am  1 <1>  -0.7300 
  4 C       -1.7680     2.0790    -0.2030 C.ar  1 <1>   0.0860 
  5 C       -1.9380    -1.7740    -0.2400 C.3   1 <1>   0.2200 
  6 C       -1.2930     3.1080    -1.0160 C.ar  1 <1>  -0.1500 
  7 C       -2.1640     2.4210     1.0940 C.ar  1 <1>  -0.1500 
  8 C       -3.3420    -2.3440    -0.0880 C.3   1 <1>  -0.0800 
  9 C       -1.1930    -2.5950     0.8020 C.3   1 <1>   0.1200 
 10 C       -1.2030     4.4140    -0.5700 C.ar  1 <1>  -0.1440 
 11 C       -2.0840     3.7190     1.5690 C.ar  1 <1>  -0.1440 
 12 C       -3.4010    -2.7260     1.3960 C.3   1 <1>   0.1200 
 13 C       -4.4930    -1.4350    -0.5580 C.3   1 <1>  -0.0160 
 14 O       -2.0840    -2.7210     1.8680 O.3   1 <1>  -0.5600 
 15 C       -1.5980     4.7150     0.7280 C.ar  1 <1>   0.0820 
 16 C       -0.6760     5.5000    -1.4980 C.3   1 <1>  -0.0970 
 17 C       -2.5290     4.0270     2.9930 C.3   1 <1>  -0.0970 
 18 C       -5.8310    -2.1480    -0.4390 C.ar  1 <1>  -0.1440 
 19 O       -1.5110     5.9780     1.1700 O.3   1 <1>  -0.5320 
 20 C       -6.2610    -3.0450    -1.3950 C.ar  1 <1>  -0.1500 
 21 C       -6.6820    -1.9390     0.6270 C.ar  1 <1>  -0.1500 
 22 C       -7.4840    -3.6770    -1.2410 C.ar  1 <1>   0.1600 
 23 C       -7.8850    -2.6220     0.6870 C.ar  1 <1>   0.1600 
 24 N       -8.3060    -3.4890    -0.2210 N.ar  1 <1>  -0.6200 
 25 H       -1.8340    -0.2040     1.1680 H     1 <1>   0.3700 
 26 H       -1.5380    -1.9080    -1.2310 H     1 <1>   0.0800 
 27 H       -0.9910     2.8660    -2.0210 H     1 <1>   0.1500 
 28 H       -2.5490     1.6540     1.7390 H     1 <1>   0.1500 
 29 H       -3.3860    -3.2570    -0.6550 H     1 <1>   0.0800 
 30 H       -0.2850    -2.1240     1.1370 H     1 <1>   0.0800 
 31 H       -0.9800    -3.5820     0.4300 H     1 <1>   0.0800 
 32 H       -3.8220    -3.7060     1.5380 H     1 <1>   0.0800 
 33 H       -3.9550    -2.0050     1.9710 H     1 <1>   0.0800 
 34 H       -4.3280    -1.1530    -1.5840 H     1 <1>   0.0800 
 35 H       -4.5200    -0.5290     0.0220 H     1 <1>   0.0800 
 36 H       -0.4200     5.0990    -2.4620 H     1 <1>   0.0800 
 37 H        0.2000     5.9520    -1.0690 H     1 <1>   0.0800 
 38 H       -1.4260     6.2600    -1.6300 H     1 <1>   0.0800 
 39 H       -2.8760     3.1390     3.4900 H     1 <1>   0.0800 
 40 H       -3.3330     4.7410     2.9830 H     1 <1>   0.0800 
 41 H       -1.7050     4.4260     3.5590 H     1 <1>   0.0800 
 42 H       -1.8110     6.0780     2.0880 H     1 <1>   0.4500 
 43 H       -5.6570    -3.2580    -2.2580 H     1 <1>   0.1500 
 44 H       -6.4240    -1.2510     1.4110 H     1 <1>   0.1500 
 45 H       -7.8030    -4.3740    -1.9970 H     1 <1>   0.1500 
 46 H       -8.5370    -2.4470     1.5250 H     1 <1>   0.1500 
@<TRIPOS>BOND
  1   1   2  2   
  2   2   3  am  
  3   2   4  1   
  4   3   5  1   
  5   3  25  1   
  6   4   6  ar  
  7   4   7  ar  
  8   5   8  1   
  9   5   9  1   
 10   5  26  1   
 11   6  10  ar  
 12   6  27  1   
 13   7  11  ar  
 14   7  28  1   
 15   8  12  1   
 16   8  13  1   
 17   8  29  1   
 18   9  14  1   
 19   9  30  1   
 20   9  31  1   
 21  10  15  ar  
 22  10  16  1   
 23  11  15  ar  
 24  11  17  1   
 25  12  14  1   
 26  12  32  1   
 27  12  33  1   
 28  13  18  1   
 29  13  34  1   
 30  13  35  1   
 31  15  19  1   
 32  16  36  1   
 33  16  37  1   
 34  16  38  1   
 35  17  39  1   
 36  17  40  1   
 37  17  41  1   
 38  18  20  ar  
 39  18  21  ar  
 40  19  42  1   
 41  20  22  ar  
 42  20  43  1   
 43  21  23  ar  
 44  21  44  1   
 45  22  24  ar  
 46  22  45  1   
 47  23  24  ar  
 48  23  46  1   
@<TRIPOS>SUBSTRUCTURE
  1 ****   3 GROUP 4 **** **** 0

# MOE 2024.06 (io_trps.svl 2023.06)
