@<TRIPOS>MOLECULE
NONAME
57 60 1 0 0 
SMALL
USER_CHARGES


@<TRIPOS>ATOM
  1 O        0.4080    -0.3410     0.4300 O.2   1 <1>  -0.5700 
  2 C        1.3320    -0.8570    -0.1580 C.2   1 <1>   0.9370 
  3 N        2.4550    -0.0850    -0.4860 N.pl3 1 <1>  -0.5760 
  4 C        1.3040    -2.2230    -0.5210 C.2   1 <1>  -0.1360 
  5 C        3.4930    -0.6650    -1.1390 C.cat 1 <1>   0.7390 
  6 C        2.5220     1.2500    -0.1580 C.2   1 <1>   0.1910 
  7 C        2.3450    -2.7850    -1.1660 C.2   1 <1>   0.2030 
  8 N        3.4250    -1.9780    -1.4640 N.pl3 1 <1>  -0.6450 
  9 C        4.6190     0.1020    -1.4680 C.2   1 <1>  -0.1800 
 10 C        3.6130     2.0150    -0.4710 C.2   1 <1>  -0.1380 
 11 C        2.4010    -4.2570    -1.5960 C.3   1 <1>   0.2480 
 12 C        4.6920     1.4290    -1.1440 C.2   1 <1>  -0.1500 
 13 C        3.6920     3.4900    -0.1100 C.3   1 <1>  -0.1020 
 14 N        1.4130    -5.0800    -0.8810 N.3   1 <1>  -0.8100 
 15 C        1.1470    -6.3340    -1.6320 C.3   1 <1>   0.1100 
 16 C        1.8460    -5.3870     0.4910 C.3   1 <1>   0.1100 
 17 C        0.2430    -7.3640    -0.8890 C.3   1 <1>   0.0000 
 18 C        0.6750    -5.9680     1.2840 C.3   1 <1>  -0.1600 
 19 C       -0.3340    -6.7060     0.3950 C.3   1 <1>   0.2000 
 20 C       -0.9800    -7.6800    -1.7880 C.3   1 <1>   0.1200 
 21 C        0.9970    -8.7130    -0.6390 C.3   1 <1>  -0.0170 
 22 O       -1.0200    -7.6270     1.1680 O.3   1 <1>  -0.6800 
 23 O       -0.5820    -8.1790    -3.0260 O.3   1 <1>  -0.6800 
 24 C        2.2630    -8.6850     0.2160 C.ar  1 <1>  -0.1440 
 25 C        2.2050    -8.9180     1.5820 C.ar  1 <1>  -0.1500 
 26 C        3.5010    -8.4640    -0.3720 C.ar  1 <1>  -0.1500 
 27 C        3.3540    -8.8840     2.3530 C.ar  1 <1>  -0.1500 
 28 C        4.6530    -8.4320     0.3960 C.ar  1 <1>  -0.1500 
 29 C        4.5780    -8.6360     1.7610 C.ar  1 <1>  -0.1500 
 30 H        0.4190    -2.7700    -0.2540 H     1 <1>   0.1500 
 31 H        1.6840     1.6950     0.3620 H     1 <1>   0.1500 
 32 H        4.2290    -2.3770    -1.9570 H     1 <1>   0.4500 
 33 H        5.4370    -0.3660    -1.9850 H     1 <1>   0.1500 
 34 H        3.3850    -4.6590    -1.4250 H     1 <1>   0.0800 
 35 H        2.2020    -4.3000    -2.6540 H     1 <1>   0.0800 
 36 H        5.5560     2.0260    -1.3940 H     1 <1>   0.1500 
 37 H        4.5370     3.6700     0.5320 H     1 <1>   0.0800 
 38 H        2.8030     3.8150     0.4010 H     1 <1>   0.0800 
 39 H        3.8060     4.0840    -1.0010 H     1 <1>   0.0800 
 40 H        0.6800    -6.0590    -2.5630 H     1 <1>   0.0800 
 41 H        2.0780    -6.8010    -1.8910 H     1 <1>   0.0800 
 42 H        2.6610    -6.0890     0.4680 H     1 <1>   0.0800 
 43 H        2.1950    -4.5000     0.9920 H     1 <1>   0.0800 
 44 H        0.1590    -5.1610     1.7720 H     1 <1>   0.0800 
 45 H        1.0650    -6.6040     2.0550 H     1 <1>   0.0800 
 46 H       -1.0600    -5.9730     0.0830 H     1 <1>   0.0800 
 47 H       -1.5590    -6.7890    -1.9650 H     1 <1>   0.0800 
 48 H       -1.6120    -8.4140    -1.3180 H     1 <1>   0.0800 
 49 H        0.3150    -9.4230    -0.2080 H     1 <1>   0.0800 
 50 H        1.2760    -9.1310    -1.5910 H     1 <1>   0.0800 
 51 H       -0.3860    -8.2570     1.5580 H     1 <1>   0.4000 
 52 H       -1.3600    -8.4420    -3.5570 H     1 <1>   0.4000 
 53 H        1.2670    -9.1340     2.0610 H     1 <1>   0.1500 
 54 H        3.5810    -8.3230    -1.4350 H     1 <1>   0.1500 
 55 H        3.2960    -9.0580     3.4140 H     1 <1>   0.1500 
 56 H        5.6070    -8.2590    -0.0690 H     1 <1>   0.1500 
 57 H        5.4720    -8.6120     2.3610 H     1 <1>   0.1500 
@<TRIPOS>BOND
  1   1   2  2   
  2   2   3  1   
  3   2   4  1   
  4   3   5  ar  
  5   3   6  1   
  6   4   7  2   
  7   4  30  1   
  8   5   8  ar  
  9   5   9  1   
 10   6  10  2   
 11   6  31  1   
 12   7   8  1   
 13   7  11  1   
 14   8  32  1   
 15   9  12  2   
 16   9  33  1   
 17  10  12  1   
 18  10  13  1   
 19  11  14  1   
 20  11  34  1   
 21  11  35  1   
 22  12  36  1   
 23  13  37  1   
 24  13  38  1   
 25  13  39  1   
 26  14  15  1   
 27  14  16  1   
 28  15  17  1   
 29  15  40  1   
 30  15  41  1   
 31  16  18  1   
 32  16  42  1   
 33  16  43  1   
 34  17  19  1   
 35  17  20  1   
 36  17  21  1   
 37  18  19  1   
 38  18  44  1   
 39  18  45  1   
 40  19  22  1   
 41  19  46  1   
 42  20  23  1   
 43  20  47  1   
 44  20  48  1   
 45  21  24  1   
 46  21  49  1   
 47  21  50  1   
 48  22  51  1   
 49  23  52  1   
 50  24  25  ar  
 51  24  26  ar  
 52  25  27  ar  
 53  25  53  1   
 54  26  28  ar  
 55  26  54  1   
 56  27  29  ar  
 57  27  55  1   
 58  28  29  ar  
 59  28  56  1   
 60  29  57  1   
@<TRIPOS>SUBSTRUCTURE
  1 ****  14 GROUP 4 **** **** 0

# MOE 2024.06 (io_trps.svl 2023.06)
