@<TRIPOS>MOLECULE
NONAME
65 68 1 0 0 
SMALL
USER_CHARGES


@<TRIPOS>ATOM
  1 O        0.0770     0.7030     0.7530 O.2   1 <1>  -0.5700 
  2 C        0.1580     1.8720     0.4270 C.2   1 <1>   0.5440 
  3 N        1.4100     2.4500     0.3040 N.am  1 <1>  -0.6600 
  4 C       -1.0600     2.6270     0.1790 C.ar  1 <1>   0.0860 
  5 C        2.5880     1.8720     1.0220 C.3   1 <1>   0.1400 
  6 C        1.6190     3.7760    -0.3510 C.3   1 <1>   0.1400 
  7 C       -1.2330     3.9110     0.6920 C.ar  1 <1>  -0.1500 
  8 C       -2.0970     2.1050    -0.5930 C.ar  1 <1>  -0.1500 
  9 C        3.8660     1.9520     0.1770 C.3   1 <1>  -0.1600 
 10 C        2.8940     3.7870    -1.1870 C.3   1 <1>  -0.1600 
 11 C       -2.3400     4.6780     0.3720 C.ar  1 <1>   0.0830 
 12 C       -3.2330     2.8440    -0.8730 C.ar  1 <1>  -0.1500 
 13 C        4.0970     3.3840    -0.3270 C.3   1 <1>  -0.0800 
 14 O       -2.4170     5.9610     0.7930 O.3   1 <1>  -0.3630 
 15 C       -3.3640     4.1400    -0.3990 C.ar  1 <1>  -0.1430 
 16 C        5.4110     3.5640    -1.1080 C.3   1 <1>   0.1400 
 17 C       -1.3560     6.8110     0.4170 C.3   1 <1>   0.1200 
 18 C       -4.6050     4.9570    -0.7220 C.3   1 <1>  -0.0970 
 19 N        6.5010     4.0180    -0.1980 N.am  1 <1>  -0.6600 
 20 C       -1.6640     8.2300     0.8960 C.3   1 <1>  -0.1600 
 21 C        6.7800     5.3310     0.1200 C.2   1 <1>   0.5690 
 22 C        7.2810     2.9180     0.4410 C.3   1 <1>   0.0600 
 23 C       -0.7030     9.2720     0.2950 C.3   1 <1>   0.0960 
 24 O        7.6170     5.6100     0.9440 O.2   1 <1>  -0.5700 
 25 C        6.0670     6.5110    -0.5370 C.3   1 <1>  -0.0990 
 26 N        0.7220     8.9160     0.4830 N.pl3 1 <1>   0.3140 
 27 C        4.7740     6.9240     0.1930 C.3   1 <1>  -0.1600 
 28 N        1.2750     8.7190     1.6830 N.2   1 <1>  -0.4180 
 29 C        1.6530     8.7630    -0.4620 C.2   1 <1>  -0.3020 
 30 C        4.1730     8.2260    -0.3550 C.3   1 <1>   0.0210 
 31 N        2.5250     8.4570     1.5180 N.2   1 <1>  -0.2270 
 32 C        2.7820     8.4810     0.2060 C.2   1 <1>   0.0460 
 33 H        2.4020     0.8440     1.2820 H     1 <1>   0.0800 
 34 H        2.7290     2.4200     1.9370 H     1 <1>   0.0800 
 35 H        1.6840     4.5350     0.4100 H     1 <1>   0.0800 
 36 H        0.7900     4.0090    -0.9970 H     1 <1>   0.0800 
 37 H       -0.4850     4.3110     1.3490 H     1 <1>   0.1500 
 38 H       -2.0000     1.1030    -0.9740 H     1 <1>   0.1500 
 39 H        3.7820     1.2700    -0.6500 H     1 <1>   0.0800 
 40 H        4.6950     1.6340     0.7830 H     1 <1>   0.0800 
 41 H        3.0320     4.7780    -1.5830 H     1 <1>   0.0800 
 42 H        2.7810     3.1120    -2.0180 H     1 <1>   0.0800 
 43 H       -4.0150     2.4040    -1.4680 H     1 <1>   0.1500 
 44 H        4.1260     4.0280     0.5340 H     1 <1>   0.0800 
 45 H        5.2770     4.2880    -1.8890 H     1 <1>   0.0800 
 46 H        5.6880     2.6410    -1.5870 H     1 <1>   0.0800 
 47 H       -1.2710     6.7760    -0.6560 H     1 <1>   0.0800 
 48 H       -0.4450     6.4570     0.8670 H     1 <1>   0.0800 
 49 H       -5.0570     5.3060     0.1900 H     1 <1>   0.0800 
 50 H       -5.3280     4.3700    -1.2580 H     1 <1>   0.0800 
 51 H       -4.3360     5.8080    -1.3210 H     1 <1>   0.0800 
 52 H       -1.5970     8.2620     1.9700 H     1 <1>   0.0800 
 53 H       -2.6700     8.4890     0.6140 H     1 <1>   0.0800 
 54 H        7.4100     2.1010    -0.2460 H     1 <1>   0.0800 
 55 H        6.7650     2.5730     1.3190 H     1 <1>   0.0800 
 56 H        8.2560     3.2700     0.7340 H     1 <1>   0.0800 
 57 H       -0.8720    10.2270     0.7580 H     1 <1>   0.0800 
 58 H       -0.8900     9.3710    -0.7590 H     1 <1>   0.0800 
 59 H        5.8690     6.3010    -1.5690 H     1 <1>   0.0800 
 60 H        6.7500     7.3420    -0.5160 H     1 <1>   0.0800 
 61 H        4.9850     7.0500     1.2430 H     1 <1>   0.0800 
 62 H        4.0390     6.1520     0.1020 H     1 <1>   0.0800 
 63 H        1.4670     8.8700    -1.5140 H     1 <1>   0.1500 
 64 H        4.1090     8.1780    -1.4270 H     1 <1>   0.0800 
 65 H        4.8090     9.0530    -0.0930 H     1 <1>   0.0800 
@<TRIPOS>BOND
  1   1   2  2   
  2   2   3  am  
  3   2   4  1   
  4   3   5  1   
  5   3   6  1   
  6   4   7  ar  
  7   4   8  ar  
  8   5   9  1   
  9   5  33  1   
 10   5  34  1   
 11   6  10  1   
 12   6  35  1   
 13   6  36  1   
 14   7  11  ar  
 15   7  37  1   
 16   8  12  ar  
 17   8  38  1   
 18   9  13  1   
 19   9  39  1   
 20   9  40  1   
 21  10  13  1   
 22  10  41  1   
 23  10  42  1   
 24  11  14  1   
 25  11  15  ar  
 26  12  15  ar  
 27  12  43  1   
 28  13  16  1   
 29  13  44  1   
 30  14  17  1   
 31  15  18  1   
 32  16  19  1   
 33  16  45  1   
 34  16  46  1   
 35  17  20  1   
 36  17  47  1   
 37  17  48  1   
 38  18  49  1   
 39  18  50  1   
 40  18  51  1   
 41  19  21  am  
 42  19  22  1   
 43  20  23  1   
 44  20  52  1   
 45  20  53  1   
 46  21  24  2   
 47  21  25  1   
 48  22  54  1   
 49  22  55  1   
 50  22  56  1   
 51  23  26  1   
 52  23  57  1   
 53  23  58  1   
 54  25  27  1   
 55  25  59  1   
 56  25  60  1   
 57  26  28  1   
 58  26  29  1   
 59  27  30  1   
 60  27  61  1   
 61  27  62  1   
 62  28  31  2   
 63  29  32  2   
 64  29  63  1   
 65  30  32  1   
 66  30  64  1   
 67  30  65  1   
 68  31  32  1   
@<TRIPOS>SUBSTRUCTURE
  1 ****   6 GROUP 4 **** **** 0

# MOE 2024.06 (io_trps.svl 2023.06)
