@<TRIPOS>MOLECULE
NONAME
49 50 1 0 0 
SMALL
USER_CHARGES


@<TRIPOS>ATOM
  1 O        0.3680    -0.0550    -2.4330 O.2   1 <1>  -0.5700 
  2 C        0.9160    -0.7030    -1.5710 C.2   1 <1>   0.5690 
  3 N        1.5980    -0.1460    -0.5210 N.am  1 <1>  -0.4940 
  4 C        0.8520    -2.2340    -1.6550 C.3   1 <1>   0.2610 
  5 C        1.9390     1.1870    -0.1800 C.2   1 <1>  -0.0880 
  6 O        1.3260    -2.8070    -0.4400 O.3   1 <1>  -0.3630 
  7 C        1.7070    -2.7900    -2.8030 C.3   1 <1>  -0.2400 
  8 N        1.2650     2.3360    -0.4740 N.pl3 1 <1>   0.3140 
  9 C        3.0210     1.5600     0.5450 C.2   1 <1>  -0.1810 
 10 C        0.9340    -4.0620    -0.1190 C.ar  1 <1>   0.0820 
 11 N        1.8880     3.4170     0.0440 N.2   1 <1>  -0.7070 
 12 C       -0.0210     2.5100    -1.1600 C.3   1 <1>   0.0160 
 13 C        2.9340     2.9460     0.6450 C.2   1 <1>   0.1080 
 14 C        4.1150     0.6840     1.1310 C.3   1 <1>  -0.0590 
 15 C       -0.4080    -4.3930     0.0100 C.ar  1 <1>  -0.1500 
 16 C        1.9110    -5.0190     0.1000 C.ar  1 <1>  -0.1500 
 17 C        3.9190     3.8510     1.3620 C.3   1 <1>   0.0210 
 18 C       -0.7720    -5.6880     0.3380 C.ar  1 <1>  -0.1500 
 19 C        1.5460    -6.3120     0.4290 C.ar  1 <1>  -0.1500 
 20 C        5.0310     4.3170     0.4170 C.3   1 <1>  -0.2400 
 21 C        0.2080    -6.6570     0.5480 C.ar  1 <1>   0.0820 
 22 O       -0.0600    -7.9480     0.8720 O.3   1 <1>  -0.3620 
 23 C       -1.3830    -8.3990     1.0440 C.3   1 <1>   0.1200 
 24 C       -1.3330    -9.8790     1.4100 C.3   1 <1>  -0.2400 
 25 H        2.0000    -0.8530     0.0990 H     1 <1>   0.3700 
 26 H       -0.1750    -2.5140    -1.7970 H     1 <1>   0.0800 
 27 H        2.7400    -2.5310    -2.6580 H     1 <1>   0.0800 
 28 H        1.3780    -2.3660    -3.7350 H     1 <1>   0.0800 
 29 H        1.6060    -3.8590    -2.8630 H     1 <1>   0.0800 
 30 H       -0.6910     1.7240    -0.8670 H     1 <1>   0.0800 
 31 H        0.1420     2.4790    -2.2200 H     1 <1>   0.0800 
 32 H       -0.4400     3.4610    -0.8880 H     1 <1>   0.0800 
 33 H        4.0020    -0.3360     0.8130 H     1 <1>   0.0800 
 34 H        4.0740     0.7190     2.2050 H     1 <1>   0.0800 
 35 H        5.0770     1.0370     0.8060 H     1 <1>   0.0800 
 36 H       -1.1680    -3.6470    -0.1350 H     1 <1>   0.1500 
 37 H        2.9480    -4.7520     0.0100 H     1 <1>   0.1500 
 38 H        4.3440     3.3310     2.2010 H     1 <1>   0.0800 
 39 H        3.3880     4.7060     1.7380 H     1 <1>   0.0800 
 40 H       -1.8150    -5.9230     0.4300 H     1 <1>   0.1500 
 41 H        2.2950    -7.0640     0.5980 H     1 <1>   0.1500 
 42 H        5.5760     3.4720     0.0360 H     1 <1>   0.0800 
 43 H        5.7100     4.9710     0.9340 H     1 <1>   0.0800 
 44 H        4.5990     4.8490    -0.4130 H     1 <1>   0.0800 
 45 H       -1.9160    -8.2540     0.1200 H     1 <1>   0.0800 
 46 H       -1.8380    -7.8270     1.8350 H     1 <1>   0.0800 
 47 H       -0.8610   -10.4380     0.6220 H     1 <1>   0.0800 
 48 H       -2.3300   -10.2540     1.5490 H     1 <1>   0.0800 
 49 H       -0.7840   -10.0140     2.3250 H     1 <1>   0.0800 
@<TRIPOS>BOND
  1   1   2  2   
  2   2   3  am  
  3   2   4  1   
  4   3   5  1   
  5   3  25  1   
  6   4   6  1   
  7   4   7  1   
  8   4  26  1   
  9   5   8  1   
 10   5   9  2   
 11   6  10  1   
 12   7  27  1   
 13   7  28  1   
 14   7  29  1   
 15   8  11  1   
 16   8  12  1   
 17   9  13  1   
 18   9  14  1   
 19  10  15  ar  
 20  10  16  ar  
 21  11  13  2   
 22  12  30  1   
 23  12  31  1   
 24  12  32  1   
 25  13  17  1   
 26  14  33  1   
 27  14  34  1   
 28  14  35  1   
 29  15  18  ar  
 30  15  36  1   
 31  16  19  ar  
 32  16  37  1   
 33  17  20  1   
 34  17  38  1   
 35  17  39  1   
 36  18  21  ar  
 37  18  40  1   
 38  19  21  ar  
 39  19  41  1   
 40  20  42  1   
 41  20  43  1   
 42  20  44  1   
 43  21  22  1   
 44  22  23  1   
 45  23  24  1   
 46  23  45  1   
 47  23  46  1   
 48  24  47  1   
 49  24  48  1   
 50  24  49  1   
@<TRIPOS>SUBSTRUCTURE
  1 ****   6 GROUP 4 **** **** 0

# MOE 2024.06 (io_trps.svl 2023.06)
