@<TRIPOS>MOLECULE
NONAME
39 41 1 0 0 
SMALL
USER_CHARGES


@<TRIPOS>ATOM
  1 F        0.2510    -1.0090     1.7090 F     1 <1>  -0.3400 
  2 C        0.5690    -1.6470     0.5920 C.3   1 <1>   0.7800 
  3 F        0.2550    -0.7990    -0.3770 F     1 <1>  -0.3400 
  4 C       -0.2940    -2.8810     0.4660 C.2   1 <1>  -0.3320 
  5 N       -1.6340    -2.8030     0.4770 N.pl3 1 <1>   0.3000 
  6 C        0.0140    -4.1870     0.3310 C.2   1 <1>  -0.1500 
  7 N       -2.2050    -4.0100     0.3540 N.2   1 <1>  -0.7070 
  8 C       -1.2060    -4.8760     0.2620 C.2   1 <1>   0.2030 
  9 C       -1.2790    -6.3310     0.1140 C.2   1 <1>   0.7160 
 10 O       -0.2460    -6.9820     0.0860 O.2   1 <1>  -0.5700 
 11 N       -2.4640    -7.0360    -0.0040 N.am  1 <1>  -0.6600 
 12 C       -3.8230    -6.4480    -0.0910 C.3   1 <1>   0.1400 
 13 C       -2.5220    -8.5130    -0.0970 C.3   1 <1>   0.1400 
 14 C       -4.7530    -7.6320    -0.3570 C.3   1 <1>   0.2000 
 15 C       -3.9930    -8.8690     0.1220 C.3   1 <1>  -0.0800 
 16 O       -5.9480    -7.5120     0.3350 O.3   1 <1>  -0.6800 
 17 C       -4.4310   -10.1550    -0.5940 C.3   1 <1>  -0.0170 
 18 C       -3.6360   -11.3530    -0.0990 C.ar  1 <1>  -0.1430 
 19 C       -2.5460   -11.8480    -0.7880 C.ar  1 <1>  -0.1500 
 20 C       -3.9650   -12.0060     1.0710 C.ar  1 <1>  -0.1500 
 21 C       -1.8550   -12.9370    -0.2830 C.ar  1 <1>   0.1600 
 22 C       -3.2080   -13.0880     1.4880 C.ar  1 <1>   0.1600 
 23 N       -2.1590   -13.5680     0.8390 N.ar  1 <1>  -0.6200 
 24 H        1.6310    -1.8200     0.5770 H     1 <1>   0.0800 
 25 H       -2.1780    -1.9330     0.5680 H     1 <1>   0.2700 
 26 H        0.9810    -4.6590     0.2820 H     1 <1>   0.1500 
 27 H       -4.0620    -5.9670     0.8420 H     1 <1>   0.0800 
 28 H       -3.8730    -5.7350    -0.8960 H     1 <1>   0.0800 
 29 H       -2.1940    -8.8100    -1.0780 H     1 <1>   0.0800 
 30 H       -1.8900    -8.9720     0.6450 H     1 <1>   0.0800 
 31 H       -4.9740    -7.6910    -1.4090 H     1 <1>   0.0800 
 32 H       -4.1340    -8.9850     1.1830 H     1 <1>   0.0800 
 33 H       -5.7770    -7.4150     1.2910 H     1 <1>   0.4000 
 34 H       -4.3020   -10.0470    -1.6570 H     1 <1>   0.0800 
 35 H       -5.4790   -10.3240    -0.4120 H     1 <1>   0.0800 
 36 H       -2.2250   -11.3980    -1.7090 H     1 <1>   0.1500 
 37 H       -4.8010   -11.6820     1.6630 H     1 <1>   0.1500 
 38 H       -1.0070   -13.3090    -0.8320 H     1 <1>   0.1500 
 39 H       -3.4790   -13.5850     2.4040 H     1 <1>   0.1500 
@<TRIPOS>BOND
  1   1   2  1   
  2   2   3  1   
  3   2   4  1   
  4   2  24  1   
  5   4   5  1   
  6   4   6  2   
  7   5   7  1   
  8   5  25  1   
  9   6   8  1   
 10   6  26  1   
 11   7   8  2   
 12   8   9  1   
 13   9  10  2   
 14   9  11  am  
 15  11  12  1   
 16  11  13  1   
 17  12  14  1   
 18  12  27  1   
 19  12  28  1   
 20  13  15  1   
 21  13  29  1   
 22  13  30  1   
 23  14  15  1   
 24  14  16  1   
 25  14  31  1   
 26  15  17  1   
 27  15  32  1   
 28  16  33  1   
 29  17  18  1   
 30  17  34  1   
 31  17  35  1   
 32  18  19  ar  
 33  18  20  ar  
 34  19  21  ar  
 35  19  36  1   
 36  20  22  ar  
 37  20  37  1   
 38  21  23  ar  
 39  21  38  1   
 40  22  23  ar  
 41  22  39  1   
@<TRIPOS>SUBSTRUCTURE
  1 ****  11 GROUP 4 **** **** 0

# MOE 2024.06 (io_trps.svl 2023.06)
