@<TRIPOS>MOLECULE
NONAME
41 42 1 0 0 
SMALL
USER_CHARGES


@<TRIPOS>ATOM
  1 O        1.8410    -0.8980    -1.4570 O.co2 1 <1>  -0.9000 
  2 C        1.3500    -0.1040    -0.6470 C.2   1 <1>   0.9060 
  3 O        0.1390     0.1490    -0.6140 O.co2 1 <1>  -0.9000 
  4 C        2.2570     0.5460     0.3800 C.3   1 <1>  -0.1220 
  5 C        2.6010     2.0070     0.0850 C.ar  1 <1>  -0.1440 
  6 C        3.9190     2.4240     0.0040 C.ar  1 <1>  -0.1500 
  7 C        1.5870     2.9290    -0.1060 C.ar  1 <1>  -0.1500 
  8 C        4.2200     3.7490    -0.2560 C.ar  1 <1>  -0.1500 
  9 C        1.8810     4.2540    -0.3690 C.ar  1 <1>  -0.1500 
 10 C        3.2010     4.6730    -0.4360 C.ar  1 <1>  -0.1440 
 11 C        3.5250     6.1280    -0.6950 C.3   1 <1>   0.4870 
 12 N        3.2000     6.8940     0.5410 N.4   1 <1>  -0.9590 
 13 C        3.1660     8.3610     0.2460 C.3   1 <1>   0.5660 
 14 C        4.1510     6.5240     1.6380 C.3   1 <1>   0.2630 
 15 C        4.5760     8.9460     0.0010 C.ar  1 <1>   0.1670 
 16 C        2.3500     9.0480     1.3430 C.3   1 <1>  -0.2400 
 17 N        5.1320     8.5980    -1.1560 N.ar  1 <1>  -0.6200 
 18 C        5.2100     9.7690     0.9290 C.ar  1 <1>  -0.1500 
 19 C        6.3390     9.0880    -1.4010 C.ar  1 <1>   0.1600 
 20 C        6.4680    10.2640     0.6630 C.ar  1 <1>  -0.1500 
 21 C        7.0390     9.9100    -0.5380 C.ar  1 <1>  -0.1500 
 22 H        3.1500    -0.0440     0.4370 H     1 <1>   0.0800 
 23 H        1.7600     0.4850     1.3270 H     1 <1>   0.0800 
 24 H        4.7110     1.7070     0.1370 H     1 <1>   0.1500 
 25 H        0.5600     2.5980    -0.0610 H     1 <1>   0.1500 
 26 H        5.2540     4.0420    -0.3200 H     1 <1>   0.1500 
 27 H        1.0630     4.9340    -0.5270 H     1 <1>   0.1500 
 28 H        2.9350     6.4810    -1.5250 H     1 <1>   0.0800 
 29 H        4.5670     6.2380    -0.9460 H     1 <1>   0.0800 
 30 H        2.2600     6.5880     0.8120 H     1 <1>   0.4500 
 31 H        2.6240     8.5040    -0.6750 H     1 <1>   0.0800 
 32 H        5.1620     6.7740     1.3560 H     1 <1>   0.0800 
 33 H        4.1010     5.4630     1.8310 H     1 <1>   0.0800 
 34 H        3.9040     7.0470     2.5470 H     1 <1>   0.0800 
 35 H        2.7940     8.9200     2.3130 H     1 <1>   0.0800 
 36 H        1.3480     8.6600     1.3590 H     1 <1>   0.0800 
 37 H        2.2880    10.1010     1.1340 H     1 <1>   0.0800 
 38 H        4.7480    10.0400     1.8600 H     1 <1>   0.1500 
 39 H        6.7970     8.8230    -2.3400 H     1 <1>   0.1500 
 40 H        6.9850    10.9050     1.3600 H     1 <1>   0.1500 
 41 H        8.0170    10.2690    -0.8060 H     1 <1>   0.1500 
@<TRIPOS>BOND
  1   1   2  ar  
  2   2   3  ar  
  3   2   4  1   
  4   4   5  1   
  5   4  22  1   
  6   4  23  1   
  7   5   6  ar  
  8   5   7  ar  
  9   6   8  ar  
 10   6  24  1   
 11   7   9  ar  
 12   7  25  1   
 13   8  10  ar  
 14   8  26  1   
 15   9  10  ar  
 16   9  27  1   
 17  10  11  1   
 18  11  12  1   
 19  11  28  1   
 20  11  29  1   
 21  12  13  1   
 22  12  14  1   
 23  12  30  1   
 24  13  15  1   
 25  13  16  1   
 26  13  31  1   
 27  14  32  1   
 28  14  33  1   
 29  14  34  1   
 30  15  17  ar  
 31  15  18  ar  
 32  16  35  1   
 33  16  36  1   
 34  16  37  1   
 35  17  19  ar  
 36  18  20  ar  
 37  18  38  1   
 38  19  21  ar  
 39  19  39  1   
 40  20  21  ar  
 41  20  40  1   
 42  21  41  1   
@<TRIPOS>SUBSTRUCTURE
  1 ****  10 GROUP 4 **** **** 0

# MOE 2024.06 (io_trps.svl 2023.06)
