@<TRIPOS>MOLECULE
NONAME
49 51 1 0 0 
SMALL
USER_CHARGES


@<TRIPOS>ATOM
  1 S        0.1890    -0.6620     1.9730 S.3   1 <1>  -0.0800 
  2 C        0.4760    -1.8060     0.6530 C.2   1 <1>  -0.0450 
  3 C        1.5840     0.2990     1.5450 C.2   1 <1>  -0.1100 
  4 C        1.5930    -1.4170    -0.0210 C.2   1 <1>  -0.1810 
  5 C       -0.4230    -2.9280     0.5040 C.2   1 <1>   0.7150 
  6 C        2.2090    -0.2320     0.4800 C.2   1 <1>  -0.1500 
  7 C        2.2030    -2.1320    -1.2150 C.3   1 <1>  -0.0590 
  8 O        0.0380    -4.0410     0.3220 O.2   1 <1>  -0.5700 
  9 N       -1.8000    -2.7940     0.5530 N.am  1 <1>  -0.6600 
 10 C       -2.6260    -4.0210     0.7970 C.3   1 <1>   0.1400 
 11 C       -2.4600    -1.4850     0.2600 C.3   1 <1>   0.1400 
 12 C       -4.0090    -3.7630     1.4090 C.3   1 <1>   0.1400 
 13 C       -3.6330    -1.5920    -0.7190 C.3   1 <1>  -0.1600 
 14 N       -4.9960    -3.3770     0.3560 N.am  1 <1>  -0.6600 
 15 C       -4.9590    -1.9450    -0.0400 C.3   1 <1>   0.1400 
 16 C       -5.8740    -4.2460    -0.2480 C.2   1 <1>   0.5690 
 17 O       -6.6160    -3.8840    -1.1310 O.2   1 <1>  -0.5700 
 18 C       -5.9290    -5.7090     0.1740 C.3   1 <1>  -0.0990 
 19 C       -7.0000    -6.5260    -0.5650 C.3   1 <1>   0.0200 
 20 C       -7.0060    -7.9680    -0.0830 C.2   1 <1>  -0.3320 
 21 N       -6.1730    -8.9450    -0.5120 N.pl3 1 <1>   0.3140 
 22 C       -7.8250    -8.5320     0.8300 C.2   1 <1>  -0.1500 
 23 N       -6.4290   -10.1120     0.1040 N.2   1 <1>  -0.7070 
 24 C       -5.1140    -8.8440    -1.5250 C.3   1 <1>   0.0160 
 25 C       -7.4190    -9.8580     0.9020 C.2   1 <1>   0.1390 
 26 H        1.7940     1.1690     2.1420 H     1 <1>   0.1500 
 27 H        3.0960     0.1700     0.0230 H     1 <1>   0.1500 
 28 H        1.6040    -2.9740    -1.5100 H     1 <1>   0.0800 
 29 H        3.1860    -2.4860    -0.9640 H     1 <1>   0.0800 
 30 H        2.2770    -1.4580    -2.0490 H     1 <1>   0.0800 
 31 H       -2.0840    -4.6560     1.4780 H     1 <1>   0.0800 
 32 H       -2.7360    -4.5630    -0.1260 H     1 <1>   0.0800 
 33 H       -1.7370    -0.8220    -0.1820 H     1 <1>   0.0800 
 34 H       -2.7850    -1.0360     1.1830 H     1 <1>   0.0800 
 35 H       -3.9430    -2.9960     2.1610 H     1 <1>   0.0800 
 36 H       -4.3350    -4.6590     1.9040 H     1 <1>   0.0800 
 37 H       -3.4130    -2.2810    -1.5150 H     1 <1>   0.0800 
 38 H       -3.7630    -0.6230    -1.1660 H     1 <1>   0.0800 
 39 H       -5.7620    -1.7290    -0.7250 H     1 <1>   0.0800 
 40 H       -5.1100    -1.3290     0.8290 H     1 <1>   0.0800 
 41 H       -6.1460    -5.7550     1.2250 H     1 <1>   0.0800 
 42 H       -4.9660    -6.1510     0.0030 H     1 <1>   0.0800 
 43 H       -6.8330    -6.4890    -1.6280 H     1 <1>   0.0800 
 44 H       -7.9660    -6.0890    -0.3750 H     1 <1>   0.0800 
 45 H       -8.6240    -8.0850     1.3930 H     1 <1>   0.1500 
 46 H       -4.3180    -8.2320    -1.1460 H     1 <1>   0.0800 
 47 H       -5.5190    -8.4130    -2.4200 H     1 <1>   0.0800 
 48 H       -4.7390    -9.8280    -1.7390 H     1 <1>   0.0800 
 49 H       -7.8670   -10.5990     1.5430 H     1 <1>   0.1500 
@<TRIPOS>BOND
  1   1   2  1   
  2   1   3  1   
  3   2   4  2   
  4   2   5  1   
  5   3   6  2   
  6   3  26  1   
  7   4   6  1   
  8   4   7  1   
  9   5   8  2   
 10   5   9  am  
 11   6  27  1   
 12   7  28  1   
 13   7  29  1   
 14   7  30  1   
 15   9  10  1   
 16   9  11  1   
 17  10  12  1   
 18  10  31  1   
 19  10  32  1   
 20  11  13  1   
 21  11  33  1   
 22  11  34  1   
 23  12  14  1   
 24  12  35  1   
 25  12  36  1   
 26  13  15  1   
 27  13  37  1   
 28  13  38  1   
 29  14  15  1   
 30  14  16  am  
 31  15  39  1   
 32  15  40  1   
 33  16  17  2   
 34  16  18  1   
 35  18  19  1   
 36  18  41  1   
 37  18  42  1   
 38  19  20  1   
 39  19  43  1   
 40  19  44  1   
 41  20  21  1   
 42  20  22  2   
 43  21  23  1   
 44  21  24  1   
 45  22  25  1   
 46  22  45  1   
 47  23  25  2   
 48  24  46  1   
 49  24  47  1   
 50  24  48  1   
 51  25  49  1   
@<TRIPOS>SUBSTRUCTURE
  1 ****  10 GROUP 4 **** **** 0

# MOE 2024.06 (io_trps.svl 2023.06)
