@<TRIPOS>MOLECULE
NONAME
46 48 1 0 0 
SMALL
USER_CHARGES


@<TRIPOS>ATOM
  1 F        0.6640    -1.0990     0.0890 F     1 <1>  -0.1900 
  2 C       -0.1760    -2.1020     0.0650 C.ar  1 <1>   0.1900 
  3 C        0.0760    -3.2640    -0.6740 C.ar  1 <1>   0.0820 
  4 C       -1.3280    -1.9580     0.8140 C.ar  1 <1>  -0.1500 
  5 O        1.1700    -3.5230    -1.4480 O.3   1 <1>  -0.3630 
  6 C       -0.8720    -4.2720    -0.6280 C.ar  1 <1>  -0.1500 
  7 C       -2.2510    -2.9860     0.8370 C.ar  1 <1>  -0.1500 
  8 C        2.1810    -2.5710    -1.6920 C.3   1 <1>   0.0400 
  9 C       -2.0490    -4.1640     0.1170 C.ar  1 <1>   0.0530 
 10 C       -2.9970    -5.2520     0.1480 C.2   1 <1>   0.0870 
 11 O       -2.5400    -6.4840     0.1560 O.3   1 <1>  -0.0190 
 12 C       -4.3560    -5.3360     0.1760 C.2   1 <1>  -0.2330 
 13 N       -3.4890    -7.3800     0.2020 N.2   1 <1>  -0.4100 
 14 C       -4.5850    -6.7100     0.2290 C.2   1 <1>   0.3720 
 15 C       -5.3930    -4.3460     0.1200 C.2   1 <1>   1.0330 
 16 N       -5.8400    -7.2940     0.2960 N.pl3 1 <1>  -0.8520 
 17 O       -5.1270    -3.1370     0.0300 O.co2 1 <1>  -0.9000 
 18 O       -6.5950    -4.6810     0.1450 O.co2 1 <1>  -0.9000 
 19 C       -6.2060    -8.1390    -0.8620 C.3   1 <1>   0.2090 
 20 C       -6.4560    -9.5930    -0.4290 C.3   1 <1>   0.0000 
 21 C       -7.0400   -10.4530    -1.5880 C.3   1 <1>   0.0000 
 22 C       -7.8010    -9.7850     0.3300 C.3   1 <1>   0.0000 
 23 C       -5.2210   -10.1910     0.2810 C.3   1 <1>   0.1200 
 24 C       -8.1230   -10.9770    -0.6090 C.3   1 <1>   0.0000 
 25 O       -5.3700   -11.5580     0.5340 O.3   1 <1>  -0.5600 
 26 C       -4.3040   -12.1070     1.2350 C.3   1 <1>   0.0400 
 27 H       -1.5050    -1.0550     1.3680 H     1 <1>   0.1500 
 28 H       -0.6940    -5.1700    -1.1910 H     1 <1>   0.1500 
 29 H       -3.1510    -2.8760     1.4190 H     1 <1>   0.1500 
 30 H        2.8900    -3.0030    -2.3740 H     1 <1>   0.0800 
 31 H        2.6680    -2.3320    -0.7630 H     1 <1>   0.0800 
 32 H        1.7380    -1.6950    -2.1330 H     1 <1>   0.0800 
 33 H       -6.5070    -6.4900     0.3480 H     1 <1>   0.4000 
 34 H       -5.4190    -8.1160    -1.5980 H     1 <1>   0.0800 
 35 H       -7.0930    -7.7300    -1.3180 H     1 <1>   0.0800 
 36 H       -6.3790   -11.2200    -1.9510 H     1 <1>   0.0000 
 37 H       -7.4700    -9.8620    -2.3790 H     1 <1>   0.0000 
 38 H       -8.4880    -8.9670     0.1900 H     1 <1>   0.0000 
 39 H       -7.6890   -10.0690     1.3620 H     1 <1>   0.0000 
 40 H       -5.0680    -9.6820     1.2180 H     1 <1>   0.0800 
 41 H       -4.3480   -10.0550    -0.3340 H     1 <1>   0.0800 
 42 H       -7.8730   -11.9290    -0.1760 H     1 <1>   0.0000 
 43 H       -9.1190   -10.9450    -1.0150 H     1 <1>   0.0000 
 44 H       -4.5020   -13.1540     1.3790 H     1 <1>   0.0800 
 45 H       -4.2200   -11.6180     2.1900 H     1 <1>   0.0800 
 46 H       -3.4010   -11.9810     0.6630 H     1 <1>   0.0800 
@<TRIPOS>BOND
  1   1   2  1   
  2   2   3  ar  
  3   2   4  ar  
  4   3   5  1   
  5   3   6  ar  
  6   4   7  ar  
  7   4  27  1   
  8   5   8  1   
  9   6   9  ar  
 10   6  28  1   
 11   7   9  ar  
 12   7  29  1   
 13   8  30  1   
 14   8  31  1   
 15   8  32  1   
 16   9  10  1   
 17  10  11  1   
 18  10  12  2   
 19  11  13  1   
 20  12  14  1   
 21  12  15  1   
 22  13  14  2   
 23  14  16  1   
 24  15  17  ar  
 25  15  18  ar  
 26  16  19  1   
 27  16  33  1   
 28  19  20  1   
 29  19  34  1   
 30  19  35  1   
 31  20  21  1   
 32  20  22  1   
 33  20  23  1   
 34  21  24  1   
 35  21  36  1   
 36  21  37  1   
 37  22  24  1   
 38  22  38  1   
 39  22  39  1   
 40  23  25  1   
 41  23  40  1   
 42  23  41  1   
 43  24  42  1   
 44  24  43  1   
 45  25  26  1   
 46  26  44  1   
 47  26  45  1   
 48  26  46  1   
@<TRIPOS>SUBSTRUCTURE
  1 ****  10 GROUP 4 **** **** 0

# MOE 2024.06 (io_trps.svl 2023.06)
