@<TRIPOS>MOLECULE
NONAME
48 51 1 0 0 
SMALL
USER_CHARGES


@<TRIPOS>ATOM
  1 CL      -1.1030    -1.3200     2.9800 Cl    1 <1>  -0.1770 
  2 C       -1.8580    -1.5040     1.4080 C.ar  1 <1>   0.1770 
  3 C       -1.6980    -0.6000     0.3490 C.ar  1 <1>   0.0830 
  4 C       -2.6490    -2.6270     1.2650 C.ar  1 <1>  -0.1500 
  5 O       -0.9620     0.5420     0.3250 O.3   1 <1>  -0.3630 
  6 C       -2.3600    -0.8770    -0.8370 C.ar  1 <1>  -0.1500 
  7 C       -3.3200    -2.9100     0.0750 C.ar  1 <1>   0.0860 
  8 C       -0.1690     1.0120     1.3900 C.3   1 <1>   0.0400 
  9 C       -3.1510    -2.0030    -0.9730 C.ar  1 <1>  -0.1500 
 10 C       -4.1540    -4.0940    -0.0540 C.2   1 <1>   0.5440 
 11 O       -4.2400    -4.9220     0.8380 O.2   1 <1>  -0.5700 
 12 N       -4.9200    -4.3320    -1.1680 N.am  1 <1>  -0.6600 
 13 C       -6.3680    -3.9650    -1.0850 C.3   1 <1>   0.1400 
 14 C       -4.6990    -5.6280    -1.8920 C.3   1 <1>   0.1400 
 15 C       -7.1940    -5.0550    -0.3440 C.3   1 <1>   0.4230 
 16 C       -5.7120    -6.7210    -1.4690 C.3   1 <1>   0.3430 
 17 N       -6.4180    -6.3440    -0.1970 N.4   1 <1>  -0.9590 
 18 C       -8.5560    -5.3040    -1.0330 C.3   1 <1>   0.1200 
 19 C       -7.2560    -7.4010     0.4400 C.3   1 <1>   0.5180 
 20 O       -9.2690    -6.3120    -0.3720 O.3   1 <1>  -0.5600 
 21 C       -6.4780    -8.7210     0.5010 C.3   1 <1>  -0.1950 
 22 C       -8.6140    -7.5510    -0.2800 C.3   1 <1>   0.1200 
 23 C       -6.5500    -9.5770     1.7280 C.3   1 <1>  -0.2000 
 24 C       -5.2710    -8.8750     1.3750 C.3   1 <1>  -0.2000 
 25 H       -2.7450    -3.2990     2.1000 H     1 <1>   0.1500 
 26 H       -2.2470    -0.1940    -1.6620 H     1 <1>   0.1500 
 27 H        0.3140     1.9170     1.0690 H     1 <1>   0.0800 
 28 H        0.5740     0.2720     1.6290 H     1 <1>   0.0800 
 29 H       -0.8020     1.2210     2.2340 H     1 <1>   0.0800 
 30 H       -3.6420    -2.1770    -1.9150 H     1 <1>   0.1500 
 31 H       -6.4780    -3.0270    -0.5670 H     1 <1>   0.0800 
 32 H       -6.7470    -3.8230    -2.0830 H     1 <1>   0.0800 
 33 H       -4.7610    -5.4660    -2.9540 H     1 <1>   0.0800 
 34 H       -3.7030    -5.9830    -1.6830 H     1 <1>   0.0800 
 35 H       -7.4060    -4.6760     0.6420 H     1 <1>   0.0800 
 36 H       -5.1780    -7.6480    -1.3400 H     1 <1>   0.0800 
 37 H       -6.4320    -6.8650    -2.2570 H     1 <1>   0.0800 
 38 H       -5.6440    -6.1060     0.4600 H     1 <1>   0.4500 
 39 H       -8.4290    -5.5940    -2.0620 H     1 <1>   0.0800 
 40 H       -9.1560    -4.4120    -1.0010 H     1 <1>   0.0800 
 41 H       -7.4630    -7.0990     1.4540 H     1 <1>   0.0800 
 42 H       -6.4930    -9.2570    -0.4330 H     1 <1>   0.1000 
 43 H       -9.2510    -8.2160     0.2780 H     1 <1>   0.0800 
 44 H       -8.4880    -7.9510    -1.2700 H     1 <1>   0.0800 
 45 H       -7.0860    -9.2400     2.5990 H     1 <1>   0.1000 
 46 H       -6.5870   -10.6490     1.6200 H     1 <1>   0.1000 
 47 H       -4.4430    -9.4750     1.0340 H     1 <1>   0.1000 
 48 H       -4.9500    -8.0640     2.0080 H     1 <1>   0.1000 
@<TRIPOS>BOND
  1   1   2  1   
  2   2   3  ar  
  3   2   4  ar  
  4   3   5  1   
  5   3   6  ar  
  6   4   7  ar  
  7   4  25  1   
  8   5   8  1   
  9   6   9  ar  
 10   6  26  1   
 11   7   9  ar  
 12   7  10  1   
 13   8  27  1   
 14   8  28  1   
 15   8  29  1   
 16   9  30  1   
 17  10  11  2   
 18  10  12  am  
 19  12  13  1   
 20  12  14  1   
 21  13  15  1   
 22  13  31  1   
 23  13  32  1   
 24  14  16  1   
 25  14  33  1   
 26  14  34  1   
 27  15  17  1   
 28  15  18  1   
 29  15  35  1   
 30  16  17  1   
 31  16  36  1   
 32  16  37  1   
 33  17  19  1   
 34  17  38  1   
 35  18  20  1   
 36  18  39  1   
 37  18  40  1   
 38  19  21  1   
 39  19  22  1   
 40  19  41  1   
 41  20  22  1   
 42  21  23  1   
 43  21  24  1   
 44  21  42  1   
 45  22  43  1   
 46  22  44  1   
 47  23  24  1   
 48  23  45  1   
 49  23  46  1   
 50  24  47  1   
 51  24  48  1   
@<TRIPOS>SUBSTRUCTURE
  1 ****  10 GROUP 4 **** **** 0

# MOE 2024.06 (io_trps.svl 2023.06)
