@<TRIPOS>MOLECULE
NONAME
50 52 1 0 0 
SMALL
USER_CHARGES


@<TRIPOS>ATOM
  1 O       -0.6520     0.6480    -1.9950 O.2   1 <1>  -0.5700 
  2 C       -1.5640     1.1960    -1.4170 C.2   1 <1>   0.5690 
  3 N       -2.4810     0.4670    -0.7050 N.am  1 <1>  -0.6600 
  4 C       -1.6650     2.7300    -1.5180 C.3   1 <1>   0.1710 
  5 C       -3.6960     0.9770    -0.0190 C.3   1 <1>   0.1400 
  6 C       -2.3740    -1.0050    -0.5510 C.3   1 <1>   0.1400 
  7 N       -0.7860     3.5180    -0.6060 N.3   1 <1>  -0.8100 
  8 C       -4.4580    -0.2760     0.4120 C.3   1 <1>   0.2000 
  9 C       -3.4030    -1.3730     0.5180 C.3   1 <1>  -0.0800 
 10 C        0.6380     3.2330    -0.8760 C.3   1 <1>   0.2530 
 11 C       -1.1210     3.3010     0.8080 C.3   1 <1>   0.0300 
 12 O       -5.0890    -0.0940     1.6310 O.3   1 <1>  -0.6800 
 13 C       -3.9770    -2.7880     0.3590 C.3   1 <1>   0.0210 
 14 C        1.5430     4.2300    -0.1630 C.ar  1 <1>  -0.1440 
 15 C       -2.8720    -3.8260     0.3630 C.2   1 <1>   0.1080 
 16 C        2.6140     3.8250     0.6080 C.ar  1 <1>  -0.1500 
 17 C        1.3410     5.5920    -0.2540 C.ar  1 <1>  -0.1500 
 18 N       -2.0530    -3.9780     1.3570 N.2   1 <1>  -0.7070 
 19 C       -2.6040    -4.7080    -0.6780 C.2   1 <1>  -0.1500 
 20 C        3.4070     4.7740     1.2310 C.ar  1 <1>   0.1600 
 21 C        2.1930     6.4580     0.4090 C.ar  1 <1>   0.1600 
 22 N       -1.2340    -4.9750     0.9740 N.pl3 1 <1>   0.3000 
 23 C       -1.5460    -5.4320    -0.2570 C.2   1 <1>  -0.3320 
 24 N        3.2240     6.0820     1.1500 N.ar  1 <1>  -0.6200 
 25 C       -0.8030    -6.5500    -0.9650 C.3   1 <1>  -0.0600 
 26 H       -2.6830     3.0320    -1.3580 H     1 <1>   0.0800 
 27 H       -1.4250     2.9980    -2.5320 H     1 <1>   0.0800 
 28 H       -3.4050     1.5550     0.8390 H     1 <1>   0.0800 
 29 H       -4.2930     1.5700    -0.6890 H     1 <1>   0.0800 
 30 H       -2.6080    -1.4720    -1.4930 H     1 <1>   0.0800 
 31 H       -1.3790    -1.2910    -0.2530 H     1 <1>   0.0800 
 32 H       -5.2050    -0.5160    -0.3260 H     1 <1>   0.0800 
 33 H       -2.9030    -1.3030     1.4690 H     1 <1>   0.0800 
 34 H        0.8780     2.2300    -0.5640 H     1 <1>   0.0800 
 35 H        0.8230     3.3040    -1.9340 H     1 <1>   0.0800 
 36 H       -0.5230     3.9430     1.4330 H     1 <1>   0.0800 
 37 H       -0.9410     2.2770     1.0900 H     1 <1>   0.0800 
 38 H       -2.1560     3.5430     0.9790 H     1 <1>   0.0800 
 39 H       -4.4330    -0.0960     2.3560 H     1 <1>   0.4000 
 40 H       -4.5320    -2.8630    -0.5590 H     1 <1>   0.0800 
 41 H       -4.6480    -2.9970     1.1730 H     1 <1>   0.0800 
 42 H        2.8370     2.7810     0.7290 H     1 <1>   0.1500 
 43 H        0.5210     5.9770    -0.8340 H     1 <1>   0.1500 
 44 H       -3.1390    -4.7770    -1.6080 H     1 <1>   0.1500 
 45 H        4.2380     4.4380     1.8270 H     1 <1>   0.1500 
 46 H        2.0160     7.5170     0.3260 H     1 <1>   0.1500 
 47 H       -0.4750    -5.3200     1.5730 H     1 <1>   0.2700 
 48 H       -1.2400    -6.7300    -1.9320 H     1 <1>   0.0800 
 49 H       -0.8580    -7.4570    -0.3900 H     1 <1>   0.0800 
 50 H        0.2300    -6.2820    -1.1020 H     1 <1>   0.0800 
@<TRIPOS>BOND
  1   1   2  2   
  2   2   3  am  
  3   2   4  1   
  4   3   5  1   
  5   3   6  1   
  6   4   7  1   
  7   4  26  1   
  8   4  27  1   
  9   5   8  1   
 10   5  28  1   
 11   5  29  1   
 12   6   9  1   
 13   6  30  1   
 14   6  31  1   
 15   7  10  1   
 16   7  11  1   
 17   8   9  1   
 18   8  12  1   
 19   8  32  1   
 20   9  13  1   
 21   9  33  1   
 22  10  14  1   
 23  10  34  1   
 24  10  35  1   
 25  11  36  1   
 26  11  37  1   
 27  11  38  1   
 28  12  39  1   
 29  13  15  1   
 30  13  40  1   
 31  13  41  1   
 32  14  16  ar  
 33  14  17  ar  
 34  15  18  2   
 35  15  19  1   
 36  16  20  ar  
 37  16  42  1   
 38  17  21  ar  
 39  17  43  1   
 40  18  22  1   
 41  19  23  2   
 42  19  44  1   
 43  20  24  ar  
 44  20  45  1   
 45  21  24  ar  
 46  21  46  1   
 47  22  23  1   
 48  22  47  1   
 49  23  25  1   
 50  25  48  1   
 51  25  49  1   
 52  25  50  1   
@<TRIPOS>SUBSTRUCTURE
  1 ****   3 GROUP 4 **** **** 0

# MOE 2024.06 (io_trps.svl 2023.06)
