@<TRIPOS>MOLECULE
NONAME
42 43 1 0 0 
SMALL
USER_CHARGES


@<TRIPOS>ATOM
  1 S       -0.0890     1.2090    -0.1390 S.o2  1 <1>   1.0900 
  2 O       -0.0920     0.2720     0.9580 O.2   1 <1>  -0.6500 
  3 O       -1.0240     2.3080    -0.1600 O.2   1 <1>  -0.6500 
  4 C        1.5540     1.8970    -0.2450 C.3   1 <1>  -0.0550 
  5 C       -0.2680     0.2930    -1.6580 C.3   1 <1>  -0.1350 
  6 C        1.8450     2.7400     0.9950 C.3   1 <1>   0.1100 
  7 N        3.1990     3.3280     0.9210 N.3   1 <1>  -0.8100 
  8 C        3.2500     4.5440     1.7800 C.3   1 <1>   0.1100 
  9 C        4.2370     2.3470     1.3090 C.3   1 <1>   0.1100 
 10 C        4.5790     5.3140     1.6610 C.3   1 <1>   0.3430 
 11 C        5.4770     2.5170     0.4210 C.3   1 <1>  -0.1600 
 12 N        5.2200     4.9600     0.3630 N.4   1 <1>  -0.9590 
 13 C        6.1980     3.8640     0.5300 C.3   1 <1>   0.3430 
 14 C        5.7070     6.1170    -0.4270 C.3   1 <1>   0.5230 
 15 C        4.5240     6.9810    -0.8090 C.2   1 <1>  -0.1400 
 16 S        4.2190     8.4070     0.1730 S.3   1 <1>  -0.0800 
 17 C        3.6140     6.8860    -1.7970 C.2   1 <1>  -0.1500 
 18 C        2.8270     8.8370    -0.8040 C.2   1 <1>  -0.1100 
 19 C        2.6470     7.9410    -1.7910 C.2   1 <1>  -0.1500 
 20 H        1.6300     2.5230    -1.1120 H     1 <1>   0.0800 
 21 H        2.2700     1.1030    -0.3200 H     1 <1>   0.0800 
 22 H       -1.2370    -0.1660    -1.6930 H     1 <1>   0.0800 
 23 H        0.4730    -0.4800    -1.7240 H     1 <1>   0.0800 
 24 H       -0.1730     0.9430    -2.5060 H     1 <1>   0.0800 
 25 H        1.7400     2.1440     1.8890 H     1 <1>   0.0800 
 26 H        1.1050     3.5240     1.0370 H     1 <1>   0.0800 
 27 H        3.0700     4.2880     2.8120 H     1 <1>   0.0800 
 28 H        2.4630     5.2150     1.4770 H     1 <1>   0.0800 
 29 H        3.8700     1.3430     1.1760 H     1 <1>   0.0800 
 30 H        4.4930     2.4520     2.3520 H     1 <1>   0.0800 
 31 H        5.2260     5.0490     2.4800 H     1 <1>   0.0800 
 32 H        4.3790     6.3700     1.7250 H     1 <1>   0.0800 
 33 H        5.1950     2.3470    -0.6030 H     1 <1>   0.0800 
 34 H        6.1800     1.7450     0.6770 H     1 <1>   0.0800 
 35 H        4.4220     4.5290    -0.1440 H     1 <1>   0.4500 
 36 H        6.9520     3.9170    -0.2390 H     1 <1>   0.0800 
 37 H        6.6860     3.9480     1.4880 H     1 <1>   0.0800 
 38 H        6.1820     5.7640    -1.3280 H     1 <1>   0.0800 
 39 H        6.4230     6.6930     0.1370 H     1 <1>   0.0800 
 40 H        3.5650     6.1170    -2.5490 H     1 <1>   0.1500 
 41 H        2.2850     9.7270    -0.5350 H     1 <1>   0.1500 
 42 H        1.8630     7.9800    -2.5290 H     1 <1>   0.1500 
@<TRIPOS>BOND
  1   1   2  2   
  2   1   3  2   
  3   1   4  1   
  4   1   5  1   
  5   4   6  1   
  6   4  20  1   
  7   4  21  1   
  8   5  22  1   
  9   5  23  1   
 10   5  24  1   
 11   6   7  1   
 12   6  25  1   
 13   6  26  1   
 14   7   8  1   
 15   7   9  1   
 16   8  10  1   
 17   8  27  1   
 18   8  28  1   
 19   9  11  1   
 20   9  29  1   
 21   9  30  1   
 22  10  12  1   
 23  10  31  1   
 24  10  32  1   
 25  11  13  1   
 26  11  33  1   
 27  11  34  1   
 28  12  13  1   
 29  12  14  1   
 30  12  35  1   
 31  13  36  1   
 32  13  37  1   
 33  14  15  1   
 34  14  38  1   
 35  14  39  1   
 36  15  16  1   
 37  15  17  2   
 38  16  18  1   
 39  17  19  1   
 40  17  40  1   
 41  18  19  2   
 42  18  41  1   
 43  19  42  1   
@<TRIPOS>SUBSTRUCTURE
  1 ****   7 GROUP 4 **** **** 0

# MOE 2024.06 (io_trps.svl 2023.06)
