@<TRIPOS>MOLECULE
NONAME
51 54 1 0 0 
SMALL
USER_CHARGES


@<TRIPOS>ATOM
  1 O       -0.6420     0.0980     0.2450 O.2   1 <1>  -0.5700 
  2 C       -1.6430     0.7650     0.4270 C.2   1 <1>   0.5440 
  3 N       -2.8360     0.1120     0.6500 N.am  1 <1>  -0.6600 
  4 C       -1.5670     2.2130     0.3770 C.ar  1 <1>   0.0860 
  5 C       -2.8890    -1.3550     0.9460 C.3   1 <1>   0.1400 
  6 C       -4.1520     0.6480     0.1860 C.3   1 <1>   0.1400 
  7 C       -0.8370     2.8580    -0.6200 C.ar  1 <1>  -0.1500 
  8 C       -2.2210     3.0110     1.3170 C.ar  1 <1>  -0.1500 
  9 C       -3.5280    -2.1260    -0.2220 C.3   1 <1>   0.3440 
 10 C       -4.7360    -0.2320    -0.9450 C.3   1 <1>   0.2950 
 11 C       -0.7740     4.2370    -0.7010 C.ar  1 <1>  -0.1440 
 12 C       -2.1780     4.3930     1.2620 C.ar  1 <1>  -0.1440 
 13 O       -4.7790    -1.5700    -0.5390 O.3   1 <1>  -0.5600 
 14 C       -3.6960    -3.6000     0.1380 C.ar  1 <1>  -0.1430 
 15 C       -6.1610     0.1480    -1.3830 C.3   1 <1>  -0.1950 
 16 C       -1.4520     5.0010     0.2420 C.ar  1 <1>   0.0820 
 17 C        0.0320     4.8990    -1.8100 C.3   1 <1>  -0.0970 
 18 C       -2.9170     5.2090     2.3150 C.3   1 <1>  -0.0970 
 19 C       -4.8530    -4.0750     0.7420 C.ar  1 <1>  -0.1500 
 20 C       -2.6640    -4.4890    -0.1300 C.ar  1 <1>  -0.1500 
 21 C       -6.6950     1.5490    -1.3530 C.3   1 <1>  -0.2000 
 22 C       -7.2610     0.5040    -0.4310 C.3   1 <1>  -0.2000 
 23 O       -1.4010     6.3390     0.1690 O.3   1 <1>  -0.5330 
 24 C       -4.9760    -5.4130     1.0720 C.ar  1 <1>  -0.1500 
 25 C       -2.7860    -5.8280     0.2000 C.ar  1 <1>  -0.1500 
 26 C       -3.9420    -6.2910     0.8010 C.ar  1 <1>  -0.1500 
 27 H       -1.9030    -1.7430     1.1310 H     1 <1>   0.0800 
 28 H       -3.4730    -1.5170     1.8350 H     1 <1>   0.0800 
 29 H       -4.8330     0.6670     1.0180 H     1 <1>   0.0800 
 30 H       -4.0420     1.6510    -0.1810 H     1 <1>   0.0800 
 31 H       -0.3120     2.2510    -1.3380 H     1 <1>   0.1500 
 32 H       -2.7690     2.5210     2.1030 H     1 <1>   0.1500 
 33 H       -2.8990    -2.0450    -1.0910 H     1 <1>   0.0800 
 34 H       -4.0890    -0.1660    -1.8030 H     1 <1>   0.0800 
 35 H       -6.4490    -0.4420    -2.2360 H     1 <1>   0.1000 
 36 H        0.4970     4.1670    -2.4440 H     1 <1>   0.0800 
 37 H        0.7980     5.5190    -1.3810 H     1 <1>   0.0800 
 38 H       -0.6130     5.5150    -2.4100 H     1 <1>   0.0800 
 39 H       -3.4200     4.5680     3.0160 H     1 <1>   0.0800 
 40 H       -3.6530     5.8370     1.8470 H     1 <1>   0.0800 
 41 H       -2.2210     5.8210     2.8610 H     1 <1>   0.0800 
 42 H       -5.6650    -3.4000     0.9540 H     1 <1>   0.1500 
 43 H       -1.7580    -4.1430    -0.5960 H     1 <1>   0.1500 
 44 H       -6.1270     2.3510    -0.9160 H     1 <1>   0.1000 
 45 H       -7.2990     1.8850    -2.1780 H     1 <1>   0.1000 
 46 H       -8.2450     0.1120    -0.6260 H     1 <1>   0.1000 
 47 H       -7.0540     0.5650     0.6230 H     1 <1>   0.1000 
 48 H       -1.8890     6.7750     0.8870 H     1 <1>   0.4500 
 49 H       -5.8780    -5.7700     1.5370 H     1 <1>   0.1500 
 50 H       -1.9800    -6.5090    -0.0120 H     1 <1>   0.1500 
 51 H       -4.0380    -7.3320     1.0570 H     1 <1>   0.1500 
@<TRIPOS>BOND
  1   1   2  2   
  2   2   3  am  
  3   2   4  1   
  4   3   5  1   
  5   3   6  1   
  6   4   7  ar  
  7   4   8  ar  
  8   5   9  1   
  9   5  27  1   
 10   5  28  1   
 11   6  10  1   
 12   6  29  1   
 13   6  30  1   
 14   7  11  ar  
 15   7  31  1   
 16   8  12  ar  
 17   8  32  1   
 18   9  13  1   
 19   9  14  1   
 20   9  33  1   
 21  10  13  1   
 22  10  15  1   
 23  10  34  1   
 24  11  16  ar  
 25  11  17  1   
 26  12  16  ar  
 27  12  18  1   
 28  14  19  ar  
 29  14  20  ar  
 30  15  21  1   
 31  15  22  1   
 32  15  35  1   
 33  16  23  1   
 34  17  36  1   
 35  17  37  1   
 36  17  38  1   
 37  18  39  1   
 38  18  40  1   
 39  18  41  1   
 40  19  24  ar  
 41  19  42  1   
 42  20  25  ar  
 43  20  43  1   
 44  21  22  1   
 45  21  44  1   
 46  21  45  1   
 47  22  46  1   
 48  22  47  1   
 49  23  48  1   
 50  24  26  ar  
 51  24  49  1   
 52  25  26  ar  
 53  25  50  1   
 54  26  51  1   
@<TRIPOS>SUBSTRUCTURE
  1 ****   3 GROUP 4 **** **** 0

# MOE 2024.06 (io_trps.svl 2023.06)
