@<TRIPOS>MOLECULE
NONAME
49 51 1 0 0 
SMALL
USER_CHARGES


@<TRIPOS>ATOM
  1 CL      -0.5240     2.7280    -2.6890 Cl    1 <1>  -0.1770 
  2 C       -0.4470     2.0910    -1.0620 C.ar  1 <1>   0.1770 
  3 C       -1.5820     1.6000    -0.4260 C.ar  1 <1>  -0.1440 
  4 C        0.7910     2.0990    -0.4420 C.ar  1 <1>  -0.1500 
  5 C       -1.4190     1.1110     0.8650 C.ar  1 <1>   0.1770 
  6 C       -2.9560     1.5790    -1.1070 C.3   1 <1>   0.0450 
  7 C        0.9230     1.6110     0.8460 C.ar  1 <1>  -0.1500 
  8 CL      -2.7800     0.4550     1.7500 Cl    1 <1>  -0.1770 
  9 C       -0.1900     1.1150     1.5020 C.ar  1 <1>  -0.1500 
 10 C       -3.4510     0.1590    -1.3680 C.2   1 <1>   0.5690 
 11 O       -2.6410    -0.6690    -1.7170 O.2   1 <1>  -0.5700 
 12 N       -4.7670    -0.1990    -1.1800 N.am  1 <1>  -0.6600 
 13 C       -5.1850    -1.6030    -1.3980 C.3   1 <1>   0.1400 
 14 C       -5.7130     0.5440    -0.2890 C.3   1 <1>   0.1400 
 15 C       -5.5910    -2.0840     0.0070 C.3   1 <1>   0.4230 
 16 C       -6.9890    -0.2940     0.0710 C.3   1 <1>  -0.1600 
 17 N       -4.7400    -3.2220     0.5030 N.4   1 <1>  -0.9590 
 18 C       -7.1670    -1.9200     0.1650 C.3   1 <1>   0.0000 
 19 C       -5.1260    -4.4730    -0.1210 C.3   1 <1>   0.3430 
 20 C       -3.2670    -2.9480     0.3830 C.3   1 <1>   0.2630 
 21 C       -7.4570    -3.5160     0.2060 C.3   1 <1>  -0.1600 
 22 C       -8.7450    -1.6720     0.3780 C.3   1 <1>   0.1200 
 23 C       -6.4910    -4.6930     0.4580 C.3   1 <1>  -0.1600 
 24 O       -8.9920    -1.6130     1.7480 O.3   1 <1>  -0.6800 
 25 H        1.6450     2.4870    -0.9690 H     1 <1>   0.1500 
 26 H       -2.9340     2.0840    -2.0520 H     1 <1>   0.0800 
 27 H       -3.6430     2.1200    -0.4870 H     1 <1>   0.0800 
 28 H        1.8840     1.6180     1.3330 H     1 <1>   0.1500 
 29 H       -0.1050     0.7320     2.5040 H     1 <1>   0.1500 
 30 H       -6.0250    -1.6220    -2.0710 H     1 <1>   0.0800 
 31 H       -4.4060    -2.1980    -1.8360 H     1 <1>   0.0800 
 32 H       -5.2050     0.8010     0.6250 H     1 <1>   0.0800 
 33 H       -6.0050     1.4650    -0.7670 H     1 <1>   0.0800 
 34 H       -5.2170    -1.3340     0.6790 H     1 <1>   0.0800 
 35 H       -7.3560     0.1670     0.9760 H     1 <1>   0.0800 
 36 H       -7.6130     0.0530    -0.7380 H     1 <1>   0.0800 
 37 H       -4.9620    -3.3110     1.5040 H     1 <1>   0.4500 
 38 H       -5.1580    -4.3830    -1.1950 H     1 <1>   0.0800 
 39 H       -4.4590    -5.2730     0.1620 H     1 <1>   0.0800 
 40 H       -2.9660    -2.9000    -0.6510 H     1 <1>   0.0800 
 41 H       -2.6990    -3.7240     0.8690 H     1 <1>   0.0800 
 42 H       -3.0240    -2.0050     0.8450 H     1 <1>   0.0800 
 43 H       -8.2140    -3.7780     0.9320 H     1 <1>   0.0800 
 44 H       -7.8810    -3.7430    -0.7610 H     1 <1>   0.0800 
 45 H       -9.3950    -2.4290    -0.0360 H     1 <1>   0.0800 
 46 H       -9.1860    -0.7780    -0.0310 H     1 <1>   0.0800 
 47 H       -6.9060    -5.5930     0.0370 H     1 <1>   0.0800 
 48 H       -6.3970    -4.8660     1.5170 H     1 <1>   0.0800 
 49 H       -9.9450    -1.4780     1.9320 H     1 <1>   0.4000 
@<TRIPOS>BOND
  1   1   2  1   
  2   2   3  ar  
  3   2   4  ar  
  4   3   5  ar  
  5   3   6  1   
  6   4   7  ar  
  7   4  25  1   
  8   5   8  1   
  9   5   9  ar  
 10   6  10  1   
 11   6  26  1   
 12   6  27  1   
 13   7   9  ar  
 14   7  28  1   
 15   9  29  1   
 16  10  11  2   
 17  10  12  am  
 18  12  13  1   
 19  12  14  1   
 20  13  15  1   
 21  13  30  1   
 22  13  31  1   
 23  14  16  1   
 24  14  32  1   
 25  14  33  1   
 26  15  17  1   
 27  15  18  1   
 28  15  34  1   
 29  16  18  1   
 30  16  35  1   
 31  16  36  1   
 32  17  19  1   
 33  17  20  1   
 34  17  37  1   
 35  18  21  1   
 36  18  22  1   
 37  19  23  1   
 38  19  38  1   
 39  19  39  1   
 40  20  40  1   
 41  20  41  1   
 42  20  42  1   
 43  21  23  1   
 44  21  43  1   
 45  21  44  1   
 46  22  24  1   
 47  22  45  1   
 48  22  46  1   
 49  23  47  1   
 50  23  48  1   
 51  24  49  1   
@<TRIPOS>SUBSTRUCTURE
  1 ****  12 GROUP 4 **** **** 0

# MOE 2024.06 (io_trps.svl 2023.06)
