@<TRIPOS>MOLECULE
NONAME
54 56 1 0 0 
SMALL
USER_CHARGES


@<TRIPOS>ATOM
  1 S        0.7100     0.1890     0.4340 S.o2  1 <1>   1.3330 
  2 O        2.0870     0.2350    -0.0020 O.2   1 <1>  -0.6500 
  3 O        0.3990     0.3330     1.8380 O.2   1 <1>  -0.6500 
  4 N        0.0030    -1.2400    -0.1470 N.am  1 <1>  -0.8490 
  5 C       -0.1890     1.4710    -0.4350 C.3   1 <1>  -0.0550 
  6 C        0.6020    -1.7200    -1.3970 C.3   1 <1>   0.1160 
  7 C        0.0070    -2.3120     0.8530 C.3   1 <1>   0.1160 
  8 C        0.1760     2.8860     0.0510 C.3   1 <1>  -0.0800 
  9 C       -0.5940     3.9760    -0.6820 C.3   1 <1>   0.2000 
 10 C        1.6420     3.2700    -0.1610 C.3   1 <1>   0.2090 
 11 O       -1.8520     4.1360    -0.1280 O.3   1 <1>  -0.6800 
 12 C        0.2530     5.2410    -0.5290 C.3   1 <1>   0.2090 
 13 N        1.6490     4.7600    -0.2970 N.pl3 1 <1>  -0.8380 
 14 C        2.7890     5.4780    -0.2160 C.ar  1 <1>   0.7710 
 15 N        3.9420     4.8360    -0.0560 N.ar  1 <1>  -0.6200 
 16 N        2.7350     6.8090    -0.3000 N.ar  1 <1>  -0.1790 
 17 C        5.0410     5.5330     0.0240 C.ar  1 <1>   0.4100 
 18 C        3.8510     7.6040    -0.2240 C.ar  1 <1>   0.3610 
 19 N        6.1530     4.8100     0.1800 N.pl3 1 <1>  -0.9000 
 20 C        5.0760     6.9600    -0.0470 C.ar  1 <1>   0.0000 
 21 C        3.7840     8.9930    -0.3200 C.ar  1 <1>  -0.1500 
 22 C        6.2310     7.7510     0.0520 C.ar  1 <1>  -0.1500 
 23 C        4.9240     9.7580    -0.2420 C.ar  1 <1>   0.0820 
 24 C        6.1640     9.1230    -0.0270 C.ar  1 <1>   0.0820 
 25 O        4.7590    11.0920    -0.3850 O.3   1 <1>  -0.3620 
 26 O        7.3150     9.8150     0.1180 O.3   1 <1>  -0.3620 
 27 C        5.6690    11.8490    -1.1580 C.3   1 <1>   0.0400 
 28 C        7.5380    10.3750     1.3940 C.3   1 <1>   0.0400 
 29 H        0.0010     1.3880    -1.4870 H     1 <1>   0.0800 
 30 H       -1.2400     1.3170    -0.2800 H     1 <1>   0.0800 
 31 H        0.0580    -2.5750    -1.7630 H     1 <1>   0.0800 
 32 H        1.6310    -2.0010    -1.2380 H     1 <1>   0.0800 
 33 H        0.5670    -0.9490    -2.1470 H     1 <1>   0.0800 
 34 H       -0.4660    -3.1940     0.4580 H     1 <1>   0.0800 
 35 H       -0.5410    -2.0020     1.7280 H     1 <1>   0.0800 
 36 H        1.0170    -2.5490     1.1440 H     1 <1>   0.0800 
 37 H       -0.0190     2.9570     1.1080 H     1 <1>   0.0800 
 38 H       -0.7120     3.7430    -1.7270 H     1 <1>   0.0800 
 39 H        2.0270     2.8300    -1.0660 H     1 <1>   0.0800 
 40 H        2.2500     2.9470     0.6700 H     1 <1>   0.0800 
 41 H       -1.8300     4.0540     0.8470 H     1 <1>   0.4000 
 42 H       -0.0830     5.8060     0.3250 H     1 <1>   0.0800 
 43 H        0.1890     5.8330    -1.4260 H     1 <1>   0.0800 
 44 H        1.8200     7.2210    -0.4140 H     1 <1>   0.4570 
 45 H        6.0940     3.7880     0.2290 H     1 <1>   0.4000 
 46 H        7.1020     5.1830     0.2510 H     1 <1>   0.4000 
 47 H        2.8440     9.4930    -0.4660 H     1 <1>   0.1500 
 48 H        7.1910     7.2890     0.1970 H     1 <1>   0.1500 
 49 H        5.1680    12.7390    -1.4910 H     1 <1>   0.0800 
 50 H        5.9880    11.2670    -2.0050 H     1 <1>   0.0800 
 51 H        6.5120    12.1180    -0.5480 H     1 <1>   0.0800 
 52 H        8.4640    10.9210     1.3660 H     1 <1>   0.0800 
 53 H        7.6010     9.5810     2.1180 H     1 <1>   0.0800 
 54 H        6.7270    11.0390     1.6360 H     1 <1>   0.0800 
@<TRIPOS>BOND
  1   1   2  2   
  2   1   3  2   
  3   1   4  am  
  4   1   5  1   
  5   4   6  1   
  6   4   7  1   
  7   5   8  1   
  8   5  29  1   
  9   5  30  1   
 10   6  31  1   
 11   6  32  1   
 12   6  33  1   
 13   7  34  1   
 14   7  35  1   
 15   7  36  1   
 16   8   9  1   
 17   8  10  1   
 18   8  37  1   
 19   9  11  1   
 20   9  12  1   
 21   9  38  1   
 22  10  13  1   
 23  10  39  1   
 24  10  40  1   
 25  11  41  1   
 26  12  13  1   
 27  12  42  1   
 28  12  43  1   
 29  13  14  1   
 30  14  15  ar  
 31  14  16  ar  
 32  15  17  ar  
 33  16  18  ar  
 34  16  44  1   
 35  17  19  1   
 36  17  20  ar  
 37  18  20  ar  
 38  18  21  ar  
 39  19  45  1   
 40  19  46  1   
 41  20  22  ar  
 42  21  23  ar  
 43  21  47  1   
 44  22  24  ar  
 45  22  48  1   
 46  23  24  ar  
 47  23  25  1   
 48  24  26  1   
 49  25  27  1   
 50  26  28  1   
 51  27  49  1   
 52  27  50  1   
 53  27  51  1   
 54  28  52  1   
 55  28  53  1   
 56  28  54  1   
@<TRIPOS>SUBSTRUCTURE
  1 ****  14 GROUP 4 **** **** 0

# MOE 2024.06 (io_trps.svl 2023.06)
