@<TRIPOS>MOLECULE
NONAME
49 52 1 0 0 
SMALL
USER_CHARGES


@<TRIPOS>ATOM
  1 S       -0.5170    -0.3700     1.3970 S.o2  1 <1>   1.5010 
  2 O       -0.5810    -1.8060     1.5380 O.2   1 <1>  -0.6500 
  3 O       -0.9600     0.4570     2.4940 O.2   1 <1>  -0.6500 
  4 N       -1.5570     0.0820     0.1560 N.am  1 <1>  -0.9140 
  5 C        1.1090     0.1490     0.8220 C.2   1 <1>  -0.0630 
  6 C       -1.8780    -0.8110    -0.9690 C.3   1 <1>   0.2760 
  7 C        1.5020     1.4540     0.5360 C.2   1 <1>   0.1080 
  8 C        2.2180    -0.5830     0.5470 C.2   1 <1>  -0.3020 
  9 C       -2.9050    -1.9130    -0.6850 C.3   1 <1>  -0.0800 
 10 C       -0.6900    -1.5600    -1.5950 C.3   1 <1>   0.1200 
 11 N        2.7270     1.5260     0.1190 N.2   1 <1>  -0.7070 
 12 C        0.6400     2.6910     0.6780 C.3   1 <1>  -0.0590 
 13 N        3.1730     0.2640     0.1290 N.pl3 1 <1>   0.3140 
 14 C       -2.0930    -3.1930    -0.8550 C.3   1 <1>   0.1200 
 15 C       -3.7210    -1.8430     0.6230 C.3   1 <1>  -0.0170 
 16 O       -1.1140    -2.8730    -1.7880 O.3   1 <1>  -0.5600 
 17 C        4.5430    -0.0690    -0.2760 C.3   1 <1>   0.0160 
 18 C       -4.6830    -3.0210     0.7330 C.ar  1 <1>  -0.1430 
 19 C       -5.9110    -3.0770     0.0330 C.ar  1 <1>   0.0000 
 20 C       -4.3620    -4.0810     1.5300 C.ar  1 <1>  -0.1500 
 21 C       -6.7100    -4.2350     0.2000 C.ar  1 <1>   0.3100 
 22 C       -6.3950    -2.0560    -0.8180 C.ar  1 <1>  -0.1500 
 23 C       -5.2280    -5.1760     1.6300 C.ar  1 <1>   0.1600 
 24 N       -6.3550    -5.2720     1.0000 N.ar  1 <1>  -0.6200 
 25 C       -7.9290    -4.3240    -0.4890 C.ar  1 <1>  -0.1500 
 26 C       -7.5900    -2.1740    -1.4750 C.ar  1 <1>  -0.1500 
 27 C       -8.3680    -3.3220    -1.3110 C.ar  1 <1>  -0.1500 
 28 H       -2.4130     0.3430     0.6370 H     1 <1>   0.4200 
 29 H       -2.2940    -0.1840    -1.7400 H     1 <1>   0.0800 
 30 H        2.3640    -1.6450     0.6290 H     1 <1>   0.1500 
 31 H       -3.6010    -1.9070    -1.5040 H     1 <1>   0.0800 
 32 H        0.1740    -1.5960    -0.9620 H     1 <1>   0.0800 
 33 H       -0.4220    -1.1490    -2.5520 H     1 <1>   0.0800 
 34 H        0.2800     2.7770     1.6860 H     1 <1>   0.0800 
 35 H       -0.1940     2.6380     0.0040 H     1 <1>   0.0800 
 36 H        1.2180     3.5670     0.4430 H     1 <1>   0.0800 
 37 H       -2.6870    -4.0100    -1.2300 H     1 <1>   0.0800 
 38 H       -1.6050    -3.4880     0.0580 H     1 <1>   0.0800 
 39 H       -4.2720    -0.9220     0.6740 H     1 <1>   0.0800 
 40 H       -3.0670    -1.8640     1.4740 H     1 <1>   0.0800 
 41 H        4.6510    -1.1340    -0.3480 H     1 <1>   0.0800 
 42 H        5.2250     0.3210     0.4560 H     1 <1>   0.0800 
 43 H        4.7430     0.3840    -1.2290 H     1 <1>   0.0800 
 44 H       -3.4460    -4.1070     2.0930 H     1 <1>   0.1500 
 45 H       -5.8160    -1.1640    -0.9560 H     1 <1>   0.1500 
 46 H       -4.9350    -5.9910     2.2700 H     1 <1>   0.1500 
 47 H       -8.5120    -5.2150    -0.3470 H     1 <1>   0.1500 
 48 H       -7.9470    -1.3900    -2.1210 H     1 <1>   0.1500 
 49 H       -9.3060    -3.4040    -1.8330 H     1 <1>   0.1500 
@<TRIPOS>BOND
  1   1   2  2   
  2   1   3  2   
  3   1   4  am  
  4   1   5  1   
  5   4   6  1   
  6   4  28  1   
  7   5   7  1   
  8   5   8  2   
  9   6   9  1   
 10   6  10  1   
 11   6  29  1   
 12   7  11  2   
 13   7  12  1   
 14   8  13  1   
 15   8  30  1   
 16   9  14  1   
 17   9  15  1   
 18   9  31  1   
 19  10  16  1   
 20  10  32  1   
 21  10  33  1   
 22  11  13  1   
 23  12  34  1   
 24  12  35  1   
 25  12  36  1   
 26  13  17  1   
 27  14  16  1   
 28  14  37  1   
 29  14  38  1   
 30  15  18  1   
 31  15  39  1   
 32  15  40  1   
 33  17  41  1   
 34  17  42  1   
 35  17  43  1   
 36  18  19  ar  
 37  18  20  ar  
 38  19  21  ar  
 39  19  22  ar  
 40  20  23  ar  
 41  20  44  1   
 42  21  24  ar  
 43  21  25  ar  
 44  22  26  ar  
 45  22  45  1   
 46  23  24  ar  
 47  23  46  1   
 48  25  27  ar  
 49  25  47  1   
 50  26  27  ar  
 51  26  48  1   
 52  27  49  1   
@<TRIPOS>SUBSTRUCTURE
  1 ****   9 GROUP 4 **** **** 0

# MOE 2024.06 (io_trps.svl 2023.06)
