@<TRIPOS>MOLECULE
NONAME
60 63 1 0 0 
SMALL
USER_CHARGES


@<TRIPOS>ATOM
  1 O        0.7210    -0.8180    -1.4190 O.2   1 <1>  -0.5700 
  2 C        1.4520    -1.6520    -0.9540 C.2   1 <1>   0.5690 
  3 N        0.9740    -2.6910    -0.2380 N.am  1 <1>  -0.7300 
  4 C        2.9500    -1.5680    -1.1460 C.3   1 <1>  -0.0990 
  5 C        1.8340    -3.7060     0.3990 C.3   1 <1>   0.1400 
  6 C        3.5280    -2.9610    -1.4660 C.3   1 <1>  -0.0800 
  7 C        2.9910    -4.0920    -0.5510 C.3   1 <1>  -0.0800 
  8 C        5.0610    -3.0090    -1.3780 C.3   1 <1>  -0.1600 
  9 C        4.2170    -4.6440     0.1860 C.3   1 <1>  -0.1600 
 10 C        5.3720    -4.3750    -0.7760 C.3   1 <1>   0.4230 
 11 N        6.7450    -4.4880    -0.1910 N.4   1 <1>  -0.9590 
 12 C        6.9740    -3.9970     1.2030 C.3   1 <1>   0.4860 
 13 C        7.2480    -5.8850    -0.3290 C.3   1 <1>   0.2630 
 14 C        6.9910    -2.4830     1.2210 C.ar  1 <1>  -0.1440 
 15 C        7.9560    -1.7830     0.5010 C.ar  1 <1>   0.0820 
 16 C        6.0270    -1.8020     1.9500 C.ar  1 <1>  -0.1500 
 17 O        8.8990    -2.5480    -0.1370 O.3   1 <1>  -0.3620 
 18 C        7.9060    -0.3770     0.4660 C.ar  1 <1>   0.0820 
 19 C        5.9990    -0.4220     1.9420 C.ar  1 <1>  -0.1500 
 20 C       10.2110    -2.0510    -0.3560 C.3   1 <1>   0.1200 
 21 O        8.7940     0.3150    -0.3040 O.3   1 <1>  -0.3630 
 22 C        6.9270     0.2860     1.2010 C.ar  1 <1>  -0.1500 
 23 C       11.1710    -3.2230    -0.5430 C.3   1 <1>   0.0960 
 24 C        8.8350     1.7270    -0.3370 C.3   1 <1>   0.0400 
 25 N       12.5260    -2.7130    -0.8150 N.pl3 1 <1>   0.0480 
 26 C       13.5310    -2.5060     0.0660 C.2   1 <1>   0.0360 
 27 C       13.0320    -2.3380    -2.0040 C.2   1 <1>  -0.3020 
 28 N       14.6110    -2.0380    -0.4690 N.2   1 <1>  -0.5650 
 29 C       14.2990    -1.9310    -1.7740 C.2   1 <1>   0.0770 
 30 H       -0.0370    -2.7240    -0.0790 H     1 <1>   0.3700 
 31 H        3.1690    -0.8810    -1.9430 H     1 <1>   0.0800 
 32 H        3.3730    -1.1770    -0.2380 H     1 <1>   0.0800 
 33 H        2.2180    -3.2890     1.3140 H     1 <1>   0.0800 
 34 H        1.2500    -4.5770     0.6420 H     1 <1>   0.0800 
 35 H        3.2330    -3.2010    -2.4760 H     1 <1>   0.0800 
 36 H        2.6180    -4.8700    -1.1980 H     1 <1>   0.0800 
 37 H        5.4040    -2.2120    -0.7490 H     1 <1>   0.0800 
 38 H        5.5040    -2.9010    -2.3520 H     1 <1>   0.0800 
 39 H        4.1050    -5.6930     0.3970 H     1 <1>   0.0800 
 40 H        4.3390    -4.0940     1.0990 H     1 <1>   0.0800 
 41 H        5.2850    -5.0840    -1.5830 H     1 <1>   0.0800 
 42 H        7.3510    -3.8670    -0.7540 H     1 <1>   0.4500 
 43 H        6.2210    -4.3780     1.8720 H     1 <1>   0.0800 
 44 H        7.9330    -4.3410     1.5530 H     1 <1>   0.0800 
 45 H        6.6500    -6.5590     0.2630 H     1 <1>   0.0800 
 46 H        8.2720    -5.9500     0.0020 H     1 <1>   0.0800 
 47 H        7.2030    -6.1990    -1.3590 H     1 <1>   0.0800 
 48 H        5.2890    -2.3300     2.5290 H     1 <1>   0.1500 
 49 H        5.2520     0.1080     2.5100 H     1 <1>   0.1500 
 50 H       10.1960    -1.4410    -1.2430 H     1 <1>   0.0800 
 51 H       10.5030    -1.4620     0.4970 H     1 <1>   0.0800 
 52 H        6.8610     1.3570     1.2120 H     1 <1>   0.1500 
 53 H       10.8620    -3.8260    -1.3770 H     1 <1>   0.0800 
 54 H       11.2020    -3.8230     0.3470 H     1 <1>   0.0800 
 55 H        9.6370     2.0230    -0.9900 H     1 <1>   0.0800 
 56 H        9.0200     2.0970     0.6560 H     1 <1>   0.0800 
 57 H        7.9000     2.0970    -0.7200 H     1 <1>   0.0800 
 58 H       13.4270    -2.7160     1.1160 H     1 <1>   0.1500 
 59 H       12.4850    -2.3760    -2.9280 H     1 <1>   0.1500 
 60 H       15.0150    -1.5610    -2.4890 H     1 <1>   0.1500 
@<TRIPOS>BOND
  1   1   2  2   
  2   2   3  am  
  3   2   4  1   
  4   3   5  1   
  5   3  30  1   
  6   4   6  1   
  7   4  31  1   
  8   4  32  1   
  9   5   7  1   
 10   5  33  1   
 11   5  34  1   
 12   6   7  1   
 13   6   8  1   
 14   6  35  1   
 15   7   9  1   
 16   7  36  1   
 17   8  10  1   
 18   8  37  1   
 19   8  38  1   
 20   9  10  1   
 21   9  39  1   
 22   9  40  1   
 23  10  11  1   
 24  10  41  1   
 25  11  12  1   
 26  11  13  1   
 27  11  42  1   
 28  12  14  1   
 29  12  43  1   
 30  12  44  1   
 31  13  45  1   
 32  13  46  1   
 33  13  47  1   
 34  14  15  ar  
 35  14  16  ar  
 36  15  17  1   
 37  15  18  ar  
 38  16  19  ar  
 39  16  48  1   
 40  17  20  1   
 41  18  21  1   
 42  18  22  ar  
 43  19  22  ar  
 44  19  49  1   
 45  20  23  1   
 46  20  50  1   
 47  20  51  1   
 48  21  24  1   
 49  22  52  1   
 50  23  25  1   
 51  23  53  1   
 52  23  54  1   
 53  24  55  1   
 54  24  56  1   
 55  24  57  1   
 56  25  26  1   
 57  25  27  1   
 58  26  28  2   
 59  26  58  1   
 60  27  29  2   
 61  27  59  1   
 62  28  29  1   
 63  29  60  1   
@<TRIPOS>SUBSTRUCTURE
  1 ****  15 GROUP 4 **** **** 0

# MOE 2024.06 (io_trps.svl 2023.06)
