@<TRIPOS>MOLECULE
NONAME
45 48 1 0 0 
SMALL
USER_CHARGES


@<TRIPOS>ATOM
  1 O        0.1100     0.0210    -0.2040 O.3   1 <1>  -0.5600 
  2 C        1.2590    -0.5960    -0.7230 C.3   1 <1>   0.3440 
  3 C       -0.0560     1.3390    -0.6360 C.3   1 <1>   0.2950 
  4 C        1.3400    -2.0350    -0.2200 C.ar  1 <1>  -0.1440 
  5 C        2.5160     0.1960    -0.3040 C.3   1 <1>   0.1100 
  6 C       -1.3560     1.8650    -0.0190 C.3   1 <1>  -0.1950 
  7 C        1.1550     2.1960    -0.2130 C.3   1 <1>   0.1100 
  8 C        0.9020    -2.3830     1.0510 C.ar  1 <1>  -0.1500 
  9 C        1.8750    -3.0190    -1.0400 C.ar  1 <1>  -0.1500 
 10 N        2.4290     1.6210    -0.6900 N.3   1 <1>  -0.8100 
 11 C       -2.6840     1.5610    -0.6380 C.3   1 <1>  -0.2000 
 12 C       -2.1360     2.9600    -0.6770 C.3   1 <1>  -0.2000 
 13 C        0.9990    -3.6890     1.4960 C.ar  1 <1>  -0.1500 
 14 C        1.9730    -4.3270    -0.5960 C.ar  1 <1>  -0.1500 
 15 C        3.6290     2.3700    -0.2570 C.3   1 <1>   0.2900 
 16 C        1.5360    -4.6630     0.6730 C.ar  1 <1>  -0.1500 
 17 C        3.6160     3.8430    -0.6680 C.2   1 <1>   0.0070 
 18 N        4.0840     4.2620    -1.8030 N.2   1 <1>  -0.5650 
 19 N        3.1420     4.8450     0.1190 N.pl3 1 <1>   0.0480 
 20 C        3.8950     5.5920    -1.7650 C.2   1 <1>   0.0770 
 21 C        3.3230     5.9650    -0.6010 C.2   1 <1>  -0.3020 
 22 C        2.5550     4.8000     1.4730 C.3   1 <1>   0.0160 
 23 H        1.1760    -0.5970    -1.7960 H     1 <1>   0.0800 
 24 H       -0.1390     1.3350    -1.7090 H     1 <1>   0.0800 
 25 H        3.3750    -0.2490    -0.7760 H     1 <1>   0.0800 
 26 H        2.6370     0.1070     0.7610 H     1 <1>   0.0800 
 27 H       -1.3130     1.8740     1.0560 H     1 <1>   0.1000 
 28 H        1.1660     2.2750     0.8590 H     1 <1>   0.0800 
 29 H        1.0300     3.1810    -0.6300 H     1 <1>   0.0800 
 30 H        0.4780    -1.6320     1.6950 H     1 <1>   0.1500 
 31 H        2.2190    -2.7720    -2.0290 H     1 <1>   0.1500 
 32 H       -2.7070     0.9800    -1.5430 H     1 <1>   0.1000 
 33 H       -3.5100     1.3380     0.0150 H     1 <1>   0.1000 
 34 H       -2.6010     3.7110    -0.0620 H     1 <1>   0.1000 
 35 H       -1.8050     3.3510    -1.6240 H     1 <1>   0.1000 
 36 H        0.6540    -3.9480     2.4820 H     1 <1>   0.1500 
 37 H        2.3880    -5.0840    -1.2380 H     1 <1>   0.1500 
 38 H        3.7490     2.2880     0.8080 H     1 <1>   0.0800 
 39 H        4.4920     1.9180    -0.7150 H     1 <1>   0.0800 
 40 H        1.6100    -5.6790     1.0180 H     1 <1>   0.1500 
 41 H        4.1870     6.2200    -2.5910 H     1 <1>   0.1500 
 42 H        3.0450     6.9450    -0.2610 H     1 <1>   0.1500 
 43 H        2.8360     5.6880     2.0090 H     1 <1>   0.0800 
 44 H        2.9150     3.9400     2.0040 H     1 <1>   0.0800 
 45 H        1.4850     4.7560     1.3920 H     1 <1>   0.0800 
@<TRIPOS>BOND
  1   1   2  1   
  2   1   3  1   
  3   2   4  1   
  4   2   5  1   
  5   2  23  1   
  6   3   6  1   
  7   3   7  1   
  8   3  24  1   
  9   4   8  ar  
 10   4   9  ar  
 11   5  10  1   
 12   5  25  1   
 13   5  26  1   
 14   6  11  1   
 15   6  12  1   
 16   6  27  1   
 17   7  10  1   
 18   7  28  1   
 19   7  29  1   
 20   8  13  ar  
 21   8  30  1   
 22   9  14  ar  
 23   9  31  1   
 24  10  15  1   
 25  11  12  1   
 26  11  32  1   
 27  11  33  1   
 28  12  34  1   
 29  12  35  1   
 30  13  16  ar  
 31  13  36  1   
 32  14  16  ar  
 33  14  37  1   
 34  15  17  1   
 35  15  38  1   
 36  15  39  1   
 37  16  40  1   
 38  17  18  2   
 39  17  19  1   
 40  18  20  1   
 41  19  21  1   
 42  19  22  1   
 43  20  21  2   
 44  20  41  1   
 45  21  42  1   
 46  22  43  1   
 47  22  44  1   
 48  22  45  1   
@<TRIPOS>SUBSTRUCTURE
  1 ****  10 GROUP 4 **** **** 0

# MOE 2024.06 (io_trps.svl 2023.06)
