@<TRIPOS>MOLECULE
NONAME
47 49 1 0 0 
SMALL
USER_CHARGES


@<TRIPOS>ATOM
  1 O       -0.7640    -1.4120    -0.9040 O.3   1 <1>  -0.6800 
  2 C        0.4730    -2.0250    -1.0170 C.3   1 <1>   0.1200 
  3 C        1.2810    -1.8850     0.3070 C.3   1 <1>   0.0000 
  4 C        2.6910    -2.5190     0.1650 C.3   1 <1>   0.4230 
  5 C        1.4870    -0.3840     0.6410 C.3   1 <1>  -0.1600 
  6 C        0.5360    -2.5650     1.4960 C.3   1 <1>  -0.1600 
  7 N        2.6720    -4.0260    -0.0680 N.4   1 <1>  -0.9590 
  8 C        3.5870    -1.7370    -0.8260 C.3   1 <1>   0.1100 
  9 C        2.3920     0.3410    -0.3610 C.3   1 <1>   0.1100 
 10 C        1.0390    -3.9840     1.8180 C.3   1 <1>  -0.1600 
 11 C        1.5010    -4.7220     0.5640 C.3   1 <1>   0.3430 
 12 C        2.8090    -4.4620    -1.4950 C.3   1 <1>   0.2630 
 13 N        3.7100    -0.3260    -0.4250 N.3   1 <1>  -0.8100 
 14 C        4.6110     0.4030    -1.3530 C.3   1 <1>   0.2900 
 15 C        4.9010     1.8160    -0.8770 C.2   1 <1>   0.0060 
 16 N        5.2070     2.0910     0.4080 N.pl3 1 <1>   0.0330 
 17 N        4.8770     2.8620    -1.6390 N.2   1 <1>  -0.5650 
 18 C        5.3900     3.4230     0.4540 C.2   1 <1>  -0.3320 
 19 C        5.1850     3.8730    -0.8040 C.2   1 <1>   0.0770 
 20 C        5.7510     4.1790     1.7190 C.3   1 <1>  -0.0600 
 21 H       -1.2480    -1.4010    -1.7560 H     1 <1>   0.4000 
 22 H        0.2930    -3.0560    -1.2580 H     1 <1>   0.0800 
 23 H        0.9850    -1.5610    -1.8410 H     1 <1>   0.0800 
 24 H        3.1550    -2.3720     1.1270 H     1 <1>   0.0800 
 25 H        1.9370    -0.2770     1.6130 H     1 <1>   0.0800 
 26 H        0.5380     0.1230     0.6820 H     1 <1>   0.0800 
 27 H        0.6370    -1.9760     2.3920 H     1 <1>   0.0800 
 28 H       -0.5210    -2.6060     1.2920 H     1 <1>   0.0800 
 29 H        3.5030    -4.3730     0.4320 H     1 <1>   0.4500 
 30 H        3.1850    -1.7860    -1.8230 H     1 <1>   0.0800 
 31 H        4.5700    -2.1770    -0.8250 H     1 <1>   0.0800 
 32 H        2.5110     1.3610    -0.0340 H     1 <1>   0.0800 
 33 H        1.9360     0.3680    -1.3370 H     1 <1>   0.0800 
 34 H        0.2440    -4.5400     2.2850 H     1 <1>   0.0800 
 35 H        1.8520    -3.9400     2.5230 H     1 <1>   0.0800 
 36 H        0.6770    -4.7570    -0.1310 H     1 <1>   0.0800 
 37 H        1.7670    -5.7370     0.8140 H     1 <1>   0.0800 
 38 H        1.9850    -4.0950    -2.0830 H     1 <1>   0.0800 
 39 H        2.8210    -5.5390    -1.5570 H     1 <1>   0.0800 
 40 H        3.7290    -4.0910    -1.9180 H     1 <1>   0.0800 
 41 H        5.5500    -0.1170    -1.4310 H     1 <1>   0.0800 
 42 H        4.1730     0.4530    -2.3360 H     1 <1>   0.0800 
 43 H        5.2540     1.4090     1.1700 H     1 <1>   0.2700 
 44 H        5.2430     4.8890    -1.1590 H     1 <1>   0.1500 
 45 H        5.8410     5.2300     1.5090 H     1 <1>   0.0800 
 46 H        6.6890     3.8260     2.1080 H     1 <1>   0.0800 
 47 H        4.9870     4.0420     2.4640 H     1 <1>   0.0800 
@<TRIPOS>BOND
  1   1   2  1   
  2   1  21  1   
  3   2   3  1   
  4   2  22  1   
  5   2  23  1   
  6   3   4  1   
  7   3   5  1   
  8   3   6  1   
  9   4   7  1   
 10   4   8  1   
 11   4  24  1   
 12   5   9  1   
 13   5  25  1   
 14   5  26  1   
 15   6  10  1   
 16   6  27  1   
 17   6  28  1   
 18   7  11  1   
 19   7  12  1   
 20   7  29  1   
 21   8  13  1   
 22   8  30  1   
 23   8  31  1   
 24   9  13  1   
 25   9  32  1   
 26   9  33  1   
 27  10  11  1   
 28  10  34  1   
 29  10  35  1   
 30  11  36  1   
 31  11  37  1   
 32  12  38  1   
 33  12  39  1   
 34  12  40  1   
 35  13  14  1   
 36  14  15  1   
 37  14  41  1   
 38  14  42  1   
 39  15  16  1   
 40  15  17  2   
 41  16  18  1   
 42  16  43  1   
 43  17  19  1   
 44  18  19  2   
 45  18  20  1   
 46  19  44  1   
 47  20  45  1   
 48  20  46  1   
 49  20  47  1   
@<TRIPOS>SUBSTRUCTURE
  1 ****  13 GROUP 4 **** **** 0

# MOE 2024.06 (io_trps.svl 2023.06)
