@<TRIPOS>MOLECULE
NONAME
45 46 1 0 0 
SMALL
USER_CHARGES


@<TRIPOS>ATOM
  1 O        0.5080     0.3820     0.5370 O.2   1 <1>  -0.5700 
  2 C        1.4740     1.0800     0.5150 C.2   1 <1>   0.4480 
  3 C        1.3730     2.5800     0.6920 C.3   1 <1>  -0.0990 
  4 C        2.8580     0.5090     0.2660 C.3   1 <1>  -0.0990 
  5 C        2.0850     3.2410    -0.4870 C.3   1 <1>   0.3640 
  6 C        3.5720     1.2870    -0.8440 C.3   1 <1>   0.1400 
  7 N        3.4820     2.7340    -0.5300 N.am  1 <1>  -0.6600 
  8 C        1.9910     4.7680    -0.5660 C.ar  1 <1>  -0.1440 
  9 C        4.5120     3.3400     0.1340 C.2   1 <1>   0.7800 
 10 C        2.0560     5.3680    -1.8170 C.ar  1 <1>  -0.1500 
 11 C        1.8380     5.5800     0.5520 C.ar  1 <1>  -0.1500 
 12 O        4.3390     4.0190     1.1260 O.2   1 <1>  -0.5700 
 13 O        5.7390     3.0860    -0.3250 O.3   1 <1>  -0.4300 
 14 C        1.9590     6.7410    -1.9490 C.ar  1 <1>  -0.1500 
 15 C        1.7420     6.9550     0.4240 C.ar  1 <1>  -0.1500 
 16 C        6.9580     3.5930     0.1730 C.3   1 <1>   0.2800 
 17 C        1.8000     7.5450    -0.8340 C.ar  1 <1>   0.0830 
 18 C        8.0350     3.0170    -0.7470 C.3   1 <1>  -0.2400 
 19 C        7.1970     3.0940     1.6030 C.3   1 <1>  -0.2400 
 20 C        6.9750     5.1240     0.0740 C.3   1 <1>  -0.2400 
 21 O        1.7130     8.8820    -1.0490 O.3   1 <1>  -0.3630 
 22 C        1.6270     9.7900     0.0270 C.3   1 <1>   0.0400 
 23 H        1.8310     2.8650     1.6200 H     1 <1>   0.0800 
 24 H        0.3400     2.8760     0.7070 H     1 <1>   0.0800 
 25 H        2.7760    -0.5260    -0.0100 H     1 <1>   0.0800 
 26 H        3.4310     0.5680     1.1730 H     1 <1>   0.0800 
 27 H        1.5940     2.8800    -1.3750 H     1 <1>   0.0800 
 28 H        3.1030     1.0980    -1.7950 H     1 <1>   0.0800 
 29 H        4.6010     0.9740    -0.9100 H     1 <1>   0.0800 
 30 H        2.1870     4.7660    -2.6990 H     1 <1>   0.1500 
 31 H        1.8080     5.1530     1.5380 H     1 <1>   0.1500 
 32 H        2.0090     7.2000    -2.9200 H     1 <1>   0.1500 
 33 H        1.6280     7.5450     1.3120 H     1 <1>   0.1500 
 34 H        8.0230     1.9430    -0.7100 H     1 <1>   0.0800 
 35 H        9.0080     3.3570    -0.4420 H     1 <1>   0.0800 
 36 H        7.8670     3.3360    -1.7600 H     1 <1>   0.0800 
 37 H        7.1060     2.0240     1.6470 H     1 <1>   0.0800 
 38 H        6.5000     3.5370     2.2900 H     1 <1>   0.0800 
 39 H        8.1850     3.3670     1.9250 H     1 <1>   0.0800 
 40 H        6.7300     5.4360    -0.9250 H     1 <1>   0.0800 
 41 H        7.9520     5.4970     0.3190 H     1 <1>   0.0800 
 42 H        6.2770     5.5660     0.7620 H     1 <1>   0.0800 
 43 H        1.5980    10.7850    -0.3780 H     1 <1>   0.0800 
 44 H        2.4960     9.6730     0.6510 H     1 <1>   0.0800 
 45 H        0.7250     9.5930     0.5780 H     1 <1>   0.0800 
@<TRIPOS>BOND
  1   1   2  2   
  2   2   3  1   
  3   2   4  1   
  4   3   5  1   
  5   3  23  1   
  6   3  24  1   
  7   4   6  1   
  8   4  25  1   
  9   4  26  1   
 10   5   7  1   
 11   5   8  1   
 12   5  27  1   
 13   6   7  1   
 14   6  28  1   
 15   6  29  1   
 16   7   9  am  
 17   8  10  ar  
 18   8  11  ar  
 19   9  12  2   
 20   9  13  1   
 21  10  14  ar  
 22  10  30  1   
 23  11  15  ar  
 24  11  31  1   
 25  13  16  1   
 26  14  17  ar  
 27  14  32  1   
 28  15  17  ar  
 29  15  33  1   
 30  16  18  1   
 31  16  19  1   
 32  16  20  1   
 33  17  21  1   
 34  18  34  1   
 35  18  35  1   
 36  18  36  1   
 37  19  37  1   
 38  19  38  1   
 39  19  39  1   
 40  20  40  1   
 41  20  41  1   
 42  20  42  1   
 43  21  22  1   
 44  22  43  1   
 45  22  44  1   
 46  22  45  1   
@<TRIPOS>SUBSTRUCTURE
  1 ****   9 GROUP 4 **** **** 0

# MOE 2024.06 (io_trps.svl 2023.06)
