@<TRIPOS>MOLECULE
NONAME
47 49 1 0 0 
SMALL
USER_CHARGES


@<TRIPOS>ATOM
  1 CL      -2.2400    -1.0810     2.1430 Cl    1 <1>  -0.1770 
  2 C       -2.6860     0.3240     1.2140 C.ar  1 <1>   0.1770 
  3 C       -3.7210     0.2270     0.3010 C.ar  1 <1>  -0.1500 
  4 C       -2.0030     1.5100     1.4030 C.ar  1 <1>  -0.1500 
  5 C       -4.0870     1.3420    -0.4410 C.ar  1 <1>  -0.1440 
  6 C       -2.3630     2.6200     0.6590 C.ar  1 <1>  -0.1500 
  7 C       -3.3980     2.5350    -0.2580 C.ar  1 <1>  -0.1500 
  8 C       -5.2260     1.2590    -1.4410 C.3   1 <1>   0.4870 
  9 N       -6.5180     1.2110    -0.7070 N.4   1 <1>  -0.9590 
 10 C       -7.6480     0.9320    -1.6380 C.3   1 <1>   0.3430 
 11 C       -6.7550     2.4680     0.0630 C.3   1 <1>   0.3430 
 12 C       -8.9460     0.7820    -0.8530 C.3   1 <1>  -0.1600 
 13 C       -8.0400     2.3430     0.8750 C.3   1 <1>  -0.1600 
 14 C       -9.2450     2.0450    -0.0280 C.3   1 <1>   0.2800 
 15 O       -9.2950     3.1010    -0.9600 O.3   1 <1>  -0.5600 
 16 C      -10.5430     1.9300     0.8290 C.3   1 <1>   0.2000 
 17 C      -10.4590     3.8780    -1.0500 C.3   1 <1>   0.1200 
 18 O      -10.5260     0.7710     1.6130 O.3   1 <1>  -0.6800 
 19 C      -11.8640     2.0630     0.0110 C.3   1 <1>   0.2800 
 20 C      -11.6650     2.9540    -1.2260 C.3   1 <1>  -0.1600 
 21 O      -12.7650     2.7050     0.8360 O.3   1 <1>  -0.6800 
 22 C      -12.5470     0.7430    -0.3770 C.3   1 <1>  -0.2400 
 23 H       -4.2150    -0.7220     0.1870 H     1 <1>   0.1500 
 24 H       -1.2010     1.5580     2.1190 H     1 <1>   0.1500 
 25 H       -1.8320     3.5490     0.7950 H     1 <1>   0.1500 
 26 H       -3.6540     3.4140    -0.8280 H     1 <1>   0.1500 
 27 H       -5.1060     0.3700    -2.0390 H     1 <1>   0.0800 
 28 H       -5.2030     2.1150    -2.0970 H     1 <1>   0.0800 
 29 H       -6.4560     0.4460    -0.0250 H     1 <1>   0.4500 
 30 H       -7.7540     1.7470    -2.3360 H     1 <1>   0.0800 
 31 H       -7.4590     0.0270    -2.1930 H     1 <1>   0.0800 
 32 H       -5.9290     2.6590     0.7290 H     1 <1>   0.0800 
 33 H       -6.8480     3.3010    -0.6170 H     1 <1>   0.0800 
 34 H       -8.8800    -0.0790    -0.2120 H     1 <1>   0.0800 
 35 H       -9.7460     0.6060    -1.5460 H     1 <1>   0.0800 
 36 H       -8.2110     3.2620     1.4060 H     1 <1>   0.0800 
 37 H       -7.9260     1.5660     1.6100 H     1 <1>   0.0800 
 38 H      -10.5180     2.7510     1.5260 H     1 <1>   0.0800 
 39 H      -10.5500     4.4800    -0.1610 H     1 <1>   0.0800 
 40 H      -10.3540     4.5290    -1.9010 H     1 <1>   0.0800 
 41 H      -11.3380     0.7580     2.1620 H     1 <1>   0.4000 
 42 H      -11.4830     2.3480    -2.0970 H     1 <1>   0.0800 
 43 H      -12.5480     3.5360    -1.4230 H     1 <1>   0.0800 
 44 H      -13.6450     2.7260     0.4130 H     1 <1>   0.4000 
 45 H      -11.8860     0.1310    -0.9590 H     1 <1>   0.0800 
 46 H      -13.4280     0.9300    -0.9660 H     1 <1>   0.0800 
 47 H      -12.8290     0.1840     0.4970 H     1 <1>   0.0800 
@<TRIPOS>BOND
  1   1   2  1   
  2   2   3  ar  
  3   2   4  ar  
  4   3   5  ar  
  5   3  23  1   
  6   4   6  ar  
  7   4  24  1   
  8   5   7  ar  
  9   5   8  1   
 10   6   7  ar  
 11   6  25  1   
 12   7  26  1   
 13   8   9  1   
 14   8  27  1   
 15   8  28  1   
 16   9  10  1   
 17   9  11  1   
 18   9  29  1   
 19  10  12  1   
 20  10  30  1   
 21  10  31  1   
 22  11  13  1   
 23  11  32  1   
 24  11  33  1   
 25  12  14  1   
 26  12  34  1   
 27  12  35  1   
 28  13  14  1   
 29  13  36  1   
 30  13  37  1   
 31  14  15  1   
 32  14  16  1   
 33  15  17  1   
 34  16  18  1   
 35  16  19  1   
 36  16  38  1   
 37  17  20  1   
 38  17  39  1   
 39  17  40  1   
 40  18  41  1   
 41  19  20  1   
 42  19  21  1   
 43  19  22  1   
 44  20  42  1   
 45  20  43  1   
 46  21  44  1   
 47  22  45  1   
 48  22  46  1   
 49  22  47  1   
@<TRIPOS>SUBSTRUCTURE
  1 ****  11 GROUP 4 **** **** 0

# MOE 2024.06 (io_trps.svl 2023.06)
