@<TRIPOS>MOLECULE
NONAME
55 57 1 0 0 
SMALL
USER_CHARGES


@<TRIPOS>ATOM
  1 O       -2.2160     4.6460    -1.0770 O.2   1 <1>  -0.5700 
  2 C       -1.5110     3.9800    -0.3520 C.2   1 <1>   0.6900 
  3 N       -1.9090     3.4270     0.8270 N.am  1 <1>  -0.4200 
  4 N       -0.2220     3.6990    -0.6180 N.am  1 <1>  -0.7300 
  5 C       -0.8540     2.7950     1.4110 C.2   1 <1>   0.5690 
  6 C       -3.2970     3.4590     1.3630 C.3   1 <1>   0.2010 
  7 C        0.3730     2.9410     0.4890 C.3   1 <1>   0.3610 
  8 O       -0.8690     2.2220     2.4730 O.2   1 <1>  -0.5700 
  9 C       -3.9680     2.0840     1.3690 C.2   1 <1>   0.5690 
 10 C        0.8810     1.6030    -0.0510 C.3   1 <1>  -0.2400 
 11 C        1.4990     3.7720     1.1080 C.3   1 <1>  -0.2400 
 12 O       -4.3780     1.6790     2.4320 O.2   1 <1>  -0.5700 
 13 N       -4.1200     1.3350     0.2230 N.am  1 <1>  -0.6600 
 14 C       -4.5010    -0.1050     0.3440 C.3   1 <1>   0.1400 
 15 C       -3.9580     1.8790    -1.1580 C.3   1 <1>   0.1400 
 16 C       -6.0250    -0.2900     0.3630 C.3   1 <1>   0.1400 
 17 C       -4.9980     1.3600    -2.1590 C.3   1 <1>  -0.1600 
 18 N       -6.6460    -0.0650    -0.9820 N.am  1 <1>  -0.6600 
 19 C       -6.4170     1.2750    -1.5900 C.3   1 <1>   0.1400 
 20 C       -7.3840    -1.0290    -1.6540 C.2   1 <1>   0.5440 
 21 O       -7.4980    -0.9060    -2.8640 O.2   1 <1>  -0.5700 
 22 C       -8.0070    -2.1910    -1.0100 C.ar  1 <1>   0.3960 
 23 N       -8.5270    -2.1160     0.2180 N.ar  1 <1>  -0.6200 
 24 C       -8.0720    -3.3920    -1.6920 C.ar  1 <1>  -0.1500 
 25 C       -9.0680    -3.2130     0.7040 C.ar  1 <1>   0.4770 
 26 C       -8.6570    -4.4740    -1.0860 C.ar  1 <1>   0.1670 
 27 N       -9.1580    -4.3940     0.1230 N.ar  1 <1>  -0.6200 
 28 C       -9.6530    -3.1190     2.0920 C.3   1 <1>  -0.0970 
 29 C       -8.7570    -5.8140    -1.7840 C.3   1 <1>  -0.0970 
 30 H        0.3210     4.1940    -1.3240 H     1 <1>   0.3700 
 31 H       -3.8960     4.1410     0.7910 H     1 <1>   0.0800 
 32 H       -3.2600     3.8200     2.3750 H     1 <1>   0.0800 
 33 H        0.0770     1.0580    -0.5140 H     1 <1>   0.0800 
 34 H        1.2650     1.0090     0.7600 H     1 <1>   0.0800 
 35 H        1.6670     1.7550    -0.7670 H     1 <1>   0.0800 
 36 H        1.1250     4.7240     1.4400 H     1 <1>   0.0800 
 37 H        2.2920     3.9270     0.4000 H     1 <1>   0.0800 
 38 H        1.9000     3.2540     1.9620 H     1 <1>   0.0800 
 39 H       -4.1020    -0.4920     1.2660 H     1 <1>   0.0800 
 40 H       -4.0680    -0.6770    -0.4570 H     1 <1>   0.0800 
 41 H       -2.9690     1.6500    -1.5170 H     1 <1>   0.0800 
 42 H       -4.0580     2.9490    -1.1270 H     1 <1>   0.0800 
 43 H       -6.4640     0.3790     1.0830 H     1 <1>   0.0800 
 44 H       -6.2160    -1.2930     0.6930 H     1 <1>   0.0800 
 45 H       -4.7030     0.4030    -2.5510 H     1 <1>   0.0800 
 46 H       -5.0090     2.0410    -2.9900 H     1 <1>   0.0800 
 47 H       -7.1260     1.4310    -2.3860 H     1 <1>   0.0800 
 48 H       -6.5830     2.0440    -0.8550 H     1 <1>   0.0800 
 49 H       -7.6690    -3.4630    -2.6850 H     1 <1>   0.1500 
 50 H       -9.6350    -2.1050     2.4440 H     1 <1>   0.0800 
 51 H       -9.0840    -3.7350     2.7610 H     1 <1>   0.0800 
 52 H      -10.6700    -3.4640     2.0750 H     1 <1>   0.0800 
 53 H       -8.3230    -5.7720    -2.7650 H     1 <1>   0.0800 
 54 H       -9.7900    -6.0970    -1.8710 H     1 <1>   0.0800 
 55 H       -8.2420    -6.5590    -1.2060 H     1 <1>   0.0800 
@<TRIPOS>BOND
  1   1   2  2   
  2   2   3  am  
  3   2   4  am  
  4   3   5  am  
  5   3   6  1   
  6   4   7  1   
  7   4  30  1   
  8   5   7  1   
  9   5   8  2   
 10   6   9  1   
 11   6  31  1   
 12   6  32  1   
 13   7  10  1   
 14   7  11  1   
 15   9  12  2   
 16   9  13  am  
 17  10  33  1   
 18  10  34  1   
 19  10  35  1   
 20  11  36  1   
 21  11  37  1   
 22  11  38  1   
 23  13  14  1   
 24  13  15  1   
 25  14  16  1   
 26  14  39  1   
 27  14  40  1   
 28  15  17  1   
 29  15  41  1   
 30  15  42  1   
 31  16  18  1   
 32  16  43  1   
 33  16  44  1   
 34  17  19  1   
 35  17  45  1   
 36  17  46  1   
 37  18  19  1   
 38  18  20  am  
 39  19  47  1   
 40  19  48  1   
 41  20  21  2   
 42  20  22  1   
 43  22  23  ar  
 44  22  24  ar  
 45  23  25  ar  
 46  24  26  ar  
 47  24  49  1   
 48  25  27  ar  
 49  25  28  1   
 50  26  27  ar  
 51  26  29  1   
 52  28  50  1   
 53  28  51  1   
 54  28  52  1   
 55  29  53  1   
 56  29  54  1   
 57  29  55  1   
@<TRIPOS>SUBSTRUCTURE
  1 ****  14 GROUP 4 **** **** 0

# MOE 2024.06 (io_trps.svl 2023.06)
