@<TRIPOS>MOLECULE
NONAME
38 39 1 0 0 
SMALL
USER_CHARGES


@<TRIPOS>ATOM
  1 CL      -3.1170    -2.1210     4.3150 Cl    1 <1>  -0.1770 
  2 C       -3.0630    -2.1240     2.5700 C.ar  1 <1>   0.1770 
  3 C       -2.7280    -0.9800     1.8650 C.ar  1 <1>   0.1770 
  4 C       -3.3670    -3.2970     1.9000 C.ar  1 <1>  -0.1500 
  5 CL      -2.3480     0.5080     2.6980 Cl    1 <1>  -0.1770 
  6 C       -2.6920    -1.0010     0.4830 C.ar  1 <1>  -0.1500 
  7 C       -3.3450    -3.3230     0.5100 C.ar  1 <1>  -0.1440 
  8 C       -2.9980    -2.1730    -0.1920 C.ar  1 <1>  -0.1500 
  9 C       -3.6930    -4.6050    -0.2250 C.3   1 <1>   0.4870 
 10 N       -5.1780    -4.7420    -0.2530 N.4   1 <1>  -0.9590 
 11 C       -5.5840    -6.1400    -0.5350 C.3   1 <1>   0.5230 
 12 C       -5.8050    -3.7520    -1.1880 C.3   1 <1>   0.3430 
 13 C       -5.0880    -6.9890     0.6070 C.2   1 <1>  -0.3320 
 14 C       -7.3160    -3.5860    -0.9630 C.3   1 <1>   0.1200 
 15 N       -4.4360    -8.1660     0.4680 N.pl3 1 <1>   0.0480 
 16 C       -5.1860    -6.7620     1.9380 C.2   1 <1>   0.0770 
 17 O       -7.7860    -2.7430    -1.9510 O.3   1 <1>  -0.6800 
 18 C       -4.1640    -8.5540     1.7330 C.2   1 <1>   0.0360 
 19 C       -4.1000    -8.9180    -0.7590 C.3   1 <1>   0.0160 
 20 N       -4.5890    -7.7350     2.6360 N.2   1 <1>  -0.5650 
 21 H       -3.6090    -4.1710     2.4810 H     1 <1>   0.1500 
 22 H       -2.4240    -0.1060    -0.0520 H     1 <1>   0.1500 
 23 H       -2.9580    -2.1710    -1.2700 H     1 <1>   0.1500 
 24 H       -3.2480    -5.4350     0.3020 H     1 <1>   0.0800 
 25 H       -3.2950    -4.5850    -1.2270 H     1 <1>   0.0800 
 26 H       -5.4850    -4.5280     0.7030 H     1 <1>   0.4500 
 27 H       -5.1560    -6.4700    -1.4680 H     1 <1>   0.0800 
 28 H       -6.6570    -6.2210    -0.6000 H     1 <1>   0.0800 
 29 H       -5.6370    -4.0570    -2.2080 H     1 <1>   0.0800 
 30 H       -5.3510    -2.7850    -1.0480 H     1 <1>   0.0800 
 31 H       -7.5170    -3.1300    -0.0090 H     1 <1>   0.0800 
 32 H       -7.8420    -4.5200    -1.0540 H     1 <1>   0.0800 
 33 H       -5.6570    -5.9440     2.4600 H     1 <1>   0.1500 
 34 H       -8.7420    -2.5450    -1.8410 H     1 <1>   0.4000 
 35 H       -3.6400    -9.4690     1.9540 H     1 <1>   0.1500 
 36 H       -4.9980    -9.1340    -1.3080 H     1 <1>   0.0800 
 37 H       -3.6230    -9.8450    -0.4920 H     1 <1>   0.0800 
 38 H       -3.4270    -8.3420    -1.3670 H     1 <1>   0.0800 
@<TRIPOS>BOND
  1   1   2  1   
  2   2   3  ar  
  3   2   4  ar  
  4   3   5  1   
  5   3   6  ar  
  6   4   7  ar  
  7   4  21  1   
  8   6   8  ar  
  9   6  22  1   
 10   7   8  ar  
 11   7   9  1   
 12   8  23  1   
 13   9  10  1   
 14   9  24  1   
 15   9  25  1   
 16  10  11  1   
 17  10  12  1   
 18  10  26  1   
 19  11  13  1   
 20  11  27  1   
 21  11  28  1   
 22  12  14  1   
 23  12  29  1   
 24  12  30  1   
 25  13  15  1   
 26  13  16  2   
 27  14  17  1   
 28  14  31  1   
 29  14  32  1   
 30  15  18  1   
 31  15  19  1   
 32  16  20  1   
 33  16  33  1   
 34  17  34  1   
 35  18  20  2   
 36  18  35  1   
 37  19  36  1   
 38  19  37  1   
 39  19  38  1   
@<TRIPOS>SUBSTRUCTURE
  1 ****   9 GROUP 4 **** **** 0

# MOE 2024.06 (io_trps.svl 2023.06)
