@<TRIPOS>MOLECULE
NONAME
45 45 1 0 0 
SMALL
USER_CHARGES


@<TRIPOS>ATOM
  1 N       -1.0700    -0.6370     0.3640 N.ar  1 <1>  -0.6200 
  2 C       -1.7230     0.4460     0.7340 C.ar  1 <1>   0.4100 
  3 C        0.0100    -0.4370    -0.3660 C.ar  1 <1>   0.4760 
  4 N       -2.8580     0.2630     1.4880 N.pl3 1 <1>  -0.8690 
  5 C       -1.3020     1.7130     0.3520 C.ar  1 <1>  -0.1430 
  6 N        0.4940     0.7090    -0.7970 N.ar  1 <1>  -0.6200 
  7 C        0.7900    -1.6650    -0.7700 C.3   1 <1>  -0.0970 
  8 C       -3.0040    -0.8340     2.4720 C.3   1 <1>   0.2090 
  9 C       -0.1750     1.7800    -0.4250 C.ar  1 <1>   0.1600 
 10 C       -2.0300     2.9910     0.7590 C.3   1 <1>  -0.0170 
 11 C       -4.0180    -1.8690     1.9760 C.3   1 <1>  -0.1600 
 12 C       -3.2500     3.2390    -0.1360 C.3   1 <1>  -0.1600 
 13 C       -3.4610    -2.7170     0.8130 C.3   1 <1>   0.4230 
 14 C       -3.9950     4.5130     0.2740 C.3   1 <1>  -0.2400 
 15 N       -4.2350    -2.4970    -0.4530 N.4   1 <1>  -0.9590 
 16 C       -3.5030    -4.2030     1.1890 C.3   1 <1>  -0.2400 
 17 C       -3.7560    -3.3490    -1.5850 C.3   1 <1>   0.2630 
 18 C       -4.1520    -1.0690    -0.8950 C.3   1 <1>   0.2630 
 19 H       -3.2840     1.1370     1.8110 H     1 <1>   0.4000 
 20 H        0.4320    -2.5340    -0.2510 H     1 <1>   0.0800 
 21 H        1.8280    -1.5220    -0.5310 H     1 <1>   0.0800 
 22 H        0.6950    -1.8170    -1.8280 H     1 <1>   0.0800 
 23 H       -3.3460    -0.4150     3.4040 H     1 <1>   0.0800 
 24 H       -2.0490    -1.3000     2.6580 H     1 <1>   0.0800 
 25 H        0.2010     2.7340    -0.7580 H     1 <1>   0.1500 
 26 H       -1.3580     3.8280     0.6790 H     1 <1>   0.0800 
 27 H       -2.3300     2.9270     1.7900 H     1 <1>   0.0800 
 28 H       -4.9430    -1.3860     1.7240 H     1 <1>   0.0800 
 29 H       -4.2290    -2.5060     2.8160 H     1 <1>   0.0800 
 30 H       -3.9240     2.4020    -0.0770 H     1 <1>   0.0800 
 31 H       -2.9280     3.3320    -1.1590 H     1 <1>   0.0800 
 32 H       -2.4320    -2.4450     0.6490 H     1 <1>   0.0800 
 33 H       -4.3480     4.4390     1.2880 H     1 <1>   0.0800 
 34 H       -4.8430     4.6670    -0.3710 H     1 <1>   0.0800 
 35 H       -3.3500     5.3700     0.1940 H     1 <1>   0.0800 
 36 H       -5.2180    -2.7230    -0.2540 H     1 <1>   0.4500 
 37 H       -4.5160    -4.5510     1.2830 H     1 <1>   0.0800 
 38 H       -3.0090    -4.3490     2.1340 H     1 <1>   0.0800 
 39 H       -2.9740    -4.8060     0.4750 H     1 <1>   0.0800 
 40 H       -2.7060    -3.1770    -1.7600 H     1 <1>   0.0800 
 41 H       -4.2980    -3.1130    -2.4860 H     1 <1>   0.0800 
 42 H       -3.9050    -4.3930    -1.3650 H     1 <1>   0.0800 
 43 H       -3.1250    -0.7930    -1.0700 H     1 <1>   0.0800 
 44 H       -4.5520    -0.4130    -0.1390 H     1 <1>   0.0800 
 45 H       -4.7100    -0.9210    -1.8050 H     1 <1>   0.0800 
@<TRIPOS>BOND
  1   1   2  ar  
  2   1   3  ar  
  3   2   4  1   
  4   2   5  ar  
  5   3   6  ar  
  6   3   7  1   
  7   4   8  1   
  8   4  19  1   
  9   5   9  ar  
 10   5  10  1   
 11   6   9  ar  
 12   7  20  1   
 13   7  21  1   
 14   7  22  1   
 15   8  11  1   
 16   8  23  1   
 17   8  24  1   
 18   9  25  1   
 19  10  12  1   
 20  10  26  1   
 21  10  27  1   
 22  11  13  1   
 23  11  28  1   
 24  11  29  1   
 25  12  14  1   
 26  12  30  1   
 27  12  31  1   
 28  13  15  1   
 29  13  16  1   
 30  13  32  1   
 31  14  33  1   
 32  14  34  1   
 33  14  35  1   
 34  15  17  1   
 35  15  18  1   
 36  15  36  1   
 37  16  37  1   
 38  16  38  1   
 39  16  39  1   
 40  17  40  1   
 41  17  41  1   
 42  17  42  1   
 43  18  43  1   
 44  18  44  1   
 45  18  45  1   
@<TRIPOS>SUBSTRUCTURE
  1 ****   2 GROUP 4 **** **** 0

# MOE 2024.06 (io_trps.svl 2023.06)
