@<TRIPOS>MOLECULE
NONAME
45 47 1 0 0 
SMALL
USER_CHARGES


@<TRIPOS>ATOM
  1 CL      -2.2940     0.5990    -0.3870 Cl    1 <1>  -0.1770 
  2 C       -1.1760     1.8640     0.0690 C.ar  1 <1>   0.1770 
  3 C       -1.5920     2.8770     0.9210 C.ar  1 <1>  -0.1440 
  4 C        0.1060     1.8310    -0.4450 C.ar  1 <1>  -0.1500 
  5 C       -0.6880     3.8740     1.2610 C.ar  1 <1>  -0.1500 
  6 C       -3.0050     2.8890     1.4700 C.3   1 <1>   0.4870 
  7 C        0.9980     2.8320    -0.1020 C.ar  1 <1>  -0.1500 
  8 C        0.6000     3.8500     0.7490 C.ar  1 <1>  -0.1500 
  9 N       -3.9570     3.1460     0.3600 N.4   1 <1>  -0.9590 
 10 C       -5.3690     2.9280     0.8010 C.3   1 <1>   0.3430 
 11 C       -3.7710     4.4910    -0.2560 C.3   1 <1>   0.3430 
 12 C       -6.3510     3.0300    -0.3860 C.3   1 <1>   0.0000 
 13 C       -4.6960     4.6360    -1.4670 C.3   1 <1>  -0.1600 
 14 C       -7.7870     2.8460     0.1300 C.3   1 <1>   0.2000 
 15 C       -6.1670     4.3860    -1.0980 C.3   1 <1>  -0.1600 
 16 C       -6.1850     1.8330    -1.3380 C.3   1 <1>  -0.1600 
 17 O       -7.9140     3.4240     1.3950 O.3   1 <1>  -0.5600 
 18 C       -8.0260     1.3320     0.1910 C.3   1 <1>  -0.1600 
 19 C       -6.9290     0.6810    -0.6620 C.3   1 <1>  -0.1600 
 20 C       -9.2300     3.6250     1.8140 C.3   1 <1>   0.0400 
 21 H        0.4040     1.0330    -1.1030 H     1 <1>   0.1500 
 22 H       -0.9670     4.6750     1.9250 H     1 <1>   0.1500 
 23 H       -3.1020     3.6490     2.2270 H     1 <1>   0.0800 
 24 H       -3.2150     1.9310     1.9190 H     1 <1>   0.0800 
 25 H        2.0020     2.8190    -0.4950 H     1 <1>   0.1500 
 26 H        1.3010     4.6250     1.0140 H     1 <1>   0.1500 
 27 H       -3.7540     2.4440    -0.3640 H     1 <1>   0.4500 
 28 H       -5.4730     1.9580     1.2580 H     1 <1>   0.0800 
 29 H       -5.6350     3.6710     1.5360 H     1 <1>   0.0800 
 30 H       -4.0020     5.2570     0.4660 H     1 <1>   0.0800 
 31 H       -2.7470     4.6170    -0.5710 H     1 <1>   0.0800 
 32 H       -4.5950     5.6310    -1.8630 H     1 <1>   0.0800 
 33 H       -4.3840     3.9530    -2.2380 H     1 <1>   0.0800 
 34 H       -8.4840     3.3090    -0.5500 H     1 <1>   0.0800 
 35 H       -6.7770     4.4290    -1.9850 H     1 <1>   0.0800 
 36 H       -6.5010     5.1720    -0.4410 H     1 <1>   0.0800 
 37 H       -6.6740     2.0480    -2.2740 H     1 <1>   0.0800 
 38 H       -5.1610     1.5780    -1.5460 H     1 <1>   0.0800 
 39 H       -7.9680     0.9690     1.2030 H     1 <1>   0.0800 
 40 H       -8.9960     1.1010    -0.2120 H     1 <1>   0.0800 
 41 H       -6.2560     0.1280    -0.0270 H     1 <1>   0.0800 
 42 H       -7.3440     0.0030    -1.3900 H     1 <1>   0.0800 
 43 H       -9.2070     4.0740     2.7910 H     1 <1>   0.0800 
 44 H       -9.7430     2.6790     1.8650 H     1 <1>   0.0800 
 45 H       -9.7270     4.2860     1.1250 H     1 <1>   0.0800 
@<TRIPOS>BOND
  1   1   2  1   
  2   2   3  ar  
  3   2   4  ar  
  4   3   5  ar  
  5   3   6  1   
  6   4   7  ar  
  7   4  21  1   
  8   5   8  ar  
  9   5  22  1   
 10   6   9  1   
 11   6  23  1   
 12   6  24  1   
 13   7   8  ar  
 14   7  25  1   
 15   8  26  1   
 16   9  10  1   
 17   9  11  1   
 18   9  27  1   
 19  10  12  1   
 20  10  28  1   
 21  10  29  1   
 22  11  13  1   
 23  11  30  1   
 24  11  31  1   
 25  12  14  1   
 26  12  15  1   
 27  12  16  1   
 28  13  15  1   
 29  13  32  1   
 30  13  33  1   
 31  14  17  1   
 32  14  18  1   
 33  14  34  1   
 34  15  35  1   
 35  15  36  1   
 36  16  19  1   
 37  16  37  1   
 38  16  38  1   
 39  17  20  1   
 40  18  19  1   
 41  18  39  1   
 42  18  40  1   
 43  19  41  1   
 44  19  42  1   
 45  20  43  1   
 46  20  44  1   
 47  20  45  1   
@<TRIPOS>SUBSTRUCTURE
  1 ****   9 GROUP 4 **** **** 0

# MOE 2024.06 (io_trps.svl 2023.06)
