@<TRIPOS>MOLECULE
NONAME
45 47 1 0 0 
SMALL
USER_CHARGES


@<TRIPOS>ATOM
  1 CL       0.9150     0.9710    -0.4360 Cl    1 <1>  -0.1770 
  2 C        2.0810    -0.2280     0.0690 C.ar  1 <1>   0.1770 
  3 C        3.1420     0.1480     0.8720 C.ar  1 <1>  -0.1440 
  4 C        1.9250    -1.5280    -0.3680 C.ar  1 <1>  -0.1500 
  5 C        4.0630    -0.8190     1.2410 C.ar  1 <1>  -0.1500 
  6 C        3.3020     1.5830     1.3310 C.3   1 <1>   0.4870 
  7 C        2.8540    -2.5000    -0.0060 C.ar  1 <1>   0.0830 
  8 C        3.9360    -2.1330     0.8180 C.ar  1 <1>   0.0830 
  9 N        4.4410     2.1960     0.5970 N.4   1 <1>  -0.9590 
 10 O        2.7340    -3.7830    -0.4510 O.3   1 <1>  -0.3620 
 11 O        4.9280    -2.9510     1.2700 O.3   1 <1>  -0.3620 
 12 C        4.9230     3.4690     1.2460 C.3   1 <1>   0.3430 
 13 C        4.2050     2.2550    -0.8870 C.3   1 <1>   0.3430 
 14 C        1.6300    -4.2280    -1.2110 C.3   1 <1>   0.0400 
 15 C        4.7990    -4.3560     1.3220 C.3   1 <1>   0.0400 
 16 C        6.2690     4.0250     0.6980 C.3   1 <1>   0.2200 
 17 C        5.4740     2.5080    -1.7150 C.3   1 <1>  -0.0190 
 18 N        6.0700     4.6430    -0.6330 N.am  1 <1>  -0.7300 
 19 C        7.4000     2.9680     0.6380 C.3   1 <1>   0.1200 
 20 C        5.7280     3.9900    -1.7570 C.2   1 <1>   0.5690 
 21 C        6.7410     1.7240    -1.3050 C.3   1 <1>   0.1200 
 22 O        6.9820     1.7490     0.0780 O.3   1 <1>  -0.5600 
 23 O        5.5940     4.5870    -2.7890 O.2   1 <1>  -0.5700 
 24 H        1.0800    -1.7510    -0.9910 H     1 <1>   0.1500 
 25 H        4.9030    -0.5770     1.8690 H     1 <1>   0.1500 
 26 H        3.5010     1.5890     2.3900 H     1 <1>   0.0800 
 27 H        2.3990     2.1440     1.1540 H     1 <1>   0.0800 
 28 H        5.2470     1.5430     0.6810 H     1 <1>   0.4500 
 29 H        4.1710     4.2350     1.1500 H     1 <1>   0.0800 
 30 H        5.0600     3.2810     2.2980 H     1 <1>   0.0800 
 31 H        3.7980     1.3110    -1.2100 H     1 <1>   0.0800 
 32 H        3.4730     3.0140    -1.1140 H     1 <1>   0.0800 
 33 H        1.7560    -5.2790    -1.3970 H     1 <1>   0.0800 
 34 H        1.6080    -3.6950    -2.1450 H     1 <1>   0.0800 
 35 H        0.7280    -4.0640    -0.6490 H     1 <1>   0.0800 
 36 H        5.5990    -4.7440     1.9260 H     1 <1>   0.0800 
 37 H        4.8740    -4.7500     0.3240 H     1 <1>   0.0800 
 38 H        3.8500    -4.6070     1.7630 H     1 <1>   0.0800 
 39 H        6.5940     4.8110     1.3590 H     1 <1>   0.0800 
 40 H        5.2470     2.2220    -2.7260 H     1 <1>   0.0800 
 41 H        6.2820     5.6420    -0.7420 H     1 <1>   0.3700 
 42 H        7.7300     2.7470     1.6390 H     1 <1>   0.0800 
 43 H        8.2480     3.3390     0.0860 H     1 <1>   0.0800 
 44 H        7.6110     2.1040    -1.8160 H     1 <1>   0.0800 
 45 H        6.6240     0.6890    -1.5790 H     1 <1>   0.0800 
@<TRIPOS>BOND
  1   1   2  1   
  2   2   3  ar  
  3   2   4  ar  
  4   3   5  ar  
  5   3   6  1   
  6   4   7  ar  
  7   4  24  1   
  8   5   8  ar  
  9   5  25  1   
 10   6   9  1   
 11   6  26  1   
 12   6  27  1   
 13   7   8  ar  
 14   7  10  1   
 15   8  11  1   
 16   9  12  1   
 17   9  13  1   
 18   9  28  1   
 19  10  14  1   
 20  11  15  1   
 21  12  16  1   
 22  12  29  1   
 23  12  30  1   
 24  13  17  1   
 25  13  31  1   
 26  13  32  1   
 27  14  33  1   
 28  14  34  1   
 29  14  35  1   
 30  15  36  1   
 31  15  37  1   
 32  15  38  1   
 33  16  18  1   
 34  16  19  1   
 35  16  39  1   
 36  17  20  1   
 37  17  21  1   
 38  17  40  1   
 39  18  20  am  
 40  18  41  1   
 41  19  22  1   
 42  19  42  1   
 43  19  43  1   
 44  20  23  2   
 45  21  22  1   
 46  21  44  1   
 47  21  45  1   
@<TRIPOS>SUBSTRUCTURE
  1 ****   3 GROUP 4 **** **** 0

# MOE 2024.06 (io_trps.svl 2023.06)
