@<TRIPOS>MOLECULE
NONAME
40 43 1 0 0 
SMALL
USER_CHARGES


@<TRIPOS>ATOM
  1 S       -0.9060    -1.3860     1.7880 S.3   1 <1>  -0.2820 
  2 C       -1.2180     0.2810     1.3440 C.2   1 <1>   0.7320 
  3 C       -1.8060    -1.8860     0.3770 C.2   1 <1>   0.6510 
  4 S       -0.5320     1.5160     2.4390 S.3   1 <1>  -0.3710 
  5 N       -1.8960     0.4680     0.2920 N.2   1 <1>  -0.5120 
  6 N       -1.9850    -3.1240     0.0580 N.2   1 <1>  -0.6210 
  7 N       -2.2470    -0.7670    -0.2850 N.am  1 <1>  -0.0580 
  8 C       -1.0500     3.1160     1.6700 C.3   1 <1>  -0.0100 
  9 C       -2.7170    -3.3460    -1.0760 C.2   1 <1>   0.0330 
 10 C       -2.9750    -0.9740    -1.4460 C.2   1 <1>   0.6160 
 11 C       -3.1970    -2.3200    -1.8270 C.2   1 <1>  -0.1360 
 12 C       -2.9560    -4.8070    -1.4610 C.3   1 <1>   0.2480 
 13 O       -3.4110    -0.0450    -2.1130 O.2   1 <1>  -0.5700 
 14 N       -4.0620    -5.4210    -0.6950 N.3   1 <1>  -0.8100 
 15 C       -4.0480    -6.8850    -0.8660 C.3   1 <1>   0.2530 
 16 C       -5.3750    -4.8430    -1.0610 C.3   1 <1>   0.1100 
 17 C       -4.7410    -7.6030     0.2820 C.ar  1 <1>  -0.1440 
 18 C       -6.5180    -5.2570    -0.1250 C.3   1 <1>   0.1200 
 19 C       -6.1080    -7.4690     0.4880 C.ar  1 <1>   0.0820 
 20 C       -4.0170    -8.4400     1.1200 C.ar  1 <1>  -0.1500 
 21 O       -6.8400    -6.6260    -0.2650 O.3   1 <1>  -0.3620 
 22 C       -6.7480    -8.1870     1.4840 C.ar  1 <1>  -0.1500 
 23 C       -4.6520    -9.1460     2.1290 C.ar  1 <1>  -0.1500 
 24 C       -6.0190    -9.0260     2.3080 C.ar  1 <1>  -0.1500 
 25 H       -0.6730     3.9140     2.2840 H     1 <1>   0.0800 
 26 H       -2.1250     3.1340     1.6320 H     1 <1>   0.0800 
 27 H       -0.6310     3.1600     0.6800 H     1 <1>   0.0800 
 28 H       -3.7630    -2.4740    -2.7250 H     1 <1>   0.1500 
 29 H       -2.0430    -5.3430    -1.2660 H     1 <1>   0.0800 
 30 H       -3.1650    -4.8800    -2.5140 H     1 <1>   0.0800 
 31 H       -3.0310    -7.2340    -0.9070 H     1 <1>   0.0800 
 32 H       -4.5220    -7.1540    -1.7950 H     1 <1>   0.0800 
 33 H       -5.6310    -5.1020    -2.0740 H     1 <1>   0.0800 
 34 H       -5.3100    -3.7720    -1.0030 H     1 <1>   0.0800 
 35 H       -7.4040    -4.7010    -0.3720 H     1 <1>   0.0800 
 36 H       -6.2590    -5.0580     0.9010 H     1 <1>   0.0800 
 37 H       -2.9550    -8.5480     0.9910 H     1 <1>   0.1500 
 38 H       -7.8090    -8.0790     1.6120 H     1 <1>   0.1500 
 39 H       -4.0810    -9.7910     2.7730 H     1 <1>   0.1500 
 40 H       -6.5130    -9.5790     3.0860 H     1 <1>   0.1500 
@<TRIPOS>BOND
  1   1   2  1   
  2   1   3  1   
  3   2   4  1   
  4   2   5  2   
  5   3   6  2   
  6   3   7  1   
  7   4   8  1   
  8   5   7  1   
  9   6   9  1   
 10   7  10  am  
 11   8  25  1   
 12   8  26  1   
 13   8  27  1   
 14   9  11  2   
 15   9  12  1   
 16  10  11  1   
 17  10  13  2   
 18  11  28  1   
 19  12  14  1   
 20  12  29  1   
 21  12  30  1   
 22  14  15  1   
 23  14  16  1   
 24  15  17  1   
 25  15  31  1   
 26  15  32  1   
 27  16  18  1   
 28  16  33  1   
 29  16  34  1   
 30  17  19  ar  
 31  17  20  ar  
 32  18  21  1   
 33  18  35  1   
 34  18  36  1   
 35  19  21  1   
 36  19  22  ar  
 37  20  23  ar  
 38  20  37  1   
 39  22  24  ar  
 40  22  38  1   
 41  23  24  ar  
 42  23  39  1   
 43  24  40  1   
@<TRIPOS>SUBSTRUCTURE
  1 ****   9 GROUP 4 **** **** 0

# MOE 2024.06 (io_trps.svl 2023.06)
