@<TRIPOS>MOLECULE
NONAME
53 55 1 0 0 
SMALL
USER_CHARGES


@<TRIPOS>ATOM
  1 S       -0.5870     0.4570     0.2190 S.3   1 <1>  -0.2030 
  2 C       -0.7430    -1.2410    -0.2990 C.ar  1 <1>   0.4620 
  3 C        1.1660     0.8280     0.1020 C.ar  1 <1>   0.1020 
  4 N        0.3280    -1.8260    -0.8600 N.ar  1 <1>  -0.1790 
  5 C       -1.8950    -1.9350    -0.1590 C.ar  1 <1>  -0.1500 
  6 C        1.5840     1.7910    -0.8040 C.ar  1 <1>  -0.1500 
  7 C        2.0630     0.1320     0.9010 C.ar  1 <1>  -0.1500 
  8 C        0.2380    -3.0940    -1.2810 C.ar  1 <1>   0.7710 
  9 C       -1.9210    -3.2690    -0.5990 C.ar  1 <1>   0.4100 
 10 C        2.9390     2.0500    -0.9350 C.ar  1 <1>  -0.1500 
 11 C        3.4190     0.3880     0.7690 C.ar  1 <1>  -0.1500 
 12 N       -0.8550    -3.8110    -1.1700 N.ar  1 <1>  -0.6200 
 13 N        1.2850    -3.6900    -1.8450 N.pl3 1 <1>  -0.9000 
 14 N       -3.0280    -4.0540    -0.4580 N.pl3 1 <1>  -0.8380 
 15 C        3.8290     1.3380    -0.1500 C.ar  1 <1>   0.1900 
 16 C       -3.2530    -5.2800    -1.3000 C.3   1 <1>   0.2090 
 17 C       -4.1400    -3.8130     0.5100 C.3   1 <1>   0.2090 
 18 F        5.1060     1.5710    -0.2810 F     1 <1>  -0.1900 
 19 C       -3.4200    -6.5800    -0.4770 C.3   1 <1>   0.0000 
 20 C       -4.2900    -5.0190     1.4340 C.3   1 <1>  -0.1600 
 21 C       -4.4700    -6.3150     0.6360 C.3   1 <1>   0.2000 
 22 C       -4.0400    -7.6540    -1.4100 C.3   1 <1>   0.1200 
 23 C       -2.0420    -7.1400     0.0140 C.3   1 <1>  -0.1600 
 24 O       -4.5120    -7.3710     1.5250 O.3   1 <1>  -0.6800 
 25 O       -3.2490    -7.8830    -2.5330 O.3   1 <1>  -0.6800 
 26 C       -1.3320    -6.4630     1.1990 C.3   1 <1>  -0.1600 
 27 C        0.0810    -7.0230     1.3800 C.3   1 <1>  -0.2400 
 28 H        1.1980    -1.3200    -0.9830 H     1 <1>   0.4570 
 29 H       -2.7650    -1.4750     0.2640 H     1 <1>   0.1500 
 30 H        0.8670     2.3360    -1.3960 H     1 <1>   0.1500 
 31 H        1.7200    -0.5830     1.6290 H     1 <1>   0.1500 
 32 H        3.3040     2.7900    -1.6270 H     1 <1>   0.1500 
 33 H        4.1510    -0.1240     1.3710 H     1 <1>   0.1500 
 34 H        2.2180    -3.3200    -2.0310 H     1 <1>   0.4000 
 35 H        1.1620    -4.6650    -2.1430 H     1 <1>   0.4000 
 36 H       -4.1500    -5.1160    -1.8720 H     1 <1>   0.0800 
 37 H       -2.4590    -5.4140    -2.0130 H     1 <1>   0.0800 
 38 H       -3.9580    -2.9470     1.1170 H     1 <1>   0.0800 
 39 H       -5.0550    -3.6540    -0.0360 H     1 <1>   0.0800 
 40 H       -5.1580    -4.8710     2.0510 H     1 <1>   0.0800 
 41 H       -3.4380    -5.0640     2.0810 H     1 <1>   0.0800 
 42 H       -5.4460    -6.2660     0.1810 H     1 <1>   0.0800 
 43 H       -5.0200    -7.3640    -1.7500 H     1 <1>   0.0800 
 44 H       -4.1320    -8.5900    -0.8840 H     1 <1>   0.0800 
 45 H       -2.1660    -8.1780     0.2720 H     1 <1>   0.0800 
 46 H       -1.3670    -7.1240    -0.8250 H     1 <1>   0.0800 
 47 H       -3.6130    -7.5450     1.8670 H     1 <1>   0.4000 
 48 H       -3.4760    -7.2770    -3.2630 H     1 <1>   0.4000 
 49 H       -1.2630    -5.4040     1.0420 H     1 <1>   0.0800 
 50 H       -1.8790    -6.6380     2.1080 H     1 <1>   0.0800 
 51 H        0.6760    -6.8370     0.5030 H     1 <1>   0.0800 
 52 H        0.0460    -8.0850     1.5540 H     1 <1>   0.0800 
 53 H        0.5590    -6.5560     2.2240 H     1 <1>   0.0800 
@<TRIPOS>BOND
  1   1   2  1   
  2   1   3  1   
  3   2   4  ar  
  4   2   5  ar  
  5   3   6  ar  
  6   3   7  ar  
  7   4   8  ar  
  8   4  28  1   
  9   5   9  ar  
 10   5  29  1   
 11   6  10  ar  
 12   6  30  1   
 13   7  11  ar  
 14   7  31  1   
 15   8  12  ar  
 16   8  13  1   
 17   9  12  ar  
 18   9  14  1   
 19  10  15  ar  
 20  10  32  1   
 21  11  15  ar  
 22  11  33  1   
 23  13  34  1   
 24  13  35  1   
 25  14  16  1   
 26  14  17  1   
 27  15  18  1   
 28  16  19  1   
 29  16  36  1   
 30  16  37  1   
 31  17  20  1   
 32  17  38  1   
 33  17  39  1   
 34  19  21  1   
 35  19  22  1   
 36  19  23  1   
 37  20  21  1   
 38  20  40  1   
 39  20  41  1   
 40  21  24  1   
 41  21  42  1   
 42  22  25  1   
 43  22  43  1   
 44  22  44  1   
 45  23  26  1   
 46  23  45  1   
 47  23  46  1   
 48  24  47  1   
 49  25  48  1   
 50  26  27  1   
 51  26  49  1   
 52  26  50  1   
 53  27  51  1   
 54  27  52  1   
 55  27  53  1   
@<TRIPOS>SUBSTRUCTURE
  1 ****  12 GROUP 4 **** **** 0

# MOE 2024.06 (io_trps.svl 2023.06)
