@<TRIPOS>MOLECULE
NONAME
51 54 1 0 0 
SMALL
USER_CHARGES


@<TRIPOS>ATOM
  1 O       -0.7450     1.5920    -2.2170 O.2   1 <1>  -0.5700 
  2 C       -1.6300     2.1190    -1.5830 C.2   1 <1>   0.5690 
  3 N       -2.4110     1.3900    -0.7170 N.am  1 <1>  -0.6600 
  4 C       -1.8470     3.6200    -1.8090 C.3   1 <1>   0.1810 
  5 C       -2.0550    -0.0170    -0.3440 C.3   1 <1>   0.1400 
  6 C       -3.6690     1.8730    -0.0670 C.3   1 <1>   0.1400 
  7 O       -2.0340     4.3540    -0.5960 O.3   1 <1>  -0.4300 
  8 C       -3.2730    -0.9520    -0.4330 C.3   1 <1>   0.3440 
  9 C       -4.8020     0.8250    -0.1690 C.3   1 <1>   0.2000 
 10 C       -1.0310     4.4650     0.3020 C.2   1 <1>   0.5860 
 11 O       -4.3420    -0.4120     0.2980 O.3   1 <1>  -0.5600 
 12 C       -2.9310    -2.3350     0.1140 C.ar  1 <1>  -0.1440 
 13 C       -6.0590     1.2080     0.6460 C.3   1 <1>  -0.0800 
 14 N        0.1570     4.0480     0.0050 N.2   1 <1>  -0.6520 
 15 C       -1.3890     5.0470     1.5470 C.2   1 <1>  -0.1360 
 16 C       -3.0240    -2.6180     1.4700 C.ar  1 <1>  -0.1500 
 17 C       -2.5060    -3.3320    -0.7540 C.ar  1 <1>  -0.1500 
 18 C       -7.1480     0.1260     0.5420 C.3   1 <1>  -0.2400 
 19 C       -6.6600     2.5530     0.1990 C.3   1 <1>  -0.2400 
 20 N        1.0800     4.1840     1.0220 N.pl3 1 <1>   0.5050 
 21 C       -0.4580     5.1770     2.5300 C.2   1 <1>  -0.1050 
 22 C       -2.6950    -3.8740     1.9510 C.ar  1 <1>  -0.1500 
 23 C       -2.1770    -4.5880    -0.2740 C.ar  1 <1>  -0.1500 
 24 C        0.8430     4.7140     2.2480 C.2   1 <1>   0.1420 
 25 C        2.3660     3.8550     1.0960 C.2   1 <1>   0.0370 
 26 C       -2.2710    -4.8600     1.0790 C.ar  1 <1>  -0.1500 
 27 N        1.9250     4.6960     2.9860 N.2   1 <1>  -0.3380 
 28 N        2.8850     4.1490     2.2470 N.2   1 <1>  -0.3380 
 29 H       -2.7220     3.7600    -2.4140 H     1 <1>   0.0800 
 30 H       -1.0030     4.0340    -2.3310 H     1 <1>   0.0800 
 31 H       -1.2800    -0.3970    -0.9850 H     1 <1>   0.0800 
 32 H       -1.6790    -0.0300     0.6630 H     1 <1>   0.0800 
 33 H       -3.4720     2.0810     0.9700 H     1 <1>   0.0800 
 34 H       -3.9990     2.7820    -0.5350 H     1 <1>   0.0800 
 35 H       -3.5860    -1.0440    -1.4590 H     1 <1>   0.0800 
 36 H       -5.0830     0.7050    -1.2020 H     1 <1>   0.0800 
 37 H       -5.7720     1.2980     1.6810 H     1 <1>   0.0800 
 38 H       -2.4050     5.3720     1.6740 H     1 <1>   0.1500 
 39 H       -3.3570    -1.8580     2.1560 H     1 <1>   0.1500 
 40 H       -2.4260    -3.1360    -1.8090 H     1 <1>   0.1500 
 41 H       -7.4490    -0.0130    -0.4810 H     1 <1>   0.0800 
 42 H       -8.0110     0.4010     1.1230 H     1 <1>   0.0800 
 43 H       -6.7820    -0.8130     0.9190 H     1 <1>   0.0800 
 44 H       -6.9030     2.5290    -0.8490 H     1 <1>   0.0800 
 45 H       -5.9790     3.3640     0.3830 H     1 <1>   0.0800 
 46 H       -7.5610     2.7560     0.7500 H     1 <1>   0.0800 
 47 H       -0.6580     5.6070     3.4960 H     1 <1>   0.1500 
 48 H       -2.7720    -4.0820     3.0040 H     1 <1>   0.1500 
 49 H       -1.8480    -5.3540    -0.9540 H     1 <1>   0.1500 
 50 H        2.8850     3.3960     0.2770 H     1 <1>   0.1500 
 51 H       -2.0160    -5.8360     1.4520 H     1 <1>   0.1500 
@<TRIPOS>BOND
  1   1   2  2   
  2   2   3  am  
  3   2   4  1   
  4   3   5  1   
  5   3   6  1   
  6   4   7  1   
  7   4  29  1   
  8   4  30  1   
  9   5   8  1   
 10   5  31  1   
 11   5  32  1   
 12   6   9  1   
 13   6  33  1   
 14   6  34  1   
 15   7  10  1   
 16   8  11  1   
 17   8  12  1   
 18   8  35  1   
 19   9  11  1   
 20   9  13  1   
 21   9  36  1   
 22  10  14  2   
 23  10  15  1   
 24  12  16  ar  
 25  12  17  ar  
 26  13  18  1   
 27  13  19  1   
 28  13  37  1   
 29  14  20  1   
 30  15  21  2   
 31  15  38  1   
 32  16  22  ar  
 33  16  39  1   
 34  17  23  ar  
 35  17  40  1   
 36  18  41  1   
 37  18  42  1   
 38  18  43  1   
 39  19  44  1   
 40  19  45  1   
 41  19  46  1   
 42  20  24  1   
 43  20  25  1   
 44  21  24  1   
 45  21  47  1   
 46  22  26  ar  
 47  22  48  1   
 48  23  26  ar  
 49  23  49  1   
 50  24  27  2   
 51  25  28  2   
 52  25  50  1   
 53  26  51  1   
 54  27  28  1   
@<TRIPOS>SUBSTRUCTURE
  1 ****   3 GROUP 4 **** **** 0

# MOE 2024.06 (io_trps.svl 2023.06)
