@<TRIPOS>MOLECULE
NONAME
44 46 1 0 0 
SMALL
USER_CHARGES


@<TRIPOS>ATOM
  1 O       -1.6270     0.3240     2.6790 O.2   1 <1>  -0.5700 
  2 C       -1.7580     0.8810     1.6150 C.2   1 <1>   0.5690 
  3 N       -2.1520     0.2020     0.4890 N.am  1 <1>  -0.6600 
  4 C       -1.4850     2.3750     1.5960 C.3   1 <1>   0.1570 
  5 C       -2.3180    -1.2940     0.5350 C.3   1 <1>   0.3640 
  6 C       -2.4250     0.8580    -0.8350 C.3   1 <1>   0.1400 
  7 N       -0.3810     2.7130     0.6720 N.pl3 1 <1>   0.0480 
  8 C       -1.0330    -2.0270     0.1180 C.ar  1 <1>  -0.1440 
  9 C       -3.5370    -1.7920    -0.3070 C.3   1 <1>   0.2000 
 10 C       -2.9810    -0.1210    -1.8770 C.3   1 <1>   0.1200 
 11 C       -0.3430     3.6710    -0.2890 C.2   1 <1>   0.0060 
 12 C        0.8000     2.0750     0.5630 C.2   1 <1>  -0.3020 
 13 C        0.0150    -1.4320    -0.5770 C.ar  1 <1>  -0.1500 
 14 C       -0.9140    -3.3660     0.4670 C.ar  1 <1>  -0.1500 
 15 O       -3.9840    -0.8860    -1.2900 O.3   1 <1>  -0.5600 
 16 C       -4.7460    -2.1040     0.5820 C.3   1 <1>   0.1200 
 17 N        0.7470     3.6670    -0.9820 N.2   1 <1>  -0.5650 
 18 C       -1.4610     4.6630    -0.5440 C.3   1 <1>  -0.0600 
 19 C        1.4710     2.6680    -0.4460 C.2   1 <1>   0.0770 
 20 C        1.1380    -2.1610    -0.9280 C.ar  1 <1>  -0.1500 
 21 C        0.2080    -4.0980     0.1190 C.ar  1 <1>  -0.1500 
 22 O       -4.5000    -3.2400     1.3490 O.3   1 <1>  -0.6800 
 23 C        1.2350    -3.4960    -0.5830 C.ar  1 <1>  -0.1500 
 24 H       -1.2080     2.6940     2.5830 H     1 <1>   0.0800 
 25 H       -2.3780     2.8920     1.3070 H     1 <1>   0.0800 
 26 H       -2.4990    -1.5840     1.5560 H     1 <1>   0.0800 
 27 H       -3.1420     1.6470    -0.6960 H     1 <1>   0.0800 
 28 H       -1.5220     1.2920    -1.2260 H     1 <1>   0.0800 
 29 H       -3.2630    -2.6920    -0.8290 H     1 <1>   0.0800 
 30 H       -2.2140    -0.7760    -2.2540 H     1 <1>   0.0800 
 31 H       -3.4120     0.4170    -2.7030 H     1 <1>   0.0800 
 32 H        1.0910     1.2510     1.1910 H     1 <1>   0.1500 
 33 H       -0.0170    -0.3950    -0.8520 H     1 <1>   0.1500 
 34 H       -1.7000    -3.8500     1.0230 H     1 <1>   0.1500 
 35 H       -5.6210    -2.2880    -0.0160 H     1 <1>   0.0800 
 36 H       -4.9330    -1.2840     1.2540 H     1 <1>   0.0800 
 37 H       -1.1640     5.3500    -1.3170 H     1 <1>   0.0800 
 38 H       -1.6680     5.2250     0.3480 H     1 <1>   0.0800 
 39 H       -2.3500     4.1520    -0.8640 H     1 <1>   0.0800 
 40 H        2.4520     2.4260    -0.8200 H     1 <1>   0.1500 
 41 H        1.9390    -1.6860    -1.4670 H     1 <1>   0.1500 
 42 H        0.2820    -5.1350     0.3970 H     1 <1>   0.1500 
 43 H       -4.6490    -4.0520     0.8230 H     1 <1>   0.4000 
 44 H        2.1090    -4.0620    -0.8550 H     1 <1>   0.1500 
@<TRIPOS>BOND
  1   1   2  2   
  2   2   3  am  
  3   2   4  1   
  4   3   5  1   
  5   3   6  1   
  6   4   7  1   
  7   4  24  1   
  8   4  25  1   
  9   5   8  1   
 10   5   9  1   
 11   5  26  1   
 12   6  10  1   
 13   6  27  1   
 14   6  28  1   
 15   7  11  1   
 16   7  12  1   
 17   8  13  ar  
 18   8  14  ar  
 19   9  15  1   
 20   9  16  1   
 21   9  29  1   
 22  10  15  1   
 23  10  30  1   
 24  10  31  1   
 25  11  17  2   
 26  11  18  1   
 27  12  19  2   
 28  12  32  1   
 29  13  20  ar  
 30  13  33  1   
 31  14  21  ar  
 32  14  34  1   
 33  16  22  1   
 34  16  35  1   
 35  16  36  1   
 36  17  19  1   
 37  18  37  1   
 38  18  38  1   
 39  18  39  1   
 40  19  40  1   
 41  20  23  ar  
 42  20  41  1   
 43  21  23  ar  
 44  21  42  1   
 45  22  43  1   
 46  23  44  1   
@<TRIPOS>SUBSTRUCTURE
  1 ****   3 GROUP 4 **** **** 0

# MOE 2024.06 (io_trps.svl 2023.06)
