@<TRIPOS>MOLECULE
NONAME
49 53 1 0 0 
SMALL
USER_CHARGES


@<TRIPOS>ATOM
  1 O       -0.2420    -1.0590     1.2430 O.2   1 <1>  -0.5700 
  2 C       -0.5310     0.0970     1.4520 C.2   1 <1>   0.5690 
  3 N       -1.6990     0.6450     0.9740 N.am  1 <1>  -0.6600 
  4 C        0.4470     0.9050     2.2980 C.3   1 <1>   0.0440 
  5 C       -2.0760     2.0940     1.0710 C.3   1 <1>   0.1400 
  6 C       -2.7430    -0.2100     0.3360 C.3   1 <1>   0.1400 
  7 C        1.2970     1.8800     1.4890 C.ar  1 <1>  -0.1440 
  8 C       -2.4440     2.6800    -0.3070 C.3   1 <1>   0.1440 
  9 C       -3.1240     0.3420    -1.0420 C.3   1 <1>  -0.1600 
 10 C        1.3880     3.2150     1.8750 C.ar  1 <1>  -0.1500 
 11 C        1.9940     1.4310     0.3670 C.ar  1 <1>  -0.1500 
 12 C       -2.8850     4.1190    -0.1140 C.ar  1 <1>   0.1660 
 13 C       -3.5450     1.8200    -0.9640 C.3   1 <1>  -0.1600 
 14 C       -1.2030     2.8230    -1.2310 C.3   1 <1>  -0.1600 
 15 C        2.1680     4.0620     1.1140 C.ar  1 <1>   0.0820 
 16 C        2.7730     2.3000    -0.3870 C.ar  1 <1>  -0.1500 
 17 N       -3.9960     4.5020     0.4700 N.ar  1 <1>  -0.6200 
 18 C       -1.9690     4.9990    -0.6100 C.ar  1 <1>  -0.1430 
 19 C       -0.7750     4.3000    -1.2060 C.3   1 <1>  -0.0170 
 20 O        2.3830     5.3690     1.2900 O.3   1 <1>  -0.3630 
 21 C        2.8390     3.6190     0.0120 C.ar  1 <1>   0.0820 
 22 C       -4.1480     5.8160     0.5330 C.ar  1 <1>   0.7200 
 23 C       -2.2390     6.3410    -0.4940 C.ar  1 <1>   0.1600 
 24 C        3.2710     5.7800     0.2530 C.3   1 <1>   0.4000 
 25 O        3.5080     4.6280    -0.5550 O.3   1 <1>  -0.3630 
 26 N       -3.3440     6.7660     0.0780 N.ar  1 <1>  -0.6200 
 27 N       -5.2710     6.2410     1.1120 N.pl3 1 <1>  -0.9000 
 28 H        1.1050     0.2200     2.8000 H     1 <1>   0.0800 
 29 H       -0.1050     1.4240     3.0590 H     1 <1>   0.0800 
 30 H       -1.2810     2.6780     1.4940 H     1 <1>   0.0800 
 31 H       -2.9270     2.1820     1.7250 H     1 <1>   0.0800 
 32 H       -3.6110    -0.2260     0.9720 H     1 <1>   0.0800 
 33 H       -2.3950    -1.2230     0.2290 H     1 <1>   0.0800 
 34 H       -3.9350    -0.2410    -1.4410 H     1 <1>   0.0800 
 35 H       -2.2850     0.2260    -1.7060 H     1 <1>   0.0800 
 36 H        0.8740     3.5990     2.7370 H     1 <1>   0.1500 
 37 H        1.9300     0.3950     0.0750 H     1 <1>   0.1500 
 38 H       -3.7720     2.1950    -1.9460 H     1 <1>   0.0800 
 39 H       -4.4430     1.8930    -0.3750 H     1 <1>   0.0800 
 40 H       -1.4710     2.5730    -2.2420 H     1 <1>   0.0800 
 41 H       -0.3980     2.1760    -0.9340 H     1 <1>   0.0800 
 42 H        3.3120     1.9650    -1.2550 H     1 <1>   0.1500 
 43 H       -0.5530     4.6630    -2.1940 H     1 <1>   0.0800 
 44 H        0.0790     4.4390    -0.5690 H     1 <1>   0.0800 
 45 H       -1.5450     7.0710    -0.8720 H     1 <1>   0.1500 
 46 H        4.1980     6.1140     0.6830 H     1 <1>   0.0800 
 47 H        2.8060     6.5480    -0.3390 H     1 <1>   0.0800 
 48 H       -5.5350     7.1960     0.8880 H     1 <1>   0.4000 
 49 H       -6.0190     5.5550     1.1560 H     1 <1>   0.4000 
@<TRIPOS>BOND
  1   1   2  2   
  2   2   3  am  
  3   2   4  1   
  4   3   5  1   
  5   3   6  1   
  6   4   7  1   
  7   4  28  1   
  8   4  29  1   
  9   5   8  1   
 10   5  30  1   
 11   5  31  1   
 12   6   9  1   
 13   6  32  1   
 14   6  33  1   
 15   7  10  ar  
 16   7  11  ar  
 17   8  12  1   
 18   8  13  1   
 19   8  14  1   
 20   9  13  1   
 21   9  34  1   
 22   9  35  1   
 23  10  15  ar  
 24  10  36  1   
 25  11  16  ar  
 26  11  37  1   
 27  12  17  ar  
 28  12  18  ar  
 29  13  38  1   
 30  13  39  1   
 31  14  19  1   
 32  14  40  1   
 33  14  41  1   
 34  15  20  1   
 35  15  21  ar  
 36  16  21  ar  
 37  16  42  1   
 38  17  22  ar  
 39  18  19  1   
 40  18  23  ar  
 41  19  43  1   
 42  19  44  1   
 43  20  24  1   
 44  21  25  1   
 45  22  26  ar  
 46  22  27  1   
 47  23  26  ar  
 48  23  45  1   
 49  24  25  1   
 50  24  46  1   
 51  24  47  1   
 52  27  48  1   
 53  27  49  1   
@<TRIPOS>SUBSTRUCTURE
  1 ****  14 GROUP 4 **** **** 0

# MOE 2024.06 (io_trps.svl 2023.06)
