@<TRIPOS>MOLECULE
NONAME
54 56 1 0 0 
SMALL
USER_CHARGES


@<TRIPOS>ATOM
  1 S        0.5050     0.1960     0.5130 S.o2  1 <1>   1.3330 
  2 O        1.7350     0.4780     1.2210 O.2   1 <1>  -0.6500 
  3 O       -0.6480    -0.2850     1.2390 O.2   1 <1>  -0.6500 
  4 N        0.8620    -0.9170    -0.7190 N.am  1 <1>  -0.8490 
  5 C        0.0120     1.6520    -0.4130 C.3   1 <1>  -0.0550 
  6 C        2.2330    -0.8100    -1.2280 C.3   1 <1>   0.1160 
  7 C        0.5850    -2.3010    -0.3190 C.3   1 <1>   0.1160 
  8 C       -0.5480     2.7930     0.4600 C.3   1 <1>  -0.0800 
  9 C       -1.0120     3.9590    -0.4130 C.3   1 <1>   0.2000 
 10 C        0.5170     3.4070     1.3900 C.3   1 <1>   0.1100 
 11 O       -2.0720     4.5690     0.2270 O.3   1 <1>  -0.6800 
 12 C        0.1670     4.9230    -0.3670 C.3   1 <1>   0.1100 
 13 N        0.6420     4.8230     1.0180 N.3   1 <1>  -0.8100 
 14 C        2.0070     5.3440     1.2100 C.3   1 <1>   0.2480 
 15 C        2.0920     6.8530     0.9780 C.2   1 <1>  -0.0380 
 16 N        3.2780     7.3560     0.4920 N.pl3 1 <1>  -0.6000 
 17 C        1.0720     7.7090     1.2380 C.2   1 <1>  -0.1360 
 18 C        3.4780     8.7120     0.2430 C.ar  1 <1>   0.1000 
 19 C        1.1860     9.1040     1.0160 C.2   1 <1>   0.4690 
 20 C        2.4310     9.6130     0.5000 C.ar  1 <1>   0.0860 
 21 C        4.6990     9.1800    -0.2570 C.ar  1 <1>  -0.1440 
 22 O        0.2390     9.8420     1.2630 O.2   1 <1>  -0.5700 
 23 C        2.6420    10.9710     0.2440 C.ar  1 <1>  -0.1500 
 24 C        4.8690    10.5280    -0.4970 C.ar  1 <1>  -0.1500 
 25 C        5.8490     8.2220    -0.5420 C.3   1 <1>  -0.0970 
 26 C        3.8440    11.4320    -0.2480 C.ar  1 <1>  -0.1440 
 27 C        4.0630    12.9090    -0.5230 C.3   1 <1>  -0.0970 
 28 H        0.8470     2.0110    -0.9800 H     1 <1>   0.0800 
 29 H       -0.7520     1.3580    -1.1080 H     1 <1>   0.0800 
 30 H        2.3700    -1.4740    -2.0650 H     1 <1>   0.0800 
 31 H        2.9420    -1.0670    -0.4580 H     1 <1>   0.0800 
 32 H        2.4300     0.1960    -1.5570 H     1 <1>   0.0800 
 33 H        0.8080    -2.9760    -1.1270 H     1 <1>   0.0800 
 34 H       -0.4570    -2.4110    -0.0680 H     1 <1>   0.0800 
 35 H        1.1770    -2.5670     0.5410 H     1 <1>   0.0800 
 36 H       -1.3700     2.4030     1.0370 H     1 <1>   0.0800 
 37 H       -1.3200     3.6870    -1.4080 H     1 <1>   0.0800 
 38 H        1.4660     2.9120     1.2710 H     1 <1>   0.0800 
 39 H        0.2150     3.3290     2.4210 H     1 <1>   0.0800 
 40 H       -1.7040     4.9890     1.0340 H     1 <1>   0.4000 
 41 H       -0.1290     5.9280    -0.6190 H     1 <1>   0.0800 
 42 H        0.9320     4.5940    -1.0480 H     1 <1>   0.0800 
 43 H        2.3260     5.1380     2.2180 H     1 <1>   0.0800 
 44 H        2.6760     4.8370     0.5370 H     1 <1>   0.0800 
 45 H        4.0650     6.7300     0.3020 H     1 <1>   0.4000 
 46 H        0.1320     7.3660     1.6260 H     1 <1>   0.1500 
 47 H        1.8370    11.6580     0.4430 H     1 <1>   0.1500 
 48 H        5.8040    10.8980    -0.8810 H     1 <1>   0.1500 
 49 H        6.7100     8.7520    -0.9080 H     1 <1>   0.0800 
 50 H        5.5540     7.5050    -1.2860 H     1 <1>   0.0800 
 51 H        6.1310     7.7070     0.3590 H     1 <1>   0.0800 
 52 H        4.8790    13.2750     0.0740 H     1 <1>   0.0800 
 53 H        3.1830    13.4790    -0.2860 H     1 <1>   0.0800 
 54 H        4.2970    13.0580    -1.5620 H     1 <1>   0.0800 
@<TRIPOS>BOND
  1   1   2  2   
  2   1   3  2   
  3   1   4  am  
  4   1   5  1   
  5   4   6  1   
  6   4   7  1   
  7   5   8  1   
  8   5  28  1   
  9   5  29  1   
 10   6  30  1   
 11   6  31  1   
 12   6  32  1   
 13   7  33  1   
 14   7  34  1   
 15   7  35  1   
 16   8   9  1   
 17   8  10  1   
 18   8  36  1   
 19   9  11  1   
 20   9  12  1   
 21   9  37  1   
 22  10  13  1   
 23  10  38  1   
 24  10  39  1   
 25  11  40  1   
 26  12  13  1   
 27  12  41  1   
 28  12  42  1   
 29  13  14  1   
 30  14  15  1   
 31  14  43  1   
 32  14  44  1   
 33  15  16  1   
 34  15  17  2   
 35  16  18  1   
 36  16  45  1   
 37  17  19  1   
 38  17  46  1   
 39  18  20  ar  
 40  18  21  ar  
 41  19  20  1   
 42  19  22  2   
 43  20  23  ar  
 44  21  24  ar  
 45  21  25  1   
 46  23  26  ar  
 47  23  47  1   
 48  24  26  ar  
 49  24  48  1   
 50  25  49  1   
 51  25  50  1   
 52  25  51  1   
 53  26  27  1   
 54  27  52  1   
 55  27  53  1   
 56  27  54  1   
@<TRIPOS>SUBSTRUCTURE
  1 ****  14 GROUP 4 **** **** 0

# MOE 2024.06 (io_trps.svl 2023.06)
