@<TRIPOS>MOLECULE
NONAME
45 46 1 0 0 
SMALL
USER_CHARGES


@<TRIPOS>ATOM
  1 S       -0.6880     0.0980     1.3110 S.o2  1 <1>   1.4470 
  2 O       -1.3600     1.2340     1.8940 O.2   1 <1>  -0.6500 
  3 O       -0.6310    -1.1330     2.0630 O.2   1 <1>  -0.6500 
  4 N       -1.5820    -0.2060    -0.0820 N.am  1 <1>  -0.9140 
  5 C        0.9740     0.5670     0.7220 C.ar  1 <1>  -0.0090 
  6 C       -1.6230    -1.5470    -0.6720 C.3   1 <1>   0.2760 
  7 C        1.2210     1.6460    -0.1400 C.ar  1 <1>  -0.1430 
  8 C        2.0660    -0.1850     1.1460 C.ar  1 <1>  -0.1500 
  9 C       -2.4560    -2.5540     0.1270 C.3   1 <1>  -0.0800 
 10 C       -0.2780    -2.2490    -0.8900 C.3   1 <1>   0.1200 
 11 C        2.5130     1.9400    -0.5620 C.ar  1 <1>  -0.1500 
 12 C        0.0960     2.5440    -0.6430 C.3   1 <1>  -0.0970 
 13 C        3.3370     0.1270     0.7140 C.ar  1 <1>   0.1900 
 14 C       -1.4690    -3.7050     0.3530 C.3   1 <1>   0.1200 
 15 C       -3.6870    -3.0120    -0.6790 C.3   1 <1>  -0.0550 
 16 O       -0.5500    -3.5960    -0.6830 O.3   1 <1>  -0.5600 
 17 C        3.5850     1.1790    -0.1380 C.ar  1 <1>  -0.1500 
 18 F        4.3390    -0.6010     1.1260 F     1 <1>  -0.1900 
 19 S       -4.8920    -3.9130     0.2960 S.o2  1 <1>   1.3330 
 20 O       -5.4350    -2.9860     1.2620 O.2   1 <1>  -0.6500 
 21 O       -4.3330    -5.1710     0.7370 O.2   1 <1>  -0.6500 
 22 N       -6.1010    -4.2540    -0.8470 N.am  1 <1>  -0.8490 
 23 C       -7.4280    -4.3620    -0.2330 C.3   1 <1>   0.1160 
 24 C       -5.8240    -5.4550    -1.6440 C.3   1 <1>   0.1160 
 25 H       -2.5280     0.0590     0.1910 H     1 <1>   0.4200 
 26 H       -2.0630    -1.4390    -1.6500 H     1 <1>   0.0800 
 27 H        1.9330    -1.0190     1.8150 H     1 <1>   0.1500 
 28 H       -2.7770    -2.1570     1.0750 H     1 <1>   0.0800 
 29 H        0.4690    -1.9640    -0.1750 H     1 <1>   0.0800 
 30 H        0.0920    -2.1200    -1.8910 H     1 <1>   0.0800 
 31 H        2.6950     2.7690    -1.2260 H     1 <1>   0.1500 
 32 H        0.4820     3.3630    -1.2230 H     1 <1>   0.0800 
 33 H       -0.4520     2.9620     0.1830 H     1 <1>   0.0800 
 34 H       -0.5790     1.9880    -1.2680 H     1 <1>   0.0800 
 35 H       -1.9180    -4.6820     0.3220 H     1 <1>   0.0800 
 36 H       -0.9390    -3.5840     1.2830 H     1 <1>   0.0800 
 37 H       -3.3640    -3.6160    -1.5040 H     1 <1>   0.0800 
 38 H       -4.1780    -2.1470    -1.0800 H     1 <1>   0.0800 
 39 H        4.5900     1.3950    -0.4570 H     1 <1>   0.1500 
 40 H       -8.1720    -4.5630    -0.9850 H     1 <1>   0.0800 
 41 H       -7.6860    -3.4360     0.2540 H     1 <1>   0.0800 
 42 H       -7.4400    -5.1520     0.4990 H     1 <1>   0.0800 
 43 H       -6.5710    -5.5700    -2.4100 H     1 <1>   0.0800 
 44 H       -5.8280    -6.3330    -1.0170 H     1 <1>   0.0800 
 45 H       -4.8610    -5.3750    -2.1180 H     1 <1>   0.0800 
@<TRIPOS>BOND
  1   1   2  2   
  2   1   3  2   
  3   1   4  am  
  4   1   5  1   
  5   4   6  1   
  6   4  25  1   
  7   5   7  ar  
  8   5   8  ar  
  9   6   9  1   
 10   6  10  1   
 11   6  26  1   
 12   7  11  ar  
 13   7  12  1   
 14   8  13  ar  
 15   8  27  1   
 16   9  14  1   
 17   9  15  1   
 18   9  28  1   
 19  10  16  1   
 20  10  29  1   
 21  10  30  1   
 22  11  17  ar  
 23  11  31  1   
 24  12  32  1   
 25  12  33  1   
 26  12  34  1   
 27  13  17  ar  
 28  13  18  1   
 29  14  16  1   
 30  14  35  1   
 31  14  36  1   
 32  15  19  1   
 33  15  37  1   
 34  15  38  1   
 35  17  39  1   
 36  19  20  2   
 37  19  21  2   
 38  19  22  am  
 39  22  23  1   
 40  22  24  1   
 41  23  40  1   
 42  23  41  1   
 43  23  42  1   
 44  24  43  1   
 45  24  44  1   
 46  24  45  1   
@<TRIPOS>SUBSTRUCTURE
  1 ****   6 GROUP 4 **** **** 0

# MOE 2024.06 (io_trps.svl 2023.06)
