@<TRIPOS>MOLECULE
NONAME
55 56 1 0 0 
SMALL
USER_CHARGES


@<TRIPOS>ATOM
  1 S       -0.9180    -1.5830     1.6260 S.o2  1 <1>   1.3330 
  2 O        0.5220    -1.6890     1.6470 O.2   1 <1>  -0.6500 
  3 O       -1.7070    -2.0630     2.7370 O.2   1 <1>  -0.6500 
  4 N       -1.3310     0.0400     1.3320 N.am  1 <1>  -0.8490 
  5 C       -1.5330    -2.4070     0.1520 C.3   1 <1>  -0.0550 
  6 C       -0.2910     0.7770     0.6040 C.3   1 <1>   0.1160 
  7 C       -1.6620     0.7570     2.5690 C.3   1 <1>   0.1160 
  8 C       -3.0580    -2.2750    -0.0310 C.3   1 <1>  -0.1600 
  9 C       -3.5420    -3.0200    -1.2730 C.3   1 <1>   0.3430 
 10 N       -5.0240    -2.9720    -1.3340 N.4   1 <1>  -0.9590 
 11 C       -5.6040    -4.0820    -2.1650 C.3   1 <1>   0.3430 
 12 C       -5.5830    -1.6380    -1.6840 C.3   1 <1>   0.3430 
 13 C       -7.1420    -4.1760    -2.0300 C.3   1 <1>   0.1400 
 14 C       -6.6870    -1.2760    -0.6870 C.3   1 <1>  -0.1600 
 15 N       -7.6090    -3.6290    -0.7210 N.am  1 <1>  -0.6600 
 16 C       -7.9360    -2.1750    -0.7080 C.3   1 <1>   0.1400 
 17 C       -7.2410    -4.2860     0.4280 C.2   1 <1>   0.7160 
 18 O       -6.3570    -3.7690     1.0870 O.2   1 <1>  -0.5700 
 19 C       -7.7310    -5.6050     0.7430 C.2   1 <1>  -0.0860 
 20 C       -8.9410    -6.2100     0.3750 C.2   1 <1>   0.1080 
 21 C       -7.1150    -6.5770     1.4710 C.2   1 <1>  -0.3020 
 22 N       -9.0410    -7.4240     0.8050 N.2   1 <1>  -0.7070 
 23 C      -10.0690    -5.5770    -0.4130 C.3   1 <1>  -0.0590 
 24 N       -7.9150    -7.6500     1.4930 N.pl3 1 <1>   0.3140 
 25 C       -7.6760    -8.9300     2.1680 C.3   1 <1>   0.0160 
 26 H       -1.2760    -3.4470     0.2200 H     1 <1>   0.0800 
 27 H       -1.0310    -2.0010    -0.7050 H     1 <1>   0.0800 
 28 H       -0.0490     0.2720    -0.3160 H     1 <1>   0.0800 
 29 H        0.6050     0.8520     1.1990 H     1 <1>   0.0800 
 30 H       -0.6360     1.7700     0.3670 H     1 <1>   0.0800 
 31 H       -2.5030     0.2910     3.0540 H     1 <1>   0.0800 
 32 H       -1.9250     1.7790     2.3510 H     1 <1>   0.0800 
 33 H       -0.8240     0.7440     3.2460 H     1 <1>   0.0800 
 34 H       -3.3060    -1.2310    -0.1000 H     1 <1>   0.0800 
 35 H       -3.5420    -2.6820     0.8420 H     1 <1>   0.0800 
 36 H       -3.2200    -4.0470    -1.2050 H     1 <1>   0.0800 
 37 H       -3.1160    -2.5870    -2.1640 H     1 <1>   0.0800 
 38 H       -5.3750    -3.1590    -0.3670 H     1 <1>   0.4500 
 39 H       -5.1860    -5.0180    -1.8340 H     1 <1>   0.0800 
 40 H       -5.3390    -3.9560    -3.2020 H     1 <1>   0.0800 
 41 H       -5.9740    -1.6430    -2.6890 H     1 <1>   0.0800 
 42 H       -4.8090    -0.8900    -1.6290 H     1 <1>   0.0800 
 43 H       -7.4420    -5.2060    -2.1230 H     1 <1>   0.0800 
 44 H       -7.6080    -3.6340    -2.8350 H     1 <1>   0.0800 
 45 H       -7.0070    -0.2700    -0.8930 H     1 <1>   0.0800 
 46 H       -6.2750    -1.2590     0.3080 H     1 <1>   0.0800 
 47 H       -8.5380    -1.9440    -1.5710 H     1 <1>   0.0800 
 48 H       -8.5350    -1.9620     0.1630 H     1 <1>   0.0800 
 49 H       -6.1620    -6.5390     1.9660 H     1 <1>   0.1500 
 50 H      -10.2120    -4.5570    -0.1090 H     1 <1>   0.0800 
 51 H      -10.9810    -6.1170    -0.2330 H     1 <1>   0.0800 
 52 H       -9.8510    -5.6150    -1.4630 H     1 <1>   0.0800 
 53 H       -6.7260    -8.9050     2.6680 H     1 <1>   0.0800 
 54 H       -7.6850    -9.7160     1.4360 H     1 <1>   0.0800 
 55 H       -8.4600    -9.0960     2.8820 H     1 <1>   0.0800 
@<TRIPOS>BOND
  1   1   2  2   
  2   1   3  2   
  3   1   4  am  
  4   1   5  1   
  5   4   6  1   
  6   4   7  1   
  7   5   8  1   
  8   5  26  1   
  9   5  27  1   
 10   6  28  1   
 11   6  29  1   
 12   6  30  1   
 13   7  31  1   
 14   7  32  1   
 15   7  33  1   
 16   8   9  1   
 17   8  34  1   
 18   8  35  1   
 19   9  10  1   
 20   9  36  1   
 21   9  37  1   
 22  10  11  1   
 23  10  12  1   
 24  10  38  1   
 25  11  13  1   
 26  11  39  1   
 27  11  40  1   
 28  12  14  1   
 29  12  41  1   
 30  12  42  1   
 31  13  15  1   
 32  13  43  1   
 33  13  44  1   
 34  14  16  1   
 35  14  45  1   
 36  14  46  1   
 37  15  16  1   
 38  15  17  am  
 39  16  47  1   
 40  16  48  1   
 41  17  18  2   
 42  17  19  1   
 43  19  20  1   
 44  19  21  2   
 45  20  22  2   
 46  20  23  1   
 47  21  24  1   
 48  21  49  1   
 49  22  24  1   
 50  23  50  1   
 51  23  51  1   
 52  23  52  1   
 53  24  25  1   
 54  25  53  1   
 55  25  54  1   
 56  25  55  1   
@<TRIPOS>SUBSTRUCTURE
  1 ****  18 GROUP 4 **** **** 0

# MOE 2024.06 (io_trps.svl 2023.06)
