@<TRIPOS>MOLECULE
NONAME
43 45 1 0 0 
SMALL
USER_CHARGES


@<TRIPOS>ATOM
  1 O       -1.0720     0.2920     2.0860 O.2   1 <1>  -0.5700 
  2 C       -1.7960     0.7860     1.2410 C.2   1 <1>   0.6160 
  3 N       -2.9600     0.1240     0.9200 N.am  1 <1>  -0.6600 
  4 C       -1.4470     2.0590     0.6800 C.2   1 <1>   0.0290 
  5 C       -4.0380     0.6170     0.0230 C.3   1 <1>   0.1400 
  6 C       -3.2420    -1.2680     1.3520 C.3   1 <1>   0.1400 
  7 C       -1.2370     2.1660    -0.7310 C.2   1 <1>   0.6160 
  8 C       -1.2830     3.1810     1.4560 C.2   1 <1>  -0.1500 
  9 C       -5.1620    -0.4090     0.1730 C.3   1 <1>   0.2000 
 10 C       -4.4370    -1.7160     0.5010 C.3   1 <1>  -0.0800 
 11 O       -1.3410     1.2430    -1.5250 O.2   1 <1>  -0.5700 
 12 N       -0.9050     3.3900    -1.2490 N.am  1 <1>  -0.5390 
 13 C       -0.9360     4.4170     0.8710 C.2   1 <1>  -0.1500 
 14 O       -5.9340    -0.0520     1.2680 O.3   1 <1>  -0.6800 
 15 C       -3.9730    -2.4250    -0.7860 C.3   1 <1>   0.0210 
 16 C       -0.7520     4.5080    -0.4760 C.2   1 <1>  -0.0290 
 17 C       -3.2550    -3.7230    -0.4780 C.2   1 <1>   0.1080 
 18 C       -0.3750     5.7940    -1.1830 C.3   1 <1>  -0.1020 
 19 N       -3.8590    -4.7670     0.0000 N.2   1 <1>  -0.7070 
 20 C       -1.8930    -3.9400    -0.6600 C.2   1 <1>  -0.1500 
 21 N       -2.8870    -5.6890     0.1350 N.pl3 1 <1>   0.3000 
 22 C       -1.6870    -5.2110    -0.2570 C.2   1 <1>  -0.3320 
 23 C       -0.3960    -6.0080    -0.2200 C.3   1 <1>  -0.0600 
 24 H       -4.3610     1.6080     0.2900 H     1 <1>   0.0800 
 25 H       -3.6870     0.6120    -0.9930 H     1 <1>   0.0800 
 26 H       -2.3760    -1.8940     1.2190 H     1 <1>   0.0800 
 27 H       -3.5060    -1.2630     2.3960 H     1 <1>   0.0800 
 28 H       -1.4110     3.1290     2.5240 H     1 <1>   0.1500 
 29 H       -5.8040    -0.4680    -0.6890 H     1 <1>   0.0800 
 30 H       -5.0730    -2.3920     1.0480 H     1 <1>   0.0800 
 31 H       -0.7580     3.3990    -2.2590 H     1 <1>   0.3700 
 32 H       -0.8200     5.2730     1.5130 H     1 <1>   0.1500 
 33 H       -5.3490     0.0600     2.0430 H     1 <1>   0.4000 
 34 H       -3.3170    -1.7880    -1.3530 H     1 <1>   0.0800 
 35 H       -4.8270    -2.6540    -1.3980 H     1 <1>   0.0800 
 36 H       -1.1310     6.0530    -1.9020 H     1 <1>   0.0800 
 37 H        0.5650     5.6730    -1.6900 H     1 <1>   0.0800 
 38 H       -0.2820     6.6010    -0.4780 H     1 <1>   0.0800 
 39 H       -1.1840    -3.2260    -1.0400 H     1 <1>   0.1500 
 40 H       -3.0750    -6.6300     0.4980 H     1 <1>   0.2700 
 41 H        0.4200    -5.4040    -0.5760 H     1 <1>   0.0800 
 42 H       -0.4770    -6.8780    -0.8470 H     1 <1>   0.0800 
 43 H       -0.1780    -6.3180     0.7870 H     1 <1>   0.0800 
@<TRIPOS>BOND
  1   1   2  2   
  2   2   3  am  
  3   2   4  1   
  4   3   5  1   
  5   3   6  1   
  6   4   7  1   
  7   4   8  2   
  8   5   9  1   
  9   5  24  1   
 10   5  25  1   
 11   6  10  1   
 12   6  26  1   
 13   6  27  1   
 14   7  11  2   
 15   7  12  am  
 16   8  13  1   
 17   8  28  1   
 18   9  10  1   
 19   9  14  1   
 20   9  29  1   
 21  10  15  1   
 22  10  30  1   
 23  12  16  1   
 24  12  31  1   
 25  13  16  2   
 26  13  32  1   
 27  14  33  1   
 28  15  17  1   
 29  15  34  1   
 30  15  35  1   
 31  16  18  1   
 32  17  19  2   
 33  17  20  1   
 34  18  36  1   
 35  18  37  1   
 36  18  38  1   
 37  19  21  1   
 38  20  22  2   
 39  20  39  1   
 40  21  22  1   
 41  21  40  1   
 42  22  23  1   
 43  23  41  1   
 44  23  42  1   
 45  23  43  1   
@<TRIPOS>SUBSTRUCTURE
  1 ****   3 GROUP 4 **** **** 0

# MOE 2024.06 (io_trps.svl 2023.06)
