@<TRIPOS>MOLECULE
NONAME
50 52 1 0 0 
SMALL
USER_CHARGES


@<TRIPOS>ATOM
  1 O       -0.4930     0.4290    -1.1520 O.2   1 <1>  -0.5700 
  2 C       -1.4840     1.0720    -0.8930 C.2   1 <1>   0.5690 
  3 N       -2.7390     0.5080    -0.9420 N.am  1 <1>  -0.6600 
  4 C       -1.3120     2.5390    -0.5190 C.3   1 <1>  -0.0990 
  5 C       -3.9800     1.2440    -0.5480 C.3   1 <1>   0.2200 
  6 C       -2.8910    -0.9060    -1.4090 C.3   1 <1>   0.0600 
  7 C        0.1270     3.0610    -0.6340 C.3   1 <1>  -0.0160 
  8 C       -4.9680     0.4430     0.3000 C.3   1 <1>  -0.1600 
  9 C       -4.7970     1.6950    -1.7540 C.3   1 <1>  -0.1600 
 10 C        0.1690     4.5570    -0.3380 C.ar  1 <1>  -0.1440 
 11 C       -6.2970     1.1910     0.1350 C.3   1 <1>  -0.0800 
 12 C       -6.1950     1.9770    -1.1860 C.3   1 <1>  -0.0800 
 13 C        0.1390     5.0400     0.9700 C.ar  1 <1>   0.0820 
 14 C        0.2330     5.4520    -1.3950 C.ar  1 <1>  -0.1500 
 15 C       -6.5560     2.2280     1.2370 C.3   1 <1>  -0.1600 
 16 C       -6.4210     3.4550    -0.8310 C.3   1 <1>  -0.1600 
 17 O        0.0710     4.1330     1.9810 O.3   1 <1>  -0.3630 
 18 C        0.1760     6.4140     1.1970 C.ar  1 <1>  -0.1500 
 19 C        0.2690     6.8150    -1.1630 C.ar  1 <1>  -0.1500 
 20 C       -7.1440     3.4240     0.5060 C.3   1 <1>   0.2000 
 21 C        0.1790     4.5170     3.3330 C.3   1 <1>   0.0400 
 22 C        0.2410     7.2960     0.1330 C.ar  1 <1>  -0.1500 
 23 O       -6.8940     4.5820     1.2090 O.3   1 <1>  -0.6800 
 24 H       -1.9390     3.1290    -1.1610 H     1 <1>   0.0800 
 25 H       -1.6380     2.6710     0.4950 H     1 <1>   0.0800 
 26 H       -3.7290     2.1190     0.0220 H     1 <1>   0.0800 
 27 H       -3.7670    -1.0100    -2.0220 H     1 <1>   0.0800 
 28 H       -2.9700    -1.5590    -0.5590 H     1 <1>   0.0800 
 29 H       -2.0380    -1.2080    -1.9930 H     1 <1>   0.0800 
 30 H        0.5010     2.8720    -1.6240 H     1 <1>   0.0800 
 31 H        0.7620     2.5320     0.0560 H     1 <1>   0.0800 
 32 H       -5.0990    -0.5480    -0.0910 H     1 <1>   0.0800 
 33 H       -4.6530     0.3800     1.3260 H     1 <1>   0.0800 
 34 H       -4.3630     2.5560    -2.2310 H     1 <1>   0.0800 
 35 H       -4.8690     0.8970    -2.4700 H     1 <1>   0.0800 
 36 H       -7.1210     0.4980     0.0910 H     1 <1>   0.0800 
 37 H       -6.9560     1.6480    -1.8740 H     1 <1>   0.0800 
 38 H        0.2560     5.0900    -2.4080 H     1 <1>   0.1500 
 39 H       -5.6300     2.5100     1.7090 H     1 <1>   0.0800 
 40 H       -7.2380     1.8510     1.9790 H     1 <1>   0.0800 
 41 H       -7.0120     3.9520    -1.5800 H     1 <1>   0.0800 
 42 H       -5.4780     3.9610    -0.7220 H     1 <1>   0.0800 
 43 H        0.1530     6.8160     2.1910 H     1 <1>   0.1500 
 44 H        0.3190     7.5000    -1.9910 H     1 <1>   0.1500 
 45 H       -8.2080     3.3140     0.3720 H     1 <1>   0.0800 
 46 H        0.1580     3.6270     3.9360 H     1 <1>   0.0800 
 47 H       -0.6550     5.1490     3.5840 H     1 <1>   0.0800 
 48 H        1.1120     5.0330     3.4750 H     1 <1>   0.0800 
 49 H        0.2690     8.3560     0.3130 H     1 <1>   0.1500 
 50 H       -5.9330     4.7010     1.3230 H     1 <1>   0.4000 
@<TRIPOS>BOND
  1   1   2  2   
  2   2   3  am  
  3   2   4  1   
  4   3   5  1   
  5   3   6  1   
  6   4   7  1   
  7   4  24  1   
  8   4  25  1   
  9   5   8  1   
 10   5   9  1   
 11   5  26  1   
 12   6  27  1   
 13   6  28  1   
 14   6  29  1   
 15   7  10  1   
 16   7  30  1   
 17   7  31  1   
 18   8  11  1   
 19   8  32  1   
 20   8  33  1   
 21   9  12  1   
 22   9  34  1   
 23   9  35  1   
 24  10  13  ar  
 25  10  14  ar  
 26  11  12  1   
 27  11  15  1   
 28  11  36  1   
 29  12  16  1   
 30  12  37  1   
 31  13  17  1   
 32  13  18  ar  
 33  14  19  ar  
 34  14  38  1   
 35  15  20  1   
 36  15  39  1   
 37  15  40  1   
 38  16  20  1   
 39  16  41  1   
 40  16  42  1   
 41  17  21  1   
 42  18  22  ar  
 43  18  43  1   
 44  19  22  ar  
 45  19  44  1   
 46  20  23  1   
 47  20  45  1   
 48  21  46  1   
 49  21  47  1   
 50  21  48  1   
 51  22  49  1   
 52  23  50  1   
@<TRIPOS>SUBSTRUCTURE
  1 ****   4 GROUP 4 **** **** 0

# MOE 2024.06 (io_trps.svl 2023.06)
