@<TRIPOS>MOLECULE
NONAME
43 44 1 0 0 
SMALL
USER_CHARGES


@<TRIPOS>ATOM
  1 S        1.2950    -0.3120     0.9880 S.o2  1 <1>   1.3330 
  2 O        1.2390     0.5640     2.1370 O.2   1 <1>  -0.6500 
  3 O        2.2430    -1.4030     0.9710 O.2   1 <1>  -0.6500 
  4 N       -0.2520    -0.9660     0.7420 N.am  1 <1>  -0.8490 
  5 C        1.5190     0.7160    -0.4650 C.3   1 <1>  -0.0550 
  6 C       -0.2510    -2.1550    -0.1170 C.3   1 <1>   0.1160 
  7 C       -0.9370    -1.2630     2.0040 C.3   1 <1>   0.1160 
  8 C        2.8370     1.5150    -0.4520 C.3   1 <1>  -0.0800 
  9 C        2.8620     2.5530    -1.5600 C.3   1 <1>   0.2200 
 10 C        4.0390     0.6430    -0.8210 C.3   1 <1>   0.1200 
 11 N        3.8220     3.6140    -1.1890 N.am  1 <1>  -0.7300 
 12 C        3.3990     1.7530    -2.7430 C.3   1 <1>   0.1200 
 13 O        4.1500     0.6990    -2.2120 O.3   1 <1>  -0.5600 
 14 C        3.5000     4.8960    -0.8840 C.2   1 <1>   0.5690 
 15 O        2.3760     5.3150    -1.0100 O.2   1 <1>  -0.5700 
 16 C        4.5810     5.8240    -0.3570 C.3   1 <1>   0.0440 
 17 C        5.7190     5.0620     0.3180 C.ar  1 <1>  -0.1440 
 18 C        6.9720     4.9510    -0.2500 C.ar  1 <1>  -0.1500 
 19 C        5.5370     4.4240     1.5290 C.ar  1 <1>  -0.1500 
 20 C        7.9540     4.2210     0.4000 C.ar  1 <1>   0.1600 
 21 C        6.5840     3.7180     2.0940 C.ar  1 <1>   0.1600 
 22 N        7.7870     3.5980     1.5550 N.ar  1 <1>  -0.6200 
 23 H        1.4740     0.1070    -1.3470 H     1 <1>   0.0800 
 24 H        0.7010     1.4090    -0.5030 H     1 <1>   0.0800 
 25 H       -1.2620    -2.4700    -0.3140 H     1 <1>   0.0800 
 26 H        0.2820    -2.9630     0.3580 H     1 <1>   0.0800 
 27 H        0.2250    -1.9350    -1.0570 H     1 <1>   0.0800 
 28 H       -1.9190    -1.6610     1.8110 H     1 <1>   0.0800 
 29 H       -1.0480    -0.3630     2.5850 H     1 <1>   0.0800 
 30 H       -0.3710    -1.9780     2.5780 H     1 <1>   0.0800 
 31 H        2.9610     1.9720     0.5150 H     1 <1>   0.0800 
 32 H        1.8960     2.9820    -1.7670 H     1 <1>   0.0800 
 33 H        3.9440    -0.3850    -0.5190 H     1 <1>   0.0800 
 34 H        4.9460     1.0500    -0.4070 H     1 <1>   0.0800 
 35 H        4.7840     3.2960    -1.0350 H     1 <1>   0.3700 
 36 H        4.0190     2.3450    -3.3930 H     1 <1>   0.0800 
 37 H        2.5910     1.3210    -3.3060 H     1 <1>   0.0800 
 38 H        4.9550     6.4080    -1.1770 H     1 <1>   0.0800 
 39 H        4.1360     6.5000     0.3510 H     1 <1>   0.0800 
 40 H        7.1990     5.4210    -1.1900 H     1 <1>   0.1500 
 41 H        4.5890     4.4650     2.0370 H     1 <1>   0.1500 
 42 H        8.9270     4.1430    -0.0550 H     1 <1>   0.1500 
 43 H        6.4240     3.2240     3.0380 H     1 <1>   0.1500 
@<TRIPOS>BOND
  1   1   2  2   
  2   1   3  2   
  3   1   4  am  
  4   1   5  1   
  5   4   6  1   
  6   4   7  1   
  7   5   8  1   
  8   5  23  1   
  9   5  24  1   
 10   6  25  1   
 11   6  26  1   
 12   6  27  1   
 13   7  28  1   
 14   7  29  1   
 15   7  30  1   
 16   8   9  1   
 17   8  10  1   
 18   8  31  1   
 19   9  11  1   
 20   9  12  1   
 21   9  32  1   
 22  10  13  1   
 23  10  33  1   
 24  10  34  1   
 25  11  14  am  
 26  11  35  1   
 27  12  13  1   
 28  12  36  1   
 29  12  37  1   
 30  14  15  2   
 31  14  16  1   
 32  16  17  1   
 33  16  38  1   
 34  16  39  1   
 35  17  18  ar  
 36  17  19  ar  
 37  18  20  ar  
 38  18  40  1   
 39  19  21  ar  
 40  19  41  1   
 41  20  22  ar  
 42  20  42  1   
 43  21  22  ar  
 44  21  43  1   
@<TRIPOS>SUBSTRUCTURE
  1 ****   8 GROUP 4 **** **** 0

# MOE 2024.06 (io_trps.svl 2023.06)
