@<TRIPOS>MOLECULE
NONAME
46 48 1 0 0 
SMALL
USER_CHARGES


@<TRIPOS>ATOM
  1 CL      -0.7190    -0.8970     2.6370 Cl    1 <1>  -0.1770 
  2 C       -1.4950    -1.4080     1.1550 C.ar  1 <1>   0.1770 
  3 C       -1.6710    -0.5260     0.1040 C.ar  1 <1>   0.1900 
  4 C       -1.9360    -2.7120     1.0410 C.ar  1 <1>  -0.1500 
  5 F       -1.2600     0.7080     0.2060 F     1 <1>  -0.1900 
  6 C       -2.2820    -0.9280    -1.0690 C.ar  1 <1>  -0.1500 
  7 C       -2.5690    -3.1530    -0.1250 C.ar  1 <1>   0.0860 
  8 C       -2.7220    -2.2370    -1.1740 C.ar  1 <1>  -0.1500 
  9 C       -3.0440    -4.5210    -0.2360 C.2   1 <1>   0.5440 
 10 O       -2.4490    -5.4270     0.3200 O.2   1 <1>  -0.5700 
 11 N       -4.1920    -4.8480    -0.9240 N.am  1 <1>  -0.6600 
 12 C       -4.4240    -6.2660    -1.3040 C.3   1 <1>   0.1400 
 13 C       -5.4470    -4.0780    -0.7120 C.3   1 <1>   0.1400 
 14 C       -5.1800    -6.9680    -0.1530 C.3   1 <1>   0.4230 
 15 C       -6.2300    -4.7470     0.4270 C.3   1 <1>  -0.1600 
 16 N       -5.2940    -8.4760    -0.3160 N.4   1 <1>  -0.9590 
 17 C       -6.5280    -6.2570     0.1780 C.3   1 <1>   0.0000 
 18 C       -6.3460    -9.1060     0.5460 C.3   1 <1>   0.3430 
 19 C       -5.4220    -8.9690    -1.7260 C.3   1 <1>   0.2630 
 20 C       -7.1240    -6.8680     1.4800 C.3   1 <1>  -0.1600 
 21 C       -7.5250    -6.4220    -1.0040 C.3   1 <1>   0.1200 
 22 C       -6.5920    -8.2770     1.8060 C.3   1 <1>  -0.1600 
 23 O       -8.6450    -5.6230    -0.8450 O.3   1 <1>  -0.6800 
 24 H       -1.7890    -3.3930     1.8610 H     1 <1>   0.1500 
 25 H       -2.4050    -0.2290    -1.8780 H     1 <1>   0.1500 
 26 H       -3.1900    -2.5610    -2.0880 H     1 <1>   0.1500 
 27 H       -4.9780    -6.2930    -2.2240 H     1 <1>   0.0800 
 28 H       -3.4750    -6.7490    -1.4650 H     1 <1>   0.0800 
 29 H       -5.2290    -3.0580    -0.4450 H     1 <1>   0.0800 
 30 H       -6.0280    -4.0650    -1.6190 H     1 <1>   0.0800 
 31 H       -4.5590    -6.8090     0.7140 H     1 <1>   0.0800 
 32 H       -5.6450    -4.6350     1.3240 H     1 <1>   0.0800 
 33 H       -7.1420    -4.2000     0.5890 H     1 <1>   0.0800 
 34 H       -4.3920    -8.8300     0.0400 H     1 <1>   0.4500 
 35 H       -7.2720    -9.1760    -0.0010 H     1 <1>   0.0800 
 36 H       -6.0460   -10.1060     0.8190 H     1 <1>   0.0800 
 37 H       -6.3270    -8.5940    -2.1770 H     1 <1>   0.0800 
 38 H       -5.4530   -10.0470    -1.7430 H     1 <1>   0.0800 
 39 H       -4.5810    -8.6480    -2.3180 H     1 <1>   0.0800 
 40 H       -6.9070    -6.2410     2.3290 H     1 <1>   0.0800 
 41 H       -8.1980    -6.9090     1.4110 H     1 <1>   0.0800 
 42 H       -7.8660    -7.4380    -1.0950 H     1 <1>   0.0800 
 43 H       -7.0810    -6.1300    -1.9380 H     1 <1>   0.0800 
 44 H       -7.3050    -8.7870     2.4320 H     1 <1>   0.0800 
 45 H       -5.6750    -8.2080     2.3670 H     1 <1>   0.0800 
 46 H       -9.1690    -5.8700    -0.0570 H     1 <1>   0.4000 
@<TRIPOS>BOND
  1   1   2  1   
  2   2   3  ar  
  3   2   4  ar  
  4   3   5  1   
  5   3   6  ar  
  6   4   7  ar  
  7   4  24  1   
  8   6   8  ar  
  9   6  25  1   
 10   7   8  ar  
 11   7   9  1   
 12   8  26  1   
 13   9  10  2   
 14   9  11  am  
 15  11  12  1   
 16  11  13  1   
 17  12  14  1   
 18  12  27  1   
 19  12  28  1   
 20  13  15  1   
 21  13  29  1   
 22  13  30  1   
 23  14  16  1   
 24  14  17  1   
 25  14  31  1   
 26  15  17  1   
 27  15  32  1   
 28  15  33  1   
 29  16  18  1   
 30  16  19  1   
 31  16  34  1   
 32  17  20  1   
 33  17  21  1   
 34  18  22  1   
 35  18  35  1   
 36  18  36  1   
 37  19  37  1   
 38  19  38  1   
 39  19  39  1   
 40  20  22  1   
 41  20  40  1   
 42  20  41  1   
 43  21  23  1   
 44  21  42  1   
 45  21  43  1   
 46  22  44  1   
 47  22  45  1   
 48  23  46  1   
@<TRIPOS>SUBSTRUCTURE
  1 ****  11 GROUP 4 **** **** 0

# MOE 2024.06 (io_trps.svl 2023.06)
