@<TRIPOS>MOLECULE
NONAME
52 56 1 0 0 
SMALL
USER_CHARGES


@<TRIPOS>ATOM
  1 O        1.5320    -0.6740    -0.5990 O.2   1 <1>  -0.5700 
  2 C        0.8030    -1.6330    -0.4440 C.2   1 <1>   0.5440 
  3 N       -0.4380    -1.3410     0.0010 N.am  1 <1>  -0.8000 
  4 C        1.2550    -2.9850    -0.7220 C.ar  1 <1>   0.0860 
  5 C        0.4430    -4.1360    -0.5910 C.ar  1 <1>   0.4100 
  6 C        2.5630    -3.1910    -1.1450 C.ar  1 <1>  -0.1500 
  7 N        0.8600    -5.3790    -0.8450 N.ar  1 <1>  -0.6200 
  8 N       -0.8790    -4.0910    -0.1870 N.pl3 1 <1>  -0.8380 
  9 C        2.9880    -4.4730    -1.4060 C.ar  1 <1>  -0.1500 
 10 C        2.1050    -5.5250    -1.2430 C.ar  1 <1>   0.1670 
 11 C       -1.1110    -4.6350     1.1920 C.3   1 <1>   0.2090 
 12 C       -1.8580    -4.3410    -1.2960 C.3   1 <1>   0.2090 
 13 C        2.5530    -6.9420    -1.5260 C.3   1 <1>  -0.0970 
 14 C       -2.5770    -4.8770     1.5240 C.3   1 <1>  -0.1600 
 15 C       -3.2890    -4.5660    -0.8210 C.3   1 <1>  -0.1600 
 16 C       -3.3430    -5.5130     0.3730 C.3   1 <1>   0.4600 
 17 O       -4.6780    -5.5810     0.8160 O.3   1 <1>  -0.5600 
 18 C       -2.8420    -6.9240     0.0430 C.2   1 <1>  -0.3320 
 19 C       -5.5460    -6.4870     0.1770 C.3   1 <1>   0.1200 
 20 N       -1.5690    -7.2860    -0.3190 N.pl3 1 <1>   0.0330 
 21 C       -3.6230    -8.0230     0.0610 C.2   1 <1>  -0.1810 
 22 C       -5.0890    -7.9380     0.3990 C.3   1 <1>   0.0210 
 23 C       -1.5540    -8.6450    -0.5180 C.ar  1 <1>  -0.1520 
 24 C       -2.8340    -9.1400    -0.2830 C.ar  1 <1>   0.0000 
 25 C       -0.5140    -9.4990    -0.8900 C.ar  1 <1>  -0.1500 
 26 C       -3.0820   -10.5100    -0.4180 C.ar  1 <1>  -0.1500 
 27 C       -0.7710   -10.8440    -1.0210 C.ar  1 <1>  -0.1500 
 28 C       -2.0560   -11.3500    -0.7850 C.ar  1 <1>  -0.1500 
 29 H       -0.7220    -0.3790     0.1760 H     1 <1>   0.3700 
 30 H       -1.1160    -2.1020     0.1360 H     1 <1>   0.3700 
 31 H        3.2350    -2.3580    -1.2660 H     1 <1>   0.1500 
 32 H        3.9960    -4.6490    -1.7340 H     1 <1>   0.1500 
 33 H       -0.7010    -3.9450     1.9100 H     1 <1>   0.0800 
 34 H       -0.5700    -5.5590     1.3110 H     1 <1>   0.0800 
 35 H       -1.5410    -5.1990    -1.8650 H     1 <1>   0.0800 
 36 H       -1.8410    -3.5000    -1.9670 H     1 <1>   0.0800 
 37 H        1.9320    -7.3680    -2.2930 H     1 <1>   0.0800 
 38 H        2.4590    -7.5330    -0.6330 H     1 <1>   0.0800 
 39 H        3.5760    -6.9690    -1.8540 H     1 <1>   0.0800 
 40 H       -3.0310    -3.9360     1.7760 H     1 <1>   0.0800 
 41 H       -2.6390    -5.5180     2.3840 H     1 <1>   0.0800 
 42 H       -3.8540    -4.9730    -1.6370 H     1 <1>   0.0800 
 43 H       -3.7170    -3.6190    -0.5490 H     1 <1>   0.0800 
 44 H       -5.5660    -6.2580    -0.8730 H     1 <1>   0.0800 
 45 H       -6.5310    -6.3410     0.5840 H     1 <1>   0.0800 
 46 H       -0.7650    -6.6470    -0.4440 H     1 <1>   0.2700 
 47 H       -5.6540    -8.5960    -0.2340 H     1 <1>   0.0800 
 48 H       -5.2450    -8.2210     1.4240 H     1 <1>   0.0800 
 49 H        0.4670    -9.0990    -1.0670 H     1 <1>   0.1500 
 50 H       -4.0710   -10.8830    -0.2330 H     1 <1>   0.1500 
 51 H        0.0140   -11.5220    -1.3070 H     1 <1>   0.1500 
 52 H       -2.2310   -12.4050    -0.8940 H     1 <1>   0.1500 
@<TRIPOS>BOND
  1   1   2  2   
  2   2   3  am  
  3   2   4  1   
  4   3  29  1   
  5   3  30  1   
  6   4   5  ar  
  7   4   6  ar  
  8   5   7  ar  
  9   5   8  1   
 10   6   9  ar  
 11   6  31  1   
 12   7  10  ar  
 13   8  11  1   
 14   8  12  1   
 15   9  10  ar  
 16   9  32  1   
 17  10  13  1   
 18  11  14  1   
 19  11  33  1   
 20  11  34  1   
 21  12  15  1   
 22  12  35  1   
 23  12  36  1   
 24  13  37  1   
 25  13  38  1   
 26  13  39  1   
 27  14  16  1   
 28  14  40  1   
 29  14  41  1   
 30  15  16  1   
 31  15  42  1   
 32  15  43  1   
 33  16  17  1   
 34  16  18  1   
 35  17  19  1   
 36  18  20  1   
 37  18  21  2   
 38  19  22  1   
 39  19  44  1   
 40  19  45  1   
 41  20  23  1   
 42  20  46  1   
 43  21  22  1   
 44  21  24  1   
 45  22  47  1   
 46  22  48  1   
 47  23  24  ar  
 48  23  25  ar  
 49  24  26  ar  
 50  25  27  ar  
 51  25  49  1   
 52  26  28  ar  
 53  26  50  1   
 54  27  28  ar  
 55  27  51  1   
 56  28  52  1   
@<TRIPOS>SUBSTRUCTURE
  1 ****  20 GROUP 4 **** **** 0

# MOE 2024.06 (io_trps.svl 2023.06)
