@<TRIPOS>MOLECULE
NONAME
59 63 1 0 0 
SMALL
USER_CHARGES


@<TRIPOS>ATOM
  1 N        0.5640     0.1820    -0.1630 N.ar  1 <1>  -0.6200 
  2 C       -0.3410     1.0840     0.2490 C.ar  1 <1>   0.6200 
  3 C        1.2590     0.5260    -1.2180 C.ar  1 <1>   0.1660 
  4 N       -0.5580     2.2750    -0.3260 N.ar  1 <1>  -0.6200 
  5 C       -1.1460     0.7430     1.4120 C.ar  1 <1>   0.0000 
  6 C        1.1070     1.7110    -1.8650 C.ar  1 <1>  -0.1430 
  7 C        2.3320    -0.3290    -1.8480 C.3   1 <1>   0.1440 
  8 C        0.1660     2.5810    -1.3790 C.ar  1 <1>   0.1600 
  9 C       -1.5580    -0.5700     1.6570 C.ar  1 <1>  -0.1500 
 10 C       -1.5430     1.7130     2.3350 C.ar  1 <1>  -0.1500 
 11 C        2.0490     1.8340    -3.0360 C.3   1 <1>  -0.0160 
 12 C        3.2680    -0.8250    -0.7330 C.3   1 <1>   0.3430 
 13 C        1.6940    -1.5250    -2.5860 C.3   1 <1>  -0.1600 
 14 C        3.0270     0.6620    -2.8210 C.3   1 <1>  -0.1600 
 15 C       -2.3190    -0.8980     2.7650 C.ar  1 <1>  -0.1500 
 16 C       -2.3040     1.3930     3.4450 C.ar  1 <1>  -0.1500 
 17 N        4.2920    -1.8060    -1.2460 N.4   1 <1>  -0.9590 
 18 C        2.7410    -2.5710    -3.0100 C.3   1 <1>  -0.1600 
 19 C       -2.6940     0.0850     3.6630 C.ar  1 <1>  -0.1500 
 20 C        3.6300    -3.0040    -1.8400 C.3   1 <1>   0.3430 
 21 C        5.2700    -2.1830    -0.1850 C.3   1 <1>   0.4860 
 22 C        6.0810    -0.9620     0.1790 C.ar  1 <1>  -0.1430 
 23 C        5.8250    -0.2390     1.3230 C.ar  1 <1>   0.1600 
 24 C        7.1020    -0.5110    -0.6260 C.ar  1 <1>   0.1600 
 25 N        6.4870     0.8480     1.6200 N.ar  1 <1>  -0.6200 
 26 N        7.7770     0.5740    -0.3510 N.ar  1 <1>  -0.6200 
 27 C        7.4290     1.2090     0.7630 C.ar  1 <1>   0.7200 
 28 N        8.0780     2.3460     1.0860 N.pl3 1 <1>  -0.8690 
 29 C        9.3860     2.7410     0.5400 C.3   1 <1>   0.2090 
 30 C        9.7490     4.1080     1.1040 C.3   1 <1>  -0.2400 
 31 H        0.0030     3.5350    -1.8530 H     1 <1>   0.1500 
 32 H       -1.2820    -1.3460     0.9660 H     1 <1>   0.1500 
 33 H       -1.2510     2.7380     2.1790 H     1 <1>   0.1500 
 34 H        2.5580     2.7830    -3.0400 H     1 <1>   0.0800 
 35 H        1.5000     1.7130    -3.9550 H     1 <1>   0.0800 
 36 H        2.6670    -1.2930     0.0300 H     1 <1>   0.0800 
 37 H        3.7530     0.0300    -0.2900 H     1 <1>   0.0800 
 38 H        1.1450    -1.1790    -3.4460 H     1 <1>   0.0800 
 39 H        0.9830    -1.9990    -1.9290 H     1 <1>   0.0800 
 40 H        3.2980     0.2110    -3.7590 H     1 <1>   0.0800 
 41 H        3.9180     1.0580    -2.3630 H     1 <1>   0.0800 
 42 H       -2.6240    -1.9170     2.9280 H     1 <1>   0.1500 
 43 H       -2.5950     2.1630     4.1380 H     1 <1>   0.1500 
 44 H        4.8120    -1.3310    -1.9950 H     1 <1>   0.4500 
 45 H        3.3560    -2.1860    -3.8050 H     1 <1>   0.0800 
 46 H        2.2320    -3.4370    -3.3980 H     1 <1>   0.0800 
 47 H       -3.2870    -0.1670     4.5250 H     1 <1>   0.1500 
 48 H        3.0250    -3.4960    -1.0950 H     1 <1>   0.0800 
 49 H        4.3700    -3.7050    -2.1940 H     1 <1>   0.0800 
 50 H        5.9320    -2.9540    -0.5470 H     1 <1>   0.0800 
 51 H        4.7530    -2.5590     0.6830 H     1 <1>   0.0800 
 52 H        5.0560    -0.5460     2.0140 H     1 <1>   0.1500 
 53 H        7.3780    -1.0410    -1.5230 H     1 <1>   0.1500 
 54 H        7.8690     2.6730     2.0280 H     1 <1>   0.4000 
 55 H        9.3290     2.7860    -0.5360 H     1 <1>   0.0800 
 56 H       10.1290     2.0110     0.8170 H     1 <1>   0.0800 
 57 H        9.0030     4.8310     0.8270 H     1 <1>   0.0800 
 58 H       10.6950     4.4230     0.7040 H     1 <1>   0.0800 
 59 H        9.8290     4.0620     2.1750 H     1 <1>   0.0800 
@<TRIPOS>BOND
  1   1   2  ar  
  2   1   3  ar  
  3   2   4  ar  
  4   2   5  1   
  5   3   6  ar  
  6   3   7  1   
  7   4   8  ar  
  8   5   9  ar  
  9   5  10  ar  
 10   6   8  ar  
 11   6  11  1   
 12   7  12  1   
 13   7  13  1   
 14   7  14  1   
 15   8  31  1   
 16   9  15  ar  
 17   9  32  1   
 18  10  16  ar  
 19  10  33  1   
 20  11  14  1   
 21  11  34  1   
 22  11  35  1   
 23  12  17  1   
 24  12  36  1   
 25  12  37  1   
 26  13  18  1   
 27  13  38  1   
 28  13  39  1   
 29  14  40  1   
 30  14  41  1   
 31  15  19  ar  
 32  15  42  1   
 33  16  19  ar  
 34  16  43  1   
 35  17  20  1   
 36  17  21  1   
 37  17  44  1   
 38  18  20  1   
 39  18  45  1   
 40  18  46  1   
 41  19  47  1   
 42  20  48  1   
 43  20  49  1   
 44  21  22  1   
 45  21  50  1   
 46  21  51  1   
 47  22  23  ar  
 48  22  24  ar  
 49  23  25  ar  
 50  23  52  1   
 51  24  26  ar  
 52  24  53  1   
 53  25  27  ar  
 54  26  27  ar  
 55  27  28  1   
 56  28  29  1   
 57  28  54  1   
 58  29  30  1   
 59  29  55  1   
 60  29  56  1   
 61  30  57  1   
 62  30  58  1   
 63  30  59  1   
@<TRIPOS>SUBSTRUCTURE
  1 ****  12 GROUP 4 **** **** 0

# MOE 2024.06 (io_trps.svl 2023.06)
