@<TRIPOS>MOLECULE
NONAME
51 54 1 0 0 
SMALL
USER_CHARGES


@<TRIPOS>ATOM
  1 O        1.7480    -0.2540     1.0880 O.2   1 <1>  -0.5700 
  2 C        2.6050    -1.0740     0.7920 C.2   1 <1>   0.7160 
  3 N        3.9050    -0.5930     0.7420 N.am  1 <1>  -0.6600 
  4 C        2.2190    -2.4530     0.4920 C.2   1 <1>   0.2030 
  5 C        4.3560     0.4680     1.6990 C.3   1 <1>   0.1400 
  6 C        4.9250    -1.0710    -0.2380 C.3   1 <1>   0.1400 
  7 N        3.0200    -3.4740     0.2310 N.2   1 <1>  -0.7070 
  8 C        0.8890    -2.8810     0.4580 C.2   1 <1>  -0.1500 
  9 C        4.8140     1.8110     1.0620 C.3   1 <1>   0.4230 
 10 C        5.3370     0.0500    -1.2150 C.3   1 <1>  -0.0800 
 11 N        2.2050    -4.5230     0.0440 N.pl3 1 <1>   0.3000 
 12 C        0.8980    -4.2050     0.1730 C.2   1 <1>  -0.2050 
 13 N        4.1880     2.1690    -0.2740 N.4   1 <1>  -0.9590 
 14 C        6.3530     1.9160     1.0020 C.3   1 <1>   0.1200 
 15 C        6.7410     0.6150    -0.9490 C.3   1 <1>   0.1200 
 16 C        4.2460     1.1250    -1.3580 C.3   1 <1>   0.3430 
 17 C       -0.1880    -5.1390     0.0170 C.ar  1 <1>   0.0530 
 18 C        2.7630     2.5830    -0.0780 C.3   1 <1>   0.2630 
 19 O        6.9530     0.8080     0.4100 O.3   1 <1>  -0.5600 
 20 C       -0.0980    -6.4510     0.4790 C.ar  1 <1>  -0.1500 
 21 C       -1.3710    -4.7490    -0.6060 C.ar  1 <1>  -0.1500 
 22 C       -1.1420    -7.3440     0.3170 C.ar  1 <1>  -0.1500 
 23 C       -2.4180    -5.6360    -0.7710 C.ar  1 <1>  -0.1500 
 24 C       -2.3140    -6.9390    -0.3140 C.ar  1 <1>   0.0830 
 25 O       -3.3840    -7.7460    -0.5150 O.3   1 <1>  -0.3630 
 26 C       -3.3890    -9.0850    -0.0720 C.3   1 <1>   0.0400 
 27 H        3.5590     0.6860     2.3890 H     1 <1>   0.0800 
 28 H        5.1590     0.0680     2.2950 H     1 <1>   0.0800 
 29 H        5.7790    -1.4630     0.2890 H     1 <1>   0.0800 
 30 H        4.5180    -1.8750    -0.8230 H     1 <1>   0.0800 
 31 H        0.0330    -2.2550     0.6390 H     1 <1>   0.1500 
 32 H        4.5200     2.5780     1.7580 H     1 <1>   0.0800 
 33 H        5.4030    -0.4190    -2.1810 H     1 <1>   0.0800 
 34 H        2.5520    -5.4630    -0.1840 H     1 <1>   0.2700 
 35 H        4.7050     2.9850    -0.6230 H     1 <1>   0.4500 
 36 H        6.7360     1.9620     2.0070 H     1 <1>   0.0800 
 37 H        6.6710     2.8060     0.4880 H     1 <1>   0.0800 
 38 H        6.9220     1.5360    -1.4780 H     1 <1>   0.0800 
 39 H        7.4770    -0.1030    -1.2700 H     1 <1>   0.0800 
 40 H        3.2980     0.6130    -1.3990 H     1 <1>   0.0800 
 41 H        4.3750     1.6210    -2.3060 H     1 <1>   0.0800 
 42 H        2.1770     1.7550     0.2830 H     1 <1>   0.0800 
 43 H        2.3370     2.9200    -1.0090 H     1 <1>   0.0800 
 44 H        2.6970     3.3850     0.6390 H     1 <1>   0.0800 
 45 H        0.7940    -6.7770     0.9810 H     1 <1>   0.1500 
 46 H       -1.4680    -3.7420    -0.9690 H     1 <1>   0.1500 
 47 H       -1.0300    -8.3450     0.6890 H     1 <1>   0.1500 
 48 H       -3.3260    -5.3240    -1.2550 H     1 <1>   0.1500 
 49 H       -4.3360    -9.5200    -0.3360 H     1 <1>   0.0800 
 50 H       -3.2640    -9.1000     0.9960 H     1 <1>   0.0800 
 51 H       -2.5940    -9.6180    -0.5620 H     1 <1>   0.0800 
@<TRIPOS>BOND
  1   1   2  2   
  2   2   3  am  
  3   2   4  1   
  4   3   5  1   
  5   3   6  1   
  6   4   7  2   
  7   4   8  1   
  8   5   9  1   
  9   5  27  1   
 10   5  28  1   
 11   6  10  1   
 12   6  29  1   
 13   6  30  1   
 14   7  11  1   
 15   8  12  2   
 16   8  31  1   
 17   9  13  1   
 18   9  14  1   
 19   9  32  1   
 20  10  15  1   
 21  10  16  1   
 22  10  33  1   
 23  11  12  1   
 24  11  34  1   
 25  12  17  1   
 26  13  16  1   
 27  13  18  1   
 28  13  35  1   
 29  14  19  1   
 30  14  36  1   
 31  14  37  1   
 32  15  19  1   
 33  15  38  1   
 34  15  39  1   
 35  16  40  1   
 36  16  41  1   
 37  17  20  ar  
 38  17  21  ar  
 39  18  42  1   
 40  18  43  1   
 41  18  44  1   
 42  20  22  ar  
 43  20  45  1   
 44  21  23  ar  
 45  21  46  1   
 46  22  24  ar  
 47  22  47  1   
 48  23  24  ar  
 49  23  48  1   
 50  24  25  1   
 51  25  26  1   
 52  26  49  1   
 53  26  50  1   
 54  26  51  1   
@<TRIPOS>SUBSTRUCTURE
  1 ****   4 GROUP 4 **** **** 0

# MOE 2024.06 (io_trps.svl 2023.06)
