@<TRIPOS>MOLECULE
NONAME
55 57 1 0 0 
SMALL
USER_CHARGES


@<TRIPOS>ATOM
  1 CL       1.5820    -1.7130     1.1080 Cl    1 <1>  -0.1770 
  2 C        0.6360    -3.0350     0.4600 C.ar  1 <1>   0.1770 
  3 C        0.5980    -4.2580     1.1160 C.ar  1 <1>  -0.1440 
  4 C       -0.0650    -2.8280    -0.7130 C.ar  1 <1>  -0.1500 
  5 C       -0.1640    -5.2770     0.5670 C.ar  1 <1>  -0.1500 
  6 C        1.3740    -4.4820     2.4060 C.3   1 <1>  -0.0960 
  7 C       -0.8200    -3.8560    -1.2460 C.ar  1 <1>  -0.1500 
  8 C       -0.8780    -5.0950    -0.6140 C.ar  1 <1>   0.1170 
  9 N       -1.6280    -6.1710    -1.1090 N.am  1 <1>  -0.5470 
 10 C       -2.2320    -6.4220    -2.3070 C.2   1 <1>   0.5690 
 11 O       -2.2710    -5.6490    -3.2340 O.2   1 <1>  -0.5700 
 12 C       -2.8790    -7.8010    -2.4530 C.3   1 <1>   0.1710 
 13 N       -3.1920    -8.4480    -1.1410 N.3   1 <1>  -0.8100 
 14 C       -3.2640    -9.9170    -1.2890 C.3   1 <1>   0.1100 
 15 C       -4.4420    -7.9080    -0.5810 C.3   1 <1>   0.1100 
 16 C       -3.3960   -10.6130     0.0860 C.3   1 <1>   0.0000 
 17 C       -4.6970    -8.5040     0.8040 C.3   1 <1>  -0.1600 
 18 C       -4.6780   -10.0350     0.7390 C.3   1 <1>   0.2000 
 19 C       -3.6220   -12.1300    -0.1220 C.3   1 <1>   0.1200 
 20 C       -2.1390   -10.3530     0.9750 C.3   1 <1>  -0.0170 
 21 O       -4.8590   -10.5270     2.0210 O.3   1 <1>  -0.6800 
 22 O       -2.6910   -12.6700    -0.9990 O.3   1 <1>  -0.6800 
 23 C       -0.8210   -10.8920     0.4290 C.ar  1 <1>  -0.1430 
 24 C       -0.3460   -12.1300     0.8380 C.ar  1 <1>  -0.1500 
 25 C       -0.0760   -10.1460    -0.4720 C.ar  1 <1>  -0.1500 
 26 C        0.8470   -12.6230     0.3390 C.ar  1 <1>  -0.1500 
 27 C        1.1180   -10.6370    -0.9710 C.ar  1 <1>  -0.1500 
 28 C        1.5790   -11.8770    -0.5670 C.ar  1 <1>  -0.1500 
 29 H       -0.0180    -1.8710    -1.2010 H     1 <1>   0.1500 
 30 H       -0.2050    -6.2330     1.0570 H     1 <1>   0.1500 
 31 H        1.2320    -5.4810     2.7760 H     1 <1>   0.0800 
 32 H        1.0430    -3.7880     3.1580 H     1 <1>   0.0800 
 33 H        2.4240    -4.3280     2.2330 H     1 <1>   0.0800 
 34 H       -1.3640    -3.6870    -2.1570 H     1 <1>   0.1500 
 35 H       -1.7730    -6.9560    -0.4670 H     1 <1>   0.3700 
 36 H       -2.1800    -8.4100    -2.9980 H     1 <1>   0.0800 
 37 H       -3.7700    -7.7120    -3.0500 H     1 <1>   0.0800 
 38 H       -4.1060   -10.1770    -1.9100 H     1 <1>   0.0800 
 39 H       -2.3790   -10.2730    -1.7880 H     1 <1>   0.0800 
 40 H       -4.3760    -6.8360    -0.4980 H     1 <1>   0.0800 
 41 H       -5.2670    -8.1440    -1.2350 H     1 <1>   0.0800 
 42 H       -5.6600    -8.1750     1.1500 H     1 <1>   0.0800 
 43 H       -3.9510    -8.1350     1.4840 H     1 <1>   0.0800 
 44 H       -5.5310   -10.3550     0.1640 H     1 <1>   0.0800 
 45 H       -4.5950   -12.3160    -0.5440 H     1 <1>   0.0800 
 46 H       -3.5520   -12.6580     0.8140 H     1 <1>   0.0800 
 47 H       -2.0170    -9.2970     1.1320 H     1 <1>   0.0800 
 48 H       -2.2940   -10.7900     1.9440 H     1 <1>   0.0800 
 49 H       -4.2400   -10.0960     2.6390 H     1 <1>   0.4000 
 50 H       -1.7800   -12.4370    -0.7040 H     1 <1>   0.4000 
 51 H       -0.9030   -12.7200     1.5460 H     1 <1>   0.1500 
 52 H       -0.4230    -9.1800    -0.7910 H     1 <1>   0.1500 
 53 H        1.2070   -13.5860     0.6570 H     1 <1>   0.1500 
 54 H        1.6880   -10.0530    -1.6730 H     1 <1>   0.1500 
 55 H        2.5070   -12.2590    -0.9560 H     1 <1>   0.1500 
@<TRIPOS>BOND
  1   1   2  1   
  2   2   3  ar  
  3   2   4  ar  
  4   3   5  ar  
  5   3   6  1   
  6   4   7  ar  
  7   4  29  1   
  8   5   8  ar  
  9   5  30  1   
 10   6  31  1   
 11   6  32  1   
 12   6  33  1   
 13   7   8  ar  
 14   7  34  1   
 15   8   9  1   
 16   9  10  am  
 17   9  35  1   
 18  10  11  2   
 19  10  12  1   
 20  12  13  1   
 21  12  36  1   
 22  12  37  1   
 23  13  14  1   
 24  13  15  1   
 25  14  16  1   
 26  14  38  1   
 27  14  39  1   
 28  15  17  1   
 29  15  40  1   
 30  15  41  1   
 31  16  18  1   
 32  16  19  1   
 33  16  20  1   
 34  17  18  1   
 35  17  42  1   
 36  17  43  1   
 37  18  21  1   
 38  18  44  1   
 39  19  22  1   
 40  19  45  1   
 41  19  46  1   
 42  20  23  1   
 43  20  47  1   
 44  20  48  1   
 45  21  49  1   
 46  22  50  1   
 47  23  24  ar  
 48  23  25  ar  
 49  24  26  ar  
 50  24  51  1   
 51  25  27  ar  
 52  25  52  1   
 53  26  28  ar  
 54  26  53  1   
 55  27  28  ar  
 56  27  54  1   
 57  28  55  1   
@<TRIPOS>SUBSTRUCTURE
  1 ****  13 GROUP 4 **** **** 0

# MOE 2024.06 (io_trps.svl 2023.06)
