@<TRIPOS>MOLECULE
NONAME
42 44 1 0 0 
SMALL
USER_CHARGES


@<TRIPOS>ATOM
  1 CL       0.1090     0.8400    -1.8150 Cl    1 <1>  -0.1770 
  2 C        0.2940     2.2990    -0.8700 C.ar  1 <1>   0.1770 
  3 C       -0.5670     2.5620     0.1850 C.ar  1 <1>  -0.1440 
  4 C        1.3140     3.1680    -1.2050 C.ar  1 <1>  -0.1500 
  5 C       -0.3800     3.7290     0.9070 C.ar  1 <1>  -0.1500 
  6 C       -1.6890     1.6010     0.5480 C.3   1 <1>  -0.0960 
  7 C        1.5080     4.3420    -0.4870 C.ar  1 <1>  -0.0090 
  8 C        0.6440     4.6010     0.5720 C.ar  1 <1>  -0.1500 
  9 S        2.8660     5.4760    -0.8940 S.o2  1 <1>   1.4470 
 10 O        2.4920     6.8050    -0.4540 O.2   1 <1>  -0.6500 
 11 O        3.2580     5.2390    -2.2660 O.2   1 <1>  -0.6500 
 12 N        4.1010     4.8980     0.1250 N.am  1 <1>  -0.8490 
 13 C        4.5440     5.8050     1.2020 C.3   1 <1>   0.1960 
 14 C        5.1440     4.0560    -0.4920 C.3   1 <1>   0.1960 
 15 C        5.6240     6.8560     0.8240 C.3   1 <1>   0.2200 
 16 C        6.3800     4.7790    -1.0760 C.3   1 <1>  -0.0190 
 17 N        5.7070     7.1440    -0.6410 N.am  1 <1>  -0.6600 
 18 C        7.0110     6.4550     1.3680 C.3   1 <1>   0.1200 
 19 C        6.1380     6.2030    -1.5360 C.2   1 <1>   0.5690 
 20 C        7.6080     4.7340    -0.1540 C.3   1 <1>   0.1200 
 21 C        5.2560     8.4930    -1.0810 C.3   1 <1>   0.0600 
 22 O        7.3000     5.1020     1.1560 O.3   1 <1>  -0.5600 
 23 O        6.3910     6.4760    -2.6860 O.2   1 <1>  -0.5700 
 24 H        1.9590     2.9280    -2.0320 H     1 <1>   0.1500 
 25 H       -1.0290     3.9670     1.7320 H     1 <1>   0.1500 
 26 H       -2.2550     1.9650     1.3870 H     1 <1>   0.0800 
 27 H       -1.2810     0.6390     0.8040 H     1 <1>   0.0800 
 28 H       -2.3560     1.4830    -0.2880 H     1 <1>   0.0800 
 29 H        0.7740     5.5040     1.1450 H     1 <1>   0.1500 
 30 H        3.6900     6.3260     1.5980 H     1 <1>   0.0800 
 31 H        4.9150     5.2050     2.0150 H     1 <1>   0.0800 
 32 H        5.4820     3.3500     0.2470 H     1 <1>   0.0800 
 33 H        4.6910     3.4740    -1.2770 H     1 <1>   0.0800 
 34 H        5.3630     7.7730     1.3220 H     1 <1>   0.0800 
 35 H        6.6620     4.2270    -1.9540 H     1 <1>   0.0800 
 36 H        7.0240     6.6040     2.4330 H     1 <1>   0.0800 
 37 H        7.7880     7.0610     0.9340 H     1 <1>   0.0800 
 38 H        8.3940     5.3710    -0.5240 H     1 <1>   0.0800 
 39 H        7.9840     3.7260    -0.1110 H     1 <1>   0.0800 
 40 H        4.2770     8.7000    -0.6840 H     1 <1>   0.0800 
 41 H        5.2010     8.5420    -2.1550 H     1 <1>   0.0800 
 42 H        5.9480     9.2410    -0.7350 H     1 <1>   0.0800 
@<TRIPOS>BOND
  1   1   2  1   
  2   2   3  ar  
  3   2   4  ar  
  4   3   5  ar  
  5   3   6  1   
  6   4   7  ar  
  7   4  24  1   
  8   5   8  ar  
  9   5  25  1   
 10   6  26  1   
 11   6  27  1   
 12   6  28  1   
 13   7   8  ar  
 14   7   9  1   
 15   8  29  1   
 16   9  10  2   
 17   9  11  2   
 18   9  12  am  
 19  12  13  1   
 20  12  14  1   
 21  13  15  1   
 22  13  30  1   
 23  13  31  1   
 24  14  16  1   
 25  14  32  1   
 26  14  33  1   
 27  15  17  1   
 28  15  18  1   
 29  15  34  1   
 30  16  19  1   
 31  16  20  1   
 32  16  35  1   
 33  17  19  am  
 34  17  21  1   
 35  18  22  1   
 36  18  36  1   
 37  18  37  1   
 38  19  23  2   
 39  20  22  1   
 40  20  38  1   
 41  20  39  1   
 42  21  40  1   
 43  21  41  1   
 44  21  42  1   
@<TRIPOS>SUBSTRUCTURE
  1 ****  12 GROUP 4 **** **** 0

# MOE 2024.06 (io_trps.svl 2023.06)
