@<TRIPOS>MOLECULE
NONAME
58 60 1 0 0 
SMALL
USER_CHARGES


@<TRIPOS>ATOM
  1 CL      -3.5020     0.5660    -2.3030 Cl    1 <1>  -0.1770 
  2 C       -2.9630    -0.5630    -1.0820 C.ar  1 <1>   0.1770 
  3 C       -2.4570    -0.1070     0.1290 C.ar  1 <1>   0.0820 
  4 C       -3.0630    -1.9150    -1.3610 C.ar  1 <1>  -0.1500 
  5 O       -2.3970     1.2230     0.3840 O.3   1 <1>  -0.3630 
  6 C       -2.0640    -1.0580     1.0660 C.ar  1 <1>   0.1770 
  7 C       -2.6670    -2.8550    -0.4170 C.ar  1 <1>  -0.1440 
  8 C       -1.1310     1.8450     0.4400 C.3   1 <1>   0.2000 
  9 CL      -1.4580    -0.5850     2.6370 Cl    1 <1>  -0.1770 
 10 C       -2.1580    -2.4130     0.7990 C.ar  1 <1>  -0.1500 
 11 C       -2.7980    -4.3400    -0.7060 C.3   1 <1>   0.4870 
 12 C       -1.2720     3.0780     1.3280 C.3   1 <1>  -0.2400 
 13 C       -0.7070     2.2230    -0.9790 C.3   1 <1>  -0.2400 
 14 N       -3.9990    -4.8600     0.0200 N.4   1 <1>  -0.9590 
 15 C       -4.0190    -6.3720     0.0700 C.3   1 <1>   0.3430 
 16 C       -5.2500    -4.2750    -0.5620 C.3   1 <1>   0.3430 
 17 C       -5.3130    -6.9840     0.7110 C.3   1 <1>   0.4230 
 18 C       -6.4570    -4.8160     0.2020 C.3   1 <1>  -0.1600 
 19 N       -5.3540    -8.5150     0.7700 N.4   1 <1>  -0.9590 
 20 C       -6.5910    -6.3600     0.0840 C.3   1 <1>   0.0000 
 21 C       -6.7360    -9.0890     0.9360 C.3   1 <1>   0.3430 
 22 C       -4.6630    -9.2590    -0.3400 C.3   1 <1>   0.2630 
 23 C       -7.8440    -6.7950     0.8930 C.3   1 <1>  -0.1600 
 24 C       -6.7280    -6.8170    -1.4020 C.3   1 <1>   0.1200 
 25 C       -7.6540    -8.1120     1.6670 C.3   1 <1>  -0.1600 
 26 O       -7.3920    -5.8740    -2.1610 O.3   1 <1>  -0.6800 
 27 H       -3.4530    -2.2050    -2.3220 H     1 <1>   0.1500 
 28 H       -0.4180     1.1640     0.8730 H     1 <1>   0.0800 
 29 H       -1.8250    -3.1000     1.5580 H     1 <1>   0.1500 
 30 H       -1.9060    -4.8420    -0.3660 H     1 <1>   0.0800 
 31 H       -2.8970    -4.5030    -1.7680 H     1 <1>   0.0800 
 32 H       -1.9980     3.7560     0.9170 H     1 <1>   0.0800 
 33 H       -0.3290     3.5870     1.4050 H     1 <1>   0.0800 
 34 H       -1.5790     2.7830     2.3150 H     1 <1>   0.0800 
 35 H       -1.4450     2.8630    -1.4310 H     1 <1>   0.0800 
 36 H       -0.5840     1.3420    -1.5810 H     1 <1>   0.0800 
 37 H        0.2310     2.7460    -0.9550 H     1 <1>   0.0800 
 38 H       -3.9200    -4.4740     0.9730 H     1 <1>   0.4500 
 39 H       -3.9330    -6.7430    -0.9370 H     1 <1>   0.0800 
 40 H       -3.1630    -6.7160     0.6270 H     1 <1>   0.0800 
 41 H       -5.2320    -3.1990    -0.4820 H     1 <1>   0.0800 
 42 H       -5.3400    -4.5310    -1.6070 H     1 <1>   0.0800 
 43 H       -5.3130    -6.6500     1.7360 H     1 <1>   0.0800 
 44 H       -6.3790    -4.5150     1.2330 H     1 <1>   0.0800 
 45 H       -7.3420    -4.3360    -0.1820 H     1 <1>   0.0800 
 46 H       -4.8680    -8.7810     1.6430 H     1 <1>   0.4500 
 47 H       -7.1650    -9.3010    -0.0310 H     1 <1>   0.0800 
 48 H       -6.6860   -10.0190     1.4820 H     1 <1>   0.0800 
 49 H       -5.1290    -9.0490    -1.2890 H     1 <1>   0.0800 
 50 H       -4.7230   -10.3230    -0.1660 H     1 <1>   0.0800 
 51 H       -3.6200    -8.9920    -0.3940 H     1 <1>   0.0800 
 52 H       -8.1220    -6.0400     1.6100 H     1 <1>   0.0800 
 53 H       -8.6870    -6.8920     0.2280 H     1 <1>   0.0800 
 54 H       -7.2590    -7.7500    -1.4930 H     1 <1>   0.0800 
 55 H       -5.7660    -6.9370    -1.8670 H     1 <1>   0.0800 
 56 H       -8.6160    -8.5750     1.8140 H     1 <1>   0.0800 
 57 H       -7.2530    -7.9160     2.6470 H     1 <1>   0.0800 
 58 H       -8.3660    -6.0030    -2.1470 H     1 <1>   0.4000 
@<TRIPOS>BOND
  1   1   2  1   
  2   2   3  ar  
  3   2   4  ar  
  4   3   5  1   
  5   3   6  ar  
  6   4   7  ar  
  7   4  27  1   
  8   5   8  1   
  9   6   9  1   
 10   6  10  ar  
 11   7  10  ar  
 12   7  11  1   
 13   8  12  1   
 14   8  13  1   
 15   8  28  1   
 16  10  29  1   
 17  11  14  1   
 18  11  30  1   
 19  11  31  1   
 20  12  32  1   
 21  12  33  1   
 22  12  34  1   
 23  13  35  1   
 24  13  36  1   
 25  13  37  1   
 26  14  15  1   
 27  14  16  1   
 28  14  38  1   
 29  15  17  1   
 30  15  39  1   
 31  15  40  1   
 32  16  18  1   
 33  16  41  1   
 34  16  42  1   
 35  17  19  1   
 36  17  20  1   
 37  17  43  1   
 38  18  20  1   
 39  18  44  1   
 40  18  45  1   
 41  19  21  1   
 42  19  22  1   
 43  19  46  1   
 44  20  23  1   
 45  20  24  1   
 46  21  25  1   
 47  21  47  1   
 48  21  48  1   
 49  22  49  1   
 50  22  50  1   
 51  22  51  1   
 52  23  25  1   
 53  23  52  1   
 54  23  53  1   
 55  24  26  1   
 56  24  54  1   
 57  24  55  1   
 58  25  56  1   
 59  25  57  1   
 60  26  58  1   
@<TRIPOS>SUBSTRUCTURE
  1 ****  14 GROUP 4 **** **** 0

# MOE 2024.06 (io_trps.svl 2023.06)
