@<TRIPOS>MOLECULE
NONAME
57 60 1 0 0 
SMALL
USER_CHARGES


@<TRIPOS>ATOM
  1 F       -0.5640     1.9270    -1.8460 F     1 <1>  -0.1900 
  2 C       -0.1510     3.1470    -1.6400 C.ar  1 <1>   0.1900 
  3 C       -0.8780     3.9630    -0.7960 C.ar  1 <1>  -0.1500 
  4 C        0.9980     3.5780    -2.2730 C.ar  1 <1>  -0.1500 
  5 C       -0.4340     5.2560    -0.5760 C.ar  1 <1>  -0.1500 
  6 C        1.4350     4.8730    -2.0480 C.ar  1 <1>  -0.1500 
  7 C        0.7260     5.7130    -1.1950 C.ar  1 <1>  -0.1430 
  8 C        1.2210     7.1240    -0.9380 C.3   1 <1>   0.4870 
  9 N        1.8250     7.1790     0.4210 N.4   1 <1>  -0.9590 
 10 C        2.1380     8.6040     0.7930 C.3   1 <1>   0.3430 
 11 C        3.0410     6.3150     0.5110 C.3   1 <1>   0.3430 
 12 C        2.7890     8.7380     2.1920 C.3   1 <1>   0.2890 
 13 C        3.6010     6.3510     1.9360 C.3   1 <1>  -0.1600 
 14 N        3.2210    10.1280     2.4860 N.pl3 1 <1>  -0.8690 
 15 C        3.9750     7.7790     2.3650 C.3   1 <1>  -0.1600 
 16 C        4.1280    10.8710     1.7690 C.ar  1 <1>   0.4100 
 17 N        4.3990    10.4950     0.5250 N.ar  1 <1>  -0.6200 
 18 C        4.7300    11.9750     2.3680 C.ar  1 <1>  -0.1500 
 19 C        5.2920    11.2280    -0.1230 C.ar  1 <1>   0.1600 
 20 C        5.6510    12.7240     1.6760 C.ar  1 <1>  -0.1500 
 21 C        5.9520    12.3520     0.3690 C.ar  1 <1>   0.0860 
 22 C        6.9080    13.0540    -0.4580 C.2   1 <1>   0.5440 
 23 O        7.5950    12.4130    -1.2300 O.2   1 <1>  -0.5700 
 24 N        7.0650    14.4240    -0.4160 N.am  1 <1>  -0.6600 
 25 C        5.9520    15.3780    -0.1270 C.3   1 <1>   0.1400 
 26 C        8.2720    15.0930    -0.9900 C.3   1 <1>   0.1400 
 27 C        5.7000    16.3030    -1.3320 C.3   1 <1>   0.1200 
 28 C        7.8780    16.0200    -2.1500 C.3   1 <1>   0.1200 
 29 O        6.8860    16.9210    -1.7430 O.3   1 <1>  -0.5600 
 30 H       -1.7720     3.5880    -0.3290 H     1 <1>   0.1500 
 31 H        1.5300     2.9110    -2.9290 H     1 <1>   0.1500 
 32 H       -1.0070     5.8950     0.0750 H     1 <1>   0.1500 
 33 H        2.3290     5.2120    -2.5470 H     1 <1>   0.1500 
 34 H        0.3900     7.8080    -1.0020 H     1 <1>   0.0800 
 35 H        1.9500     7.4030    -1.6810 H     1 <1>   0.0800 
 36 H        1.1290     6.7990     1.0730 H     1 <1>   0.4500 
 37 H        1.2390     9.1980     0.7760 H     1 <1>   0.0800 
 38 H        2.8120     9.0020     0.0570 H     1 <1>   0.0800 
 39 H        3.7930     6.6690    -0.1760 H     1 <1>   0.0800 
 40 H        2.7940     5.2980     0.2510 H     1 <1>   0.0800 
 41 H        2.0380     8.4770     2.9180 H     1 <1>   0.0800 
 42 H        4.4800     5.7320     1.9780 H     1 <1>   0.0800 
 43 H        2.8810     5.9320     2.6180 H     1 <1>   0.0800 
 44 H        3.1480    10.3760     3.4770 H     1 <1>   0.4000 
 45 H        4.2920     7.7780     3.3940 H     1 <1>   0.0800 
 46 H        4.8020     8.1140     1.7630 H     1 <1>   0.0800 
 47 H        4.4710    12.2330     3.3780 H     1 <1>   0.1500 
 48 H        5.5320    10.9240    -1.1290 H     1 <1>   0.1500 
 49 H        6.1390    13.5700     2.1280 H     1 <1>   0.1500 
 50 H        6.2110    15.9770     0.7280 H     1 <1>   0.0800 
 51 H        5.0440    14.8470     0.0960 H     1 <1>   0.0800 
 52 H        8.9820    14.3650    -1.3410 H     1 <1>   0.0800 
 53 H        8.7520    15.6740    -0.2230 H     1 <1>   0.0800 
 54 H        5.0010    17.0770    -1.0680 H     1 <1>   0.0800 
 55 H        5.2990    15.7440    -2.1610 H     1 <1>   0.0800 
 56 H        7.5070    15.4460    -2.9820 H     1 <1>   0.0800 
 57 H        8.7290    16.5920    -2.4750 H     1 <1>   0.0800 
@<TRIPOS>BOND
  1   1   2  1   
  2   2   3  ar  
  3   2   4  ar  
  4   3   5  ar  
  5   3  30  1   
  6   4   6  ar  
  7   4  31  1   
  8   5   7  ar  
  9   5  32  1   
 10   6   7  ar  
 11   6  33  1   
 12   7   8  1   
 13   8   9  1   
 14   8  34  1   
 15   8  35  1   
 16   9  10  1   
 17   9  11  1   
 18   9  36  1   
 19  10  12  1   
 20  10  37  1   
 21  10  38  1   
 22  11  13  1   
 23  11  39  1   
 24  11  40  1   
 25  12  14  1   
 26  12  15  1   
 27  12  41  1   
 28  13  15  1   
 29  13  42  1   
 30  13  43  1   
 31  14  16  1   
 32  14  44  1   
 33  15  45  1   
 34  15  46  1   
 35  16  17  ar  
 36  16  18  ar  
 37  17  19  ar  
 38  18  20  ar  
 39  18  47  1   
 40  19  21  ar  
 41  19  48  1   
 42  20  21  ar  
 43  20  49  1   
 44  21  22  1   
 45  22  23  2   
 46  22  24  am  
 47  24  25  1   
 48  24  26  1   
 49  25  27  1   
 50  25  50  1   
 51  25  51  1   
 52  26  28  1   
 53  26  52  1   
 54  26  53  1   
 55  27  29  1   
 56  27  54  1   
 57  27  55  1   
 58  28  29  1   
 59  28  56  1   
 60  28  57  1   
@<TRIPOS>SUBSTRUCTURE
  1 ****  17 GROUP 4 **** **** 0

# MOE 2024.06 (io_trps.svl 2023.06)
