@<TRIPOS>MOLECULE
NONAME
34 35 1 0 0 
SMALL
USER_CHARGES


@<TRIPOS>ATOM
  1 O       -0.2310    -0.0390    -0.6700 O.2   1 <1>  -0.5700 
  2 C        0.8340    -0.5940    -0.5440 C.2   1 <1>   0.5690 
  3 N        1.9990     0.0450    -0.2410 N.am  1 <1>  -0.4930 
  4 C        0.8730    -2.0970    -0.7250 C.3   1 <1>  -0.0990 
  5 C        2.2240     1.4270    -0.0060 C.2   1 <1>   0.0630 
  6 C        0.1930    -2.8130     0.4470 C.3   1 <1>  -0.0160 
  7 C        3.4430     2.0420     0.2940 C.2   1 <1>   0.1080 
  8 C        1.3350     2.4400    -0.0150 C.2   1 <1>  -0.3020 
  9 C        0.2660    -4.3190     0.2630 C.ar  1 <1>  -0.1430 
 10 N        3.3220     3.3230     0.4560 N.2   1 <1>  -0.7070 
 11 C        4.7760     1.3410     0.4240 C.3   1 <1>  -0.0590 
 12 N        2.0150     3.5700     0.2640 N.pl3 1 <1>   0.3140 
 13 C        1.2250    -5.0900     0.8880 C.ar  1 <1>  -0.1500 
 14 C       -0.6270    -4.9930    -0.5450 C.ar  1 <1>  -0.1500 
 15 C        1.4550     4.9220     0.3560 C.3   1 <1>   0.0160 
 16 C        1.2460    -6.4590     0.6770 C.ar  1 <1>   0.1600 
 17 C       -0.5190    -6.3660    -0.6890 C.ar  1 <1>   0.1600 
 18 N        0.3980    -7.1150    -0.0990 N.ar  1 <1>  -0.6200 
 19 H        2.8330    -0.5320    -0.1770 H     1 <1>   0.3700 
 20 H        1.8890    -2.4340    -0.8170 H     1 <1>   0.0800 
 21 H        0.3610    -2.3400    -1.6390 H     1 <1>   0.0800 
 22 H       -0.8380    -2.5070     0.5070 H     1 <1>   0.0800 
 23 H        0.6680    -2.5340     1.3720 H     1 <1>   0.0800 
 24 H        0.2780     2.4140    -0.2040 H     1 <1>   0.1500 
 25 H        4.7190     0.5830     1.1820 H     1 <1>   0.0800 
 26 H        5.5340     2.0520     0.7010 H     1 <1>   0.0800 
 27 H        5.0470     0.8960    -0.5160 H     1 <1>   0.0800 
 28 H        1.9560    -4.6430     1.5360 H     1 <1>   0.1500 
 29 H       -1.4060    -4.4630    -1.0640 H     1 <1>   0.1500 
 30 H        0.6260     4.9150     1.0370 H     1 <1>   0.0800 
 31 H        1.1290     5.2330    -0.6190 H     1 <1>   0.0800 
 32 H        2.2140     5.5920     0.7150 H     1 <1>   0.0800 
 33 H        2.0000    -7.0460     1.1720 H     1 <1>   0.1500 
 34 H       -1.2240    -6.8750    -1.3230 H     1 <1>   0.1500 
@<TRIPOS>BOND
  1   1   2  2   
  2   2   3  am  
  3   2   4  1   
  4   3   5  1   
  5   3  19  1   
  6   4   6  1   
  7   4  20  1   
  8   4  21  1   
  9   5   7  1   
 10   5   8  2   
 11   6   9  1   
 12   6  22  1   
 13   6  23  1   
 14   7  10  2   
 15   7  11  1   
 16   8  12  1   
 17   8  24  1   
 18   9  13  ar  
 19   9  14  ar  
 20  10  12  1   
 21  11  25  1   
 22  11  26  1   
 23  11  27  1   
 24  12  15  1   
 25  13  16  ar  
 26  13  28  1   
 27  14  17  ar  
 28  14  29  1   
 29  15  30  1   
 30  15  31  1   
 31  15  32  1   
 32  16  18  ar  
 33  16  33  1   
 34  17  18  ar  
 35  17  34  1   
@<TRIPOS>SUBSTRUCTURE
  1 ****   2 GROUP 4 **** **** 0

# MOE 2024.06 (io_trps.svl 2023.06)
