@<TRIPOS>MOLECULE
NONAME
49 51 1 0 0 
SMALL
USER_CHARGES


@<TRIPOS>ATOM
  1 F        3.5880    -0.9490    -3.3290 F     1 <1>  -0.1900 
  2 C        3.4310    -1.2620    -2.0710 C.ar  1 <1>   0.1900 
  3 C        3.2250    -2.5860    -1.7350 C.ar  1 <1>  -0.1500 
  4 C        3.4760    -0.2560    -1.1250 C.ar  1 <1>  -0.1500 
  5 C        3.0560    -2.9200    -0.4000 C.ar  1 <1>  -0.1440 
  6 C        3.3080    -0.5950     0.2070 C.ar  1 <1>  -0.1500 
  7 C        3.0990    -1.9200     0.5630 C.ar  1 <1>  -0.1500 
  8 C        2.8190    -4.3670     0.0040 C.3   1 <1>  -0.0160 
  9 C        1.3170    -4.6890    -0.0330 C.3   1 <1>  -0.0990 
 10 C        0.9770    -6.1110     0.3990 C.2   1 <1>   0.5690 
 11 O        1.8890    -6.8900     0.5490 O.2   1 <1>  -0.5700 
 12 N       -0.3300    -6.4860     0.6110 N.am  1 <1>  -0.6600 
 13 C       -1.4960    -5.5940     0.3270 C.3   1 <1>   0.2200 
 14 C       -0.6150    -7.8530     1.1520 C.3   1 <1>   0.0600 
 15 C       -2.6680    -6.2750    -0.3800 C.3   1 <1>  -0.1600 
 16 C       -2.1070    -5.0180     1.5990 C.3   1 <1>  -0.1600 
 17 C       -3.8590    -5.3440    -0.1160 C.3   1 <1>  -0.0800 
 18 C       -3.5180    -4.5780     1.1850 C.3   1 <1>  -0.0800 
 19 C       -5.2090    -6.0880    -0.1050 C.3   1 <1>   0.1400 
 20 C       -4.5610    -4.7650     2.3010 C.3   1 <1>  -0.0990 
 21 N       -6.2450    -5.2640     0.5680 N.am  1 <1>  -0.6600 
 22 C       -5.9620    -4.6210     1.7420 C.2   1 <1>   0.5690 
 23 C       -7.5920    -5.2300    -0.0610 C.3   1 <1>   0.0600 
 24 O       -6.7670    -3.9560     2.3470 O.2   1 <1>  -0.5700 
 25 H        3.1990    -3.3340    -2.5070 H     1 <1>   0.1500 
 26 H        3.6390     0.7630    -1.4270 H     1 <1>   0.1500 
 27 H        3.3400     0.1680     0.9650 H     1 <1>   0.1500 
 28 H        2.9710    -2.1700     1.6020 H     1 <1>   0.1500 
 29 H        3.3490    -5.0230    -0.6660 H     1 <1>   0.0800 
 30 H        3.2030    -4.5380     0.9950 H     1 <1>   0.0800 
 31 H        0.9590    -4.5440    -1.0350 H     1 <1>   0.0800 
 32 H        0.8090    -4.0020     0.6170 H     1 <1>   0.0800 
 33 H       -1.1950    -4.7720    -0.2970 H     1 <1>   0.0800 
 34 H       -1.4350    -7.8250     1.8460 H     1 <1>   0.0800 
 35 H        0.2440    -8.2450     1.6690 H     1 <1>   0.0800 
 36 H       -0.8560    -8.5190     0.3410 H     1 <1>   0.0800 
 37 H       -2.4780    -6.3890    -1.4320 H     1 <1>   0.0800 
 38 H       -2.8720    -7.2350     0.0550 H     1 <1>   0.0800 
 39 H       -2.1640    -5.7770     2.3570 H     1 <1>   0.0800 
 40 H       -1.5310    -4.1890     1.9710 H     1 <1>   0.0800 
 41 H       -3.8960    -4.6210    -0.9150 H     1 <1>   0.0800 
 42 H       -3.4900    -3.5290     0.9390 H     1 <1>   0.0800 
 43 H       -5.1190    -7.0160     0.4330 H     1 <1>   0.0800 
 44 H       -5.5080    -6.3110    -1.1150 H     1 <1>   0.0800 
 45 H       -4.4070    -4.0380     3.0770 H     1 <1>   0.0800 
 46 H       -4.4820    -5.7440     2.7350 H     1 <1>   0.0800 
 47 H       -7.5220    -4.8050    -1.0470 H     1 <1>   0.0800 
 48 H       -8.2670    -4.6300     0.5250 H     1 <1>   0.0800 
 49 H       -7.9880    -6.2280    -0.1280 H     1 <1>   0.0800 
@<TRIPOS>BOND
  1   1   2  1   
  2   2   3  ar  
  3   2   4  ar  
  4   3   5  ar  
  5   3  25  1   
  6   4   6  ar  
  7   4  26  1   
  8   5   7  ar  
  9   5   8  1   
 10   6   7  ar  
 11   6  27  1   
 12   7  28  1   
 13   8   9  1   
 14   8  29  1   
 15   8  30  1   
 16   9  10  1   
 17   9  31  1   
 18   9  32  1   
 19  10  11  2   
 20  10  12  am  
 21  12  13  1   
 22  12  14  1   
 23  13  15  1   
 24  13  16  1   
 25  13  33  1   
 26  14  34  1   
 27  14  35  1   
 28  14  36  1   
 29  15  17  1   
 30  15  37  1   
 31  15  38  1   
 32  16  18  1   
 33  16  39  1   
 34  16  40  1   
 35  17  18  1   
 36  17  19  1   
 37  17  41  1   
 38  18  20  1   
 39  18  42  1   
 40  19  21  1   
 41  19  43  1   
 42  19  44  1   
 43  20  22  1   
 44  20  45  1   
 45  20  46  1   
 46  21  22  am  
 47  21  23  1   
 48  22  24  2   
 49  23  47  1   
 50  23  48  1   
 51  23  49  1   
@<TRIPOS>SUBSTRUCTURE
  1 ****  13 GROUP 4 **** **** 0

# MOE 2024.06 (io_trps.svl 2023.06)
