@<TRIPOS>MOLECULE
NONAME
52 55 1 0 0 
SMALL
USER_CHARGES


@<TRIPOS>ATOM
  1 O       -0.0390     0.7060     0.0130 O.2   1 <1>  -0.5700 
  2 C       -0.1830     1.8640    -0.2990 C.2   1 <1>   0.5690 
  3 N       -0.7190     2.7930     0.5520 N.am  1 <1>  -0.6600 
  4 C        0.2370     2.2900    -1.7070 C.3   1 <1>   0.1810 
  5 C       -0.9030     4.2190     0.1270 C.3   1 <1>   0.3640 
  6 C       -1.0790     2.4730     1.9640 C.3   1 <1>   0.0600 
  7 O        0.5490     3.6580    -1.7840 O.3   1 <1>  -0.5600 
  8 C       -2.3270     4.7190     0.4150 C.ar  1 <1>  -0.1430 
  9 C       -0.4950     4.5110    -1.3400 C.3   1 <1>   0.2610 
 10 C       -3.4990     4.0610     0.0270 C.ar  1 <1>  -0.1430 
 11 C       -2.4330     5.9200     1.1090 C.ar  1 <1>  -0.1500 
 12 C       -0.1140     5.9920    -1.4610 C.2   1 <1>   0.5690 
 13 C       -4.7300     4.6120     0.3530 C.ar  1 <1>  -0.1500 
 14 C       -3.5140     2.7440    -0.7430 C.3   1 <1>  -0.0960 
 15 C       -3.6650     6.4600     1.4240 C.ar  1 <1>  -0.1500 
 16 O       -0.9080     6.7340    -1.9920 O.2   1 <1>  -0.5700 
 17 N        1.0650     6.4800    -0.9520 N.am  1 <1>  -0.6600 
 18 C       -4.8180     5.8030     1.0470 C.ar  1 <1>  -0.1500 
 19 C        1.4120     7.9240    -0.9820 C.3   1 <1>   0.1400 
 20 C        2.2330     5.6850    -0.4890 C.3   1 <1>   0.1400 
 21 C        2.9230     7.9510    -0.7580 C.3   1 <1>  -0.0800 
 22 C        3.1710     6.7230     0.1280 C.3   1 <1>  -0.0800 
 23 C        3.4740     9.2810    -0.2110 C.3   1 <1>  -0.0220 
 24 C        2.7960     6.9460     1.6120 C.3   1 <1>  -0.0220 
 25 C        3.4310     9.3650     1.3030 C.2   1 <1>  -0.2880 
 26 C        3.1340     8.3400     2.1040 C.2   1 <1>  -0.2880 
 27 H       -0.5530     2.0770    -2.4030 H     1 <1>   0.0800 
 28 H        1.1130     1.7390    -1.9970 H     1 <1>   0.0800 
 29 H       -0.2380     4.7910     0.7480 H     1 <1>   0.0800 
 30 H       -0.5540     3.1310     2.6340 H     1 <1>   0.0800 
 31 H       -0.8150     1.4570     2.2040 H     1 <1>   0.0800 
 32 H       -2.1380     2.5950     2.1100 H     1 <1>   0.0800 
 33 H       -1.3370     4.3470    -1.9850 H     1 <1>   0.0800 
 34 H       -1.5500     6.4580     1.4090 H     1 <1>   0.1500 
 35 H       -5.6400     4.1150     0.0660 H     1 <1>   0.1500 
 36 H       -4.4920     2.5430    -1.1400 H     1 <1>   0.0800 
 37 H       -3.2480     1.9320    -0.0900 H     1 <1>   0.0800 
 38 H       -2.8310     2.7700    -1.5680 H     1 <1>   0.0800 
 39 H       -3.7260     7.3920     1.9590 H     1 <1>   0.1500 
 40 H       -5.7800     6.2180     1.2890 H     1 <1>   0.1500 
 41 H        1.1390     8.3680    -1.9240 H     1 <1>   0.0800 
 42 H        0.8980     8.4270    -0.1810 H     1 <1>   0.0800 
 43 H        1.9500     4.9230     0.2150 H     1 <1>   0.0800 
 44 H        2.7000     5.2240    -1.3430 H     1 <1>   0.0800 
 45 H        3.3790     7.7800    -1.7190 H     1 <1>   0.0800 
 46 H        4.1990     6.4110     0.0630 H     1 <1>   0.0800 
 47 H        4.5010     9.3840    -0.5160 H     1 <1>   0.0800 
 48 H        2.9240    10.1010    -0.6370 H     1 <1>   0.0800 
 49 H        1.7400     6.8000     1.7610 H     1 <1>   0.0800 
 50 H        3.3140     6.2200     2.2130 H     1 <1>   0.0800 
 51 H        3.6730    10.3450     1.6780 H     1 <1>   0.1500 
 52 H        3.1020     8.4310     3.1770 H     1 <1>   0.1500 
@<TRIPOS>BOND
  1   1   2  2   
  2   2   3  am  
  3   2   4  1   
  4   3   5  1   
  5   3   6  1   
  6   4   7  1   
  7   4  27  1   
  8   4  28  1   
  9   5   8  1   
 10   5   9  1   
 11   5  29  1   
 12   6  30  1   
 13   6  31  1   
 14   6  32  1   
 15   7   9  1   
 16   8  10  ar  
 17   8  11  ar  
 18   9  12  1   
 19   9  33  1   
 20  10  13  ar  
 21  10  14  1   
 22  11  15  ar  
 23  11  34  1   
 24  12  16  2   
 25  12  17  am  
 26  13  18  ar  
 27  13  35  1   
 28  14  36  1   
 29  14  37  1   
 30  14  38  1   
 31  15  18  ar  
 32  15  39  1   
 33  17  19  1   
 34  17  20  1   
 35  18  40  1   
 36  19  21  1   
 37  19  41  1   
 38  19  42  1   
 39  20  22  1   
 40  20  43  1   
 41  20  44  1   
 42  21  22  1   
 43  21  23  1   
 44  21  45  1   
 45  22  24  1   
 46  22  46  1   
 47  23  25  1   
 48  23  47  1   
 49  23  48  1   
 50  24  26  1   
 51  24  49  1   
 52  24  50  1   
 53  25  26  2   
 54  25  51  1   
 55  26  52  1   
@<TRIPOS>SUBSTRUCTURE
  1 ****   5 GROUP 4 **** **** 0

# MOE 2024.06 (io_trps.svl 2023.06)
