@<TRIPOS>MOLECULE
NONAME
51 53 1 0 0 
SMALL
USER_CHARGES


@<TRIPOS>ATOM
  1 O       -1.4980     0.5700    -1.9890 O.2   1 <1>  -0.5700 
  2 C       -1.4870     0.9250    -0.8260 C.2   1 <1>   0.7160 
  3 N       -1.5440    -0.0190     0.1580 N.am  1 <1>  -0.7300 
  4 C       -1.3980     2.2970    -0.4610 C.2   1 <1>  -0.0860 
  5 C       -1.7320    -1.4700    -0.0420 C.3   1 <1>   0.1400 
  6 C       -2.4290     3.2460    -0.4140 C.2   1 <1>   0.3720 
  7 C       -0.3060     2.9810    -0.0350 C.2   1 <1>   0.0870 
  8 C       -3.0830    -1.8760     0.5410 C.3   1 <1>  -0.1600 
  9 N       -1.9760     4.3760     0.0130 N.2   1 <1>  -0.4100 
 10 N       -3.7760     3.0580    -0.7800 N.pl3 1 <1>  -0.8210 
 11 O       -0.7010     4.1960     0.2370 O.3   1 <1>  -0.0190 
 12 C        1.0690     2.5940     0.1460 C.ar  1 <1>   0.0530 
 13 C       -3.3490    -3.3630     0.3250 C.3   1 <1>   0.1200 
 14 C       -4.4180     1.7240    -0.6960 C.3   1 <1>   0.2090 
 15 C       -4.7710     4.1160    -0.4560 C.3   1 <1>   0.2090 
 16 C        1.6840     1.6570    -0.6860 C.ar  1 <1>  -0.1500 
 17 C        1.8400     3.1480     1.1680 C.ar  1 <1>  -0.1500 
 18 O       -4.5830    -3.6500     0.8900 O.3   1 <1>  -0.5600 
 19 C       -5.9130     2.0010    -0.6520 C.3   1 <1>  -0.1600 
 20 C       -6.0220     3.3730     0.0000 C.3   1 <1>  -0.1600 
 21 C        3.0000     1.2770    -0.5010 C.ar  1 <1>  -0.1500 
 22 C        3.1560     2.7730     1.3600 C.ar  1 <1>  -0.1500 
 23 C       -4.9760    -4.9770     0.7490 C.3   1 <1>   0.0400 
 24 C        3.7490     1.8340     0.5320 C.ar  1 <1>   0.0830 
 25 O        5.0400     1.5190     0.7850 O.3   1 <1>  -0.3620 
 26 C        5.7470     0.5980    -0.0150 C.3   1 <1>   0.0400 
 27 H       -1.5080     0.2990     1.1280 H     1 <1>   0.3700 
 28 H       -0.9360    -2.0030     0.4500 H     1 <1>   0.0800 
 29 H       -1.7000    -1.7060    -1.0930 H     1 <1>   0.0800 
 30 H       -3.8620    -1.3160     0.0540 H     1 <1>   0.0800 
 31 H       -3.0990    -1.6690     1.5960 H     1 <1>   0.0800 
 32 H       -2.5980    -3.9630     0.8110 H     1 <1>   0.0800 
 33 H       -3.3860    -3.5950    -0.7270 H     1 <1>   0.0800 
 34 H       -4.1080     1.2300     0.2090 H     1 <1>   0.0800 
 35 H       -4.1610     1.1210    -1.5510 H     1 <1>   0.0800 
 36 H       -4.9740     4.6810    -1.3490 H     1 <1>   0.0800 
 37 H       -4.4230     4.7820     0.3150 H     1 <1>   0.0800 
 38 H        1.1270     1.2230    -1.4990 H     1 <1>   0.1500 
 39 H        1.4000     3.8810     1.8210 H     1 <1>   0.1500 
 40 H       -6.4450     1.2410    -0.1090 H     1 <1>   0.0800 
 41 H       -6.2870     2.0430    -1.6600 H     1 <1>   0.0800 
 42 H       -6.9190     3.8930    -0.2830 H     1 <1>   0.0800 
 43 H       -5.9940     3.2740     1.0710 H     1 <1>   0.0800 
 44 H        3.4270     0.5510    -1.1670 H     1 <1>   0.1500 
 45 H        3.7380     3.2070     2.1530 H     1 <1>   0.1500 
 46 H       -5.9360    -5.0920     1.2190 H     1 <1>   0.0800 
 47 H       -4.2560    -5.6150     1.2330 H     1 <1>   0.0800 
 48 H       -5.0530    -5.2160    -0.2970 H     1 <1>   0.0800 
 49 H        6.7470     0.5190     0.3710 H     1 <1>   0.0800 
 50 H        5.7740     0.9620    -1.0260 H     1 <1>   0.0800 
 51 H        5.2580    -0.3590     0.0390 H     1 <1>   0.0800 
@<TRIPOS>BOND
  1   1   2  2   
  2   2   3  am  
  3   2   4  1   
  4   3   5  1   
  5   3  27  1   
  6   4   6  1   
  7   4   7  2   
  8   5   8  1   
  9   5  28  1   
 10   5  29  1   
 11   6   9  2   
 12   6  10  1   
 13   7  11  1   
 14   7  12  1   
 15   8  13  1   
 16   8  30  1   
 17   8  31  1   
 18   9  11  1   
 19  10  14  1   
 20  10  15  1   
 21  12  16  ar  
 22  12  17  ar  
 23  13  18  1   
 24  13  32  1   
 25  13  33  1   
 26  14  19  1   
 27  14  34  1   
 28  14  35  1   
 29  15  20  1   
 30  15  36  1   
 31  15  37  1   
 32  16  21  ar  
 33  16  38  1   
 34  17  22  ar  
 35  17  39  1   
 36  18  23  1   
 37  19  20  1   
 38  19  40  1   
 39  19  41  1   
 40  20  42  1   
 41  20  43  1   
 42  21  24  ar  
 43  21  44  1   
 44  22  24  ar  
 45  22  45  1   
 46  23  46  1   
 47  23  47  1   
 48  23  48  1   
 49  24  25  1   
 50  25  26  1   
 51  26  49  1   
 52  26  50  1   
 53  26  51  1   
@<TRIPOS>SUBSTRUCTURE
  1 ****   2 GROUP 4 **** **** 0

# MOE 2024.06 (io_trps.svl 2023.06)
