@<TRIPOS>MOLECULE
NONAME
39 41 1 0 0 
SMALL
USER_CHARGES


@<TRIPOS>ATOM
  1 S        1.1330     0.8080     0.7980 S.3   1 <1>  -0.0800 
  2 C        0.3510     2.1550    -0.0380 C.2   1 <1>  -0.0450 
  3 C       -0.0430    -0.3430     0.2120 C.2   1 <1>  -0.1100 
  4 C        0.9360     3.4590     0.0960 C.2   1 <1>   0.5940 
  5 C       -0.7370     1.6730    -0.6990 C.2   1 <1>  -0.1500 
  6 C       -0.9560     0.2730    -0.5600 C.2   1 <1>  -0.1500 
  7 O        1.8720     3.7140     0.8200 O.2   1 <1>  -0.5700 
  8 C        0.3710     4.6310    -0.7030 C.3   1 <1>  -0.0190 
  9 C        1.5440     5.4480    -1.2770 C.3   1 <1>   0.3430 
 10 C       -0.5650     5.5000     0.1780 C.3   1 <1>  -0.1600 
 11 N        2.1280     6.2860    -0.1870 N.4   1 <1>  -0.9590 
 12 C       -0.2830     7.0040     0.0160 C.3   1 <1>  -0.1600 
 13 C        1.1910     7.3690     0.2660 C.3   1 <1>   0.3430 
 14 C        3.4880     6.7940    -0.5560 C.3   1 <1>   0.3430 
 15 C        4.3010     7.2400     0.6650 C.3   1 <1>   0.0960 
 16 N        5.5870     7.7760     0.2000 N.pl3 1 <1>   0.3140 
 17 N        5.7020     8.4300    -0.9470 N.2   1 <1>  -0.7070 
 18 C        6.7880     7.7150     0.7820 C.2   1 <1>   0.0360 
 19 C        6.9630     8.7220    -0.9750 C.2   1 <1>   0.3660 
 20 N        7.6820     8.2980     0.0710 N.2   1 <1>  -0.5650 
 21 H        0.0720    -1.3710     0.5100 H     1 <1>   0.1500 
 22 H       -1.4200     2.2550    -1.2940 H     1 <1>   0.1500 
 23 H       -1.7880    -0.2150    -1.0400 H     1 <1>   0.1500 
 24 H       -0.1850     4.2490    -1.5390 H     1 <1>   0.0800 
 25 H        1.1960     6.0820    -2.0770 H     1 <1>   0.0800 
 26 H        2.2880     4.7750    -1.6730 H     1 <1>   0.0800 
 27 H       -0.4330     5.2430     1.2180 H     1 <1>   0.0800 
 28 H       -1.5940     5.2930    -0.0680 H     1 <1>   0.0800 
 29 H        2.2360     5.6050     0.5940 H     1 <1>   0.4500 
 30 H       -0.9020     7.5660     0.6950 H     1 <1>   0.0800 
 31 H       -0.5550     7.3150    -0.9780 H     1 <1>   0.0800 
 32 H        1.4110     8.2900    -0.2520 H     1 <1>   0.0800 
 33 H        1.3380     7.5410     1.3210 H     1 <1>   0.0800 
 34 H        3.3890     7.6230    -1.2390 H     1 <1>   0.0800 
 35 H        4.0380     6.0150    -1.0580 H     1 <1>   0.0800 
 36 H        4.4880     6.4080     1.3180 H     1 <1>   0.0800 
 37 H        3.7930     8.0210     1.1980 H     1 <1>   0.0800 
 38 H        6.9690     7.2360     1.7270 H     1 <1>   0.1500 
 39 H        7.4320     9.2690    -1.7790 H     1 <1>   0.1500 
@<TRIPOS>BOND
  1   1   2  1   
  2   1   3  1   
  3   2   4  1   
  4   2   5  2   
  5   3   6  2   
  6   3  21  1   
  7   4   7  2   
  8   4   8  1   
  9   5   6  1   
 10   5  22  1   
 11   6  23  1   
 12   8   9  1   
 13   8  10  1   
 14   8  24  1   
 15   9  11  1   
 16   9  25  1   
 17   9  26  1   
 18  10  12  1   
 19  10  27  1   
 20  10  28  1   
 21  11  13  1   
 22  11  14  1   
 23  11  29  1   
 24  12  13  1   
 25  12  30  1   
 26  12  31  1   
 27  13  32  1   
 28  13  33  1   
 29  14  15  1   
 30  14  34  1   
 31  14  35  1   
 32  15  16  1   
 33  15  36  1   
 34  15  37  1   
 35  16  17  1   
 36  16  18  1   
 37  17  19  2   
 38  18  20  2   
 39  18  38  1   
 40  19  20  1   
 41  19  39  1   
@<TRIPOS>SUBSTRUCTURE
  1 ****  11 GROUP 4 **** **** 0

# MOE 2024.06 (io_trps.svl 2023.06)
