@<TRIPOS>MOLECULE
NONAME
17 17 1 0 0 
SMALL
USER_CHARGES


@<TRIPOS>ATOM
  1 O        0.4430     0.3120    -0.7600 O.co2 1 <1>  -0.9000 
  2 C        1.3450     0.8370    -0.0680 C.2   1 <1>   0.9470 
  3 O        1.1710     2.0280     0.2640 O.co2 1 <1>  -0.9000 
  4 C        2.5290     0.0540     0.3160 C.2   1 <1>   0.3620 
  5 O        3.4870     0.4370     0.9620 O.2   1 <1>  -0.5700 
  6 C        2.5500    -1.4020    -0.1630 C.3   1 <1>  -0.0190 
  7 C        1.4840    -2.2580     0.5140 C.3   1 <1>   0.1200 
  8 C        3.8180    -2.2010     0.1080 C.3   1 <1>  -0.1600 
  9 O        2.0000    -3.5580     0.6110 O.3   1 <1>  -0.5600 
 10 C        3.3000    -3.6280     0.1200 C.3   1 <1>   0.1200 
 11 H        2.3530    -1.4090    -1.2210 H     1 <1>   0.0800 
 12 H        0.5680    -2.2770    -0.0520 H     1 <1>   0.0800 
 13 H        1.2870    -1.9100     1.5130 H     1 <1>   0.0800 
 14 H        4.2200    -1.9700     1.0790 H     1 <1>   0.0800 
 15 H        4.5740    -2.0410    -0.6390 H     1 <1>   0.0800 
 16 H        3.8830    -4.2740     0.7520 H     1 <1>   0.0800 
 17 H        3.2510    -4.0290    -0.8780 H     1 <1>   0.0800 
@<TRIPOS>BOND
  1   1   2  ar  
  2   2   3  ar  
  3   2   4  1   
  4   4   5  2   
  5   4   6  1   
  6   6   7  1   
  7   6   8  1   
  8   6  11  1   
  9   7   9  1   
 10   7  12  1   
 11   7  13  1   
 12   8  10  1   
 13   8  14  1   
 14   8  15  1   
 15   9  10  1   
 16  10  16  1   
 17  10  17  1   
@<TRIPOS>SUBSTRUCTURE
  1 ****   6 GROUP 4 **** **** 0

# MOE 2024.06 (io_trps.svl 2023.06)
