@<TRIPOS>MOLECULE
NONAME
64 67 1 0 0 
SMALL
USER_CHARGES


@<TRIPOS>ATOM
  1 O       -1.0450     3.5140    -2.5820 O.2   1 <1>  -0.5700 
  2 C       -0.4290     3.2080    -1.5790 C.2   1 <1>   0.5440 
  3 N       -0.9680     2.5500    -0.5050 N.am  1 <1>  -0.6600 
  4 C        0.9150     3.6100    -1.2860 C.ar  1 <1>   0.0860 
  5 C       -2.3820     2.0570    -0.3560 C.3   1 <1>   0.3000 
  6 C        0.0310     2.4990     0.6040 C.3   1 <1>   0.2840 
  7 C        1.2160     3.2410     0.0090 C.ar  1 <1>  -0.1440 
  8 C        1.8610     4.2870    -2.0470 C.ar  1 <1>  -0.1500 
  9 C       -2.5660     0.9040    -1.3610 C.3   1 <1>  -0.1600 
 10 C       -2.6170     1.4840     1.0650 C.3   1 <1>  -0.1600 
 11 C       -3.3760     3.2080    -0.6600 C.3   1 <1>  -0.0990 
 12 C        2.4410     3.5410     0.5770 C.ar  1 <1>  -0.1500 
 13 C        3.0930     4.5900    -1.4900 C.ar  1 <1>  -0.1500 
 14 C       -3.9160     0.1960    -1.2170 C.3   1 <1>   0.1400 
 15 C       -3.9550     0.7520     1.2240 C.3   1 <1>   0.1400 
 16 C       -2.9270     4.5470    -0.1180 C.2   1 <1>   0.5690 
 17 C        3.3810     4.2210    -0.1830 C.ar  1 <1>  -0.1500 
 18 N       -4.0770    -0.2990     0.1780 N.am  1 <1>  -0.6600 
 19 O       -2.8060     4.7220     1.0710 O.2   1 <1>  -0.5700 
 20 N       -2.6020     5.5180    -1.0070 N.am  1 <1>  -0.7300 
 21 C       -4.3370    -1.6260     0.4240 C.2   1 <1>   0.5690 
 22 C       -1.9180     6.7720    -0.6290 C.3   1 <1>   0.1400 
 23 O       -4.4370    -2.4380    -0.4630 O.2   1 <1>  -0.5700 
 24 C       -4.5110    -2.1310     1.8370 C.3   1 <1>  -0.1790 
 25 C       -0.4680     6.4350    -0.2500 C.3   1 <1>   0.3430 
 26 N        0.3060     7.5900     0.2940 N.4   1 <1>  -0.9590 
 27 C        0.4680     8.7400    -0.6600 C.3   1 <1>   0.3430 
 28 C        1.6450     7.1410     0.8030 C.3   1 <1>   0.3430 
 29 C        1.3960     9.8350    -0.0820 C.3   1 <1>   0.1200 
 30 C        2.4580     8.3230     1.3790 C.3   1 <1>   0.1200 
 31 O        1.7710     9.5380     1.2350 O.3   1 <1>  -0.5600 
 32 H        0.2930     1.4800     0.8310 H     1 <1>   0.0800 
 33 H       -0.3410     3.0050     1.4790 H     1 <1>   0.0800 
 34 H        1.6280     4.5550    -3.0640 H     1 <1>   0.1500 
 35 H       -1.7910     0.1720    -1.2150 H     1 <1>   0.0800 
 36 H       -2.4790     1.2700    -2.3680 H     1 <1>   0.0800 
 37 H       -2.5750     2.2690     1.7980 H     1 <1>   0.0800 
 38 H       -1.8540     0.7640     1.2980 H     1 <1>   0.0800 
 39 H       -4.3500     3.0000    -0.2680 H     1 <1>   0.0800 
 40 H       -3.4970     3.2960    -1.7240 H     1 <1>   0.0800 
 41 H        2.6710     3.2400     1.5860 H     1 <1>   0.1500 
 42 H        3.8370     5.1010    -2.0800 H     1 <1>   0.1500 
 43 H       -3.9610    -0.6200    -1.9180 H     1 <1>   0.0800 
 44 H       -4.7230     0.8690    -1.4490 H     1 <1>   0.0800 
 45 H       -4.7820     1.4350     1.1350 H     1 <1>   0.0800 
 46 H       -4.0000     0.3260     2.2090 H     1 <1>   0.0800 
 47 H        4.3480     4.4460     0.2370 H     1 <1>   0.1500 
 48 H       -2.5400     5.2350    -1.9960 H     1 <1>   0.3700 
 49 H       -2.4290     7.2020     0.2170 H     1 <1>   0.0800 
 50 H       -1.9550     7.4570    -1.4570 H     1 <1>   0.0800 
 51 H       -5.3280    -1.6200     2.3100 H     1 <1>   0.0800 
 52 H       -3.6070    -1.9760     2.3940 H     1 <1>   0.0800 
 53 H       -4.7280    -3.1830     1.8210 H     1 <1>   0.0800 
 54 H        0.0320     6.0480    -1.1220 H     1 <1>   0.0800 
 55 H       -0.4980     5.6530     0.4920 H     1 <1>   0.0800 
 56 H       -0.1790     7.9740     1.1210 H     1 <1>   0.4500 
 57 H       -0.4930     9.1780    -0.8750 H     1 <1>   0.0800 
 58 H        0.8820     8.3920    -1.5920 H     1 <1>   0.0800 
 59 H        2.2070     6.6880     0.0030 H     1 <1>   0.0800 
 60 H        1.5190     6.3930     1.5690 H     1 <1>   0.0800 
 61 H        0.8890    10.7850    -0.0740 H     1 <1>   0.0800 
 62 H        2.2860     9.9350    -0.6790 H     1 <1>   0.0800 
 63 H        3.4120     8.4060     0.8860 H     1 <1>   0.0800 
 64 H        2.6360     8.1720     2.4300 H     1 <1>   0.0800 
@<TRIPOS>BOND
  1   1   2  2   
  2   2   3  am  
  3   2   4  1   
  4   3   5  1   
  5   3   6  1   
  6   4   7  ar  
  7   4   8  ar  
  8   5   9  1   
  9   5  10  1   
 10   5  11  1   
 11   6   7  1   
 12   6  32  1   
 13   6  33  1   
 14   7  12  ar  
 15   8  13  ar  
 16   8  34  1   
 17   9  14  1   
 18   9  35  1   
 19   9  36  1   
 20  10  15  1   
 21  10  37  1   
 22  10  38  1   
 23  11  16  1   
 24  11  39  1   
 25  11  40  1   
 26  12  17  ar  
 27  12  41  1   
 28  13  17  ar  
 29  13  42  1   
 30  14  18  1   
 31  14  43  1   
 32  14  44  1   
 33  15  18  1   
 34  15  45  1   
 35  15  46  1   
 36  16  19  2   
 37  16  20  am  
 38  17  47  1   
 39  18  21  am  
 40  20  22  1   
 41  20  48  1   
 42  21  23  2   
 43  21  24  1   
 44  22  25  1   
 45  22  49  1   
 46  22  50  1   
 47  24  51  1   
 48  24  52  1   
 49  24  53  1   
 50  25  26  1   
 51  25  54  1   
 52  25  55  1   
 53  26  27  1   
 54  26  28  1   
 55  26  56  1   
 56  27  29  1   
 57  27  57  1   
 58  27  58  1   
 59  28  30  1   
 60  28  59  1   
 61  28  60  1   
 62  29  31  1   
 63  29  61  1   
 64  29  62  1   
 65  30  31  1   
 66  30  63  1   
 67  30  64  1   
@<TRIPOS>SUBSTRUCTURE
  1 ****   3 GROUP 4 **** **** 0

# MOE 2024.06 (io_trps.svl 2023.06)
