@<TRIPOS>MOLECULE
NONAME
45 47 1 0 0 
SMALL
USER_CHARGES


@<TRIPOS>ATOM
  1 O       -0.3140     0.2160     0.3760 O.2   1 <1>  -0.5700 
  2 C       -1.3330     0.7960     0.0820 C.2   1 <1>   0.5690 
  3 N       -2.4630     0.1140    -0.2710 N.am  1 <1>  -0.6600 
  4 C       -1.3580     2.3160     0.1020 C.3   1 <1>  -0.0990 
  5 C       -3.7770     0.7040    -0.6270 C.3   1 <1>   0.1400 
  6 C       -2.5250    -1.3670    -0.3090 C.3   1 <1>   0.1400 
  7 C       -0.0370     2.9530     0.5590 C.3   1 <1>  -0.0160 
  8 C       -4.6820    -0.4940    -0.9250 C.3   1 <1>   0.2000 
  9 C       -4.0170    -1.6990    -0.2620 C.3   1 <1>  -0.0800 
 10 C       -0.1520     4.4690     0.5450 C.ar  1 <1>  -0.1440 
 11 O       -5.9550    -0.3120    -0.4060 O.3   1 <1>  -0.6800 
 12 C       -4.3920    -3.0270    -0.9410 C.3   1 <1>  -0.0170 
 13 C        0.2330     5.1920    -0.5740 C.ar  1 <1>  -0.1500 
 14 C       -0.6490     5.1410     1.6530 C.ar  1 <1>  -0.1500 
 15 C       -3.7530    -4.2200    -0.2470 C.ar  1 <1>   0.1670 
 16 C        0.1160     6.5730    -0.5780 C.ar  1 <1>   0.0820 
 17 C       -0.7640     6.5220     1.6450 C.ar  1 <1>  -0.1500 
 18 N       -2.5010    -4.4930    -0.5760 N.ar  1 <1>  -0.6200 
 19 C       -4.4830    -4.9580     0.6840 C.ar  1 <1>   0.1600 
 20 O        0.4880     7.2780    -1.6570 O.3   1 <1>  -0.5330 
 21 C       -0.3820     7.2400     0.5260 C.ar  1 <1>  -0.1500 
 22 C       -2.0310    -5.5390     0.0820 C.ar  1 <1>   0.1600 
 23 N       -4.0150    -6.0050     1.3430 N.ar  1 <1>  -0.6200 
 24 C       -2.7630    -6.2700     1.0110 C.ar  1 <1>   0.1600 
 25 H       -1.5870     2.6650    -0.8870 H     1 <1>   0.0800 
 26 H       -2.1410     2.6360     0.7640 H     1 <1>   0.0800 
 27 H       -4.1520     1.2720     0.2060 H     1 <1>   0.0800 
 28 H       -3.6820     1.3310    -1.4960 H     1 <1>   0.0800 
 29 H       -2.0800    -1.7140    -1.2260 H     1 <1>   0.0800 
 30 H       -1.9950    -1.8000     0.5240 H     1 <1>   0.0800 
 31 H        0.7610     2.6400    -0.0920 H     1 <1>   0.0800 
 32 H        0.2050     2.6160     1.5520 H     1 <1>   0.0800 
 33 H       -4.7660    -0.6290    -1.9900 H     1 <1>   0.0800 
 34 H       -4.2980    -1.7370     0.7760 H     1 <1>   0.0800 
 35 H       -5.9160    -0.2030     0.5640 H     1 <1>   0.4000 
 36 H       -4.0800    -3.0150    -1.9710 H     1 <1>   0.0800 
 37 H       -5.4620    -3.1390    -0.9310 H     1 <1>   0.0800 
 38 H        0.6200     4.6810    -1.4360 H     1 <1>   0.1500 
 39 H       -0.9480     4.5920     2.5280 H     1 <1>   0.1500 
 40 H       -1.1500     7.0360     2.5070 H     1 <1>   0.1500 
 41 H       -5.4970    -4.6700     0.8930 H     1 <1>   0.1500 
 42 H        0.8450     6.7210    -2.3700 H     1 <1>   0.4500 
 43 H       -0.4650     8.3120     0.5040 H     1 <1>   0.1500 
 44 H       -1.0170    -5.8330    -0.1220 H     1 <1>   0.1500 
 45 H       -2.2920    -7.1060     1.4960 H     1 <1>   0.1500 
@<TRIPOS>BOND
  1   1   2  2   
  2   2   3  am  
  3   2   4  1   
  4   3   5  1   
  5   3   6  1   
  6   4   7  1   
  7   4  25  1   
  8   4  26  1   
  9   5   8  1   
 10   5  27  1   
 11   5  28  1   
 12   6   9  1   
 13   6  29  1   
 14   6  30  1   
 15   7  10  1   
 16   7  31  1   
 17   7  32  1   
 18   8   9  1   
 19   8  11  1   
 20   8  33  1   
 21   9  12  1   
 22   9  34  1   
 23  10  13  ar  
 24  10  14  ar  
 25  11  35  1   
 26  12  15  1   
 27  12  36  1   
 28  12  37  1   
 29  13  16  ar  
 30  13  38  1   
 31  14  17  ar  
 32  14  39  1   
 33  15  18  ar  
 34  15  19  ar  
 35  16  20  1   
 36  16  21  ar  
 37  17  21  ar  
 38  17  40  1   
 39  18  22  ar  
 40  19  23  ar  
 41  19  41  1   
 42  20  42  1   
 43  21  43  1   
 44  22  24  ar  
 45  22  44  1   
 46  23  24  ar  
 47  24  45  1   
@<TRIPOS>SUBSTRUCTURE
  1 ****   3 GROUP 4 **** **** 0

# MOE 2024.06 (io_trps.svl 2023.06)
