@<TRIPOS>MOLECULE
NONAME
46 47 1 0 0 
SMALL
USER_CHARGES


@<TRIPOS>ATOM
  1 O       -2.5290    -0.9680    -0.2840 O.2   1 <1>  -0.5700 
  2 C       -2.5720    -2.1250     0.0550 C.2   1 <1>   0.5690 
  3 N       -1.5150    -2.9100     0.3540 N.am  1 <1>  -0.6600 
  4 C       -3.8550    -2.8940     0.1880 C.3   1 <1>  -0.0990 
  5 C       -1.9170    -4.2850     0.6940 C.3   1 <1>   0.1400 
  6 C       -0.0980    -2.4920     0.3310 C.3   1 <1>   0.1400 
  7 C       -3.3940    -4.3670     0.2570 C.3   1 <1>  -0.0800 
  8 C        0.4590    -2.4780     1.7510 C.3   1 <1>  -0.2400 
  9 C       -3.5430    -5.0550    -1.1140 C.3   1 <1>   0.1100 
 10 N       -3.7540    -6.5110    -0.9880 N.3   1 <1>  -0.8100 
 11 C       -4.2750    -7.0710    -2.2770 C.3   1 <1>   0.1710 
 12 C       -2.5390    -7.2370    -0.5790 C.3   1 <1>   0.0300 
 13 C       -4.9270    -8.4540    -2.1590 C.2   1 <1>   0.5690 
 14 O       -5.0140    -9.1570    -3.1370 O.2   1 <1>  -0.5700 
 15 N       -5.3900    -8.8420    -0.9490 N.am  1 <1>  -0.7300 
 16 C       -6.0880   -10.1050    -0.6380 C.3   1 <1>   0.3200 
 17 C       -7.0990    -9.8840     0.4700 C.2   1 <1>  -0.0400 
 18 O       -7.6150   -10.9440     1.0540 O.3   1 <1>  -0.2800 
 19 C       -7.6080    -8.7580     1.0180 C.2   1 <1>  -0.1500 
 20 C       -8.4700   -10.5500     2.0000 C.2   1 <1>  -0.0920 
 21 C       -8.4930    -9.1890     2.0070 C.2   1 <1>  -0.1500 
 22 C       -9.2090   -11.4820     2.8400 C.2   1 <1>   1.0320 
 23 O       -9.9940   -11.0420     3.7050 O.co2 1 <1>  -0.9000 
 24 O       -9.0880   -12.7180     2.7310 O.co2 1 <1>  -0.9000 
 25 H       -4.5120    -2.6820    -0.6340 H     1 <1>   0.0800 
 26 H       -4.3270    -2.6010     1.1070 H     1 <1>   0.0800 
 27 H       -1.8280    -4.4300     1.7570 H     1 <1>   0.0800 
 28 H       -1.2930    -4.9920     0.1760 H     1 <1>   0.0800 
 29 H       -0.0250    -1.5040    -0.0940 H     1 <1>   0.0800 
 30 H        0.4660    -3.1680    -0.2880 H     1 <1>   0.0800 
 31 H       -3.9840    -4.9010     0.9820 H     1 <1>   0.0800 
 32 H       -0.1210    -1.8120     2.3660 H     1 <1>   0.0800 
 33 H        1.4750    -2.1280     1.7360 H     1 <1>   0.0800 
 34 H        0.4460    -3.4650     2.1760 H     1 <1>   0.0800 
 35 H       -2.6940    -4.8450    -1.7440 H     1 <1>   0.0800 
 36 H       -4.4110    -4.6410    -1.5990 H     1 <1>   0.0800 
 37 H       -3.4800    -7.1260    -3.0000 H     1 <1>   0.0800 
 38 H       -5.0300    -6.4160    -2.6730 H     1 <1>   0.0800 
 39 H       -2.2690    -6.9720     0.4270 H     1 <1>   0.0800 
 40 H       -1.7210    -7.0090    -1.2420 H     1 <1>   0.0800 
 41 H       -2.7100    -8.3000    -0.5970 H     1 <1>   0.0800 
 42 H       -5.2230    -8.2130    -0.1590 H     1 <1>   0.3700 
 43 H       -5.3670   -10.8350    -0.3140 H     1 <1>   0.0800 
 44 H       -6.5860   -10.4820    -1.5150 H     1 <1>   0.0800 
 45 H       -7.4030    -7.7330     0.7710 H     1 <1>   0.1500 
 46 H       -9.0870    -8.5700     2.6570 H     1 <1>   0.1500 
@<TRIPOS>BOND
  1   1   2  2   
  2   2   3  am  
  3   2   4  1   
  4   3   5  1   
  5   3   6  1   
  6   4   7  1   
  7   4  25  1   
  8   4  26  1   
  9   5   7  1   
 10   5  27  1   
 11   5  28  1   
 12   6   8  1   
 13   6  29  1   
 14   6  30  1   
 15   7   9  1   
 16   7  31  1   
 17   8  32  1   
 18   8  33  1   
 19   8  34  1   
 20   9  10  1   
 21   9  35  1   
 22   9  36  1   
 23  10  11  1   
 24  10  12  1   
 25  11  13  1   
 26  11  37  1   
 27  11  38  1   
 28  12  39  1   
 29  12  40  1   
 30  12  41  1   
 31  13  14  2   
 32  13  15  am  
 33  15  16  1   
 34  15  42  1   
 35  16  17  1   
 36  16  43  1   
 37  16  44  1   
 38  17  18  1   
 39  17  19  2   
 40  18  20  1   
 41  19  21  1   
 42  19  45  1   
 43  20  21  2   
 44  20  22  1   
 45  21  46  1   
 46  22  23  ar  
 47  22  24  ar  
@<TRIPOS>SUBSTRUCTURE
  1 ****  10 GROUP 4 **** **** 0

# MOE 2024.06 (io_trps.svl 2023.06)
