@<TRIPOS>MOLECULE
NONAME
50 53 1 0 0 
SMALL
USER_CHARGES


@<TRIPOS>ATOM
  1 O       -3.7480     0.4500     1.5220 O.co2 1 <1>  -0.9000 
  2 C       -4.2400    -0.6750     1.3360 C.2   1 <1>   1.0320 
  3 O       -4.6180    -1.3430     2.3180 O.co2 1 <1>  -0.9000 
  4 C       -4.4550    -1.1660    -0.0140 C.2   1 <1>  -0.0920 
  5 O       -5.0360    -2.3410    -0.2230 O.3   1 <1>  -0.2800 
  6 C       -4.2130    -0.5960    -1.2260 C.2   1 <1>  -0.1500 
  7 C       -5.2520    -2.5010    -1.5070 C.2   1 <1>  -0.0400 
  8 C       -4.7380    -1.4580    -2.1940 C.2   1 <1>  -0.1500 
  9 C       -6.0560    -3.7180    -1.9350 C.3   1 <1>   0.5230 
 10 N       -7.2320    -3.9560    -1.0220 N.4   1 <1>  -0.9590 
 11 C       -7.9690    -2.6640    -0.7010 C.3   1 <1>   0.3430 
 12 C       -6.7980    -4.6480     0.2290 C.3   1 <1>   0.3430 
 13 C       -8.7580    -2.6880     0.6260 C.3   1 <1>   0.1430 
 14 C       -8.0310    -5.0930     1.0330 C.3   1 <1>  -0.1600 
 15 C       -9.8830    -1.6970     0.4520 C.ar  1 <1>   0.1670 
 16 C       -9.2280    -4.1220     0.9380 C.3   1 <1>  -0.1600 
 17 C       -7.9570    -2.0720     1.8050 C.3   1 <1>  -0.1600 
 18 N      -10.9330    -1.8920    -0.3020 N.ar  1 <1>  -0.6200 
 19 C       -9.6490    -0.5430     1.1350 C.ar  1 <1>  -0.1430 
 20 C       -8.3420    -0.5860     1.8880 C.3   1 <1>  -0.0170 
 21 C      -11.7930    -0.8690    -0.3410 C.ar  1 <1>   0.7200 
 22 C      -10.5850     0.4540     1.0320 C.ar  1 <1>   0.1600 
 23 N      -11.6600     0.3000     0.2950 N.ar  1 <1>  -0.6200 
 24 N      -12.9180    -1.0350    -1.1220 N.pl3 1 <1>  -0.8380 
 25 C      -13.7760     0.1190    -1.5110 C.3   1 <1>   0.1290 
 26 C      -13.4700    -2.3780    -1.4470 C.3   1 <1>   0.1290 
 27 H       -3.7350     0.3540    -1.3960 H     1 <1>   0.1500 
 28 H       -4.7320    -1.2640    -3.2530 H     1 <1>   0.1500 
 29 H       -5.4130    -4.5820    -1.9300 H     1 <1>   0.0800 
 30 H       -6.4020    -3.5610    -2.9430 H     1 <1>   0.0800 
 31 H       -7.8980    -4.5790    -1.4890 H     1 <1>   0.4500 
 32 H       -8.6610    -2.4540    -1.5000 H     1 <1>   0.0800 
 33 H       -7.2870    -1.8320    -0.6460 H     1 <1>   0.0800 
 34 H       -6.2080    -3.9730     0.8290 H     1 <1>   0.0800 
 35 H       -6.1850    -5.5050     0.0000 H     1 <1>   0.0800 
 36 H       -7.7290    -5.1820     2.0620 H     1 <1>   0.0800 
 37 H       -8.3380    -6.0730     0.7120 H     1 <1>   0.0800 
 38 H       -9.8850    -4.4450     0.1490 H     1 <1>   0.0800 
 39 H       -9.8000    -4.1400     1.8510 H     1 <1>   0.0800 
 40 H       -6.8950    -2.1870     1.7020 H     1 <1>   0.0800 
 41 H       -8.2510    -2.5380     2.7290 H     1 <1>   0.0800 
 42 H       -7.6030     0.0240     1.3950 H     1 <1>   0.0800 
 43 H       -8.4490    -0.2640     2.9100 H     1 <1>   0.0800 
 44 H      -10.4480     1.3860     1.5530 H     1 <1>   0.1500 
 45 H      -13.1820     1.0100    -1.6210 H     1 <1>   0.0800 
 46 H      -14.5200     0.2870    -0.7520 H     1 <1>   0.0800 
 47 H      -14.2630    -0.0820    -2.4500 H     1 <1>   0.0800 
 48 H      -13.0680    -3.1280    -0.7880 H     1 <1>   0.0800 
 49 H      -13.2220    -2.6330    -2.4620 H     1 <1>   0.0800 
 50 H      -14.5400    -2.3730    -1.3350 H     1 <1>   0.0800 
@<TRIPOS>BOND
  1   1   2  ar  
  2   2   3  ar  
  3   2   4  1   
  4   4   5  1   
  5   4   6  2   
  6   5   7  1   
  7   6   8  1   
  8   6  27  1   
  9   7   8  2   
 10   7   9  1   
 11   8  28  1   
 12   9  10  1   
 13   9  29  1   
 14   9  30  1   
 15  10  11  1   
 16  10  12  1   
 17  10  31  1   
 18  11  13  1   
 19  11  32  1   
 20  11  33  1   
 21  12  14  1   
 22  12  34  1   
 23  12  35  1   
 24  13  15  1   
 25  13  16  1   
 26  13  17  1   
 27  14  16  1   
 28  14  36  1   
 29  14  37  1   
 30  15  18  ar  
 31  15  19  ar  
 32  16  38  1   
 33  16  39  1   
 34  17  20  1   
 35  17  40  1   
 36  17  41  1   
 37  18  21  ar  
 38  19  20  1   
 39  19  22  ar  
 40  20  42  1   
 41  20  43  1   
 42  21  23  ar  
 43  21  24  1   
 44  22  23  ar  
 45  22  44  1   
 46  24  25  1   
 47  24  26  1   
 48  25  45  1   
 49  25  46  1   
 50  25  47  1   
 51  26  48  1   
 52  26  49  1   
 53  26  50  1   
@<TRIPOS>SUBSTRUCTURE
  1 ****  11 GROUP 4 **** **** 0

# MOE 2024.06 (io_trps.svl 2023.06)
