@<TRIPOS>MOLECULE
NONAME
52 54 1 0 0 
SMALL
USER_CHARGES


@<TRIPOS>ATOM
  1 O       -0.2500    -0.0750    -0.7180 O.2   1 <1>  -0.5700 
  2 C        0.7870    -0.6960    -0.5950 C.2   1 <1>   0.7800 
  3 O        1.9250    -0.0750    -0.2980 O.3   1 <1>  -0.4300 
  4 N        0.8590    -2.0310    -0.7410 N.am  1 <1>  -0.7300 
  5 C        1.9610     1.3260    -0.1220 C.3   1 <1>   0.0400 
  6 C       -0.3070    -2.9400    -0.8320 C.3   1 <1>   0.2810 
  7 C       -0.1710    -4.1530     0.1190 C.2   1 <1>   0.5690 
  8 C       -0.4300    -3.3790    -2.2940 C.3   1 <1>  -0.2400 
  9 O        0.9530    -4.5140     0.4030 O.2   1 <1>  -0.5700 
 10 N       -1.2760    -4.8120     0.6140 N.am  1 <1>  -0.6600 
 11 C       -1.1340    -5.9470     1.5710 C.3   1 <1>   0.1400 
 12 C       -2.6960    -4.5200     0.2680 C.3   1 <1>   0.1400 
 13 C       -1.7420    -7.2080     0.9530 C.3   1 <1>  -0.1600 
 14 C       -3.3160    -5.7610    -0.3770 C.3   1 <1>  -0.1600 
 15 C       -3.2050    -6.9950     0.5360 C.3   1 <1>   0.4240 
 16 O       -3.8940    -6.7130     1.7310 O.3   1 <1>  -0.5600 
 17 C       -3.7560    -8.2570    -0.1620 C.ar  1 <1>  -0.1430 
 18 C       -5.2710    -6.9240     1.7500 C.3   1 <1>   0.1200 
 19 C       -4.8640    -8.9330     0.3410 C.ar  1 <1>  -0.1430 
 20 C       -3.1550    -8.7420    -1.3190 C.ar  1 <1>  -0.1500 
 21 C       -5.5430    -8.4170     1.5940 C.3   1 <1>  -0.0170 
 22 C       -5.3500   -10.0660    -0.2910 C.ar  1 <1>  -0.1500 
 23 C       -3.6400    -9.8720    -1.9520 C.ar  1 <1>  -0.1500 
 24 C       -4.7380   -10.5430    -1.4450 C.ar  1 <1>   0.0830 
 25 O       -5.1500   -11.6430    -2.1240 O.3   1 <1>  -0.3620 
 26 C       -6.2460   -12.4100    -1.6800 C.3   1 <1>   0.0400 
 27 H        1.7240    -2.4960    -0.4580 H     1 <1>   0.3700 
 28 H        2.9710     1.6140     0.1080 H     1 <1>   0.0800 
 29 H        1.3050     1.5910     0.6890 H     1 <1>   0.0800 
 30 H        1.6370     1.8000    -1.0320 H     1 <1>   0.0800 
 31 H       -1.1830    -2.3830    -0.5550 H     1 <1>   0.0800 
 32 H        0.4500    -3.9210    -2.5920 H     1 <1>   0.0800 
 33 H       -0.5530    -2.5190    -2.9270 H     1 <1>   0.0800 
 34 H       -1.2830    -4.0200    -2.4170 H     1 <1>   0.0800 
 35 H       -1.6460    -5.7020     2.4870 H     1 <1>   0.0800 
 36 H       -0.1000    -6.1260     1.8090 H     1 <1>   0.0800 
 37 H       -2.7790    -3.6920    -0.4100 H     1 <1>   0.0800 
 38 H       -3.2310    -4.2670     1.1680 H     1 <1>   0.0800 
 39 H       -1.6920    -8.0190     1.6560 H     1 <1>   0.0800 
 40 H       -1.1470    -7.4810     0.1030 H     1 <1>   0.0800 
 41 H       -2.8050    -5.9520    -1.3020 H     1 <1>   0.0800 
 42 H       -4.3450    -5.5750    -0.6200 H     1 <1>   0.0800 
 43 H       -5.7290    -6.3620     0.9550 H     1 <1>   0.0800 
 44 H       -5.6470    -6.5710     2.6940 H     1 <1>   0.0800 
 45 H       -2.2990    -8.2470    -1.7410 H     1 <1>   0.1500 
 46 H       -6.6040    -8.5790     1.5370 H     1 <1>   0.0800 
 47 H       -5.1650    -8.9420     2.4530 H     1 <1>   0.0800 
 48 H       -6.2030   -10.5670     0.1240 H     1 <1>   0.1500 
 49 H       -3.1690   -10.2420    -2.8440 H     1 <1>   0.1500 
 50 H       -6.3800   -13.2280    -2.3650 H     1 <1>   0.0800 
 51 H       -7.1260   -11.7910    -1.6740 H     1 <1>   0.0800 
 52 H       -6.0320   -12.7880    -0.6960 H     1 <1>   0.0800 
@<TRIPOS>BOND
  1   1   2  2   
  2   2   3  1   
  3   2   4  am  
  4   3   5  1   
  5   4   6  1   
  6   4  27  1   
  7   5  28  1   
  8   5  29  1   
  9   5  30  1   
 10   6   7  1   
 11   6   8  1   
 12   6  31  1   
 13   7   9  2   
 14   7  10  am  
 15   8  32  1   
 16   8  33  1   
 17   8  34  1   
 18  10  11  1   
 19  10  12  1   
 20  11  13  1   
 21  11  35  1   
 22  11  36  1   
 23  12  14  1   
 24  12  37  1   
 25  12  38  1   
 26  13  15  1   
 27  13  39  1   
 28  13  40  1   
 29  14  15  1   
 30  14  41  1   
 31  14  42  1   
 32  15  16  1   
 33  15  17  1   
 34  16  18  1   
 35  17  19  ar  
 36  17  20  ar  
 37  18  21  1   
 38  18  43  1   
 39  18  44  1   
 40  19  21  1   
 41  19  22  ar  
 42  20  23  ar  
 43  20  45  1   
 44  21  46  1   
 45  21  47  1   
 46  22  24  ar  
 47  22  48  1   
 48  23  24  ar  
 49  23  49  1   
 50  24  25  1   
 51  25  26  1   
 52  26  50  1   
 53  26  51  1   
 54  26  52  1   
@<TRIPOS>SUBSTRUCTURE
  1 ****  14 GROUP 4 **** **** 0

# MOE 2024.06 (io_trps.svl 2023.06)
