@<TRIPOS>MOLECULE
NONAME
22 21 1 0 0 
SMALL
USER_CHARGES


@<TRIPOS>ATOM
  1 O        0.3160    -0.1040    -0.1790 O.2   1 <1>  -0.5700 
  2 C        0.6640    -1.2570    -0.0900 C.2   1 <1>   0.4950 
  3 C       -0.1990    -2.3900    -0.0230 C.2   1 <1>  -0.1360 
  4 C        2.1600    -1.4810    -0.0260 C.3   1 <1>  -0.1790 
  5 C       -1.5540    -2.5320    -0.1110 C.2   1 <1>  -0.0380 
  6 N       -2.1920    -3.7540     0.0090 N.pl3 1 <1>  -0.8380 
  7 C       -2.4730    -1.3380    -0.3500 C.3   1 <1>  -0.1020 
  8 C       -1.5150    -5.0540    -0.2570 C.3   1 <1>   0.1290 
  9 C       -3.6270    -3.8990     0.3970 C.3   1 <1>   0.1290 
 10 H        0.3510    -3.2900     0.1490 H     1 <1>   0.1500 
 11 H        2.4170    -2.4920    -0.2810 H     1 <1>   0.0800 
 12 H        2.5090    -1.2640     0.9660 H     1 <1>   0.0800 
 13 H        2.6490    -0.8180    -0.7170 H     1 <1>   0.0800 
 14 H       -3.2670    -1.6100    -1.0200 H     1 <1>   0.0800 
 15 H       -1.9580    -0.5150    -0.8040 H     1 <1>   0.0800 
 16 H       -2.8920    -1.0060     0.5820 H     1 <1>   0.0800 
 17 H       -0.7010    -4.9170    -0.9470 H     1 <1>   0.0800 
 18 H       -2.2090    -5.7500    -0.6950 H     1 <1>   0.0800 
 19 H       -1.1390    -5.4620     0.6650 H     1 <1>   0.0800 
 20 H       -3.9500    -3.0520     0.9760 H     1 <1>   0.0800 
 21 H       -3.7580    -4.7820     0.9980 H     1 <1>   0.0800 
 22 H       -4.2350    -3.9790    -0.4870 H     1 <1>   0.0800 
@<TRIPOS>BOND
  1   1   2  2   
  2   2   3  1   
  3   2   4  1   
  4   3   5  2   
  5   3  10  1   
  6   4  11  1   
  7   4  12  1   
  8   4  13  1   
  9   5   6  1   
 10   5   7  1   
 11   6   8  1   
 12   6   9  1   
 13   7  14  1   
 14   7  15  1   
 15   7  16  1   
 16   8  17  1   
 17   8  18  1   
 18   8  19  1   
 19   9  20  1   
 20   9  21  1   
 21   9  22  1   
@<TRIPOS>SUBSTRUCTURE
  1 ****   5 GROUP 4 **** **** 0

# MOE 2024.06 (io_trps.svl 2023.06)
