@<TRIPOS>MOLECULE
NONAME
42 43 1 0 0 
SMALL
USER_CHARGES


@<TRIPOS>ATOM
  1 CL       0.7000    -2.5090    -1.1130 Cl    1 <1>  -0.1770 
  2 C       -0.1720    -4.0190    -1.0360 C.ar  1 <1>   0.1770 
  3 C       -1.4710    -4.0290    -0.5700 C.ar  1 <1>  -0.1500 
  4 C        0.4560    -5.1820    -1.4440 C.ar  1 <1>  -0.1500 
  5 C       -2.1650    -5.2260    -0.5080 C.ar  1 <1>   0.0830 
  6 C       -0.2360    -6.3800    -1.3830 C.ar  1 <1>  -0.1500 
  7 O       -3.4370    -5.1700    -0.0400 O.3   1 <1>  -0.3630 
  8 C       -1.5410    -6.4050    -0.9170 C.ar  1 <1>  -0.1500 
  9 C       -4.2130    -6.3410     0.1020 C.3   1 <1>   0.1200 
 10 C       -5.5940    -5.9540     0.6370 C.3   1 <1>   0.2090 
 11 N       -6.4250    -7.1660     0.9030 N.pl3 1 <1>  -0.8380 
 12 C       -6.7280    -7.9810    -0.1770 C.ar  1 <1>   0.4100 
 13 C       -6.2080    -7.7910     2.2380 C.3   1 <1>   0.1290 
 14 N       -6.0910    -9.1380    -0.2380 N.ar  1 <1>  -0.6200 
 15 C       -7.6450    -7.5680    -1.1550 C.ar  1 <1>   0.1600 
 16 C       -6.4010    -9.8730    -1.3200 C.ar  1 <1>   0.3960 
 17 N       -7.9650    -8.2580    -2.2310 N.ar  1 <1>  -0.6200 
 18 C       -5.7870   -11.1820    -1.5480 C.2   1 <1>   0.5440 
 19 C       -7.3110    -9.4110    -2.2770 C.ar  1 <1>   0.1600 
 20 O       -5.5260   -11.5090    -2.6950 O.2   1 <1>  -0.5700 
 21 N       -5.5040   -12.0940    -0.5380 N.am  1 <1>  -0.6600 
 22 C       -4.7010   -13.3240    -0.7880 C.3   1 <1>   0.0600 
 23 C       -5.9940   -11.9530     0.8600 C.3   1 <1>   0.0600 
 24 H       -1.9410    -3.1150    -0.2590 H     1 <1>   0.1500 
 25 H        1.4680    -5.1460    -1.8020 H     1 <1>   0.1500 
 26 H        0.2410    -7.2930    -1.6980 H     1 <1>   0.1500 
 27 H       -2.0520    -7.3490    -0.8830 H     1 <1>   0.1500 
 28 H       -3.7120    -6.9950     0.7930 H     1 <1>   0.0800 
 29 H       -4.3040    -6.8080    -0.8620 H     1 <1>   0.0800 
 30 H       -6.0920    -5.3340    -0.0880 H     1 <1>   0.0800 
 31 H       -5.4820    -5.3910     1.5470 H     1 <1>   0.0800 
 32 H       -6.4270    -7.0820     3.0170 H     1 <1>   0.0800 
 33 H       -5.1880    -8.1210     2.3320 H     1 <1>   0.0800 
 34 H       -6.8580    -8.6410     2.3550 H     1 <1>   0.0800 
 35 H       -8.1200    -6.6160    -1.0120 H     1 <1>   0.1500 
 36 H       -7.5060   -10.0400    -3.1280 H     1 <1>   0.1500 
 37 H       -4.2040   -13.2730    -1.7420 H     1 <1>   0.0800 
 38 H       -5.3460   -14.1850    -0.7800 H     1 <1>   0.0800 
 39 H       -3.9520   -13.4330    -0.0230 H     1 <1>   0.0800 
 40 H       -6.9150   -11.3970     0.8840 H     1 <1>   0.0800 
 41 H       -5.2570   -11.4340     1.4480 H     1 <1>   0.0800 
 42 H       -6.1730   -12.9230     1.2900 H     1 <1>   0.0800 
@<TRIPOS>BOND
  1   1   2  1   
  2   2   3  ar  
  3   2   4  ar  
  4   3   5  ar  
  5   3  24  1   
  6   4   6  ar  
  7   4  25  1   
  8   5   7  1   
  9   5   8  ar  
 10   6   8  ar  
 11   6  26  1   
 12   7   9  1   
 13   8  27  1   
 14   9  10  1   
 15   9  28  1   
 16   9  29  1   
 17  10  11  1   
 18  10  30  1   
 19  10  31  1   
 20  11  12  1   
 21  11  13  1   
 22  12  14  ar  
 23  12  15  ar  
 24  13  32  1   
 25  13  33  1   
 26  13  34  1   
 27  14  16  ar  
 28  15  17  ar  
 29  15  35  1   
 30  16  18  1   
 31  16  19  ar  
 32  17  19  ar  
 33  18  20  2   
 34  18  21  am  
 35  19  36  1   
 36  21  22  1   
 37  21  23  1   
 38  22  37  1   
 39  22  38  1   
 40  22  39  1   
 41  23  40  1   
 42  23  41  1   
 43  23  42  1   
@<TRIPOS>SUBSTRUCTURE
  1 ****   9 GROUP 4 **** **** 0

# MOE 2024.06 (io_trps.svl 2023.06)
