@<TRIPOS>MOLECULE
NONAME
43 44 1 0 0 
SMALL
USER_CHARGES


@<TRIPOS>ATOM
  1 O       -0.8300    -0.4090     1.3680 O.2   1 <1>  -0.5700 
  2 C       -1.1040    -1.5020     0.9450 C.2   1 <1>   0.5690 
  3 N       -0.2380    -2.4370     0.5000 N.am  1 <1>  -0.6600 
  4 C       -2.5150    -2.0050     0.8450 C.3   1 <1>  -0.0990 
  5 C       -0.8930    -3.6780     0.0800 C.3   1 <1>   0.1400 
  6 C        1.2340    -2.2720     0.4590 C.3   1 <1>   0.1400 
  7 C       -2.3490    -3.5140     0.5630 C.3   1 <1>  -0.0800 
  8 C        1.7050    -2.1930    -0.9910 C.3   1 <1>  -0.2400 
  9 C       -3.4170    -4.0090    -0.4310 C.3   1 <1>   0.3430 
 10 N       -3.5590    -5.5040    -0.5310 N.4   1 <1>  -0.9590 
 11 C       -3.9370    -6.1490     0.7680 C.3   1 <1>   0.4810 
 12 C       -2.3830    -6.1820    -1.1720 C.3   1 <1>   0.2630 
 13 C       -4.3740    -7.5880     0.5110 C.2   1 <1>  -0.0380 
 14 N       -5.5840    -7.8580    -0.0940 N.pl3 1 <1>  -0.5500 
 15 C       -3.6130    -8.6570     0.8410 C.2   1 <1>  -0.1360 
 16 C       -5.9700    -9.1450    -0.3520 C.2   1 <1>   0.4390 
 17 C       -4.0560    -9.9720     0.5440 C.2   1 <1>   0.7670 
 18 N       -5.2600   -10.1690    -0.0690 N.2   1 <1>  -0.6610 
 19 C       -7.3160    -9.3300    -1.0080 C.3   1 <1>  -0.1790 
 20 O       -3.3560   -10.9300     0.8150 O.2   1 <1>  -0.5700 
 21 H       -2.9930    -1.4820     0.0370 H     1 <1>   0.0800 
 22 H       -3.0400    -1.8160     1.7640 H     1 <1>   0.0800 
 23 H       -0.4130    -4.5250     0.5400 H     1 <1>   0.0800 
 24 H       -0.8330    -3.7520    -0.9930 H     1 <1>   0.0800 
 25 H        1.7070    -3.0970     0.9640 H     1 <1>   0.0800 
 26 H        1.5060    -1.3650     0.9730 H     1 <1>   0.0800 
 27 H       -2.4480    -4.0190     1.5070 H     1 <1>   0.0800 
 28 H        1.5030    -3.1100    -1.5130 H     1 <1>   0.0800 
 29 H        2.7660    -2.0180    -1.0130 H     1 <1>   0.0800 
 30 H        1.2190    -1.3740    -1.4920 H     1 <1>   0.0800 
 31 H       -3.1970    -3.6010    -1.4060 H     1 <1>   0.0800 
 32 H       -4.3660    -3.5960    -0.1260 H     1 <1>   0.0800 
 33 H       -4.3530    -5.6840    -1.1630 H     1 <1>   0.4500 
 34 H       -4.7440    -5.6100     1.2360 H     1 <1>   0.0800 
 35 H       -3.0930    -6.1450     1.4390 H     1 <1>   0.0800 
 36 H       -1.5230    -6.1450    -0.5250 H     1 <1>   0.0800 
 37 H       -2.1360    -5.7020    -2.1060 H     1 <1>   0.0800 
 38 H       -2.6110    -7.2170    -1.3750 H     1 <1>   0.0800 
 39 H       -6.2840    -7.1400    -0.3060 H     1 <1>   0.4000 
 40 H       -2.6580    -8.5910     1.3260 H     1 <1>   0.1500 
 41 H       -7.3370    -8.8370    -1.9620 H     1 <1>   0.0800 
 42 H       -8.0920    -8.9350    -0.3790 H     1 <1>   0.0800 
 43 H       -7.5070   -10.3770    -1.1630 H     1 <1>   0.0800 
@<TRIPOS>BOND
  1   1   2  2   
  2   2   3  am  
  3   2   4  1   
  4   3   5  1   
  5   3   6  1   
  6   4   7  1   
  7   4  21  1   
  8   4  22  1   
  9   5   7  1   
 10   5  23  1   
 11   5  24  1   
 12   6   8  1   
 13   6  25  1   
 14   6  26  1   
 15   7   9  1   
 16   7  27  1   
 17   8  28  1   
 18   8  29  1   
 19   8  30  1   
 20   9  10  1   
 21   9  31  1   
 22   9  32  1   
 23  10  11  1   
 24  10  12  1   
 25  10  33  1   
 26  11  13  1   
 27  11  34  1   
 28  11  35  1   
 29  12  36  1   
 30  12  37  1   
 31  12  38  1   
 32  13  14  1   
 33  13  15  2   
 34  14  16  1   
 35  14  39  1   
 36  15  17  1   
 37  15  40  1   
 38  16  18  2   
 39  16  19  1   
 40  17  18  1   
 41  17  20  2   
 42  19  41  1   
 43  19  42  1   
 44  19  43  1   
@<TRIPOS>SUBSTRUCTURE
  1 ****  10 GROUP 4 **** **** 0

# MOE 2024.06 (io_trps.svl 2023.06)
