@<TRIPOS>MOLECULE
NONAME
55 58 1 0 0 
SMALL
USER_CHARGES


@<TRIPOS>ATOM
  1 CL       1.3610     1.0720    -2.6040 Cl    1 <1>  -0.1770 
  2 C        2.2410     1.3960    -1.1210 C.ar  1 <1>   0.1770 
  3 C        2.6400     0.3470    -0.2830 C.ar  1 <1>   0.1000 
  4 C        2.5260     2.7140    -0.8360 C.ar  1 <1>  -0.1500 
  5 N        2.3580    -0.9910    -0.5700 N.pl3 1 <1>  -0.8380 
  6 C        3.3350     0.7050     0.8710 C.ar  1 <1>  -0.1500 
  7 C        3.2400     3.0670     0.3090 C.ar  1 <1>   0.0860 
  8 C        0.9500    -1.4500    -0.6310 C.3   1 <1>   0.2090 
  9 C        3.2590    -2.1230    -0.2410 C.3   1 <1>   0.2090 
 10 C        3.6250     2.0250     1.1570 C.ar  1 <1>  -0.1500 
 11 C        3.5660     4.4510     0.5940 C.2   1 <1>   0.5440 
 12 C        0.9730    -2.8640    -0.0650 C.3   1 <1>  -0.1600 
 13 C        2.3840    -3.3640    -0.3590 C.3   1 <1>  -0.1600 
 14 O        2.9230     5.3620     0.1060 O.2   1 <1>  -0.5700 
 15 N        4.6540     4.7940     1.3650 N.am  1 <1>  -0.6600 
 16 C        6.0140     4.3740     0.9610 C.3   1 <1>   0.1400 
 17 C        4.7730     6.1290     2.0040 C.3   1 <1>   0.1400 
 18 C        6.6790     5.6830     0.5310 C.3   1 <1>   0.2000 
 19 C        5.9950     6.8030     1.3530 C.3   1 <1>   0.4230 
 20 O        8.0470     5.6840     0.7820 O.3   1 <1>  -0.6800 
 21 N        5.6680     8.0390     0.5430 N.4   1 <1>  -0.9590 
 22 C        4.6280     7.8070    -0.5140 C.3   1 <1>   0.3430 
 23 C        6.9210     8.6330    -0.0160 C.3   1 <1>   0.3430 
 24 C        4.2930     9.1240    -1.2160 C.3   1 <1>  -0.1600 
 25 C        6.6100     9.9650    -0.6980 C.3   1 <1>  -0.1600 
 26 C        5.5420     9.8060    -1.7870 C.3   1 <1>  -0.1600 
 27 H        2.1920     3.4780    -1.5140 H     1 <1>   0.1500 
 28 H        3.6410    -0.0580     1.5600 H     1 <1>   0.1500 
 29 H        0.3020    -0.8030    -0.0630 H     1 <1>   0.0800 
 30 H        0.6320    -1.4680    -1.6590 H     1 <1>   0.0800 
 31 H        4.0880    -2.1590    -0.9270 H     1 <1>   0.0800 
 32 H        3.6240    -2.0330     0.7660 H     1 <1>   0.0800 
 33 H        4.1540     2.2550     2.0650 H     1 <1>   0.1500 
 34 H        0.8150    -2.8140     0.9980 H     1 <1>   0.0800 
 35 H        0.2150    -3.4830    -0.5080 H     1 <1>   0.0800 
 36 H        2.4380    -3.7320    -1.3680 H     1 <1>   0.0800 
 37 H        2.6950    -4.1410     0.3170 H     1 <1>   0.0800 
 38 H        6.5180     3.9430     1.8100 H     1 <1>   0.0800 
 39 H        5.9800     3.6660     0.1490 H     1 <1>   0.0800 
 40 H        3.8720     6.7080     1.8990 H     1 <1>   0.0800 
 41 H        4.9630     5.9830     3.0540 H     1 <1>   0.0800 
 42 H        6.5280     5.8240    -0.5240 H     1 <1>   0.0800 
 43 H        6.6650     7.0840     2.1490 H     1 <1>   0.0800 
 44 H        8.5010     4.9510     0.3120 H     1 <1>   0.4000 
 45 H        5.2740     8.7390     1.1820 H     1 <1>   0.4500 
 46 H        4.9840     7.0920    -1.2380 H     1 <1>   0.0800 
 47 H        3.7270     7.4160    -0.0710 H     1 <1>   0.0800 
 48 H        7.6400     8.7900     0.7730 H     1 <1>   0.0800 
 49 H        7.3570     7.9580    -0.7350 H     1 <1>   0.0800 
 50 H        3.5980     8.9260    -2.0140 H     1 <1>   0.0800 
 51 H        3.8000     9.7820    -0.5210 H     1 <1>   0.0800 
 52 H        6.2820    10.6780     0.0390 H     1 <1>   0.0800 
 53 H        7.5120    10.3520    -1.1390 H     1 <1>   0.0800 
 54 H        5.2800    10.7720    -2.1870 H     1 <1>   0.0800 
 55 H        5.9370     9.2140    -2.5960 H     1 <1>   0.0800 
@<TRIPOS>BOND
  1   1   2  1   
  2   2   3  ar  
  3   2   4  ar  
  4   3   5  1   
  5   3   6  ar  
  6   4   7  ar  
  7   4  27  1   
  8   5   8  1   
  9   5   9  1   
 10   6  10  ar  
 11   6  28  1   
 12   7  10  ar  
 13   7  11  1   
 14   8  12  1   
 15   8  29  1   
 16   8  30  1   
 17   9  13  1   
 18   9  31  1   
 19   9  32  1   
 20  10  33  1   
 21  11  14  2   
 22  11  15  am  
 23  12  13  1   
 24  12  34  1   
 25  12  35  1   
 26  13  36  1   
 27  13  37  1   
 28  15  16  1   
 29  15  17  1   
 30  16  18  1   
 31  16  38  1   
 32  16  39  1   
 33  17  19  1   
 34  17  40  1   
 35  17  41  1   
 36  18  19  1   
 37  18  20  1   
 38  18  42  1   
 39  19  21  1   
 40  19  43  1   
 41  20  44  1   
 42  21  22  1   
 43  21  23  1   
 44  21  45  1   
 45  22  24  1   
 46  22  46  1   
 47  22  47  1   
 48  23  25  1   
 49  23  48  1   
 50  23  49  1   
 51  24  26  1   
 52  24  50  1   
 53  24  51  1   
 54  25  26  1   
 55  25  52  1   
 56  25  53  1   
 57  26  54  1   
 58  26  55  1   
@<TRIPOS>SUBSTRUCTURE
  1 ****  11 GROUP 4 **** **** 0

# MOE 2024.06 (io_trps.svl 2023.06)
