@<TRIPOS>MOLECULE
NONAME
54 56 1 0 0 
SMALL
USER_CHARGES


@<TRIPOS>ATOM
  1 O       -0.2600     0.6960    -2.9340 O.2   1 <1>  -0.5700 
  2 C       -0.0700     1.6570    -2.2230 C.2   1 <1>   0.5690 
  3 N       -1.1040     2.2550    -1.5370 N.am  1 <1>  -0.6600 
  4 C        1.3550     2.2050    -2.1590 C.3   1 <1>   0.1810 
  5 C       -2.4910     1.7160    -1.6680 C.3   1 <1>   0.1400 
  6 C       -0.9200     3.4160    -0.6090 C.3   1 <1>   0.1400 
  7 O        1.9330     2.0000    -0.8780 O.3   1 <1>  -0.3620 
  8 C       -3.5160     2.8320    -1.4550 C.3   1 <1>  -0.1600 
  9 C       -1.9690     3.3590     0.5000 C.3   1 <1>  -0.1600 
 10 C        3.1440     2.5230    -0.5660 C.ar  1 <1>   0.0830 
 11 C       -3.3990     3.4910    -0.0570 C.3   1 <1>   0.2800 
 12 C        3.5500     2.4120     0.7530 C.ar  1 <1>  -0.1500 
 13 C        3.9760     3.1540    -1.4830 C.ar  1 <1>  -0.1500 
 14 O       -3.6070     4.8710    -0.2140 O.3   1 <1>  -0.5600 
 15 C       -4.4120     2.9200     0.9740 C.3   1 <1>  -0.1600 
 16 C        4.7670     2.9250     1.1740 C.ar  1 <1>  -0.1430 
 17 C        5.1920     3.6680    -1.0680 C.ar  1 <1>  -0.1500 
 18 C       -4.8670     5.3130    -0.6540 C.3   1 <1>   0.1200 
 19 C       -5.5280     3.8970     1.3550 C.3   1 <1>   0.2800 
 20 C        5.5960     3.5600     0.2540 C.ar  1 <1>  -0.1430 
 21 C        5.1650     2.7760     2.6350 C.3   1 <1>  -0.0970 
 22 C       -6.0150     4.6290     0.1080 C.3   1 <1>  -0.1600 
 23 O       -4.9830     4.8350     2.1930 O.3   1 <1>  -0.6800 
 24 C       -6.6620     3.2220     2.1220 C.3   1 <1>  -0.2400 
 25 C        6.9420     4.1390     0.6660 C.3   1 <1>  -0.0970 
 26 H        1.3420     3.2580    -2.3650 H     1 <1>   0.0800 
 27 H        1.9640     1.6970    -2.8840 H     1 <1>   0.0800 
 28 H       -2.6340     0.9340    -0.9410 H     1 <1>   0.0800 
 29 H       -2.6250     1.2890    -2.6480 H     1 <1>   0.0800 
 30 H       -1.0270     4.3350    -1.1610 H     1 <1>   0.0800 
 31 H        0.0570     3.3970    -0.1620 H     1 <1>   0.0800 
 32 H       -4.5030     2.4380    -1.6110 H     1 <1>   0.0800 
 33 H       -3.3350     3.5640    -2.2230 H     1 <1>   0.0800 
 34 H       -1.7870     4.1350     1.2210 H     1 <1>   0.0800 
 35 H       -1.8450     2.4180     1.0050 H     1 <1>   0.0800 
 36 H        2.8960     1.9170     1.4470 H     1 <1>   0.1500 
 37 H        3.7040     3.2530    -2.5160 H     1 <1>   0.1500 
 38 H       -3.9160     2.6080     1.8760 H     1 <1>   0.0800 
 39 H       -4.8550     2.0290     0.5690 H     1 <1>   0.0800 
 40 H        5.8270     4.1540    -1.7870 H     1 <1>   0.1500 
 41 H       -4.9500     5.1400    -1.7130 H     1 <1>   0.0800 
 42 H       -4.9000     6.3750    -0.4830 H     1 <1>   0.0800 
 43 H        4.4030     2.2620     3.1920 H     1 <1>   0.0800 
 44 H        5.3110     3.7440     3.0780 H     1 <1>   0.0800 
 45 H        6.0770     2.2120     2.7120 H     1 <1>   0.0800 
 46 H       -6.4850     3.9210    -0.5500 H     1 <1>   0.0800 
 47 H       -6.7640     5.3560     0.3690 H     1 <1>   0.0800 
 48 H       -4.2470     5.2540     1.6970 H     1 <1>   0.4000 
 49 H       -7.1370     2.4800     1.5080 H     1 <1>   0.0800 
 50 H       -7.3990     3.9490     2.4100 H     1 <1>   0.0800 
 51 H       -6.2780     2.7420     3.0040 H     1 <1>   0.0800 
 52 H        6.8040     4.8920     1.4210 H     1 <1>   0.0800 
 53 H        7.4420     4.5900    -0.1720 H     1 <1>   0.0800 
 54 H        7.5730     3.3620     1.0570 H     1 <1>   0.0800 
@<TRIPOS>BOND
  1   1   2  2   
  2   2   3  am  
  3   2   4  1   
  4   3   5  1   
  5   3   6  1   
  6   4   7  1   
  7   4  26  1   
  8   4  27  1   
  9   5   8  1   
 10   5  28  1   
 11   5  29  1   
 12   6   9  1   
 13   6  30  1   
 14   6  31  1   
 15   7  10  1   
 16   8  11  1   
 17   8  32  1   
 18   8  33  1   
 19   9  11  1   
 20   9  34  1   
 21   9  35  1   
 22  10  12  ar  
 23  10  13  ar  
 24  11  14  1   
 25  11  15  1   
 26  12  16  ar  
 27  12  36  1   
 28  13  17  ar  
 29  13  37  1   
 30  14  18  1   
 31  15  19  1   
 32  15  38  1   
 33  15  39  1   
 34  16  20  ar  
 35  16  21  1   
 36  17  20  ar  
 37  17  40  1   
 38  18  22  1   
 39  18  41  1   
 40  18  42  1   
 41  19  22  1   
 42  19  23  1   
 43  19  24  1   
 44  20  25  1   
 45  21  43  1   
 46  21  44  1   
 47  21  45  1   
 48  22  46  1   
 49  22  47  1   
 50  23  48  1   
 51  24  49  1   
 52  24  50  1   
 53  24  51  1   
 54  25  52  1   
 55  25  53  1   
 56  25  54  1   
@<TRIPOS>SUBSTRUCTURE
  1 ****   6 GROUP 4 **** **** 0

# MOE 2024.06 (io_trps.svl 2023.06)
