@<TRIPOS>MOLECULE
NONAME
51 54 1 0 0 
SMALL
USER_CHARGES


@<TRIPOS>ATOM
  1 O        0.2050     0.2140    -0.2850 O.3   1 <1>  -0.5600 
  2 C        1.4230    -0.3880    -0.6280 C.3   1 <1>   0.3440 
  3 C        0.1400     1.5930    -0.4980 C.3   1 <1>   0.2950 
  4 C        1.3510    -1.8820    -0.3480 C.ar  1 <1>  -0.1440 
  5 C        2.5670     0.2310     0.2090 C.3   1 <1>   0.3430 
  6 C       -1.2640     2.0530    -0.1040 C.3   1 <1>  -0.1950 
  7 C        1.2150     2.3120     0.3490 C.3   1 <1>   0.3430 
  8 C        2.0100    -2.7710    -1.1880 C.ar  1 <1>  -0.1500 
  9 C        0.6540    -2.3770     0.7460 C.ar  1 <1>  -0.1500 
 10 N        2.6020     1.7400     0.1500 N.4   1 <1>  -0.9590 
 11 C       -2.4150     1.9220    -1.0510 C.3   1 <1>  -0.2000 
 12 C       -1.8730     3.2810    -0.7060 C.3   1 <1>  -0.2000 
 13 C        1.9800    -4.1310    -0.9300 C.ar  1 <1>  -0.1500 
 14 C        0.6250    -3.7360     1.0030 C.ar  1 <1>  -0.1500 
 15 C        3.5720     2.3080     1.1260 C.3   1 <1>   0.4860 
 16 C        1.2900    -4.6140     0.1660 C.ar  1 <1>  -0.1500 
 17 C        3.7060     3.7910     0.8490 C.ar  1 <1>  -0.1430 
 18 C        2.9720     4.7010     1.5960 C.ar  1 <1>  -0.1500 
 19 C        4.5510     4.2550    -0.1520 C.ar  1 <1>  -0.1500 
 20 C        3.0690     6.0510     1.3240 C.ar  1 <1>   0.0820 
 21 C        4.6530     5.6130    -0.4150 C.ar  1 <1>  -0.1500 
 22 O        2.3350     6.9140     2.0430 O.3   1 <1>  -0.5330 
 23 C        3.9080     6.5270     0.3220 C.ar  1 <1>   0.0820 
 24 O        3.9460     7.8760     0.1250 O.3   1 <1>  -0.3620 
 25 C        4.8330     8.4530    -0.8090 C.3   1 <1>   0.0400 
 26 H        1.5910    -0.2280    -1.6790 H     1 <1>   0.0800 
 27 H        0.2970     1.7840    -1.5460 H     1 <1>   0.0800 
 28 H        3.5040    -0.1760    -0.1310 H     1 <1>   0.0800 
 29 H        2.4260    -0.0880     1.2290 H     1 <1>   0.0800 
 30 H       -1.4770     1.8640     0.9350 H     1 <1>   0.1000 
 31 H        0.9310     2.2220     1.3840 H     1 <1>   0.0800 
 32 H        1.2090     3.3610     0.1020 H     1 <1>   0.0800 
 33 H        2.5490    -2.4230    -2.0510 H     1 <1>   0.1500 
 34 H        0.1210    -1.7110     1.4030 H     1 <1>   0.1500 
 35 H        2.9210     2.0370    -0.7810 H     1 <1>   0.4500 
 36 H       -2.2410     1.5240    -2.0370 H     1 <1>   0.1000 
 37 H       -3.3740     1.6290    -0.6580 H     1 <1>   0.1000 
 38 H       -2.4780     3.9240    -0.0880 H     1 <1>   0.1000 
 39 H       -1.3630     3.8250    -1.4830 H     1 <1>   0.1000 
 40 H        2.4910    -4.8170    -1.5840 H     1 <1>   0.1500 
 41 H        0.0800    -4.1140     1.8520 H     1 <1>   0.1500 
 42 H        3.2280     2.1500     2.1350 H     1 <1>   0.0800 
 43 H        4.5350     1.8360     1.0140 H     1 <1>   0.0800 
 44 H        1.2650    -5.6720     0.3660 H     1 <1>   0.1500 
 45 H        2.3180     4.3900     2.3920 H     1 <1>   0.1500 
 46 H        5.1440     3.5720    -0.7360 H     1 <1>   0.1500 
 47 H        5.3170     5.9410    -1.1940 H     1 <1>   0.1500 
 48 H        2.5300     7.8300     1.7540 H     1 <1>   0.4500 
 49 H        4.7120     9.5210    -0.7700 H     1 <1>   0.0800 
 50 H        4.5870     8.0950    -1.7930 H     1 <1>   0.0800 
 51 H        5.8420     8.1910    -0.5430 H     1 <1>   0.0800 
@<TRIPOS>BOND
  1   1   2  1   
  2   1   3  1   
  3   2   4  1   
  4   2   5  1   
  5   2  26  1   
  6   3   6  1   
  7   3   7  1   
  8   3  27  1   
  9   4   8  ar  
 10   4   9  ar  
 11   5  10  1   
 12   5  28  1   
 13   5  29  1   
 14   6  11  1   
 15   6  12  1   
 16   6  30  1   
 17   7  10  1   
 18   7  31  1   
 19   7  32  1   
 20   8  13  ar  
 21   8  33  1   
 22   9  14  ar  
 23   9  34  1   
 24  10  15  1   
 25  10  35  1   
 26  11  12  1   
 27  11  36  1   
 28  11  37  1   
 29  12  38  1   
 30  12  39  1   
 31  13  16  ar  
 32  13  40  1   
 33  14  16  ar  
 34  14  41  1   
 35  15  17  1   
 36  15  42  1   
 37  15  43  1   
 38  16  44  1   
 39  17  18  ar  
 40  17  19  ar  
 41  18  20  ar  
 42  18  45  1   
 43  19  21  ar  
 44  19  46  1   
 45  20  22  1   
 46  20  23  ar  
 47  21  23  ar  
 48  21  47  1   
 49  22  48  1   
 50  23  24  1   
 51  24  25  1   
 52  25  49  1   
 53  25  50  1   
 54  25  51  1   
@<TRIPOS>SUBSTRUCTURE
  1 ****  10 GROUP 4 **** **** 0

# MOE 2024.06 (io_trps.svl 2023.06)
