@<TRIPOS>MOLECULE
NONAME
41 42 1 0 0 
SMALL
USER_CHARGES


@<TRIPOS>ATOM
  1 S       -0.3440     0.4240     2.7530 S.3   1 <1>  -0.0800 
  2 C       -0.9880     0.1410     1.1590 C.2   1 <1>   0.1980 
  3 C        0.0720     2.0390     2.2670 C.2   1 <1>  -0.1100 
  4 N       -0.9010     1.1410     0.3790 N.2   1 <1>  -0.5650 
  5 C       -1.5800    -1.2290     0.8460 C.3   1 <1>   0.5230 
  6 C       -0.2900     2.2560     0.9800 C.2   1 <1>   0.1410 
  7 N       -1.8800    -1.3220    -0.6240 N.4   1 <1>  -0.9590 
  8 C       -0.0950     3.4880     0.2190 C.2   1 <1>   0.7160 
  9 C       -2.9240    -2.3390    -0.9440 C.3   1 <1>   0.2630 
 10 C       -0.6330    -1.5200    -1.4280 C.3   1 <1>   0.2630 
 11 O       -0.1890     3.4900    -0.9950 O.2   1 <1>  -0.5700 
 12 N        0.2000     4.6550     0.8770 N.am  1 <1>  -0.4930 
 13 C        0.4580     5.9440     0.3460 C.2   1 <1>   0.0630 
 14 C        0.4600     6.3860    -0.9790 C.2   1 <1>   0.1390 
 15 C        0.7710     7.0410     1.0670 C.2   1 <1>  -0.3020 
 16 N        0.7540     7.6490    -1.0780 N.2   1 <1>  -0.7070 
 17 N        0.9440     8.0570     0.1920 N.pl3 1 <1>   0.3140 
 18 C        1.3230     9.4410     0.5090 C.3   1 <1>   0.1570 
 19 C        2.8090     9.6260     0.3030 C.2   1 <1>   0.5690 
 20 O        3.4360    10.2050     1.1570 O.2   1 <1>  -0.5700 
 21 N        3.3940     9.1480    -0.8290 N.am  1 <1>  -0.7300 
 22 C        4.8300     9.2540    -1.1820 C.3   1 <1>   0.0600 
 23 H        0.5550     2.6620     2.9980 H     1 <1>   0.1500 
 24 H       -2.4870    -1.3440     1.4150 H     1 <1>   0.0800 
 25 H       -0.8900    -2.0030     1.1380 H     1 <1>   0.0800 
 26 H       -2.2230    -0.3730    -0.8670 H     1 <1>   0.4500 
 27 H       -2.5800    -3.3280    -0.6850 H     1 <1>   0.0800 
 28 H       -3.1500    -2.3200    -1.9990 H     1 <1>   0.0800 
 29 H       -3.8310    -2.1330    -0.3980 H     1 <1>   0.0800 
 30 H       -0.1710    -2.4640    -1.1870 H     1 <1>   0.0800 
 31 H        0.0700    -0.7260    -1.2270 H     1 <1>   0.0800 
 32 H       -0.8630    -1.5070    -2.4820 H     1 <1>   0.0800 
 33 H        0.2180     4.6100     1.8920 H     1 <1>   0.3700 
 34 H        0.2450     5.7600    -1.8300 H     1 <1>   0.1500 
 35 H        0.8850     7.1590     2.1280 H     1 <1>   0.1500 
 36 H        1.0660     9.6550     1.5280 H     1 <1>   0.0800 
 37 H        0.7870    10.1050    -0.1410 H     1 <1>   0.0800 
 38 H        2.8050     8.5830    -1.4610 H     1 <1>   0.3700 
 39 H        5.3550     9.8340    -0.4410 H     1 <1>   0.0800 
 40 H        4.9350     9.7350    -2.1390 H     1 <1>   0.0800 
 41 H        5.2670     8.2720    -1.2280 H     1 <1>   0.0800 
@<TRIPOS>BOND
  1   1   2  1   
  2   1   3  1   
  3   2   4  2   
  4   2   5  1   
  5   3   6  2   
  6   3  23  1   
  7   4   6  1   
  8   5   7  1   
  9   5  24  1   
 10   5  25  1   
 11   6   8  1   
 12   7   9  1   
 13   7  10  1   
 14   7  26  1   
 15   8  11  2   
 16   8  12  am  
 17   9  27  1   
 18   9  28  1   
 19   9  29  1   
 20  10  30  1   
 21  10  31  1   
 22  10  32  1   
 23  12  13  1   
 24  12  33  1   
 25  13  14  1   
 26  13  15  2   
 27  14  16  2   
 28  14  34  1   
 29  15  17  1   
 30  15  35  1   
 31  16  17  1   
 32  17  18  1   
 33  18  19  1   
 34  18  36  1   
 35  18  37  1   
 36  19  20  2   
 37  19  21  am  
 38  21  22  1   
 39  21  38  1   
 40  22  39  1   
 41  22  40  1   
 42  22  41  1   
@<TRIPOS>SUBSTRUCTURE
  1 ****  12 GROUP 4 **** **** 0

# MOE 2024.06 (io_trps.svl 2023.06)
