@<TRIPOS>MOLECULE
NONAME
52 54 1 0 0 
SMALL
USER_CHARGES


@<TRIPOS>ATOM
  1 CL      -1.6170    -0.8720    -2.9910 Cl    1 <1>  -0.1770 
  2 C       -1.6410    -1.1740    -1.2670 C.ar  1 <1>   0.1770 
  3 C       -2.1250    -2.3830    -0.7750 C.ar  1 <1>   0.0820 
  4 C       -1.1650    -0.1900    -0.4270 C.ar  1 <1>  -0.1500 
  5 O       -2.5790    -3.3070    -1.6500 O.3   1 <1>  -0.3630 
  6 C       -2.1600    -2.6150     0.6070 C.ar  1 <1>   0.0860 
  7 C       -1.1820    -0.4310     0.9330 C.ar  1 <1>   0.1770 
  8 C       -1.7810    -4.4520    -1.8660 C.3   1 <1>   0.0400 
  9 C       -2.6750    -3.8370     1.1850 C.2   1 <1>   0.5440 
 10 C       -1.6650    -1.6170     1.4480 C.ar  1 <1>  -0.1500 
 11 CL      -0.5810     0.7940     2.0200 Cl    1 <1>  -0.1770 
 12 O       -1.8870    -4.5760     1.7460 O.2   1 <1>  -0.5700 
 13 N       -4.0130    -4.1870     1.1550 N.am  1 <1>  -0.6600 
 14 C       -5.0610    -3.3090     0.5520 C.3   1 <1>   0.2200 
 15 C       -4.4370    -5.4740     1.7920 C.3   1 <1>   0.0600 
 16 C       -6.2000    -2.9650     1.5120 C.3   1 <1>  -0.1600 
 17 C       -5.7470    -3.9400    -0.6590 C.3   1 <1>  -0.1600 
 18 C       -7.3650    -2.5660     0.5940 C.3   1 <1>  -0.0800 
 19 C       -7.0850    -3.1980    -0.7740 C.3   1 <1>  -0.0800 
 20 C       -8.7470    -3.0840     1.0210 C.3   1 <1>  -0.1600 
 21 C       -8.3020    -4.0830    -1.0820 C.3   1 <1>  -0.1600 
 22 C       -9.4580    -3.4780    -0.2790 C.3   1 <1>   0.4230 
 23 N      -10.0130    -2.2700    -0.9710 N.4   1 <1>  -0.9590 
 24 C      -11.0580    -1.5660    -0.1590 C.3   1 <1>   0.2630 
 25 C      -10.5950    -2.5890    -2.3160 C.3   1 <1>   0.2630 
 26 H       -0.7890     0.7380    -0.8170 H     1 <1>   0.1500 
 27 H       -2.2240    -5.0250    -2.6600 H     1 <1>   0.0800 
 28 H       -1.7460    -5.0430    -0.9680 H     1 <1>   0.0800 
 29 H       -0.7910    -4.1390    -2.1480 H     1 <1>   0.0800 
 30 H       -1.6590    -1.7770     2.5120 H     1 <1>   0.1500 
 31 H       -4.6280    -2.3790     0.2290 H     1 <1>   0.0800 
 32 H       -5.4180    -5.7710     1.4710 H     1 <1>   0.0800 
 33 H       -4.4370    -5.3580     2.8620 H     1 <1>   0.0800 
 34 H       -3.7420    -6.2550     1.5330 H     1 <1>   0.0800 
 35 H       -6.4650    -3.8200     2.1040 H     1 <1>   0.0800 
 36 H       -5.9200    -2.1590     2.1670 H     1 <1>   0.0800 
 37 H       -5.1560    -3.8110    -1.5480 H     1 <1>   0.0800 
 38 H       -5.9040    -4.9890    -0.4980 H     1 <1>   0.0800 
 39 H       -7.3830    -1.4940     0.4850 H     1 <1>   0.0800 
 40 H       -6.9970    -2.4150    -1.5090 H     1 <1>   0.0800 
 41 H       -9.2770    -2.3790     1.6340 H     1 <1>   0.0800 
 42 H       -8.6300    -3.9830     1.6020 H     1 <1>   0.0800 
 43 H       -8.1310    -5.0730    -0.6950 H     1 <1>   0.0800 
 44 H       -8.4810    -4.1820    -2.1360 H     1 <1>   0.0800 
 45 H      -10.2370    -4.2030    -0.1000 H     1 <1>   0.0800 
 46 H       -9.2180    -1.6300    -1.1060 H     1 <1>   0.4500 
 47 H      -11.8650    -2.2400     0.0780 H     1 <1>   0.0800 
 48 H      -11.4580    -0.7310    -0.7110 H     1 <1>   0.0800 
 49 H      -10.6400    -1.1900     0.7590 H     1 <1>   0.0800 
 50 H      -11.3700    -3.3330    -2.2220 H     1 <1>   0.0800 
 51 H       -9.8360    -2.9630    -2.9820 H     1 <1>   0.0800 
 52 H      -11.0200    -1.7030    -2.7580 H     1 <1>   0.0800 
@<TRIPOS>BOND
  1   1   2  1   
  2   2   3  ar  
  3   2   4  ar  
  4   3   5  1   
  5   3   6  ar  
  6   4   7  ar  
  7   4  26  1   
  8   5   8  1   
  9   6   9  1   
 10   6  10  ar  
 11   7  10  ar  
 12   7  11  1   
 13   8  27  1   
 14   8  28  1   
 15   8  29  1   
 16   9  12  2   
 17   9  13  am  
 18  10  30  1   
 19  13  14  1   
 20  13  15  1   
 21  14  16  1   
 22  14  17  1   
 23  14  31  1   
 24  15  32  1   
 25  15  33  1   
 26  15  34  1   
 27  16  18  1   
 28  16  35  1   
 29  16  36  1   
 30  17  19  1   
 31  17  37  1   
 32  17  38  1   
 33  18  19  1   
 34  18  20  1   
 35  18  39  1   
 36  19  21  1   
 37  19  40  1   
 38  20  22  1   
 39  20  41  1   
 40  20  42  1   
 41  21  22  1   
 42  21  43  1   
 43  21  44  1   
 44  22  23  1   
 45  22  45  1   
 46  23  24  1   
 47  23  25  1   
 48  23  46  1   
 49  24  47  1   
 50  24  48  1   
 51  24  49  1   
 52  25  50  1   
 53  25  51  1   
 54  25  52  1   
@<TRIPOS>SUBSTRUCTURE
  1 ****  14 GROUP 4 **** **** 0

# MOE 2024.06 (io_trps.svl 2023.06)
