@<TRIPOS>MOLECULE
NONAME
60 62 1 0 0 
SMALL
USER_CHARGES


@<TRIPOS>ATOM
  1 O       -1.1590     0.0980    -0.2940 O.2   1 <1>  -0.5700 
  2 C       -1.9030     1.0440    -0.4860 C.2   1 <1>   0.5440 
  3 N       -3.2170     0.7600    -0.7940 N.am  1 <1>  -0.6600 
  4 C       -1.4180     2.4050    -0.3420 C.ar  1 <1>   0.0860 
  5 C       -3.5620    -0.6030    -1.2860 C.3   1 <1>   0.1400 
  6 C       -4.3240     1.4420    -0.0710 C.3   1 <1>   0.1400 
  7 C       -0.4410     2.7180     0.6040 C.ar  1 <1>  -0.1500 
  8 C       -1.9080     3.4430    -1.1370 C.ar  1 <1>  -0.1500 
  9 C       -3.8940    -1.4750    -0.0620 C.3   1 <1>   0.4230 
 10 C       -4.7710     0.5590     1.1100 C.3   1 <1>  -0.1600 
 11 C        0.0250     4.0160     0.7720 C.ar  1 <1>   0.0820 
 12 C       -1.4590     4.7410    -0.9820 C.ar  1 <1>  -0.1500 
 13 N       -3.8850    -2.9710    -0.3230 N.4   1 <1>  -0.9590 
 14 C       -5.1210    -0.9070     0.7210 C.3   1 <1>   0.0000 
 15 O        0.9790     4.3460     1.6880 O.3   1 <1>  -0.3620 
 16 C       -0.4930     5.0330    -0.0320 C.ar  1 <1>   0.0820 
 17 C       -4.6410    -3.7540     0.7040 C.3   1 <1>   0.3430 
 18 C       -4.3420    -3.3750    -1.6900 C.3   1 <1>   0.2630 
 19 C       -5.3450    -1.7170     2.0340 C.3   1 <1>  -0.1600 
 20 C       -6.4380    -0.8440    -0.1070 C.3   1 <1>   0.1200 
 21 C        1.6220     3.3680     2.4740 C.3   1 <1>   0.0400 
 22 O       -0.0750     6.3100     0.1190 O.3   1 <1>  -0.3630 
 23 C       -4.5970    -3.0620     2.0650 C.3   1 <1>  -0.1600 
 24 O       -6.8860    -2.0990    -0.4890 O.3   1 <1>  -0.6800 
 25 C        0.6960     6.8850    -0.9110 C.3   1 <1>   0.2000 
 26 C        2.1420     6.4070    -0.7670 C.3   1 <1>  -0.2400 
 27 C        0.5910     8.4000    -0.7630 C.3   1 <1>  -0.2400 
 28 H       -4.3920    -0.5420    -1.9660 H     1 <1>   0.0800 
 29 H       -2.7170    -1.0130    -1.8120 H     1 <1>   0.0800 
 30 H       -3.9970     2.3970     0.3050 H     1 <1>   0.0800 
 31 H       -5.1390     1.6210    -0.7510 H     1 <1>   0.0800 
 32 H       -0.0580     1.9150     1.2040 H     1 <1>   0.1500 
 33 H       -2.6500     3.2290    -1.8850 H     1 <1>   0.1500 
 34 H       -3.0610    -1.3130     0.6030 H     1 <1>   0.0800 
 35 H       -3.9650     0.5590     1.8260 H     1 <1>   0.0800 
 36 H       -5.6130     1.0250     1.5930 H     1 <1>   0.0800 
 37 H       -1.8570     5.5320    -1.5910 H     1 <1>   0.1500 
 38 H       -2.8970    -3.2440    -0.2350 H     1 <1>   0.4500 
 39 H       -5.6720    -3.8480     0.4040 H     1 <1>   0.0800 
 40 H       -4.2280    -4.7460     0.7830 H     1 <1>   0.0800 
 41 H       -5.3580    -3.0590    -1.8580 H     1 <1>   0.0800 
 42 H       -4.2970    -4.4460    -1.7960 H     1 <1>   0.0800 
 43 H       -3.7140    -2.9330    -2.4460 H     1 <1>   0.0800 
 44 H       -5.0380    -1.1530     2.8990 H     1 <1>   0.0800 
 45 H       -6.3970    -1.9100     2.1640 H     1 <1>   0.0800 
 46 H       -6.3260    -0.2540    -0.9990 H     1 <1>   0.0800 
 47 H       -7.2170    -0.3970     0.4900 H     1 <1>   0.0800 
 48 H        2.3570     3.8620     3.0830 H     1 <1>   0.0800 
 49 H        2.1030     2.6580     1.8250 H     1 <1>   0.0800 
 50 H        0.8920     2.8880     3.1010 H     1 <1>   0.0800 
 51 H       -5.0570    -3.7010     2.7990 H     1 <1>   0.0800 
 52 H       -3.5720    -2.9200     2.3630 H     1 <1>   0.0800 
 53 H       -7.8140    -2.0480    -0.8050 H     1 <1>   0.4000 
 54 H        0.2920     6.5810    -1.8610 H     1 <1>   0.0800 
 55 H        2.5200     6.6590     0.2070 H     1 <1>   0.0800 
 56 H        2.7600     6.8730    -1.5120 H     1 <1>   0.0800 
 57 H        2.1950     5.3420    -0.9010 H     1 <1>   0.0800 
 58 H        0.9700     8.7080     0.1950 H     1 <1>   0.0800 
 59 H       -0.4350     8.7060    -0.8550 H     1 <1>   0.0800 
 60 H        1.1620     8.8870    -1.5330 H     1 <1>   0.0800 
@<TRIPOS>BOND
  1   1   2  2   
  2   2   3  am  
  3   2   4  1   
  4   3   5  1   
  5   3   6  1   
  6   4   7  ar  
  7   4   8  ar  
  8   5   9  1   
  9   5  28  1   
 10   5  29  1   
 11   6  10  1   
 12   6  30  1   
 13   6  31  1   
 14   7  11  ar  
 15   7  32  1   
 16   8  12  ar  
 17   8  33  1   
 18   9  13  1   
 19   9  14  1   
 20   9  34  1   
 21  10  14  1   
 22  10  35  1   
 23  10  36  1   
 24  11  15  1   
 25  11  16  ar  
 26  12  16  ar  
 27  12  37  1   
 28  13  17  1   
 29  13  18  1   
 30  13  38  1   
 31  14  19  1   
 32  14  20  1   
 33  15  21  1   
 34  16  22  1   
 35  17  23  1   
 36  17  39  1   
 37  17  40  1   
 38  18  41  1   
 39  18  42  1   
 40  18  43  1   
 41  19  23  1   
 42  19  44  1   
 43  19  45  1   
 44  20  24  1   
 45  20  46  1   
 46  20  47  1   
 47  21  48  1   
 48  21  49  1   
 49  21  50  1   
 50  22  25  1   
 51  23  51  1   
 52  23  52  1   
 53  24  53  1   
 54  25  26  1   
 55  25  27  1   
 56  25  54  1   
 57  26  55  1   
 58  26  56  1   
 59  26  57  1   
 60  27  58  1   
 61  27  59  1   
 62  27  60  1   
@<TRIPOS>SUBSTRUCTURE
  1 ****   2 GROUP 4 **** **** 0

# MOE 2024.06 (io_trps.svl 2023.06)
