@<TRIPOS>MOLECULE
NONAME
53 55 1 0 0 
SMALL
USER_CHARGES


@<TRIPOS>ATOM
  1 O        2.4670     0.8200     1.9070 O.2   1 <1>  -0.5700 
  2 C        3.2060    -0.1350     1.7860 C.2   1 <1>   0.7150 
  3 N        4.3740    -0.0990     2.4640 N.am  1 <1>  -0.8000 
  4 C        2.8450    -1.2620     0.9590 C.2   1 <1>   0.0550 
  5 O        3.6090    -2.3450     0.8820 O.3   1 <1>  -0.2800 
  6 C        1.7620    -1.4540     0.1620 C.2   1 <1>  -0.1500 
  7 C        3.0630    -3.2250     0.0670 C.2   1 <1>  -0.0400 
  8 C        1.8930    -2.7240    -0.4060 C.2   1 <1>  -0.1810 
  9 C        3.8310    -4.5440    -0.1350 C.3   1 <1>   0.1800 
 10 C        0.8570    -3.3160    -1.3350 C.3   1 <1>   0.5240 
 11 C        3.2320    -5.4310    -1.2360 C.3   1 <1>  -0.2400 
 12 C        3.8190    -5.3280     1.1830 C.3   1 <1>  -0.2400 
 13 C        5.2840    -4.2310    -0.5240 C.3   1 <1>  -0.2400 
 14 N       -0.0290    -4.1930    -0.5250 N.4   1 <1>  -0.9590 
 15 C       -0.8360    -5.1340    -1.3670 C.3   1 <1>   0.3430 
 16 C       -0.8570    -3.4290     0.4620 C.3   1 <1>   0.2630 
 17 C       -1.1870    -6.4130    -0.5890 C.3   1 <1>   0.2000 
 18 O       -0.0430    -6.7930     0.1640 O.3   1 <1>  -0.3630 
 19 C       -1.6140    -7.5630    -1.5170 C.3   1 <1>   0.1200 
 20 C       -0.0270    -8.0560     0.6630 C.ar  1 <1>   0.0830 
 21 O       -1.8360    -8.7310    -0.7590 O.3   1 <1>  -0.3620 
 22 C       -0.9310    -9.0200     0.2110 C.ar  1 <1>   0.0830 
 23 C        0.9010    -8.3820     1.6380 C.ar  1 <1>  -0.1500 
 24 C       -0.9120   -10.2930     0.7510 C.ar  1 <1>  -0.1500 
 25 C        0.9200    -9.6610     2.1700 C.ar  1 <1>  -0.1500 
 26 C        0.0140   -10.6140     1.7300 C.ar  1 <1>  -0.1500 
 27 H        4.6070     0.7150     3.0300 H     1 <1>   0.3700 
 28 H        5.0550    -0.8550     2.4050 H     1 <1>   0.3700 
 29 H        0.9640    -0.7480     0.0070 H     1 <1>   0.1500 
 30 H        1.3500    -3.8890    -2.1010 H     1 <1>   0.0800 
 31 H        0.2890    -2.5310    -1.8070 H     1 <1>   0.0800 
 32 H        2.2440    -5.7580    -0.9770 H     1 <1>   0.0800 
 33 H        3.8370    -6.3120    -1.3680 H     1 <1>   0.0800 
 34 H        3.2120    -4.9060    -2.1740 H     1 <1>   0.0800 
 35 H        2.8100    -5.5400     1.4850 H     1 <1>   0.0800 
 36 H        4.2900    -4.7560     1.9620 H     1 <1>   0.0800 
 37 H        4.3510    -6.2580     1.0790 H     1 <1>   0.0800 
 38 H        5.3130    -3.6520    -1.4290 H     1 <1>   0.0800 
 39 H        5.8440    -5.1370    -0.6780 H     1 <1>   0.0800 
 40 H        5.7710    -3.6670     0.2510 H     1 <1>   0.0800 
 41 H        0.6110    -4.7930     0.0270 H     1 <1>   0.4500 
 42 H       -0.2590    -5.4240    -2.2300 H     1 <1>   0.0800 
 43 H       -1.7360    -4.6550    -1.7180 H     1 <1>   0.0800 
 44 H       -1.5330    -2.7610    -0.0470 H     1 <1>   0.0800 
 45 H       -0.2210    -2.8480     1.1110 H     1 <1>   0.0800 
 46 H       -1.4300    -4.1060     1.0740 H     1 <1>   0.0800 
 47 H       -1.9830    -6.2110     0.1060 H     1 <1>   0.0800 
 48 H       -0.8470    -7.7810    -2.2400 H     1 <1>   0.0800 
 49 H       -2.5300    -7.3300    -2.0310 H     1 <1>   0.0800 
 50 H        1.6020    -7.6460     1.9840 H     1 <1>   0.1500 
 51 H       -1.6170   -11.0280     0.4040 H     1 <1>   0.1500 
 52 H        1.6390    -9.9180     2.9300 H     1 <1>   0.1500 
 53 H        0.0300   -11.6060     2.1490 H     1 <1>   0.1500 
@<TRIPOS>BOND
  1   1   2  2   
  2   2   3  am  
  3   2   4  1   
  4   3  27  1   
  5   3  28  1   
  6   4   5  1   
  7   4   6  2   
  8   5   7  1   
  9   6   8  1   
 10   6  29  1   
 11   7   8  2   
 12   7   9  1   
 13   8  10  1   
 14   9  11  1   
 15   9  12  1   
 16   9  13  1   
 17  10  14  1   
 18  10  30  1   
 19  10  31  1   
 20  11  32  1   
 21  11  33  1   
 22  11  34  1   
 23  12  35  1   
 24  12  36  1   
 25  12  37  1   
 26  13  38  1   
 27  13  39  1   
 28  13  40  1   
 29  14  15  1   
 30  14  16  1   
 31  14  41  1   
 32  15  17  1   
 33  15  42  1   
 34  15  43  1   
 35  16  44  1   
 36  16  45  1   
 37  16  46  1   
 38  17  18  1   
 39  17  19  1   
 40  17  47  1   
 41  18  20  1   
 42  19  21  1   
 43  19  48  1   
 44  19  49  1   
 45  20  22  ar  
 46  20  23  ar  
 47  21  22  1   
 48  22  24  ar  
 49  23  25  ar  
 50  23  50  1   
 51  24  26  ar  
 52  24  51  1   
 53  25  26  ar  
 54  25  52  1   
 55  26  53  1   
@<TRIPOS>SUBSTRUCTURE
  1 ****  14 GROUP 4 **** **** 0

# MOE 2024.06 (io_trps.svl 2023.06)
