@<TRIPOS>MOLECULE
NONAME
52 55 1 0 0 
SMALL
USER_CHARGES


@<TRIPOS>ATOM
  1 O        0.6170    -0.3310     1.3490 O.3   1 <1>  -0.3630 
  2 C        1.5230    -0.4740     0.3410 C.ar  1 <1>   0.0830 
  3 C       -0.0110    -1.4390     1.9670 C.3   1 <1>   0.2580 
  4 C        2.3800     0.5850     0.0410 C.ar  1 <1>   0.0820 
  5 C        1.5690    -1.6590    -0.3940 C.ar  1 <1>   0.0280 
  6 C       -0.1050    -2.6560     1.0470 C.2   1 <1>  -0.2760 
  7 O        2.2880     1.7160     0.7980 O.3   1 <1>  -0.3620 
  8 C        3.2880     0.4510    -1.0050 C.ar  1 <1>  -0.1500 
  9 C        0.6680    -2.7230    -0.0510 C.2   1 <1>  -0.1780 
 10 C        2.4810    -1.7650    -1.4400 C.ar  1 <1>  -0.1500 
 11 C       -1.1030    -3.6800     1.5630 C.3   1 <1>   0.4810 
 12 C        3.0660     2.8590     0.5190 C.3   1 <1>   0.0400 
 13 C        3.3340    -0.7210    -1.7420 C.ar  1 <1>  -0.1500 
 14 N       -1.2670    -4.7930     0.6060 N.4   1 <1>  -0.9590 
 15 C       -1.9510    -4.4540    -0.6730 C.3   1 <1>   0.3430 
 16 C       -1.9300    -6.0090     1.1240 C.3   1 <1>   0.3430 
 17 C       -2.4770    -5.7860    -1.2230 C.3   1 <1>   0.2000 
 18 C       -2.2480    -6.8350    -0.1240 C.3   1 <1>  -0.0800 
 19 O       -3.8380    -5.6810    -1.4820 O.3   1 <1>  -0.6800 
 20 C       -1.1180    -7.8300    -0.4810 C.3   1 <1>   0.0210 
 21 C        0.3030    -7.3180    -0.2760 C.2   1 <1>   0.1080 
 22 N        0.7700    -6.2130    -0.7800 N.2   1 <1>  -0.7070 
 23 C        1.2590    -7.9910     0.4750 C.2   1 <1>  -0.1500 
 24 N        2.0650    -6.1780    -0.3870 N.pl3 1 <1>   0.3000 
 25 C        2.3730    -7.2350     0.3890 C.2   1 <1>  -0.3320 
 26 C        3.7440    -7.4740     0.9960 C.3   1 <1>  -0.0600 
 27 H        0.5570    -1.6760     2.8500 H     1 <1>   0.0800 
 28 H       -0.9900    -1.1030     2.2630 H     1 <1>   0.0800 
 29 H        3.9650     1.2430    -1.2630 H     1 <1>   0.1500 
 30 H        0.6760    -3.5500    -0.7350 H     1 <1>   0.1500 
 31 H        2.5230    -2.6660    -2.0250 H     1 <1>   0.1500 
 32 H       -2.0570    -3.2050     1.7290 H     1 <1>   0.0800 
 33 H       -0.7490    -4.0650     2.5060 H     1 <1>   0.0800 
 34 H        2.7980     3.6230     1.2260 H     1 <1>   0.0800 
 35 H        2.8500     3.1930    -0.4800 H     1 <1>   0.0800 
 36 H        4.1060     2.6100     0.6290 H     1 <1>   0.0800 
 37 H        4.0360    -0.8140    -2.5530 H     1 <1>   0.1500 
 38 H       -0.3160    -5.1090     0.3140 H     1 <1>   0.4500 
 39 H       -2.7740    -3.7810    -0.4980 H     1 <1>   0.0800 
 40 H       -1.2610    -4.0070    -1.3690 H     1 <1>   0.0800 
 41 H       -1.2900    -6.5490     1.8050 H     1 <1>   0.0800 
 42 H       -2.8450    -5.7400     1.6260 H     1 <1>   0.0800 
 43 H       -1.9850    -6.0380    -2.1470 H     1 <1>   0.0800 
 44 H       -3.1410    -7.4130     0.0390 H     1 <1>   0.0800 
 45 H       -4.3840    -5.6350    -0.6740 H     1 <1>   0.4000 
 46 H       -1.2230    -8.1490    -1.5030 H     1 <1>   0.0800 
 47 H       -1.2380    -8.7090     0.1280 H     1 <1>   0.0800 
 48 H        1.1270    -8.9230     0.9980 H     1 <1>   0.1500 
 49 H        2.7210    -5.4360    -0.6680 H     1 <1>   0.2700 
 50 H        3.7420    -8.3830     1.5710 H     1 <1>   0.0800 
 51 H        4.0150    -6.6600     1.6450 H     1 <1>   0.0800 
 52 H        4.4850    -7.5650     0.2210 H     1 <1>   0.0800 
@<TRIPOS>BOND
  1   1   2  1   
  2   1   3  1   
  3   2   4  ar  
  4   2   5  ar  
  5   3   6  1   
  6   3  27  1   
  7   3  28  1   
  8   4   7  1   
  9   4   8  ar  
 10   5   9  1   
 11   5  10  ar  
 12   6   9  2   
 13   6  11  1   
 14   7  12  1   
 15   8  13  ar  
 16   8  29  1   
 17   9  30  1   
 18  10  13  ar  
 19  10  31  1   
 20  11  14  1   
 21  11  32  1   
 22  11  33  1   
 23  12  34  1   
 24  12  35  1   
 25  12  36  1   
 26  13  37  1   
 27  14  15  1   
 28  14  16  1   
 29  14  38  1   
 30  15  17  1   
 31  15  39  1   
 32  15  40  1   
 33  16  18  1   
 34  16  41  1   
 35  16  42  1   
 36  17  18  1   
 37  17  19  1   
 38  17  43  1   
 39  18  20  1   
 40  18  44  1   
 41  19  45  1   
 42  20  21  1   
 43  20  46  1   
 44  20  47  1   
 45  21  22  2   
 46  21  23  1   
 47  22  24  1   
 48  23  25  2   
 49  23  48  1   
 50  24  25  1   
 51  24  49  1   
 52  25  26  1   
 53  26  50  1   
 54  26  51  1   
 55  26  52  1   
@<TRIPOS>SUBSTRUCTURE
  1 ****   9 GROUP 4 **** **** 0

# MOE 2024.06 (io_trps.svl 2023.06)
