@<TRIPOS>MOLECULE
NONAME
36 37 1 0 0 
SMALL
USER_CHARGES


@<TRIPOS>ATOM
  1 S        1.2480     0.2830     0.1060 S.o2  1 <1>   1.3330 
  2 O        2.5470     0.3650     0.7280 O.2   1 <1>  -0.6500 
  3 O        0.8900    -0.8040    -0.7680 O.2   1 <1>  -0.6500 
  4 N        1.0310     1.6830    -0.7950 N.am  1 <1>  -0.9140 
  5 C        0.0030     0.3930     1.3760 C.3   1 <1>  -0.1350 
  6 C        1.2530     2.9380    -0.0980 C.3   1 <1>   0.1960 
  7 C        1.2970     4.0680    -1.1180 C.3   1 <1>  -0.0990 
  8 C        1.6080     5.3610    -0.4050 C.2   1 <1>   0.5690 
  9 O        0.7310     5.8670     0.2540 O.2   1 <1>  -0.5700 
 10 N        2.8590     5.8740    -0.5140 N.am  1 <1>  -0.4930 
 11 C        3.3960     7.0520     0.0650 C.2   1 <1>   0.0630 
 12 C        4.7120     7.3670     0.0790 C.2   1 <1>  -0.0680 
 13 C        2.7580     8.1210     0.6990 C.2   1 <1>   0.1390 
 14 N        4.7990     8.5780     0.6870 N.pl3 1 <1>   0.3140 
 15 N        5.8270     6.6320    -0.3930 N.pl3 1 <1>  -0.8530 
 16 N        3.5910     9.0480     1.0790 N.2   1 <1>  -0.7070 
 17 C        6.0730     9.2770     0.9070 C.3   1 <1>   0.0960 
 18 C        7.1390     7.3360    -0.3600 C.3   1 <1>   0.2090 
 19 C        7.2370     8.2690     0.8590 C.3   1 <1>  -0.1600 
 20 H        0.1200     1.6300    -1.2450 H     1 <1>   0.4200 
 21 H        0.0270    -0.4930     1.9810 H     1 <1>   0.0800 
 22 H       -0.9720     0.4780     0.9390 H     1 <1>   0.0800 
 23 H        0.1830     1.2380     2.0100 H     1 <1>   0.0800 
 24 H        2.1950     2.8980     0.4260 H     1 <1>   0.0800 
 25 H        0.4680     3.1200     0.6180 H     1 <1>   0.0800 
 26 H        0.3440     4.1650    -1.6040 H     1 <1>   0.0800 
 27 H        2.0490     3.8650    -1.8580 H     1 <1>   0.0800 
 28 H        3.5430     5.3800    -1.0890 H     1 <1>   0.3700 
 29 H        1.6940     8.1750     0.8540 H     1 <1>   0.1500 
 30 H        5.8990     5.7140     0.0670 H     1 <1>   0.4000 
 31 H        6.0350     9.7750     1.8580 H     1 <1>   0.0800 
 32 H        6.1810    10.0130     0.1310 H     1 <1>   0.0800 
 33 H        7.2440     7.9080    -1.2670 H     1 <1>   0.0800 
 34 H        7.9330     6.6080    -0.3300 H     1 <1>   0.0800 
 35 H        7.2310     7.6770     1.7560 H     1 <1>   0.0800 
 36 H        8.1700     8.8030     0.8280 H     1 <1>   0.0800 
@<TRIPOS>BOND
  1   1   2  2   
  2   1   3  2   
  3   1   4  am  
  4   1   5  1   
  5   4   6  1   
  6   4  20  1   
  7   5  21  1   
  8   5  22  1   
  9   5  23  1   
 10   6   7  1   
 11   6  24  1   
 12   6  25  1   
 13   7   8  1   
 14   7  26  1   
 15   7  27  1   
 16   8   9  2   
 17   8  10  am  
 18  10  11  1   
 19  10  28  1   
 20  11  12  2   
 21  11  13  1   
 22  12  14  1   
 23  12  15  1   
 24  13  16  2   
 25  13  29  1   
 26  14  16  1   
 27  14  17  1   
 28  15  18  1   
 29  15  30  1   
 30  17  19  1   
 31  17  31  1   
 32  17  32  1   
 33  18  19  1   
 34  18  33  1   
 35  18  34  1   
 36  19  35  1   
 37  19  36  1   
@<TRIPOS>SUBSTRUCTURE
  1 ****  10 GROUP 4 **** **** 0

# MOE 2024.06 (io_trps.svl 2023.06)
