@<TRIPOS>MOLECULE
NONAME
47 50 1 0 0 
SMALL
USER_CHARGES


@<TRIPOS>ATOM
  1 O        1.4300    -1.3340     0.2360 O.3   1 <1>  -0.5600 
  2 C        0.6980    -2.2740    -0.5190 C.3   1 <1>   0.4180 
  3 C        1.6130    -0.0620    -0.3280 C.3   1 <1>   0.1200 
  4 C       -0.5120    -1.6160    -1.1690 C.2   1 <1>  -0.2880 
  5 C        0.2500    -3.3510     0.4770 C.3   1 <1>  -0.1600 
  6 C        1.6260    -2.9140    -1.5570 C.3   1 <1>  -0.1600 
  7 C        0.2630     0.6430    -0.5170 C.3   1 <1>  -0.0220 
  8 C       -0.7340    -0.3000    -1.1660 C.2   1 <1>  -0.2760 
  9 C        1.3710    -4.3100     0.8960 C.3   1 <1>   0.3430 
 10 C        2.8770    -3.5280    -0.9190 C.3   1 <1>   0.3430 
 11 C       -1.9550     0.3680    -1.7750 C.3   1 <1>  -0.1020 
 12 N        2.6940    -3.7310     0.5540 N.4   1 <1>  -0.9590 
 13 C        3.8510    -4.4060     1.2090 C.3   1 <1>   0.5230 
 14 C        5.0110    -3.4310     1.3220 C.2   1 <1>  -0.0400 
 15 O        5.4890    -2.8990     0.2170 O.3   1 <1>  -0.2800 
 16 C        5.6880    -2.9580     2.3910 C.2   1 <1>  -0.1500 
 17 C        6.4620    -2.0520     0.5220 C.2   1 <1>   0.1410 
 18 C        6.6320    -2.0660     1.8710 C.2   1 <1>  -0.1500 
 19 C        7.1150    -1.3040    -0.5280 C.2   1 <1>   0.2880 
 20 N        6.7040    -1.2600    -1.7750 N.2   1 <1>  -0.7070 
 21 C        8.2620    -0.5220    -0.3600 C.2   1 <1>  -0.1500 
 22 N        7.5800    -0.4600    -2.4080 N.pl3 1 <1>   0.3000 
 23 C        8.5300     0.0000    -1.5730 C.2   1 <1>  -0.3020 
 24 H        2.1150    -0.1690    -1.2730 H     1 <1>   0.0800 
 25 H        2.2410     0.5090     0.3330 H     1 <1>   0.0800 
 26 H       -1.1840    -2.3170    -1.6310 H     1 <1>   0.1500 
 27 H       -0.5370    -3.9380     0.0410 H     1 <1>   0.0800 
 28 H       -0.1680    -2.8700     1.3440 H     1 <1>   0.0800 
 29 H        1.9140    -2.1920    -2.2990 H     1 <1>   0.0800 
 30 H        1.0880    -3.6850    -2.0760 H     1 <1>   0.0800 
 31 H        0.4130     1.5100    -1.1350 H     1 <1>   0.0800 
 32 H       -0.1130     0.9740     0.4350 H     1 <1>   0.0800 
 33 H        1.2500    -5.2510     0.3830 H     1 <1>   0.0800 
 34 H        1.3040    -4.4900     1.9570 H     1 <1>   0.0800 
 35 H        3.7010    -2.8540    -1.0860 H     1 <1>   0.0800 
 36 H        3.1110    -4.4620    -1.4040 H     1 <1>   0.0800 
 37 H       -2.4930     0.9150    -1.0220 H     1 <1>   0.0800 
 38 H       -2.6160    -0.3660    -2.1990 H     1 <1>   0.0800 
 39 H       -1.6580     1.0480    -2.5530 H     1 <1>   0.0800 
 40 H        2.6680    -2.7590     0.9210 H     1 <1>   0.4500 
 41 H        4.1530    -5.2660     0.6350 H     1 <1>   0.0800 
 42 H        3.5760    -4.7300     2.1980 H     1 <1>   0.0800 
 43 H        5.5630    -3.1820     3.4370 H     1 <1>   0.1500 
 44 H        7.3410    -1.5020     2.4510 H     1 <1>   0.1500 
 45 H        8.7990    -0.3850     0.5600 H     1 <1>   0.1500 
 46 H        7.5050    -0.2460    -3.4110 H     1 <1>   0.2700 
 47 H        9.3220     0.6560    -1.8850 H     1 <1>   0.1500 
@<TRIPOS>BOND
  1   1   2  1   
  2   1   3  1   
  3   2   4  1   
  4   2   5  1   
  5   2   6  1   
  6   3   7  1   
  7   3  24  1   
  8   3  25  1   
  9   4   8  2   
 10   4  26  1   
 11   5   9  1   
 12   5  27  1   
 13   5  28  1   
 14   6  10  1   
 15   6  29  1   
 16   6  30  1   
 17   7   8  1   
 18   7  31  1   
 19   7  32  1   
 20   8  11  1   
 21   9  12  1   
 22   9  33  1   
 23   9  34  1   
 24  10  12  1   
 25  10  35  1   
 26  10  36  1   
 27  11  37  1   
 28  11  38  1   
 29  11  39  1   
 30  12  13  1   
 31  12  40  1   
 32  13  14  1   
 33  13  41  1   
 34  13  42  1   
 35  14  15  1   
 36  14  16  2   
 37  15  17  1   
 38  16  18  1   
 39  16  43  1   
 40  17  18  2   
 41  17  19  1   
 42  18  44  1   
 43  19  20  2   
 44  19  21  1   
 45  20  22  1   
 46  21  23  2   
 47  21  45  1   
 48  22  23  1   
 49  22  46  1   
 50  23  47  1   
@<TRIPOS>SUBSTRUCTURE
  1 ****  10 GROUP 4 **** **** 0

# MOE 2024.06 (io_trps.svl 2023.06)
