@<TRIPOS>MOLECULE
NONAME
41 43 1 0 0 
SMALL
USER_CHARGES


@<TRIPOS>ATOM
  1 F       -1.3860    -0.3640    -1.2750 F     1 <1>  -0.1900 
  2 C       -2.1220     0.5030    -0.6240 C.ar  1 <1>   0.1900 
  3 C       -1.9630     1.8590    -0.8520 C.ar  1 <1>   0.1900 
  4 C       -3.0640     0.0340     0.2780 C.ar  1 <1>  -0.1440 
  5 F       -1.0740     2.2820    -1.7120 F     1 <1>  -0.1900 
  6 C       -2.7410     2.7840    -0.1830 C.ar  1 <1>  -0.1500 
  7 C       -3.8480     0.9640     0.9520 C.ar  1 <1>  -0.1500 
  8 C       -3.2280    -1.4540     0.5220 C.3   1 <1>   0.4870 
  9 C       -3.6870     2.3260     0.7230 C.ar  1 <1>  -0.1500 
 10 N       -3.7350    -2.1090    -0.7170 N.4   1 <1>  -0.9590 
 11 C       -5.1140    -1.6290    -1.0570 C.3   1 <1>   0.3430 
 12 C       -3.8290    -3.5900    -0.5280 C.3   1 <1>   0.3430 
 13 C       -6.0680    -2.6710    -0.4670 C.3   1 <1>   0.2000 
 14 C       -5.3040    -3.9710    -0.7090 C.3   1 <1>  -0.0800 
 15 O       -6.1820    -2.4370     0.9020 O.3   1 <1>  -0.6800 
 16 C       -5.7230    -5.1910     0.1370 C.3   1 <1>   0.0200 
 17 C       -4.7480    -6.3330    -0.0720 C.2   1 <1>  -0.0400 
 18 O       -4.3930    -6.6710    -1.2830 O.3   1 <1>  -0.0190 
 19 C       -4.0960    -7.1320     0.7870 C.2   1 <1>  -0.1500 
 20 N       -3.5270    -7.6380    -1.2810 N.2   1 <1>  -0.4100 
 21 C       -3.3350    -7.9460    -0.0480 C.2   1 <1>   0.1080 
 22 C       -2.4060    -9.0450     0.4190 C.3   1 <1>  -0.0590 
 23 H       -2.6080     3.8370    -0.3670 H     1 <1>   0.1500 
 24 H       -4.5900     0.6420     1.6660 H     1 <1>   0.1500 
 25 H       -3.9180    -1.6190     1.3340 H     1 <1>   0.0800 
 26 H       -2.2730    -1.8740     0.7940 H     1 <1>   0.0800 
 27 H       -4.3010     3.0360     1.2550 H     1 <1>   0.1500 
 28 H       -3.0760    -1.8750    -1.4740 H     1 <1>   0.4500 
 29 H       -5.3200    -0.6460    -0.6680 H     1 <1>   0.0800 
 30 H       -5.2320    -1.6150    -2.1280 H     1 <1>   0.0800 
 31 H       -3.2150    -4.1180    -1.2410 H     1 <1>   0.0800 
 32 H       -3.5100    -3.8580     0.4670 H     1 <1>   0.0800 
 33 H       -7.0470    -2.6420    -0.9170 H     1 <1>   0.0800 
 34 H       -5.4300    -4.2360    -1.7460 H     1 <1>   0.0800 
 35 H       -6.9950    -2.8500     1.2650 H     1 <1>   0.4000 
 36 H       -6.7080    -5.5130    -0.1540 H     1 <1>   0.0800 
 37 H       -5.7430    -4.9510     1.1850 H     1 <1>   0.0800 
 38 H       -4.1220    -7.1710     1.8600 H     1 <1>   0.1500 
 39 H       -1.6550    -8.6400     1.0710 H     1 <1>   0.0800 
 40 H       -1.9230    -9.5020    -0.4260 H     1 <1>   0.0800 
 41 H       -2.9660    -9.7960     0.9450 H     1 <1>   0.0800 
@<TRIPOS>BOND
  1   1   2  1   
  2   2   3  ar  
  3   2   4  ar  
  4   3   5  1   
  5   3   6  ar  
  6   4   7  ar  
  7   4   8  1   
  8   6   9  ar  
  9   6  23  1   
 10   7   9  ar  
 11   7  24  1   
 12   8  10  1   
 13   8  25  1   
 14   8  26  1   
 15   9  27  1   
 16  10  11  1   
 17  10  12  1   
 18  10  28  1   
 19  11  13  1   
 20  11  29  1   
 21  11  30  1   
 22  12  14  1   
 23  12  31  1   
 24  12  32  1   
 25  13  14  1   
 26  13  15  1   
 27  13  33  1   
 28  14  16  1   
 29  14  34  1   
 30  15  35  1   
 31  16  17  1   
 32  16  36  1   
 33  16  37  1   
 34  17  18  1   
 35  17  19  2   
 36  18  20  1   
 37  19  21  1   
 38  19  38  1   
 39  20  21  2   
 40  21  22  1   
 41  22  39  1   
 42  22  40  1   
 43  22  41  1   
@<TRIPOS>SUBSTRUCTURE
  1 ****  10 GROUP 4 **** **** 0

# MOE 2024.06 (io_trps.svl 2023.06)
