@<TRIPOS>MOLECULE
NONAME
61 65 1 0 0 
SMALL
USER_CHARGES


@<TRIPOS>ATOM
  1 O        1.2310     0.8540     3.1300 O.2   1 <1>  -0.5700 
  2 C        1.7360     0.6720     2.0410 C.2   1 <1>   0.5440 
  3 N        1.9980     1.6680     1.1480 N.am  1 <1>  -0.6600 
  4 C        2.1330    -0.5920     1.4990 C.ar  1 <1>   0.0860 
  5 C        1.7160     3.1090     1.3680 C.3   1 <1>   0.2200 
  6 C        2.6070     1.0980    -0.0870 C.3   1 <1>   0.2840 
  7 C        2.6520    -0.3880     0.2360 C.ar  1 <1>   0.1660 
  8 C        2.0810    -1.8800     1.9940 C.ar  1 <1>  -0.1500 
  9 C        0.7840     3.6580     0.2910 C.3   1 <1>  -0.1600 
 10 C        2.9860     3.9460     1.2330 C.3   1 <1>  -0.1600 
 11 N        3.1170    -1.3190    -0.5750 N.ar  1 <1>  -0.6200 
 12 C        2.5520    -2.9020     1.1820 C.ar  1 <1>   0.0860 
 13 C        1.6730     4.2100    -0.8300 C.3   1 <1>  -0.1600 
 14 C        3.0730     4.3900    -0.2320 C.3   1 <1>  -0.1600 
 15 C        3.0670    -2.5620    -0.0810 C.ar  1 <1>   0.3930 
 16 C        2.5160    -4.2680     1.6390 C.2   1 <1>   0.5440 
 17 O        3.5460    -3.5520    -0.8560 O.3   1 <1>  -0.3630 
 18 O        3.2140    -4.6050     2.5750 O.2   1 <1>  -0.5700 
 19 N        1.6720    -5.1980     1.0800 N.am  1 <1>  -0.6600 
 20 C        4.1570    -3.3130    -2.1090 C.3   1 <1>   0.0400 
 21 C        0.7150    -4.9560    -0.0310 C.3   1 <1>   0.1400 
 22 C        1.6920    -6.6360     1.4460 C.3   1 <1>   0.1400 
 23 C       -0.0820    -6.2570    -0.1430 C.3   1 <1>   0.2000 
 24 C        0.8840    -7.3390     0.3470 C.3   1 <1>  -0.0800 
 25 O       -1.1470    -6.1920     0.7410 O.3   1 <1>  -0.6800 
 26 C        1.7960    -7.8210    -0.7970 C.3   1 <1>   0.0210 
 27 C        2.7320    -8.9210    -0.3350 C.2   1 <1>   0.1080 
 28 N        2.3290   -10.1290    -0.0950 N.2   1 <1>  -0.7070 
 29 C        4.0970    -8.7670    -0.1160 C.2   1 <1>  -0.1500 
 30 N        3.4400   -10.7870     0.2890 N.pl3 1 <1>   0.3000 
 31 C        4.5230    -9.9820     0.2850 C.2   1 <1>  -0.3320 
 32 C        5.9210   -10.4290     0.6740 C.3   1 <1>  -0.0600 
 33 H        1.2810     3.2360     2.3460 H     1 <1>   0.0800 
 34 H        1.9850     1.2820    -0.9440 H     1 <1>   0.0800 
 35 H        3.5990     1.4830    -0.2410 H     1 <1>   0.0800 
 36 H        1.6900    -2.0780     2.9780 H     1 <1>   0.1500 
 37 H        0.0830     2.9200    -0.0560 H     1 <1>   0.0800 
 38 H        0.2300     4.4760     0.7180 H     1 <1>   0.0800 
 39 H        2.8720     4.8220     1.8480 H     1 <1>   0.0800 
 40 H        3.8610     3.4150     1.5630 H     1 <1>   0.0800 
 41 H        1.7120     3.5160    -1.6510 H     1 <1>   0.0800 
 42 H        1.2850     5.1460    -1.1940 H     1 <1>   0.0800 
 43 H        3.3930     5.4160    -0.2970 H     1 <1>   0.0800 
 44 H        3.7810     3.7800    -0.7650 H     1 <1>   0.0800 
 45 H        4.4720    -4.2550    -2.5180 H     1 <1>   0.0800 
 46 H        5.0090    -2.6710    -1.9620 H     1 <1>   0.0800 
 47 H        3.4420    -2.8440    -2.7620 H     1 <1>   0.0800 
 48 H        0.0770    -4.1120     0.1670 H     1 <1>   0.0800 
 49 H        1.2650    -4.7890    -0.9400 H     1 <1>   0.0800 
 50 H        2.7030    -6.9990     1.5200 H     1 <1>   0.0800 
 51 H        1.2120    -6.7600     2.4010 H     1 <1>   0.0800 
 52 H       -0.4730    -6.4330    -1.1300 H     1 <1>   0.0800 
 53 H        0.3540    -8.1900     0.7380 H     1 <1>   0.0800 
 54 H       -0.8060    -5.9690     1.6310 H     1 <1>   0.4000 
 55 H        2.3780    -7.0060    -1.1880 H     1 <1>   0.0800 
 56 H        1.1920    -8.2140    -1.5950 H     1 <1>   0.0800 
 57 H        4.6610    -7.8600    -0.2420 H     1 <1>   0.1500 
 58 H        3.4240   -11.7810     0.5470 H     1 <1>   0.2700 
 59 H        6.6060    -9.6040     0.5950 H     1 <1>   0.0800 
 60 H        6.2550   -11.2160     0.0210 H     1 <1>   0.0800 
 61 H        5.9290   -10.7840     1.6890 H     1 <1>   0.0800 
@<TRIPOS>BOND
  1   1   2  2   
  2   2   3  am  
  3   2   4  1   
  4   3   5  1   
  5   3   6  1   
  6   4   7  ar  
  7   4   8  ar  
  8   5   9  1   
  9   5  10  1   
 10   5  33  1   
 11   6   7  1   
 12   6  34  1   
 13   6  35  1   
 14   7  11  ar  
 15   8  12  ar  
 16   8  36  1   
 17   9  13  1   
 18   9  37  1   
 19   9  38  1   
 20  10  14  1   
 21  10  39  1   
 22  10  40  1   
 23  11  15  ar  
 24  12  15  ar  
 25  12  16  1   
 26  13  14  1   
 27  13  41  1   
 28  13  42  1   
 29  14  43  1   
 30  14  44  1   
 31  15  17  1   
 32  16  18  2   
 33  16  19  am  
 34  17  20  1   
 35  19  21  1   
 36  19  22  1   
 37  20  45  1   
 38  20  46  1   
 39  20  47  1   
 40  21  23  1   
 41  21  48  1   
 42  21  49  1   
 43  22  24  1   
 44  22  50  1   
 45  22  51  1   
 46  23  24  1   
 47  23  25  1   
 48  23  52  1   
 49  24  26  1   
 50  24  53  1   
 51  25  54  1   
 52  26  27  1   
 53  26  55  1   
 54  26  56  1   
 55  27  28  2   
 56  27  29  1   
 57  28  30  1   
 58  29  31  2   
 59  29  57  1   
 60  30  31  1   
 61  30  58  1   
 62  31  32  1   
 63  32  59  1   
 64  32  60  1   
 65  32  61  1   
@<TRIPOS>SUBSTRUCTURE
  1 ****  12 GROUP 4 **** **** 0

# MOE 2024.06 (io_trps.svl 2023.06)
