@<TRIPOS>MOLECULE
NONAME
40 43 1 0 0 
SMALL
USER_CHARGES


@<TRIPOS>ATOM
  1 S        0.4400     0.0090    -0.8990 S.3   1 <1>  -0.0800 
  2 C       -1.0260     0.8650    -0.4440 C.2   1 <1>  -0.1400 
  3 C       -0.3430    -1.5420    -0.6240 C.2   1 <1>  -0.1100 
  4 C       -2.0020     0.0010    -0.1320 C.2   1 <1>  -0.1810 
  5 C       -1.1230     2.3860    -0.4250 C.3   1 <1>   0.4600 
  6 C       -1.6190    -1.3740    -0.2260 C.2   1 <1>  -0.1500 
  7 C       -3.3610     0.5260     0.2730 C.3   1 <1>   0.0210 
  8 O       -2.3670     2.7500     0.1420 O.3   1 <1>  -0.5600 
  9 C       -1.0200     2.9790    -1.8370 C.3   1 <1>  -0.1600 
 10 C       -0.0480     2.9900     0.4840 C.3   1 <1>  -0.1600 
 11 C       -3.5000     1.9860    -0.2010 C.3   1 <1>   0.1200 
 12 C       -1.0780     4.5060    -1.8060 C.3   1 <1>   0.1400 
 13 C       -0.1090     4.5180     0.4950 C.3   1 <1>   0.1400 
 14 N       -0.0090     5.0230    -0.9050 N.am  1 <1>  -0.6600 
 15 C        1.0490     5.7650    -1.3900 C.2   1 <1>   0.5440 
 16 O        1.2270     5.8340    -2.5900 O.2   1 <1>  -0.5700 
 17 C        1.9610     6.4620    -0.5120 C.ar  1 <1>   0.0860 
 18 C        1.4840     7.3580     0.4480 C.ar  1 <1>   0.1600 
 19 C        3.3350     6.2780    -0.5950 C.ar  1 <1>  -0.1500 
 20 N        2.2210     8.0400     1.3180 N.ar  1 <1>  -0.6200 
 21 C        4.1040     6.9870     0.2970 C.ar  1 <1>   0.1900 
 22 C        3.5300     7.8410     1.2230 C.ar  1 <1>   0.1600 
 23 F        5.4020     6.8490     0.2680 F     1 <1>  -0.1900 
 24 H        0.2440    -2.4270    -0.7930 H     1 <1>   0.1500 
 25 H       -2.3120    -2.1630     0.0080 H     1 <1>   0.1500 
 26 H       -3.4650     0.4770     1.3420 H     1 <1>   0.0800 
 27 H       -4.1360    -0.0690    -0.1740 H     1 <1>   0.0800 
 28 H       -1.8010     2.5900    -2.4620 H     1 <1>   0.0800 
 29 H       -0.0850     2.6850    -2.2780 H     1 <1>   0.0800 
 30 H        0.9250     2.6890     0.1430 H     1 <1>   0.0800 
 31 H       -0.1750     2.6090     1.4810 H     1 <1>   0.0800 
 32 H       -4.3560     2.4450     0.2590 H     1 <1>   0.0800 
 33 H       -3.6240     2.0210    -1.2690 H     1 <1>   0.0800 
 34 H       -2.0360     4.8310    -1.4370 H     1 <1>   0.0800 
 35 H       -0.9600     4.8940    -2.8040 H     1 <1>   0.0800 
 36 H        0.6910     4.8960     1.1050 H     1 <1>   0.0800 
 37 H       -1.0420     4.8450     0.9230 H     1 <1>   0.0800 
 38 H        0.4190     7.5130     0.4940 H     1 <1>   0.1500 
 39 H        3.7710     5.6170    -1.3220 H     1 <1>   0.1500 
 40 H        4.1710     8.3750     1.9040 H     1 <1>   0.1500 
@<TRIPOS>BOND
  1   1   2  1   
  2   1   3  1   
  3   2   4  2   
  4   2   5  1   
  5   3   6  2   
  6   3  24  1   
  7   4   6  1   
  8   4   7  1   
  9   5   8  1   
 10   5   9  1   
 11   5  10  1   
 12   6  25  1   
 13   7  11  1   
 14   7  26  1   
 15   7  27  1   
 16   8  11  1   
 17   9  12  1   
 18   9  28  1   
 19   9  29  1   
 20  10  13  1   
 21  10  30  1   
 22  10  31  1   
 23  11  32  1   
 24  11  33  1   
 25  12  14  1   
 26  12  34  1   
 27  12  35  1   
 28  13  14  1   
 29  13  36  1   
 30  13  37  1   
 31  14  15  am  
 32  15  16  2   
 33  15  17  1   
 34  17  18  ar  
 35  17  19  ar  
 36  18  20  ar  
 37  18  38  1   
 38  19  21  ar  
 39  19  39  1   
 40  20  22  ar  
 41  21  22  ar  
 42  21  23  1   
 43  22  40  1   
@<TRIPOS>SUBSTRUCTURE
  1 ****  13 GROUP 4 **** **** 0

# MOE 2024.06 (io_trps.svl 2023.06)
