@<TRIPOS>MOLECULE
NONAME
52 54 1 0 0 
SMALL
USER_CHARGES


@<TRIPOS>ATOM
  1 CL      -5.2410    -1.3920     2.8000 Cl    1 <1>  -0.1770 
  2 C       -3.7870    -0.9940     1.9160 C.ar  1 <1>   0.1770 
  3 C       -3.8150    -0.9130     0.5260 C.ar  1 <1>   0.0860 
  4 C       -2.6300    -0.7790     2.6390 C.ar  1 <1>  -0.1500 
  5 C       -5.0150    -1.1850    -0.2310 C.2   1 <1>   0.5440 
  6 C       -2.6230    -0.5790    -0.1160 C.ar  1 <1>  -0.1500 
  7 C       -1.4560    -0.4720     1.9730 C.ar  1 <1>  -0.1500 
  8 O       -5.6170    -0.2520    -0.7270 O.2   1 <1>  -0.5700 
  9 N       -5.4960    -2.4650    -0.4290 N.am  1 <1>  -0.6600 
 10 C       -1.4510    -0.3720     0.5910 C.ar  1 <1>  -0.1430 
 11 C       -4.7480    -3.6880     0.0450 C.3   1 <1>   0.3640 
 12 C       -6.8890    -2.6450    -0.9370 C.3   1 <1>   0.1400 
 13 C       -0.1590    -0.0640    -0.1440 C.3   1 <1>  -0.0960 
 14 C       -3.3540    -3.6880    -0.5940 C.ar  1 <1>  -0.1430 
 15 C       -5.4270    -5.0650    -0.2430 C.3   1 <1>   0.2000 
 16 C       -7.1330    -4.0480    -1.4890 C.3   1 <1>   0.1200 
 17 C       -2.2240    -3.8430     0.1940 C.ar  1 <1>  -0.1500 
 18 C       -3.1940    -3.5100    -1.9600 C.ar  1 <1>  -0.1500 
 19 O       -6.8000    -4.9810    -0.5150 O.3   1 <1>  -0.5600 
 20 C       -5.2880    -6.0460     0.9330 C.3   1 <1>   0.1200 
 21 C       -0.9520    -3.8120    -0.3520 C.ar  1 <1>   0.0830 
 22 C       -1.9310    -3.4700    -2.5230 C.ar  1 <1>  -0.1500 
 23 O       -3.9600    -6.2110     1.3110 O.3   1 <1>  -0.6800 
 24 O        0.0630    -3.9790     0.5410 O.3   1 <1>  -0.3630 
 25 C       -0.7930    -3.6050    -1.7320 C.ar  1 <1>   0.0830 
 26 C        1.2290    -4.6880     0.1850 C.3   1 <1>   0.0400 
 27 O        0.4600    -3.5150    -2.2660 O.3   1 <1>  -0.3630 
 28 C        0.6770    -3.1130    -3.6010 C.3   1 <1>   0.0400 
 29 H       -2.6460    -0.8560     3.7110 H     1 <1>   0.1500 
 30 H       -2.6260    -0.5050    -1.1900 H     1 <1>   0.1500 
 31 H       -0.5480    -0.3190     2.5300 H     1 <1>   0.1500 
 32 H       -4.6350    -3.6020     1.1110 H     1 <1>   0.0800 
 33 H       -7.5790    -2.4570    -0.1330 H     1 <1>   0.0800 
 34 H       -7.0870    -1.9280    -1.7150 H     1 <1>   0.0800 
 35 H        0.4390     0.6280     0.4210 H     1 <1>   0.0800 
 36 H       -0.3640     0.3680    -1.1070 H     1 <1>   0.0800 
 37 H        0.3980    -0.9730    -0.2850 H     1 <1>   0.0800 
 38 H       -4.9730    -5.5110    -1.1100 H     1 <1>   0.0800 
 39 H       -6.5480    -4.2280    -2.3740 H     1 <1>   0.0800 
 40 H       -8.1750    -4.1750    -1.7250 H     1 <1>   0.0800 
 41 H       -2.3170    -3.9850     1.2570 H     1 <1>   0.1500 
 42 H       -4.0580    -3.3860    -2.5900 H     1 <1>   0.1500 
 43 H       -5.6820    -7.0100     0.6630 H     1 <1>   0.0800 
 44 H       -5.8230    -5.6700     1.7880 H     1 <1>   0.0800 
 45 H       -1.8610    -3.3250    -3.5840 H     1 <1>   0.1500 
 46 H       -3.4280    -6.6010     0.5880 H     1 <1>   0.4000 
 47 H        1.6940    -5.0420     1.0860 H     1 <1>   0.0800 
 48 H        1.8960    -4.0210    -0.3300 H     1 <1>   0.0800 
 49 H        0.9590    -5.5180    -0.4430 H     1 <1>   0.0800 
 50 H        1.7380    -3.0390    -3.7580 H     1 <1>   0.0800 
 51 H        0.2170    -2.1530    -3.7560 H     1 <1>   0.0800 
 52 H        0.2630    -3.8540    -4.2620 H     1 <1>   0.0800 
@<TRIPOS>BOND
  1   1   2  1   
  2   2   3  ar  
  3   2   4  ar  
  4   3   5  1   
  5   3   6  ar  
  6   4   7  ar  
  7   4  29  1   
  8   5   8  2   
  9   5   9  am  
 10   6  10  ar  
 11   6  30  1   
 12   7  10  ar  
 13   7  31  1   
 14   9  11  1   
 15   9  12  1   
 16  10  13  1   
 17  11  14  1   
 18  11  15  1   
 19  11  32  1   
 20  12  16  1   
 21  12  33  1   
 22  12  34  1   
 23  13  35  1   
 24  13  36  1   
 25  13  37  1   
 26  14  17  ar  
 27  14  18  ar  
 28  15  19  1   
 29  15  20  1   
 30  15  38  1   
 31  16  19  1   
 32  16  39  1   
 33  16  40  1   
 34  17  21  ar  
 35  17  41  1   
 36  18  22  ar  
 37  18  42  1   
 38  20  23  1   
 39  20  43  1   
 40  20  44  1   
 41  21  24  1   
 42  21  25  ar  
 43  22  25  ar  
 44  22  45  1   
 45  23  46  1   
 46  24  26  1   
 47  25  27  1   
 48  26  47  1   
 49  26  48  1   
 50  26  49  1   
 51  27  28  1   
 52  28  50  1   
 53  28  51  1   
 54  28  52  1   
@<TRIPOS>SUBSTRUCTURE
  1 ****  14 GROUP 4 **** **** 0

# MOE 2024.06 (io_trps.svl 2023.06)
