@<TRIPOS>MOLECULE
NONAME
24 23 1 0 0 
SMALL
USER_CHARGES


@<TRIPOS>ATOM
  1 O       -0.9480     0.1490    -0.0240 O.co2 1 <1>  -0.9000 
  2 C       -1.8880    -0.4990     0.4670 C.2   1 <1>   0.9060 
  3 O       -1.7270    -1.6060     0.9960 O.co2 1 <1>  -0.9000 
  4 C       -3.2980     0.1250     0.3970 C.3   1 <1>   0.0940 
  5 O       -3.2290     1.3880    -0.2060 O.3   1 <1>  -0.6800 
  6 C       -4.2920    -0.7390    -0.3970 C.3   1 <1>  -0.1600 
  7 C       -5.7100    -0.1470    -0.4330 C.3   1 <1>  -0.1600 
  8 C       -6.6630    -1.0620    -1.1990 C.3   1 <1>   0.2090 
  9 N       -8.0100    -0.4620    -1.2110 N.pl3 1 <1>  -0.8190 
 10 C       -8.8590    -0.7850    -0.1710 C.2   1 <1>   0.4400 
 11 N       -9.6480     0.0770     0.3190 N.2   1 <1>  -0.5030 
 12 N      -10.4690    -0.3180     1.3630 N.pl3 1 <1>  -0.5690 
 13 H       -3.6460     0.2630     1.4040 H     1 <1>   0.0800 
 14 H       -2.2620     1.4900    -0.4130 H     1 <1>   0.4000 
 15 H       -3.9100    -0.8670    -1.3960 H     1 <1>   0.0800 
 16 H       -4.3210    -1.7110     0.0640 H     1 <1>   0.0800 
 17 H       -5.6790     0.8160    -0.9120 H     1 <1>   0.0800 
 18 H       -6.0630    -0.0190     0.5750 H     1 <1>   0.0800 
 19 H       -6.6940    -2.0350    -0.7370 H     1 <1>   0.0800 
 20 H       -6.3210    -1.1790    -2.2140 H     1 <1>   0.0800 
 21 H       -7.9790     0.5570    -1.3040 H     1 <1>   0.4000 
 22 H       -8.8090    -1.7940     0.2030 H     1 <1>   0.0600 
 23 H      -10.9190    -1.2290     1.2170 H     1 <1>   0.3110 
 24 H      -11.1800     0.3880     1.5940 H     1 <1>   0.3110 
@<TRIPOS>BOND
  1   1   2  ar  
  2   2   3  ar  
  3   2   4  1   
  4   4   5  1   
  5   4   6  1   
  6   4  13  1   
  7   5  14  1   
  8   6   7  1   
  9   6  15  1   
 10   6  16  1   
 11   7   8  1   
 12   7  17  1   
 13   7  18  1   
 14   8   9  1   
 15   8  19  1   
 16   8  20  1   
 17   9  10  1   
 18   9  21  1   
 19  10  11  2   
 20  10  22  1   
 21  11  12  1   
 22  12  23  1   
 23  12  24  1   
@<TRIPOS>SUBSTRUCTURE
  1 ****   7 GROUP 4 **** **** 0

# MOE 2024.06 (io_trps.svl 2023.06)
