@<TRIPOS>MOLECULE
NONAME
33 34 1 0 0 
SMALL
USER_CHARGES


@<TRIPOS>ATOM
  1 O       -0.4080     1.4540    -0.0300 O.3   1 <1>  -0.0190 
  2 N        0.7180     1.4610     0.6240 N.2   1 <1>  -0.4100 
  3 C       -0.3470     2.1910    -1.1060 C.2   1 <1>  -0.0100 
  4 C        1.5170     2.2180    -0.0450 C.2   1 <1>   0.1080 
  5 C        0.8820     2.7220    -1.1790 C.2   1 <1>  -0.1500 
  6 C        2.9540     2.5210     0.3570 C.3   1 <1>   0.3900 
  7 N        3.1040     3.9540     0.7780 N.pl3 1 <1>  -0.8380 
  8 C        4.1470     4.7090     0.3540 C.ar  1 <1>   0.4100 
  9 C        2.2700     4.3140     1.9640 C.3   1 <1>   0.1290 
 10 N        5.3120     4.0920     0.2920 N.ar  1 <1>  -0.6200 
 11 C        4.0000     6.0790     0.0060 C.ar  1 <1>  -0.1430 
 12 C        6.3680     4.8050    -0.0240 C.ar  1 <1>   0.7710 
 13 C        5.1270     6.7710    -0.3120 C.ar  1 <1>   0.2110 
 14 C        2.6090     6.7290    -0.0310 C.3   1 <1>  -0.0170 
 15 N        6.3120     6.1150    -0.3090 N.ar  1 <1>  -0.1790 
 16 N        7.5310     4.1610    -0.0510 N.pl3 1 <1>  -0.9000 
 17 C        2.5080     7.9840    -0.9070 C.3   1 <1>  -0.2400 
 18 H       -1.2100     2.2760    -1.7420 H     1 <1>   0.1500 
 19 H        1.3090     3.3800    -1.9120 H     1 <1>   0.1500 
 20 H        3.5970     2.3090    -0.4780 H     1 <1>   0.0800 
 21 H        3.2410     1.8780     1.1710 H     1 <1>   0.0800 
 22 H        2.2750     3.5070     2.6780 H     1 <1>   0.0800 
 23 H        1.2540     4.4940     1.6570 H     1 <1>   0.0800 
 24 H        2.6570     5.1930     2.4480 H     1 <1>   0.0800 
 25 H        5.1260     7.8150    -0.5760 H     1 <1>   0.1500 
 26 H        2.3040     6.9800     0.9700 H     1 <1>   0.0800 
 27 H        1.9020     6.0110    -0.4140 H     1 <1>   0.0800 
 28 H        7.1870     6.5770    -0.5350 H     1 <1>   0.4570 
 29 H        8.4620     4.5180    -0.2660 H     1 <1>   0.4000 
 30 H        7.5180     3.1630     0.1850 H     1 <1>   0.4000 
 31 H        3.0810     8.7960    -0.4950 H     1 <1>   0.0800 
 32 H        1.4810     8.3030    -0.9560 H     1 <1>   0.0800 
 33 H        2.8400     7.7790    -1.9100 H     1 <1>   0.0800 
@<TRIPOS>BOND
  1   1   2  1   
  2   1   3  1   
  3   2   4  2   
  4   3   5  2   
  5   3  18  1   
  6   4   5  1   
  7   4   6  1   
  8   5  19  1   
  9   6   7  1   
 10   6  20  1   
 11   6  21  1   
 12   7   8  1   
 13   7   9  1   
 14   8  10  ar  
 15   8  11  ar  
 16   9  22  1   
 17   9  23  1   
 18   9  24  1   
 19  10  12  ar  
 20  11  13  ar  
 21  11  14  1   
 22  12  15  ar  
 23  12  16  1   
 24  13  15  ar  
 25  13  25  1   
 26  14  17  1   
 27  14  26  1   
 28  14  27  1   
 29  15  28  1   
 30  16  29  1   
 31  16  30  1   
 32  17  31  1   
 33  17  32  1   
 34  17  33  1   
@<TRIPOS>SUBSTRUCTURE
  1 ****   7 GROUP 4 **** **** 0

# MOE 2024.06 (io_trps.svl 2023.06)
