@<TRIPOS>MOLECULE
NONAME
42 44 1 0 0 
SMALL
USER_CHARGES


@<TRIPOS>ATOM
  1 S       -1.4410    -0.6970     1.4710 S.3   1 <1>  -0.4600 
  2 C       -2.3740    -0.3900    -0.0770 C.3   1 <1>   0.1310 
  3 C        0.2180    -1.1390     0.8820 C.3   1 <1>  -0.0100 
  4 C       -2.6560    -1.6790    -0.8390 C.2   1 <1>   0.5690 
  5 O       -2.8910    -1.6200    -2.0210 O.2   1 <1>  -0.5700 
  6 N       -2.6430    -2.8620    -0.1740 N.am  1 <1>  -0.7300 
  7 C       -2.8970    -4.1920    -0.7690 C.3   1 <1>   0.2200 
  8 C       -4.1670    -4.7700    -0.1700 C.3   1 <1>  -0.0800 
  9 C       -1.8370    -5.1860    -0.2960 C.3   1 <1>   0.1200 
 10 C       -3.6430    -5.3890     1.1270 C.3   1 <1>   0.1200 
 11 C       -4.8030    -5.8210    -1.1020 C.3   1 <1>  -0.0160 
 12 O       -2.3150    -5.7530     0.8900 O.3   1 <1>  -0.5600 
 13 C       -6.1080    -6.3660    -0.5290 C.ar  1 <1>  -0.1440 
 14 C       -7.3160    -5.6290    -0.5570 C.ar  1 <1>   0.0000 
 15 C       -6.1390    -7.6050     0.0400 C.ar  1 <1>  -0.1500 
 16 C       -8.4620    -6.2230     0.0250 C.ar  1 <1>   0.3100 
 17 C       -7.4560    -4.3420    -1.1290 C.ar  1 <1>  -0.1500 
 18 C       -7.3300    -8.1040     0.5820 C.ar  1 <1>   0.1600 
 19 N       -8.4530    -7.4580     0.5890 N.ar  1 <1>  -0.6200 
 20 C       -9.6730    -5.5120     0.0220 C.ar  1 <1>  -0.1500 
 21 C       -8.6520    -3.6770    -1.1170 C.ar  1 <1>  -0.1500 
 22 C       -9.7760    -4.2660    -0.5330 C.ar  1 <1>  -0.1500 
 23 H       -3.2980     0.0810     0.2000 H     1 <1>   0.0800 
 24 H       -1.7900     0.2820    -0.6790 H     1 <1>   0.0800 
 25 H        0.8280    -1.3400     1.7440 H     1 <1>   0.0800 
 26 H        0.6080    -0.3050     0.3250 H     1 <1>   0.0800 
 27 H        0.1340    -2.0130     0.2610 H     1 <1>   0.0800 
 28 H       -2.3980    -2.8580     0.8220 H     1 <1>   0.3700 
 29 H       -2.9300    -4.1190    -1.8440 H     1 <1>   0.0800 
 30 H       -4.8850    -3.9980     0.0390 H     1 <1>   0.0800 
 31 H       -0.8860    -4.7190    -0.1150 H     1 <1>   0.0800 
 32 H       -1.7210    -5.9820    -1.0100 H     1 <1>   0.0800 
 33 H       -4.1970    -6.2550     1.4420 H     1 <1>   0.0800 
 34 H       -3.6420    -4.6600     1.9190 H     1 <1>   0.0800 
 35 H       -4.1140    -6.6340    -1.2540 H     1 <1>   0.0800 
 36 H       -4.9940    -5.3910    -2.0690 H     1 <1>   0.0800 
 37 H       -5.2620    -8.2240     0.0930 H     1 <1>   0.1500 
 38 H       -6.6080    -3.8710    -1.5880 H     1 <1>   0.1500 
 39 H       -7.3100    -9.0860     1.0220 H     1 <1>   0.1500 
 40 H      -10.5240    -5.9860     0.4750 H     1 <1>   0.1500 
 41 H       -8.7430    -2.6970    -1.5550 H     1 <1>   0.1500 
 42 H      -10.7110    -3.7320    -0.5280 H     1 <1>   0.1500 
@<TRIPOS>BOND
  1   1   2  1   
  2   1   3  1   
  3   2   4  1   
  4   2  23  1   
  5   2  24  1   
  6   3  25  1   
  7   3  26  1   
  8   3  27  1   
  9   4   5  2   
 10   4   6  am  
 11   6   7  1   
 12   6  28  1   
 13   7   8  1   
 14   7   9  1   
 15   7  29  1   
 16   8  10  1   
 17   8  11  1   
 18   8  30  1   
 19   9  12  1   
 20   9  31  1   
 21   9  32  1   
 22  10  12  1   
 23  10  33  1   
 24  10  34  1   
 25  11  13  1   
 26  11  35  1   
 27  11  36  1   
 28  13  14  ar  
 29  13  15  ar  
 30  14  16  ar  
 31  14  17  ar  
 32  15  18  ar  
 33  15  37  1   
 34  16  19  ar  
 35  16  20  ar  
 36  17  21  ar  
 37  17  38  1   
 38  18  19  ar  
 39  18  39  1   
 40  20  22  ar  
 41  20  40  1   
 42  21  22  ar  
 43  21  41  1   
 44  22  42  1   
@<TRIPOS>SUBSTRUCTURE
  1 ****   8 GROUP 4 **** **** 0

# MOE 2024.06 (io_trps.svl 2023.06)
