@<TRIPOS>MOLECULE
NONAME
50 52 1 0 0 
SMALL
USER_CHARGES


@<TRIPOS>ATOM
  1 O       -0.5780     0.1120    -0.3290 O.2   1 <1>  -0.5700 
  2 C       -1.5270     0.7660     0.0600 C.2   1 <1>   0.5440 
  3 N       -2.6730     0.1040     0.4430 N.am  1 <1>  -0.6600 
  4 C       -1.4380     2.2150     0.0860 C.ar  1 <1>   0.0860 
  5 C       -2.7040    -1.3810     0.6330 C.3   1 <1>   0.1400 
  6 C       -4.0400     0.6880     0.2990 C.3   1 <1>   0.1400 
  7 C       -1.8680     2.9540     1.1880 C.ar  1 <1>  -0.1500 
  8 C       -0.9170     2.9210    -0.9960 C.ar  1 <1>  -0.1500 
  9 C       -3.5810    -2.0530    -0.4380 C.3   1 <1>   0.3440 
 10 C       -4.8500    -0.0870    -0.7650 C.3   1 <1>   0.2000 
 11 C       -1.8010     4.3360     1.2010 C.ar  1 <1>  -0.1500 
 12 C       -0.8470     4.3030    -0.9890 C.ar  1 <1>  -0.1500 
 13 O       -4.8530    -1.4550    -0.4640 O.3   1 <1>  -0.5600 
 14 C       -3.7210    -3.5470    -0.1570 C.ar  1 <1>  -0.1430 
 15 C       -6.3190     0.3750    -0.9070 C.3   1 <1>  -0.0800 
 16 C       -1.2920     5.0210     0.1090 C.ar  1 <1>  -0.1430 
 17 C       -2.8040    -4.4340    -0.7020 C.ar  1 <1>  -0.1500 
 18 C       -4.7400    -4.0420     0.6470 C.ar  1 <1>  -0.1500 
 19 C       -6.4200     1.8300    -1.3910 C.3   1 <1>  -0.2400 
 20 C       -7.1480     0.1990     0.3770 C.3   1 <1>  -0.2400 
 21 C       -1.2140     6.5390     0.1130 C.3   1 <1>   0.2630 
 22 C       -2.9020    -5.7910    -0.4490 C.ar  1 <1>  -0.1500 
 23 C       -4.8390    -5.3990     0.9010 C.ar  1 <1>  -0.1500 
 24 O        0.1190     6.8940     0.1070 O.3   1 <1>  -0.6800 
 25 C       -3.9200    -6.2750     0.3530 C.ar  1 <1>  -0.1500 
 26 H       -1.7110    -1.7930     0.5870 H     1 <1>   0.0800 
 27 H       -3.1040    -1.6060     1.6050 H     1 <1>   0.0800 
 28 H       -4.5420     0.6370     1.2490 H     1 <1>   0.0800 
 29 H       -3.9790     1.7210     0.0090 H     1 <1>   0.0800 
 30 H       -2.2570     2.4310     2.0440 H     1 <1>   0.1500 
 31 H       -0.5600     2.3720    -1.8510 H     1 <1>   0.1500 
 32 H       -3.1310    -1.9160    -1.4060 H     1 <1>   0.0800 
 33 H       -4.3670     0.0320    -1.7210 H     1 <1>   0.0800 
 34 H       -2.1430     4.8750     2.0680 H     1 <1>   0.1500 
 35 H       -0.4390     4.8230    -1.8400 H     1 <1>   0.1500 
 36 H       -6.7620    -0.2440    -1.6700 H     1 <1>   0.0800 
 37 H       -2.0060    -4.0720    -1.3270 H     1 <1>   0.1500 
 38 H       -5.4620    -3.3680     1.0760 H     1 <1>   0.1500 
 39 H       -6.0600     2.5160    -0.6450 H     1 <1>   0.0800 
 40 H       -7.4460     2.0750    -1.6050 H     1 <1>   0.0800 
 41 H       -5.8490     1.9660    -2.2920 H     1 <1>   0.0800 
 42 H       -6.8030     0.8480     1.1610 H     1 <1>   0.0800 
 43 H       -7.0900    -0.8190     0.7220 H     1 <1>   0.0800 
 44 H       -8.1820     0.4250     0.1820 H     1 <1>   0.0800 
 45 H       -1.6690     6.9530     0.9960 H     1 <1>   0.0800 
 46 H       -1.6800     6.9580    -0.7620 H     1 <1>   0.0800 
 47 H       -2.1860    -6.4710    -0.8770 H     1 <1>   0.1500 
 48 H       -5.6340    -5.7710     1.5240 H     1 <1>   0.1500 
 49 H        0.6180     6.2520     0.6480 H     1 <1>   0.4000 
 50 H       -3.9970    -7.3300     0.5490 H     1 <1>   0.1500 
@<TRIPOS>BOND
  1   1   2  2   
  2   2   3  am  
  3   2   4  1   
  4   3   5  1   
  5   3   6  1   
  6   4   7  ar  
  7   4   8  ar  
  8   5   9  1   
  9   5  26  1   
 10   5  27  1   
 11   6  10  1   
 12   6  28  1   
 13   6  29  1   
 14   7  11  ar  
 15   7  30  1   
 16   8  12  ar  
 17   8  31  1   
 18   9  13  1   
 19   9  14  1   
 20   9  32  1   
 21  10  13  1   
 22  10  15  1   
 23  10  33  1   
 24  11  16  ar  
 25  11  34  1   
 26  12  16  ar  
 27  12  35  1   
 28  14  17  ar  
 29  14  18  ar  
 30  15  19  1   
 31  15  20  1   
 32  15  36  1   
 33  16  21  1   
 34  17  22  ar  
 35  17  37  1   
 36  18  23  ar  
 37  18  38  1   
 38  19  39  1   
 39  19  40  1   
 40  19  41  1   
 41  20  42  1   
 42  20  43  1   
 43  20  44  1   
 44  21  24  1   
 45  21  45  1   
 46  21  46  1   
 47  22  25  ar  
 48  22  47  1   
 49  23  25  ar  
 50  23  48  1   
 51  24  49  1   
 52  25  50  1   
@<TRIPOS>SUBSTRUCTURE
  1 ****   3 GROUP 4 **** **** 0

# MOE 2024.06 (io_trps.svl 2023.06)
