@<TRIPOS>MOLECULE
NONAME
44 45 1 0 0 
SMALL
USER_CHARGES


@<TRIPOS>ATOM
  1 F       -1.3350    -1.0540    -0.9020 F     1 <1>  -0.3400 
  2 C       -2.3050    -1.2410    -0.0210 C.3   1 <1>   0.1800 
  3 C       -3.5690    -0.5970    -0.5980 C.3   1 <1>  -0.1600 
  4 C       -4.7690    -0.7540     0.3470 C.3   1 <1>  -0.1600 
  5 C       -6.0240    -0.1020    -0.2500 C.3   1 <1>  -0.1600 
  6 C       -7.2230    -0.2590     0.6880 C.3   1 <1>   0.3430 
  7 N       -8.4570     0.2740     0.0500 N.4   1 <1>  -0.9590 
  8 C       -9.6780    -0.2280     0.7620 C.3   1 <1>   0.3430 
  9 C       -8.4590     1.7650    -0.0320 C.3   1 <1>   0.3430 
 10 C      -10.9790     0.1850     0.0430 C.3   1 <1>   0.0000 
 11 C       -9.7020     2.2380    -0.7860 C.3   1 <1>  -0.1600 
 12 C      -12.1630    -0.3520     0.8720 C.3   1 <1>   0.2000 
 13 C      -10.9940     1.7220    -0.1350 C.3   1 <1>  -0.1600 
 14 C      -11.1260    -0.5700    -1.2950 C.3   1 <1>  -0.1600 
 15 O      -13.3320     0.2800     0.5010 O.3   1 <1>  -0.6800 
 16 C      -12.2910    -1.8220     0.4770 C.3   1 <1>  -0.1600 
 17 C      -11.7420    -1.9330    -0.9520 C.3   1 <1>  -0.1600 
 18 H       -2.4050    -2.3050     0.1070 H     1 <1>   0.0800 
 19 H       -1.9850    -0.7750     0.8940 H     1 <1>   0.0800 
 20 H       -3.3750     0.4490    -0.7650 H     1 <1>   0.0800 
 21 H       -3.7910    -1.0630    -1.5430 H     1 <1>   0.0800 
 22 H       -4.9480    -1.8030     0.5180 H     1 <1>   0.0800 
 23 H       -4.5350    -0.2950     1.2940 H     1 <1>   0.0800 
 24 H       -6.2420    -0.5710    -1.1940 H     1 <1>   0.0800 
 25 H       -5.8200     0.9400    -0.4190 H     1 <1>   0.0800 
 26 H       -7.0340     0.2530     1.6180 H     1 <1>   0.0800 
 27 H       -7.3540    -1.3080     0.9030 H     1 <1>   0.0800 
 28 H       -8.5020    -0.0850    -0.9120 H     1 <1>   0.4500 
 29 H       -9.6420    -1.3040     0.8290 H     1 <1>   0.0800 
 30 H       -9.6940     0.1670     1.7650 H     1 <1>   0.0800 
 31 H       -8.4590     2.1860     0.9610 H     1 <1>   0.0800 
 32 H       -7.5790     2.1130    -0.5480 H     1 <1>   0.0800 
 33 H       -9.7170     3.3140    -0.7920 H     1 <1>   0.0800 
 34 H       -9.6470     1.9150    -1.8110 H     1 <1>   0.0800 
 35 H      -12.0400    -0.2120     1.9330 H     1 <1>   0.0800 
 36 H      -11.8380     2.0260    -0.7330 H     1 <1>   0.0800 
 37 H      -11.1120     2.1860     0.8300 H     1 <1>   0.0800 
 38 H      -11.8170    -0.0390    -1.9290 H     1 <1>   0.0800 
 39 H      -10.2030    -0.6780    -1.8350 H     1 <1>   0.0800 
 40 H      -13.5890     0.0070    -0.4010 H     1 <1>   0.4000 
 41 H      -11.6850    -2.4190     1.1350 H     1 <1>   0.0800 
 42 H      -13.3070    -2.1740     0.5550 H     1 <1>   0.0800 
 43 H      -11.0020    -2.7140    -1.0040 H     1 <1>   0.0800 
 44 H      -12.5320    -2.1700    -1.6460 H     1 <1>   0.0800 
@<TRIPOS>BOND
  1   1   2  1   
  2   2   3  1   
  3   2  18  1   
  4   2  19  1   
  5   3   4  1   
  6   3  20  1   
  7   3  21  1   
  8   4   5  1   
  9   4  22  1   
 10   4  23  1   
 11   5   6  1   
 12   5  24  1   
 13   5  25  1   
 14   6   7  1   
 15   6  26  1   
 16   6  27  1   
 17   7   8  1   
 18   7   9  1   
 19   7  28  1   
 20   8  10  1   
 21   8  29  1   
 22   8  30  1   
 23   9  11  1   
 24   9  31  1   
 25   9  32  1   
 26  10  12  1   
 27  10  13  1   
 28  10  14  1   
 29  11  13  1   
 30  11  33  1   
 31  11  34  1   
 32  12  15  1   
 33  12  16  1   
 34  12  35  1   
 35  13  36  1   
 36  13  37  1   
 37  14  17  1   
 38  14  38  1   
 39  14  39  1   
 40  15  40  1   
 41  16  17  1   
 42  16  41  1   
 43  16  42  1   
 44  17  43  1   
 45  17  44  1   
@<TRIPOS>SUBSTRUCTURE
  1 ****   7 GROUP 4 **** **** 0

# MOE 2024.06 (io_trps.svl 2023.06)
