@<TRIPOS>MOLECULE
NONAME
39 40 1 0 0 
SMALL
USER_CHARGES


@<TRIPOS>ATOM
  1 N        0.6700     1.1080    -0.2310 N.ar  1 <1>  -0.6200 
  2 C        0.1000     1.8980    -1.1210 C.ar  1 <1>   0.4100 
  3 C       -0.1700     0.2040     0.2460 C.ar  1 <1>   0.1600 
  4 N        0.9400     2.8490    -1.6360 N.pl3 1 <1>  -0.8690 
  5 C       -1.2430     1.7650    -1.5150 C.ar  1 <1>   0.1600 
  6 C       -1.5010     0.0870    -0.1380 C.ar  1 <1>   0.1600 
  7 C        0.9820     4.2410    -1.1330 C.3   1 <1>   0.4330 
  8 N       -2.0850     0.8690    -1.0350 N.ar  1 <1>  -0.6200 
  9 C        2.3920     4.4560    -0.6050 C.ar  1 <1>  -0.1440 
 10 C       -0.1340     4.5540    -0.1070 C.3   1 <1>  -0.1600 
 11 C        2.8480     3.7590     0.5060 C.ar  1 <1>   0.1600 
 12 C        3.2500     5.3440    -1.2260 C.ar  1 <1>  -0.1500 
 13 C       -0.2850     6.0140     0.3940 C.3   1 <1>   0.0000 
 14 N        4.0530     3.8870     1.0410 N.ar  1 <1>  -0.6200 
 15 C        4.5090     5.4870    -0.6840 C.ar  1 <1>  -0.1500 
 16 C        0.8400     6.4260     1.3580 C.3   1 <1>  -0.2400 
 17 C       -0.3380     7.0090    -0.7750 C.3   1 <1>  -0.2400 
 18 C       -1.6100     6.1090     1.1660 C.3   1 <1>  -0.2400 
 19 C        4.8530     4.7480     0.4350 C.ar  1 <1>   0.1600 
 20 H        0.2150    -0.4810     0.9800 H     1 <1>   0.1500 
 21 H        1.8970     2.4890    -1.5840 H     1 <1>   0.4000 
 22 H       -1.6060     2.4450    -2.2630 H     1 <1>   0.1500 
 23 H       -2.1060    -0.6810     0.3110 H     1 <1>   0.1500 
 24 H        0.8350     4.8800    -1.9860 H     1 <1>   0.0800 
 25 H       -0.0180     3.9100     0.7470 H     1 <1>   0.0800 
 26 H       -1.0650     4.2970    -0.5770 H     1 <1>   0.0800 
 27 H        2.1870     3.0540     0.9820 H     1 <1>   0.1500 
 28 H        2.9560     5.9050    -2.0960 H     1 <1>   0.1500 
 29 H        5.2200     6.1640    -1.1210 H     1 <1>   0.1500 
 30 H        1.7790     6.5330     0.8500 H     1 <1>   0.0800 
 31 H        0.9560     5.6970     2.1400 H     1 <1>   0.0800 
 32 H        0.6160     7.3740     1.8140 H     1 <1>   0.0800 
 33 H        0.6040     7.0540    -1.2900 H     1 <1>   0.0800 
 34 H       -0.5590     7.9980    -0.4130 H     1 <1>   0.0800 
 35 H       -1.1050     6.7300    -1.4760 H     1 <1>   0.0800 
 36 H       -1.6100     5.4290     2.0000 H     1 <1>   0.0800 
 37 H       -2.4430     5.8650     0.5310 H     1 <1>   0.0800 
 38 H       -1.7620     7.1050     1.5450 H     1 <1>   0.0800 
 39 H        5.8390     4.8690     0.8510 H     1 <1>   0.1500 
@<TRIPOS>BOND
  1   1   2  ar  
  2   1   3  ar  
  3   2   4  1   
  4   2   5  ar  
  5   3   6  ar  
  6   3  20  1   
  7   4   7  1   
  8   4  21  1   
  9   5   8  ar  
 10   5  22  1   
 11   6   8  ar  
 12   6  23  1   
 13   7   9  1   
 14   7  10  1   
 15   7  24  1   
 16   9  11  ar  
 17   9  12  ar  
 18  10  13  1   
 19  10  25  1   
 20  10  26  1   
 21  11  14  ar  
 22  11  27  1   
 23  12  15  ar  
 24  12  28  1   
 25  13  16  1   
 26  13  17  1   
 27  13  18  1   
 28  14  19  ar  
 29  15  19  ar  
 30  15  29  1   
 31  16  30  1   
 32  16  31  1   
 33  16  32  1   
 34  17  33  1   
 35  17  34  1   
 36  17  35  1   
 37  18  36  1   
 38  18  37  1   
 39  18  38  1   
 40  19  39  1   
@<TRIPOS>SUBSTRUCTURE
  1 ****   7 GROUP 4 **** **** 0

# MOE 2024.06 (io_trps.svl 2023.06)
