@<TRIPOS>MOLECULE
NONAME
38 39 1 0 0 
SMALL
USER_CHARGES


@<TRIPOS>ATOM
  1 F       -2.0240    -1.0280    -0.8470 F     1 <1>  -0.1900 
  2 C       -2.4410     0.0920    -0.3150 C.ar  1 <1>   0.1900 
  3 C       -3.1390     0.0580     0.8820 C.ar  1 <1>  -0.1440 
  4 C       -2.1530     1.2660    -0.9880 C.ar  1 <1>  -0.1500 
  5 C       -3.5340     1.2850     1.3920 C.ar  1 <1>   0.1900 
  6 C       -3.4500    -1.2530     1.5890 C.3   1 <1>   0.2540 
  7 C       -2.5750     2.4770    -0.4460 C.ar  1 <1>   0.0830 
  8 F       -4.1860     1.3290     2.5240 F     1 <1>  -0.1900 
  9 C       -3.2690     2.4820     0.7540 C.ar  1 <1>  -0.1500 
 10 N       -4.4820    -2.0120     0.8600 N.3   1 <1>  -0.8100 
 11 O       -2.3460     3.6810    -1.0240 O.3   1 <1>  -0.3630 
 12 C       -4.5650    -3.3990     1.3660 C.3   1 <1>   0.2900 
 13 C       -5.8110    -1.3540     0.9000 C.3   1 <1>   0.1100 
 14 C       -1.6680     3.7880    -2.2560 C.3   1 <1>   0.0400 
 15 C       -5.3010    -4.2760     0.3680 C.2   1 <1>   0.0060 
 16 C       -6.0830    -0.6080    -0.4100 C.3   1 <1>   0.1200 
 17 N       -6.2020    -5.1570     0.6660 N.2   1 <1>  -0.5650 
 18 N       -5.0540    -4.1820    -0.9550 N.pl3 1 <1>   0.0330 
 19 O       -7.4080    -0.1970    -0.4380 O.3   1 <1>  -0.6800 
 20 C       -6.5590    -5.6670    -0.5300 C.2   1 <1>   0.0770 
 21 C       -5.8680    -5.0820    -1.5330 C.2   1 <1>  -0.3020 
 22 H       -1.6100     1.2120    -1.9120 H     1 <1>   0.1500 
 23 H       -3.7680    -1.0800     2.6030 H     1 <1>   0.0800 
 24 H       -2.5410    -1.8310     1.6280 H     1 <1>   0.0800 
 25 H       -3.5980     3.4110     1.1820 H     1 <1>   0.1500 
 26 H       -5.0690    -3.4240     2.3180 H     1 <1>   0.0800 
 27 H       -3.5770    -3.8050     1.4940 H     1 <1>   0.0800 
 28 H       -5.8730    -0.6680     1.7290 H     1 <1>   0.0800 
 29 H       -6.5840    -2.0940     1.0240 H     1 <1>   0.0800 
 30 H       -1.6150     4.8300    -2.5180 H     1 <1>   0.0800 
 31 H       -2.2190     3.2520    -3.0080 H     1 <1>   0.0800 
 32 H       -0.6750     3.3900    -2.1450 H     1 <1>   0.0800 
 33 H       -5.9160    -1.2510    -1.2550 H     1 <1>   0.0800 
 34 H       -5.4650     0.2690    -0.4920 H     1 <1>   0.0800 
 35 H       -4.3940    -3.5240    -1.3820 H     1 <1>   0.2700 
 36 H       -8.0040    -0.9710    -0.4400 H     1 <1>   0.4000 
 37 H       -7.3060    -6.4400    -0.6060 H     1 <1>   0.1500 
 38 H       -5.9110    -5.2500    -2.5930 H     1 <1>   0.1500 
@<TRIPOS>BOND
  1   1   2  1   
  2   2   3  ar  
  3   2   4  ar  
  4   3   5  ar  
  5   3   6  1   
  6   4   7  ar  
  7   4  22  1   
  8   5   8  1   
  9   5   9  ar  
 10   6  10  1   
 11   6  23  1   
 12   6  24  1   
 13   7   9  ar  
 14   7  11  1   
 15   9  25  1   
 16  10  12  1   
 17  10  13  1   
 18  11  14  1   
 19  12  15  1   
 20  12  26  1   
 21  12  27  1   
 22  13  16  1   
 23  13  28  1   
 24  13  29  1   
 25  14  30  1   
 26  14  31  1   
 27  14  32  1   
 28  15  17  2   
 29  15  18  1   
 30  16  19  1   
 31  16  33  1   
 32  16  34  1   
 33  17  20  1   
 34  18  21  1   
 35  18  35  1   
 36  19  36  1   
 37  20  21  2   
 38  20  37  1   
 39  21  38  1   
@<TRIPOS>SUBSTRUCTURE
  1 ****  10 GROUP 4 **** **** 0

# MOE 2024.06 (io_trps.svl 2023.06)
