@<TRIPOS>MOLECULE
NONAME
47 49 1 0 0 
SMALL
USER_CHARGES


@<TRIPOS>ATOM
  1 O       -1.3900     0.7600    -1.8030 O.2   1 <1>  -0.5700 
  2 C       -1.9650     0.9960    -0.7560 C.2   1 <1>   0.5440 
  3 N       -1.4060     1.9110     0.1190 N.am  1 <1>  -0.6600 
  4 C       -3.1980     0.3050    -0.4650 C.ar  1 <1>   0.0860 
  5 C       -1.6960     1.9390     1.5790 C.3   1 <1>   0.0600 
  6 C       -0.2930     2.8050    -0.3060 C.3   1 <1>   0.0600 
  7 C       -3.3110    -1.0620    -0.7050 C.ar  1 <1>   0.1600 
  8 C       -4.3210     0.9430     0.0500 C.ar  1 <1>  -0.1500 
  9 N       -4.3750    -1.8090    -0.4690 N.ar  1 <1>  -0.6200 
 10 C       -5.4380     0.1840     0.2980 C.ar  1 <1>  -0.1500 
 11 C       -5.4390    -1.1850     0.0280 C.ar  1 <1>   0.4100 
 12 N       -6.5680    -1.9390     0.2710 N.pl3 1 <1>  -0.8380 
 13 C       -7.9070    -1.4560    -0.1580 C.3   1 <1>   0.2090 
 14 C       -6.5350    -3.4290     0.2250 C.3   1 <1>   0.2090 
 15 C       -8.6450    -2.6980    -0.6560 C.3   1 <1>   0.2000 
 16 C       -7.9900    -3.8670     0.0700 C.3   1 <1>  -0.0800 
 17 O      -10.0000    -2.6480    -0.3650 O.3   1 <1>  -0.6800 
 18 C       -8.1540    -5.2040    -0.6660 C.3   1 <1>   0.0210 
 19 C       -7.4050    -6.3110     0.0500 C.2   1 <1>   0.1080 
 20 N       -7.7460    -6.7450     1.2230 N.2   1 <1>  -0.7070 
 21 C       -6.2830    -6.9650    -0.4480 C.2   1 <1>  -0.1500 
 22 N       -6.8420    -7.7010     1.5080 N.pl3 1 <1>   0.3000 
 23 C       -5.9440    -7.8520     0.5110 C.2   1 <1>  -0.3320 
 24 C       -4.8000    -8.8480     0.5380 C.3   1 <1>  -0.0600 
 25 H       -0.7730     1.9520     2.1330 H     1 <1>   0.0800 
 26 H       -2.2540     1.0680     1.8780 H     1 <1>   0.0800 
 27 H       -2.2620     2.8220     1.8190 H     1 <1>   0.0800 
 28 H       -0.4340     3.7880     0.1060 H     1 <1>   0.0800 
 29 H       -0.2620     2.8850    -1.3790 H     1 <1>   0.0800 
 30 H        0.6450     2.4030     0.0370 H     1 <1>   0.0800 
 31 H       -2.4520    -1.5620    -1.1200 H     1 <1>   0.1500 
 32 H       -4.3050     2.0010     0.2420 H     1 <1>   0.1500 
 33 H       -6.3220     0.6320     0.7080 H     1 <1>   0.1500 
 34 H       -8.4120    -1.0270     0.6900 H     1 <1>   0.0800 
 35 H       -7.8180    -0.7280    -0.9460 H     1 <1>   0.0800 
 36 H       -5.9560    -3.7550    -0.6230 H     1 <1>   0.0800 
 37 H       -6.0980    -3.8280     1.1250 H     1 <1>   0.0800 
 38 H       -8.5270    -2.7800    -1.7230 H     1 <1>   0.0800 
 39 H       -8.3980    -3.9550     1.0620 H     1 <1>   0.0800 
 40 H      -10.1410    -2.7660     0.5950 H     1 <1>   0.4000 
 41 H       -7.7900    -5.1210    -1.6730 H     1 <1>   0.0800 
 42 H       -9.1960    -5.4660    -0.7070 H     1 <1>   0.0800 
 43 H       -5.8080    -6.7820    -1.3950 H     1 <1>   0.1500 
 44 H       -6.8650    -8.2300     2.3880 H     1 <1>   0.2700 
 45 H       -4.2260    -8.7760    -0.3690 H     1 <1>   0.0800 
 46 H       -5.1800    -9.8510     0.6230 H     1 <1>   0.0800 
 47 H       -4.1500    -8.6460     1.3710 H     1 <1>   0.0800 
@<TRIPOS>BOND
  1   1   2  2   
  2   2   3  am  
  3   2   4  1   
  4   3   5  1   
  5   3   6  1   
  6   4   7  ar  
  7   4   8  ar  
  8   5  25  1   
  9   5  26  1   
 10   5  27  1   
 11   6  28  1   
 12   6  29  1   
 13   6  30  1   
 14   7   9  ar  
 15   7  31  1   
 16   8  10  ar  
 17   8  32  1   
 18   9  11  ar  
 19  10  11  ar  
 20  10  33  1   
 21  11  12  1   
 22  12  13  1   
 23  12  14  1   
 24  13  15  1   
 25  13  34  1   
 26  13  35  1   
 27  14  16  1   
 28  14  36  1   
 29  14  37  1   
 30  15  16  1   
 31  15  17  1   
 32  15  38  1   
 33  16  18  1   
 34  16  39  1   
 35  17  40  1   
 36  18  19  1   
 37  18  41  1   
 38  18  42  1   
 39  19  20  2   
 40  19  21  1   
 41  20  22  1   
 42  21  23  2   
 43  21  43  1   
 44  22  23  1   
 45  22  44  1   
 46  23  24  1   
 47  24  45  1   
 48  24  46  1   
 49  24  47  1   
@<TRIPOS>SUBSTRUCTURE
  1 ****   9 GROUP 4 **** **** 0

# MOE 2024.06 (io_trps.svl 2023.06)
