@<TRIPOS>MOLECULE
NONAME
46 48 1 0 0 
SMALL
USER_CHARGES


@<TRIPOS>ATOM
  1 N        0.3640    -1.0090     1.1750 N.ar  1 <1>  -0.6200 
  2 C        0.0570    -2.1210     0.5260 C.ar  1 <1>   0.7200 
  3 C        0.8580    -0.0420     0.4440 C.ar  1 <1>   0.1660 
  4 N        0.1930    -2.3650    -0.7730 N.ar  1 <1>  -0.6200 
  5 N       -0.4500    -3.0960     1.3140 N.pl3 1 <1>  -0.8690 
  6 C        1.0440    -0.1830    -0.9120 C.ar  1 <1>  -0.1500 
  7 C        1.2170     1.2430     1.1570 C.3   1 <1>  -0.0970 
  8 C        0.6900    -1.3840    -1.4840 C.ar  1 <1>   0.1670 
  9 C       -0.5090    -4.5280     0.9720 C.3   1 <1>   0.2090 
 10 C        0.8620    -1.6280    -2.9680 C.3   1 <1>  -0.0970 
 11 C       -1.9440    -4.8740     0.5840 C.3   1 <1>  -0.1600 
 12 C       -2.0510    -6.3150     0.0700 C.3   1 <1>   0.0200 
 13 C       -3.4850    -6.6810    -0.2640 C.2   1 <1>   0.0060 
 14 N       -4.1210    -7.6550     0.2850 N.2   1 <1>  -0.5650 
 15 N       -4.2140    -6.0030    -1.1850 N.pl3 1 <1>   0.0330 
 16 C       -5.3570    -7.6350    -0.2990 C.ar  1 <1>   0.2270 
 17 C       -5.4280    -6.6060    -1.2190 C.ar  1 <1>  -0.1520 
 18 C       -6.4640    -8.4680    -0.0860 C.ar  1 <1>  -0.1430 
 19 C       -6.5870    -6.3650    -1.9520 C.ar  1 <1>  -0.1500 
 20 C       -7.6250    -8.2300    -0.8050 C.ar  1 <1>  -0.1430 
 21 C       -6.3320    -9.5940     0.9340 C.3   1 <1>  -0.0970 
 22 C       -7.6740    -7.1810    -1.7360 C.ar  1 <1>  -0.1500 
 23 C       -8.8760    -9.0760    -0.6190 C.3   1 <1>  -0.0970 
 24 H       -0.4480    -2.8460     2.3010 H     1 <1>   0.4000 
 25 H        1.4510     0.6150    -1.5020 H     1 <1>   0.1500 
 26 H        1.9540     1.0400     1.9120 H     1 <1>   0.0800 
 27 H        0.3410     1.6480     1.6300 H     1 <1>   0.0800 
 28 H        1.6110     1.9700     0.4720 H     1 <1>   0.0800 
 29 H       -0.1960    -5.1140     1.8190 H     1 <1>   0.0800 
 30 H        0.1580    -4.7360     0.1510 H     1 <1>   0.0800 
 31 H        1.5090    -2.4720    -3.1200 H     1 <1>   0.0800 
 32 H        1.2870    -0.7700    -3.4540 H     1 <1>   0.0800 
 33 H       -0.0940    -1.8400    -3.4090 H     1 <1>   0.0800 
 34 H       -2.2650    -4.1940    -0.1840 H     1 <1>   0.0800 
 35 H       -2.5830    -4.7530     1.4410 H     1 <1>   0.0800 
 36 H       -1.6900    -6.9950     0.8220 H     1 <1>   0.0800 
 37 H       -1.4430    -6.4400    -0.8090 H     1 <1>   0.0800 
 38 H       -3.9190    -5.1910    -1.7300 H     1 <1>   0.2700 
 39 H       -6.6260    -5.5620    -2.6660 H     1 <1>   0.1500 
 40 H       -5.3190    -9.9550     0.9600 H     1 <1>   0.0800 
 41 H       -6.9670   -10.4250     0.6920 H     1 <1>   0.0800 
 42 H       -6.5860    -9.2260     1.9110 H     1 <1>   0.0800 
 43 H       -8.5780    -7.0110    -2.2920 H     1 <1>   0.1500 
 44 H       -9.0870    -9.2050     0.4270 H     1 <1>   0.0800 
 45 H       -8.7330   -10.0410    -1.0710 H     1 <1>   0.0800 
 46 H       -9.7310    -8.6080    -1.0740 H     1 <1>   0.0800 
@<TRIPOS>BOND
  1   1   2  ar  
  2   1   3  ar  
  3   2   4  ar  
  4   2   5  1   
  5   3   6  ar  
  6   3   7  1   
  7   4   8  ar  
  8   5   9  1   
  9   5  24  1   
 10   6   8  ar  
 11   6  25  1   
 12   7  26  1   
 13   7  27  1   
 14   7  28  1   
 15   8  10  1   
 16   9  11  1   
 17   9  29  1   
 18   9  30  1   
 19  10  31  1   
 20  10  32  1   
 21  10  33  1   
 22  11  12  1   
 23  11  34  1   
 24  11  35  1   
 25  12  13  1   
 26  12  36  1   
 27  12  37  1   
 28  13  14  2   
 29  13  15  1   
 30  14  16  1   
 31  15  17  1   
 32  15  38  1   
 33  16  17  ar  
 34  16  18  ar  
 35  17  19  ar  
 36  18  20  ar  
 37  18  21  1   
 38  19  22  ar  
 39  19  39  1   
 40  20  22  ar  
 41  20  23  1   
 42  21  40  1   
 43  21  41  1   
 44  21  42  1   
 45  22  43  1   
 46  23  44  1   
 47  23  45  1   
 48  23  46  1   
@<TRIPOS>SUBSTRUCTURE
  1 ****  11 GROUP 4 **** **** 0

# MOE 2024.06 (io_trps.svl 2023.06)
