@<TRIPOS>MOLECULE
NONAME
46 48 1 0 0 
SMALL
USER_CHARGES


@<TRIPOS>ATOM
  1 O        2.6700    -0.7540    -2.1240 O.2   1 <1>  -0.5700 
  2 C        2.7550    -1.1010    -0.9610 C.2   1 <1>   0.5440 
  3 N        3.2480    -0.2010    -0.0350 N.am  1 <1>  -0.6600 
  4 C        2.3560    -2.4470    -0.5930 C.ar  1 <1>   0.0860 
  5 C        3.8610    -0.6130     1.2660 C.3   1 <1>   0.1400 
  6 C        3.4490     1.2330    -0.3750 C.3   1 <1>   0.1400 
  7 C        2.8410    -3.5510    -1.2910 C.ar  1 <1>  -0.1500 
  8 C        1.4730    -2.6870     0.4610 C.ar  1 <1>  -0.1500 
  9 C        5.3630    -0.3020     1.2700 C.3   1 <1>   0.2000 
 10 C        4.9490     1.5190    -0.4650 C.3   1 <1>  -0.1600 
 11 C        2.4780    -4.8400    -0.9450 C.ar  1 <1>  -0.1500 
 12 C        1.1060    -3.9730     0.8140 C.ar  1 <1>  -0.1500 
 13 O        5.8440    -0.5240     2.5550 O.3   1 <1>  -0.6800 
 14 C        5.6590     1.1540     0.8430 C.3   1 <1>   0.2200 
 15 C        1.6100    -5.0530     0.1110 C.ar  1 <1>  -0.1500 
 16 N        7.1130     1.3760     0.6480 N.am  1 <1>  -0.7300 
 17 C        8.0410     1.5220     1.6260 C.2   1 <1>   0.5690 
 18 O        7.7370     1.4480     2.7910 O.2   1 <1>  -0.5700 
 19 C        9.4960     1.7580     1.2580 C.3   1 <1>   0.0440 
 20 C        9.7940     1.4120    -0.1980 C.ar  1 <1>  -0.1430 
 21 C        9.8870     0.0850    -0.5960 C.ar  1 <1>   0.1600 
 22 C        9.9530     2.4040    -1.1450 C.ar  1 <1>  -0.1500 
 23 N       10.1100    -0.3180    -1.8360 N.ar  1 <1>  -0.6200 
 24 C       10.1940     1.9990    -2.4410 C.ar  1 <1>  -0.1500 
 25 C       10.2620     0.6460    -2.7280 C.ar  1 <1>   0.1600 
 26 H        3.3800    -0.0710     2.0620 H     1 <1>   0.0800 
 27 H        3.7310    -1.6650     1.4390 H     1 <1>   0.0800 
 28 H        2.9740     1.4720    -1.3120 H     1 <1>   0.0800 
 29 H        2.9980     1.8430     0.3890 H     1 <1>   0.0800 
 30 H        3.5110    -3.3860    -2.1180 H     1 <1>   0.1500 
 31 H        1.0720    -1.8500     1.0060 H     1 <1>   0.1500 
 32 H        5.8650    -0.9840     0.6070 H     1 <1>   0.0800 
 33 H        5.0910     2.5630    -0.6740 H     1 <1>   0.0800 
 34 H        5.3520     0.9460    -1.2820 H     1 <1>   0.0800 
 35 H        2.8680    -5.6770    -1.4980 H     1 <1>   0.1500 
 36 H        0.4270    -4.1350     1.6330 H     1 <1>   0.1500 
 37 H        6.5900     0.1040     2.7390 H     1 <1>   0.4000 
 38 H        5.3030     1.8120     1.6180 H     1 <1>   0.0800 
 39 H        1.3260    -6.0550     0.3830 H     1 <1>   0.1500 
 40 H        7.4340     1.3460    -0.3250 H     1 <1>   0.3700 
 41 H        9.7300     2.7880     1.4520 H     1 <1>   0.0800 
 42 H       10.1130     1.1580     1.9020 H     1 <1>   0.0800 
 43 H        9.7650    -0.6900     0.1430 H     1 <1>   0.1500 
 44 H        9.8930     3.4490    -0.8950 H     1 <1>   0.1500 
 45 H       10.3290     2.7220    -3.2240 H     1 <1>   0.1500 
 46 H       10.4510     0.3420    -3.7440 H     1 <1>   0.1500 
@<TRIPOS>BOND
  1   1   2  2   
  2   2   3  am  
  3   2   4  1   
  4   3   5  1   
  5   3   6  1   
  6   4   7  ar  
  7   4   8  ar  
  8   5   9  1   
  9   5  26  1   
 10   5  27  1   
 11   6  10  1   
 12   6  28  1   
 13   6  29  1   
 14   7  11  ar  
 15   7  30  1   
 16   8  12  ar  
 17   8  31  1   
 18   9  13  1   
 19   9  14  1   
 20   9  32  1   
 21  10  14  1   
 22  10  33  1   
 23  10  34  1   
 24  11  15  ar  
 25  11  35  1   
 26  12  15  ar  
 27  12  36  1   
 28  13  37  1   
 29  14  16  1   
 30  14  38  1   
 31  15  39  1   
 32  16  17  am  
 33  16  40  1   
 34  17  18  2   
 35  17  19  1   
 36  19  20  1   
 37  19  41  1   
 38  19  42  1   
 39  20  21  ar  
 40  20  22  ar  
 41  21  23  ar  
 42  21  43  1   
 43  22  24  ar  
 44  22  44  1   
 45  23  25  ar  
 46  24  25  ar  
 47  24  45  1   
 48  25  46  1   
@<TRIPOS>SUBSTRUCTURE
  1 ****   9 GROUP 4 **** **** 0

# MOE 2024.06 (io_trps.svl 2023.06)
