@<TRIPOS>MOLECULE
NONAME
42 45 1 0 0 
SMALL
USER_CHARGES


@<TRIPOS>ATOM
  1 O       -1.3410     0.7330     2.1370 O.co2 1 <1>  -0.9000 
  2 C       -2.1230    -0.2420     2.0640 C.2   1 <1>   0.9790 
  3 O       -1.6980    -1.3380     2.4820 O.co2 1 <1>  -0.9000 
  4 C       -3.4690    -0.0600     1.5050 C.ar  1 <1>   0.1310 
  5 N       -4.3560    -1.0780     1.4620 N.ar  1 <1>  -0.3100 
  6 C       -3.8350     1.1880     1.0120 C.ar  1 <1>  -0.1500 
  7 N       -5.5610    -0.9150     0.9710 N.ar  1 <1>  -0.3100 
  8 C       -5.0930     1.3600     0.4980 C.ar  1 <1>  -0.1500 
  9 C       -5.9490     0.2750     0.4990 C.ar  1 <1>   0.4100 
 10 N       -7.2420     0.4090     0.0100 N.pl3 1 <1>  -0.8380 
 11 C       -8.1470     1.4020     0.6650 C.3   1 <1>   0.2090 
 12 C       -7.9520    -0.7970    -0.4960 C.3   1 <1>   0.2090 
 13 C       -9.2370     1.8800    -0.3130 C.3   1 <1>   0.1440 
 14 C       -9.0530    -0.3790    -1.4790 C.3   1 <1>  -0.1600 
 15 C      -10.1380     2.8610     0.4130 C.ar  1 <1>   0.1660 
 16 C      -10.0090     0.6610    -0.8640 C.3   1 <1>  -0.1600 
 17 C       -8.6410     2.7530    -1.4520 C.3   1 <1>  -0.1600 
 18 N      -11.0180     2.5480     1.3390 N.ar  1 <1>  -0.6200 
 19 C       -9.9170     4.1430     0.0070 C.ar  1 <1>  -0.1440 
 20 C       -8.8410     4.2240    -1.0460 C.3   1 <1>  -0.0170 
 21 C      -11.6840     3.5810     1.8340 C.ar  1 <1>   0.4770 
 22 C      -10.6630     5.1370     0.5900 C.ar  1 <1>   0.1600 
 23 N      -11.5590     4.8630     1.5150 N.ar  1 <1>  -0.6200 
 24 C      -12.7060     3.2590     2.8970 C.3   1 <1>  -0.0970 
 25 H       -3.1280     2.0000     1.0380 H     1 <1>   0.1500 
 26 H       -5.4110     2.3020     0.1010 H     1 <1>   0.1500 
 27 H       -7.5830     2.2460     1.0220 H     1 <1>   0.0800 
 28 H       -8.6140     0.9370     1.5160 H     1 <1>   0.0800 
 29 H       -8.3780    -1.3310     0.3370 H     1 <1>   0.0800 
 30 H       -7.2520    -1.4490    -0.9920 H     1 <1>   0.0800 
 31 H       -9.6100    -1.2500    -1.7720 H     1 <1>   0.0800 
 32 H       -8.5880     0.0230    -2.3620 H     1 <1>   0.0800 
 33 H      -10.7340     0.9790    -1.5930 H     1 <1>   0.0800 
 34 H      -10.5480     0.1980    -0.0550 H     1 <1>   0.0800 
 35 H       -9.1910     2.5810    -2.3610 H     1 <1>   0.0800 
 36 H       -7.6050     2.5290    -1.6400 H     1 <1>   0.0800 
 37 H       -9.1470     4.8270    -1.8840 H     1 <1>   0.0800 
 38 H       -7.9400     4.6250    -0.6150 H     1 <1>   0.0800 
 39 H      -10.5260     6.1650     0.3010 H     1 <1>   0.1500 
 40 H      -13.1480     2.2990     2.7030 H     1 <1>   0.0800 
 41 H      -13.4800     4.0030     2.9040 H     1 <1>   0.0800 
 42 H      -12.2250     3.2400     3.8550 H     1 <1>   0.0800 
@<TRIPOS>BOND
  1   1   2  ar  
  2   2   3  ar  
  3   2   4  1   
  4   4   5  ar  
  5   4   6  ar  
  6   5   7  ar  
  7   6   8  ar  
  8   6  25  1   
  9   7   9  ar  
 10   8   9  ar  
 11   8  26  1   
 12   9  10  1   
 13  10  11  1   
 14  10  12  1   
 15  11  13  1   
 16  11  27  1   
 17  11  28  1   
 18  12  14  1   
 19  12  29  1   
 20  12  30  1   
 21  13  15  1   
 22  13  16  1   
 23  13  17  1   
 24  14  16  1   
 25  14  31  1   
 26  14  32  1   
 27  15  18  ar  
 28  15  19  ar  
 29  16  33  1   
 30  16  34  1   
 31  17  20  1   
 32  17  35  1   
 33  17  36  1   
 34  18  21  ar  
 35  19  20  1   
 36  19  22  ar  
 37  20  37  1   
 38  20  38  1   
 39  21  23  ar  
 40  21  24  1   
 41  22  23  ar  
 42  22  39  1   
 43  24  40  1   
 44  24  41  1   
 45  24  42  1   
@<TRIPOS>SUBSTRUCTURE
  1 ****  11 GROUP 4 **** **** 0

# MOE 2024.06 (io_trps.svl 2023.06)
