@<TRIPOS>MOLECULE
NONAME
44 46 1 0 0 
SMALL
USER_CHARGES


@<TRIPOS>ATOM
  1 O       -0.2750    -0.6430     0.5750 O.3   1 <1>  -0.5600 
  2 C       -0.7550    -1.7630    -0.0870 C.3   1 <1>   0.1200 
  3 C        1.0500    -0.3210     0.2830 C.3   1 <1>   0.0400 
  4 C       -2.2170    -1.9430     0.3400 C.3   1 <1>   0.3430 
  5 N       -2.8810    -3.1200    -0.3180 N.4   1 <1>  -0.9590 
  6 C       -4.3460    -3.1700    -0.0260 C.3   1 <1>   0.3430 
  7 C       -2.3030    -4.4260     0.0910 C.3   1 <1>   0.3430 
  8 C       -4.7000    -4.6470     0.1980 C.3   1 <1>  -0.0800 
  9 C       -3.4250    -5.4150    -0.1700 C.3   1 <1>  -0.1600 
 10 C       -5.9540    -5.1010    -0.5730 C.3   1 <1>   0.2090 
 11 N       -6.1390    -6.5610    -0.3760 N.pl3 1 <1>  -0.8690 
 12 C       -7.2100    -7.3620    -0.1570 C.ar  1 <1>   0.4610 
 13 N       -8.4770    -6.9100    -0.1550 N.ar  1 <1>  -0.1790 
 14 C       -7.0630    -8.7360     0.0780 C.ar  1 <1>   0.2270 
 15 C       -9.5530    -7.7300     0.0640 C.ar  1 <1>   0.7710 
 16 N       -5.9450    -9.5190     0.1460 N.2   1 <1>  -0.5650 
 17 C       -8.1930    -9.4940     0.2900 C.ar  1 <1>   0.1050 
 18 N       -9.4540    -9.0110     0.2880 N.ar  1 <1>  -0.5670 
 19 N      -10.7880    -7.2010     0.0480 N.pl3 1 <1>  -0.9000 
 20 C       -6.4080   -10.6990     0.3880 C.2   1 <1>   0.0360 
 21 N       -7.7670   -10.7520     0.4880 N.pl3 1 <1>   0.0330 
 22 H       -0.1550    -2.6080     0.2030 H     1 <1>   0.0800 
 23 H       -0.6830    -1.5870    -1.1470 H     1 <1>   0.0800 
 24 H        1.3140     0.5560     0.8480 H     1 <1>   0.0800 
 25 H        1.1460    -0.1120    -0.7690 H     1 <1>   0.0800 
 26 H        1.6910    -1.1380     0.5690 H     1 <1>   0.0800 
 27 H       -2.7500    -1.0420     0.0850 H     1 <1>   0.0800 
 28 H       -2.2490    -2.0610     1.4110 H     1 <1>   0.0800 
 29 H       -2.7630    -3.0270    -1.3380 H     1 <1>   0.4500 
 30 H       -4.9020    -2.7570    -0.8520 H     1 <1>   0.0800 
 31 H       -4.5740    -2.6050     0.8650 H     1 <1>   0.0800 
 32 H       -2.0710    -4.4130     1.1450 H     1 <1>   0.0800 
 33 H       -1.4140    -4.6690    -0.4700 H     1 <1>   0.0800 
 34 H       -4.8910    -4.7700     1.2510 H     1 <1>   0.0800 
 35 H       -3.2990    -6.3070     0.4210 H     1 <1>   0.0800 
 36 H       -3.4170    -5.6840    -1.2120 H     1 <1>   0.0800 
 37 H       -5.8270    -4.9040    -1.6270 H     1 <1>   0.0800 
 38 H       -6.8170    -4.5610    -0.2230 H     1 <1>   0.0800 
 39 H       -5.2440    -7.0800    -0.4060 H     1 <1>   0.4000 
 40 H       -8.6690    -5.9390    -0.3400 H     1 <1>   0.4570 
 41 H      -11.5760    -7.8380     0.2130 H     1 <1>   0.4000 
 42 H      -11.0700    -6.2320    -0.1060 H     1 <1>   0.4000 
 43 H       -5.8000   -11.5830     0.5070 H     1 <1>   0.1500 
 44 H       -8.3510   -11.5720     0.6740 H     1 <1>   0.2700 
@<TRIPOS>BOND
  1   1   2  1   
  2   1   3  1   
  3   2   4  1   
  4   2  22  1   
  5   2  23  1   
  6   3  24  1   
  7   3  25  1   
  8   3  26  1   
  9   4   5  1   
 10   4  27  1   
 11   4  28  1   
 12   5   6  1   
 13   5   7  1   
 14   5  29  1   
 15   6   8  1   
 16   6  30  1   
 17   6  31  1   
 18   7   9  1   
 19   7  32  1   
 20   7  33  1   
 21   8   9  1   
 22   8  10  1   
 23   8  34  1   
 24   9  35  1   
 25   9  36  1   
 26  10  11  1   
 27  10  37  1   
 28  10  38  1   
 29  11  12  1   
 30  11  39  1   
 31  12  13  ar  
 32  12  14  ar  
 33  13  15  ar  
 34  13  40  1   
 35  14  16  1   
 36  14  17  ar  
 37  15  18  ar  
 38  15  19  1   
 39  16  20  2   
 40  17  18  ar  
 41  17  21  1   
 42  19  41  1   
 43  19  42  1   
 44  20  21  1   
 45  20  43  1   
 46  21  44  1   
@<TRIPOS>SUBSTRUCTURE
  1 ****  11 GROUP 4 **** **** 0

# MOE 2024.06 (io_trps.svl 2023.06)
