@<TRIPOS>MOLECULE
NONAME
53 56 1 0 0 
SMALL
USER_CHARGES


@<TRIPOS>ATOM
  1 O        0.0230    -1.0480     2.5320 O.2   1 <1>  -0.5700 
  2 C        0.4040    -1.6780     1.5550 C.2   1 <1>   0.6160 
  3 N        1.5300    -1.3120     0.8380 N.am  1 <1>  -0.4200 
  4 C       -0.2800    -2.8190     1.0930 C.2   1 <1>  -0.1240 
  5 C        1.9020    -2.0680    -0.2640 C.2   1 <1>   0.4490 
  6 C        2.3160    -0.1150     1.2650 C.3   1 <1>   0.0600 
  7 C        0.1600    -3.4820     0.0200 C.2   1 <1>   0.0330 
  8 C       -1.5170    -3.4360     1.6760 C.3   1 <1>   0.2780 
  9 N        1.2670    -3.1130    -0.6820 N.2   1 <1>  -0.6210 
 10 C        3.1360    -1.6600    -1.0460 C.3   1 <1>  -0.1790 
 11 C       -0.7170    -4.6650    -0.3000 C.3   1 <1>   0.2780 
 12 N       -1.7640    -4.5950     0.7660 N.am  1 <1>  -0.6600 
 13 C       -2.6550    -5.5850     1.0750 C.2   1 <1>   0.5690 
 14 O       -3.2890    -5.5310     2.1050 O.2   1 <1>  -0.5700 
 15 C       -2.8490    -6.7720     0.1170 C.3   1 <1>   0.2610 
 16 O       -1.8030    -7.7090     0.2870 O.3   1 <1>  -0.5600 
 17 C       -4.2490    -7.4290     0.2730 C.3   1 <1>   0.3640 
 18 C       -1.8280    -8.7720    -0.6350 C.3   1 <1>   0.1810 
 19 N       -4.3130    -8.8170    -0.2960 N.am  1 <1>  -0.6600 
 20 C       -5.3200    -6.5620    -0.4110 C.ar  1 <1>  -0.1440 
 21 C       -3.1850    -9.4730    -0.7140 C.2   1 <1>   0.5690 
 22 C       -5.6510    -9.4780    -0.2740 C.3   1 <1>   0.0600 
 23 C       -6.3640    -5.9540     0.2880 C.ar  1 <1>  -0.1440 
 24 C       -5.2480    -6.3890    -1.7900 C.ar  1 <1>  -0.1500 
 25 O       -3.2190   -10.5910    -1.1720 O.2   1 <1>  -0.5700 
 26 C       -7.2820    -5.1700    -0.3970 C.ar  1 <1>  -0.1500 
 27 C       -6.5570    -6.1140     1.7920 C.3   1 <1>  -0.0970 
 28 C       -6.1690    -5.6090    -2.4640 C.ar  1 <1>  -0.1500 
 29 C       -7.1870    -4.9940    -1.7640 C.ar  1 <1>  -0.1500 
 30 H        2.3280     0.6130     0.4740 H     1 <1>   0.0800 
 31 H        3.3240    -0.4080     1.4990 H     1 <1>   0.0800 
 32 H        1.8880     0.3440     2.1390 H     1 <1>   0.0800 
 33 H       -2.3470    -2.7510     1.6480 H     1 <1>   0.0800 
 34 H       -1.3480    -3.7730     2.6850 H     1 <1>   0.0800 
 35 H        4.0030    -1.6930    -0.4140 H     1 <1>   0.0800 
 36 H        3.0120    -0.6710    -1.4450 H     1 <1>   0.0800 
 37 H        3.2930    -2.3370    -1.8670 H     1 <1>   0.0800 
 38 H       -0.1570    -5.5820    -0.2310 H     1 <1>   0.0800 
 39 H       -1.1550    -4.5560    -1.2770 H     1 <1>   0.0800 
 40 H       -2.7630    -6.3900    -0.8820 H     1 <1>   0.0800 
 41 H       -4.4530    -7.5150     1.3230 H     1 <1>   0.0800 
 42 H       -1.5650    -8.3900    -1.6040 H     1 <1>   0.0800 
 43 H       -1.0820    -9.4830    -0.3300 H     1 <1>   0.0800 
 44 H       -6.0890    -9.3850     0.7040 H     1 <1>   0.0800 
 45 H       -5.5640   -10.5240    -0.5130 H     1 <1>   0.0800 
 46 H       -6.3000    -9.0150    -0.9970 H     1 <1>   0.0800 
 47 H       -4.4720    -6.8730    -2.3580 H     1 <1>   0.1500 
 48 H       -8.0860    -4.6890     0.1330 H     1 <1>   0.1500 
 49 H       -7.5170    -5.7380     2.0980 H     1 <1>   0.0800 
 50 H       -5.8030    -5.5660     2.3250 H     1 <1>   0.0800 
 51 H       -6.5100    -7.1500     2.0730 H     1 <1>   0.0800 
 52 H       -6.0960    -5.4840    -3.5300 H     1 <1>   0.1500 
 53 H       -7.9060    -4.3840    -2.2810 H     1 <1>   0.1500 
@<TRIPOS>BOND
  1   1   2  2   
  2   2   3  am  
  3   2   4  1   
  4   3   5  1   
  5   3   6  1   
  6   4   7  2   
  7   4   8  1   
  8   5   9  2   
  9   5  10  1   
 10   6  30  1   
 11   6  31  1   
 12   6  32  1   
 13   7   9  1   
 14   7  11  1   
 15   8  12  1   
 16   8  33  1   
 17   8  34  1   
 18  10  35  1   
 19  10  36  1   
 20  10  37  1   
 21  11  12  1   
 22  11  38  1   
 23  11  39  1   
 24  12  13  am  
 25  13  14  2   
 26  13  15  1   
 27  15  16  1   
 28  15  17  1   
 29  15  40  1   
 30  16  18  1   
 31  17  19  1   
 32  17  20  1   
 33  17  41  1   
 34  18  21  1   
 35  18  42  1   
 36  18  43  1   
 37  19  21  am  
 38  19  22  1   
 39  20  23  ar  
 40  20  24  ar  
 41  21  25  2   
 42  22  44  1   
 43  22  45  1   
 44  22  46  1   
 45  23  26  ar  
 46  23  27  1   
 47  24  28  ar  
 48  24  47  1   
 49  26  29  ar  
 50  26  48  1   
 51  27  49  1   
 52  27  50  1   
 53  27  51  1   
 54  28  29  ar  
 55  28  52  1   
 56  29  53  1   
@<TRIPOS>SUBSTRUCTURE
  1 ****  13 GROUP 4 **** **** 0

# MOE 2024.06 (io_trps.svl 2023.06)
