@<TRIPOS>MOLECULE
NONAME
42 44 1 0 0 
SMALL
USER_CHARGES


@<TRIPOS>ATOM
  1 O       -2.8840     0.5800    -1.8120 O.2   1 <1>  -0.5700 
  2 C       -2.6530     0.5970    -0.6290 C.2   1 <1>   0.5690 
  3 N       -2.3980    -0.5350     0.0670 N.am  1 <1>  -0.7300 
  4 C       -2.6530     1.9200     0.0980 C.3   1 <1>  -0.0990 
  5 C       -2.3100    -1.8940    -0.5180 C.3   1 <1>   0.2200 
  6 C       -1.3250     2.6330    -0.1320 C.3   1 <1>   0.1200 
  7 C       -3.5600    -2.7140    -0.2220 C.3   1 <1>  -0.0800 
  8 C       -1.2700    -2.6890     0.2590 C.3   1 <1>   0.1200 
  9 O       -1.3340     3.8220     0.5750 O.3   1 <1>  -0.6800 
 10 C       -3.2920    -3.2250     1.2000 C.3   1 <1>   0.1200 
 11 C       -4.8950    -1.9590    -0.3940 C.3   1 <1>  -0.0170 
 12 O       -1.9190    -3.0820     1.4300 O.3   1 <1>  -0.5600 
 13 C       -6.1790    -2.7810    -0.2190 C.ar  1 <1>  -0.1440 
 14 C       -7.4320    -2.1190    -0.1890 C.ar  1 <1>   0.0000 
 15 C       -6.1970    -4.1420    -0.0930 C.ar  1 <1>  -0.1500 
 16 C       -8.5950    -2.9040     0.0040 C.ar  1 <1>   0.3100 
 17 C       -7.6000    -0.7220    -0.3460 C.ar  1 <1>  -0.1500 
 18 C       -7.4060    -4.8240     0.0830 C.ar  1 <1>   0.1600 
 19 N       -8.5650    -4.2530     0.1390 N.ar  1 <1>  -0.6200 
 20 C       -9.8470    -2.2690     0.0540 C.ar  1 <1>  -0.1500 
 21 C       -8.8350    -0.1340    -0.2960 C.ar  1 <1>  -0.1500 
 22 C       -9.9750    -0.9140    -0.0900 C.ar  1 <1>  -0.1500 
 23 H       -2.2330    -0.5100     1.0770 H     1 <1>   0.3700 
 24 H       -3.4610     2.5160    -0.2840 H     1 <1>   0.0800 
 25 H       -2.8040     1.7540     1.1480 H     1 <1>   0.0800 
 26 H       -2.0850    -1.8420    -1.5710 H     1 <1>   0.0800 
 27 H       -1.1720     2.8510    -1.1760 H     1 <1>   0.0800 
 28 H       -0.5040     2.0370     0.2320 H     1 <1>   0.0800 
 29 H       -3.5510    -3.5550    -0.8910 H     1 <1>   0.0800 
 30 H       -0.3960    -2.1110     0.5020 H     1 <1>   0.0800 
 31 H       -0.9870    -3.5780    -0.2770 H     1 <1>   0.0800 
 32 H       -1.9690     4.4530     0.1830 H     1 <1>   0.4000 
 33 H       -3.5550    -4.2620     1.3170 H     1 <1>   0.0800 
 34 H       -3.8090    -2.6360     1.9380 H     1 <1>   0.0800 
 35 H       -4.9110    -1.5200    -1.3780 H     1 <1>   0.0800 
 36 H       -4.9210    -1.1560     0.3200 H     1 <1>   0.0800 
 37 H       -5.3090    -4.7420    -0.1240 H     1 <1>   0.1500 
 38 H       -6.7420    -0.0990    -0.5150 H     1 <1>   0.1500 
 39 H       -7.3690    -5.8960     0.1800 H     1 <1>   0.1500 
 40 H      -10.7090    -2.8910     0.2090 H     1 <1>   0.1500 
 41 H       -8.9450     0.9300    -0.4150 H     1 <1>   0.1500 
 42 H      -10.9410    -0.4410    -0.0510 H     1 <1>   0.1500 
@<TRIPOS>BOND
  1   1   2  2   
  2   2   3  am  
  3   2   4  1   
  4   3   5  1   
  5   3  23  1   
  6   4   6  1   
  7   4  24  1   
  8   4  25  1   
  9   5   7  1   
 10   5   8  1   
 11   5  26  1   
 12   6   9  1   
 13   6  27  1   
 14   6  28  1   
 15   7  10  1   
 16   7  11  1   
 17   7  29  1   
 18   8  12  1   
 19   8  30  1   
 20   8  31  1   
 21   9  32  1   
 22  10  12  1   
 23  10  33  1   
 24  10  34  1   
 25  11  13  1   
 26  11  35  1   
 27  11  36  1   
 28  13  14  ar  
 29  13  15  ar  
 30  14  16  ar  
 31  14  17  ar  
 32  15  18  ar  
 33  15  37  1   
 34  16  19  ar  
 35  16  20  ar  
 36  17  21  ar  
 37  17  38  1   
 38  18  19  ar  
 39  18  39  1   
 40  20  22  ar  
 41  20  40  1   
 42  21  22  ar  
 43  21  41  1   
 44  22  42  1   
@<TRIPOS>SUBSTRUCTURE
  1 ****  11 GROUP 4 **** **** 0

# MOE 2024.06 (io_trps.svl 2023.06)
