@<TRIPOS>MOLECULE
NONAME
52 54 1 0 0 
SMALL
USER_CHARGES


@<TRIPOS>ATOM
  1 O       -0.3510     1.8430     2.2770 O.2   1 <1>  -0.5700 
  2 C       -0.3100     2.5980     1.3010 C.2   1 <1>   0.5440 
  3 N       -1.5260     3.1610     0.9260 N.am  1 <1>  -0.6600 
  4 C        0.9300     2.7190     0.5630 C.ar  1 <1>   0.0860 
  5 C       -2.6210     3.3840     1.8980 C.3   1 <1>   0.1400 
  6 C       -1.6880     3.9330    -0.3280 C.3   1 <1>   0.1400 
  7 C        1.4500     3.9390     0.0370 C.ar  1 <1>  -0.1710 
  8 C        1.7010     1.5640     0.3220 C.ar  1 <1>   0.0820 
  9 C       -3.9510     2.9770     1.2590 C.3   1 <1>  -0.1600 
 10 C       -3.0140     3.5550    -0.9890 C.3   1 <1>  -0.1600 
 11 O        0.9100     5.0530     0.2310 O.3   1 <1>  -0.8290 
 12 C        2.6240     3.9290    -0.7320 C.ar  1 <1>  -0.1500 
 13 O        1.3220     0.3880     0.8590 O.3   1 <1>  -0.5320 
 14 C        2.8540     1.5740    -0.4350 C.ar  1 <1>  -0.1500 
 15 C       -4.2370     3.7360    -0.0540 C.3   1 <1>   0.2800 
 16 C        3.3160     2.7700    -0.9730 C.ar  1 <1>  -0.1500 
 17 O       -4.3270     5.0980     0.3060 O.3   1 <1>  -0.5600 
 18 C       -5.5940     3.2420    -0.6800 C.3   1 <1>   0.2000 
 19 C       -4.9160     5.9750    -0.5980 C.3   1 <1>   0.1200 
 20 O       -5.4990     3.0940    -2.0740 O.3   1 <1>  -0.6800 
 21 C       -6.7770     4.2010    -0.3470 C.3   1 <1>   0.3000 
 22 C       -6.4000     5.6280    -0.7960 C.3   1 <1>  -0.1600 
 23 N       -6.9890     4.2730     1.1190 N.am  1 <1>  -0.7300 
 24 C       -8.0960     3.8030    -1.0350 C.3   1 <1>  -0.2400 
 25 C       -7.5130     3.4390     2.0460 C.2   1 <1>   0.5690 
 26 O       -7.3650     3.6970     3.2110 O.2   1 <1>  -0.5700 
 27 C       -8.2500     2.1700     1.6940 C.3   1 <1>  -0.1790 
 28 H       -2.4580     2.8130     2.7950 H     1 <1>   0.0800 
 29 H       -2.6390     4.4270     2.1650 H     1 <1>   0.0800 
 30 H       -1.6580     4.9850    -0.0960 H     1 <1>   0.0800 
 31 H       -0.8830     3.7220    -1.0080 H     1 <1>   0.0800 
 32 H       -4.7340     3.1480     1.9700 H     1 <1>   0.0800 
 33 H       -3.9150     1.9200     1.0650 H     1 <1>   0.0800 
 34 H       -2.9470     2.5230    -1.2830 H     1 <1>   0.0800 
 35 H       -3.1180     4.1340    -1.8850 H     1 <1>   0.0800 
 36 H        2.9560     4.8740    -1.1180 H     1 <1>   0.1500 
 37 H        0.6040     0.5680     1.5180 H     1 <1>   0.4500 
 38 H        3.3930     0.6620    -0.6000 H     1 <1>   0.1500 
 39 H        4.2120     2.7830    -1.5640 H     1 <1>   0.1500 
 40 H       -5.8220     2.2610    -0.3070 H     1 <1>   0.0800 
 41 H       -4.8130     6.9700    -0.2000 H     1 <1>   0.0800 
 42 H       -4.3730     5.9270    -1.5260 H     1 <1>   0.0800 
 43 H       -5.0440     3.8680    -2.4560 H     1 <1>   0.4000 
 44 H       -7.0140     6.3470    -0.2830 H     1 <1>   0.0800 
 45 H       -6.6090     5.7490    -1.8440 H     1 <1>   0.0800 
 46 H       -6.3940     4.9970     1.5310 H     1 <1>   0.3700 
 47 H       -8.0340     3.9740    -2.0940 H     1 <1>   0.0800 
 48 H       -8.9150     4.3820    -0.6480 H     1 <1>   0.0800 
 49 H       -8.2990     2.7570    -0.9090 H     1 <1>   0.0800 
 50 H       -7.6690     1.5750     1.0170 H     1 <1>   0.0800 
 51 H       -9.1990     2.4130     1.2560 H     1 <1>   0.0800 
 52 H       -8.4240     1.5980     2.5860 H     1 <1>   0.0800 
@<TRIPOS>BOND
  1   1   2  2   
  2   2   3  am  
  3   2   4  1   
  4   3   5  1   
  5   3   6  1   
  6   4   7  ar  
  7   4   8  ar  
  8   5   9  1   
  9   5  28  1   
 10   5  29  1   
 11   6  10  1   
 12   6  30  1   
 13   6  31  1   
 14   7  11  1   
 15   7  12  ar  
 16   8  13  1   
 17   8  14  ar  
 18   9  15  1   
 19   9  32  1   
 20   9  33  1   
 21  10  15  1   
 22  10  34  1   
 23  10  35  1   
 24  12  16  ar  
 25  12  36  1   
 26  13  37  1   
 27  14  16  ar  
 28  14  38  1   
 29  15  17  1   
 30  15  18  1   
 31  16  39  1   
 32  17  19  1   
 33  18  20  1   
 34  18  21  1   
 35  18  40  1   
 36  19  22  1   
 37  19  41  1   
 38  19  42  1   
 39  20  43  1   
 40  21  22  1   
 41  21  23  1   
 42  21  24  1   
 43  22  44  1   
 44  22  45  1   
 45  23  25  am  
 46  23  46  1   
 47  24  47  1   
 48  24  48  1   
 49  24  49  1   
 50  25  26  2   
 51  25  27  1   
 52  27  50  1   
 53  27  51  1   
 54  27  52  1   
@<TRIPOS>SUBSTRUCTURE
  1 ****  10 GROUP 4 **** **** 0

# MOE 2024.06 (io_trps.svl 2023.06)
