@<TRIPOS>MOLECULE
NONAME
21 21 1 0 0 
SMALL
USER_CHARGES


@<TRIPOS>ATOM
  1 BR       1.3600    -0.0780     1.6290 Br    1 <1>  -0.1110 
  2 C        2.1420     0.9510     0.2110 C.ar  1 <1>   0.4210 
  3 N        2.2220     2.2520     0.4270 N.ar  1 <1>  -0.6200 
  4 C        2.5610     0.2730    -0.9160 C.ar  1 <1>  -0.1500 
  5 C        2.7660     2.9640    -0.5590 C.ar  1 <1>   0.1660 
  6 C        3.1220     1.0080    -1.9340 C.ar  1 <1>  -0.1500 
  7 C        3.2210     2.3730    -1.7420 C.ar  1 <1>  -0.1500 
  8 C        2.8590     4.4920    -0.3050 C.3   1 <1>   0.3440 
  9 C        3.4820     5.2250    -1.4590 C.1   1 <1>   0.3570 
 10 C        1.4490     5.0730    -0.0770 C.3   1 <1>  -0.2400 
 11 C        3.7140     4.7640     0.9500 C.3   1 <1>  -0.2400 
 12 N        3.9560     5.7720    -2.3380 N.1   1 <1>  -0.5570 
 13 H        2.4460    -0.7930    -0.9840 H     1 <1>   0.1500 
 14 H        3.4700     0.5420    -2.8410 H     1 <1>   0.1500 
 15 H        3.6600     2.9490    -2.5370 H     1 <1>   0.1500 
 16 H        0.8260     4.8770    -0.9310 H     1 <1>   0.0800 
 17 H        1.4940     6.1360     0.0790 H     1 <1>   0.0800 
 18 H        0.9890     4.6220     0.7850 H     1 <1>   0.0800 
 19 H        4.6980     4.3490     0.8240 H     1 <1>   0.0800 
 20 H        3.2660     4.3120     1.8180 H     1 <1>   0.0800 
 21 H        3.8070     5.8210     1.1280 H     1 <1>   0.0800 
@<TRIPOS>BOND
  1   1   2  1   
  2   2   3  ar  
  3   2   4  ar  
  4   3   5  ar  
  5   4   6  ar  
  6   4  13  1   
  7   5   7  ar  
  8   5   8  1   
  9   6   7  ar  
 10   6  14  1   
 11   7  15  1   
 12   8   9  1   
 13   8  10  1   
 14   8  11  1   
 15   9  12  3   
 16  10  16  1   
 17  10  17  1   
 18  10  18  1   
 19  11  19  1   
 20  11  20  1   
 21  11  21  1   
@<TRIPOS>SUBSTRUCTURE
  1 ****   5 GROUP 4 **** **** 0

# MOE 2024.06 (io_trps.svl 2023.06)
