@<TRIPOS>MOLECULE
NONAME
47 50 1 0 0 
SMALL
USER_CHARGES


@<TRIPOS>ATOM
  1 CL      -1.2860    -2.0710    -1.2570 Cl    1 <1>  -0.1770 
  2 C        0.3800    -1.5380    -1.2010 C.ar  1 <1>   0.1770 
  3 C        1.3160    -2.1540    -0.3630 C.ar  1 <1>   0.0540 
  4 C        0.7130    -0.4720    -2.0160 C.ar  1 <1>  -0.1500 
  5 C        1.0140    -3.2830     0.4930 C.2   1 <1>   0.4620 
  6 C        2.6090    -1.6250    -0.3750 C.ar  1 <1>  -0.1500 
  7 C        2.0040     0.0220    -2.0110 C.ar  1 <1>  -0.1500 
  8 N        1.4840    -3.4610     1.6780 N.2   1 <1>  -0.4100 
  9 N        0.2330    -4.3050     0.1230 N.2   1 <1>  -0.5650 
 10 C        2.9510    -0.5570    -1.1850 C.ar  1 <1>  -0.1500 
 11 O        1.0350    -4.5880     2.1310 O.3   1 <1>  -0.0190 
 12 C        0.2950    -5.0410     1.1590 C.2   1 <1>   0.2980 
 13 C       -0.4320    -6.3680     1.3370 C.3   1 <1>   0.5230 
 14 N       -1.4960    -6.4980     0.2800 N.4   1 <1>  -0.9590 
 15 C       -2.8990    -6.5470     0.7950 C.3   1 <1>   0.4230 
 16 C       -1.1590    -7.6090    -0.6640 C.3   1 <1>   0.2630 
 17 C       -3.8710    -6.2620    -0.3540 C.3   1 <1>  -0.1600 
 18 C       -3.2040    -5.3790     1.7420 C.3   1 <1>  -0.1600 
 19 C       -3.8410    -4.7360    -0.5320 C.3   1 <1>  -0.0800 
 20 C       -3.4250    -4.1660     0.8300 C.3   1 <1>  -0.0800 
 21 C       -5.1820    -4.0850    -0.8940 C.3   1 <1>  -0.1600 
 22 C       -4.5360    -3.2010     1.2640 C.3   1 <1>  -0.1600 
 23 C       -5.2310    -2.8250    -0.0380 C.3   1 <1>   0.2000 
 24 O       -6.5360    -2.4640     0.2050 O.3   1 <1>  -0.6800 
 25 H       -0.0360    -0.0280    -2.6480 H     1 <1>   0.1500 
 26 H        3.3620    -2.0580     0.2620 H     1 <1>   0.1500 
 27 H        2.2710     0.8520    -2.6430 H     1 <1>   0.1500 
 28 H        3.9580    -0.1730    -1.1740 H     1 <1>   0.1500 
 29 H       -0.8650    -6.4080     2.3210 H     1 <1>   0.0800 
 30 H        0.2830    -7.1690     1.2540 H     1 <1>   0.0800 
 31 H       -1.4190    -5.6050    -0.2450 H     1 <1>   0.4500 
 32 H       -3.1010    -7.4980     1.2620 H     1 <1>   0.0800 
 33 H       -1.2490    -8.5640    -0.1710 H     1 <1>   0.0800 
 34 H       -0.1500    -7.4980    -1.0260 H     1 <1>   0.0800 
 35 H       -1.8200    -7.5990    -1.5150 H     1 <1>   0.0800 
 36 H       -3.6550    -6.7820    -1.2680 H     1 <1>   0.0800 
 37 H       -4.8510    -6.5670    -0.0310 H     1 <1>   0.0800 
 38 H       -4.1240    -5.6140     2.2490 H     1 <1>   0.0800 
 39 H       -2.4680    -5.1870     2.4990 H     1 <1>   0.0800 
 40 H       -3.1000    -4.4580    -1.2650 H     1 <1>   0.0800 
 41 H       -2.5060    -3.6170     0.7140 H     1 <1>   0.0800 
 42 H       -6.0030    -4.7310    -0.6370 H     1 <1>   0.0800 
 43 H       -5.2320    -3.8410    -1.9400 H     1 <1>   0.0800 
 44 H       -4.1330    -2.3300     1.7510 H     1 <1>   0.0800 
 45 H       -5.2340    -3.6900     1.9200 H     1 <1>   0.0800 
 46 H       -4.7250    -2.0060    -0.5250 H     1 <1>   0.0800 
 47 H       -7.0150    -3.1890     0.6470 H     1 <1>   0.4000 
@<TRIPOS>BOND
  1   1   2  1   
  2   2   3  ar  
  3   2   4  ar  
  4   3   5  1   
  5   3   6  ar  
  6   4   7  ar  
  7   4  25  1   
  8   5   8  2   
  9   5   9  1   
 10   6  10  ar  
 11   6  26  1   
 12   7  10  ar  
 13   7  27  1   
 14   8  11  1   
 15   9  12  2   
 16  10  28  1   
 17  11  12  1   
 18  12  13  1   
 19  13  14  1   
 20  13  29  1   
 21  13  30  1   
 22  14  15  1   
 23  14  16  1   
 24  14  31  1   
 25  15  17  1   
 26  15  18  1   
 27  15  32  1   
 28  16  33  1   
 29  16  34  1   
 30  16  35  1   
 31  17  19  1   
 32  17  36  1   
 33  17  37  1   
 34  18  20  1   
 35  18  38  1   
 36  18  39  1   
 37  19  20  1   
 38  19  21  1   
 39  19  40  1   
 40  20  22  1   
 41  20  41  1   
 42  21  23  1   
 43  21  42  1   
 44  21  43  1   
 45  22  23  1   
 46  22  44  1   
 47  22  45  1   
 48  23  24  1   
 49  23  46  1   
 50  24  47  1   
@<TRIPOS>SUBSTRUCTURE
  1 ****   9 GROUP 4 **** **** 0

# MOE 2024.06 (io_trps.svl 2023.06)
