@<TRIPOS>MOLECULE
NONAME
51 54 1 0 0 
SMALL
USER_CHARGES


@<TRIPOS>ATOM
  1 O        0.1370     3.3000    -2.0110 O.2   1 <1>  -0.5700 
  2 C       -0.6100     4.1630    -1.6100 C.2   1 <1>   0.5690 
  3 N       -0.7140     4.5310    -0.2990 N.am  1 <1>  -0.5090 
  4 C       -1.5050     4.8940    -2.6090 C.3   1 <1>   0.1810 
  5 C       -1.6420     5.6410     0.0570 C.3   1 <1>   0.3640 
  6 C        0.2200     4.0670     0.7480 C.3   1 <1>   0.0490 
  7 O       -1.5430     6.2870    -2.3830 O.3   1 <1>  -0.5600 
  8 C       -3.0740     5.1430     0.3100 C.ar  1 <1>  -0.1440 
  9 C       -1.5980     6.7500    -1.0300 C.3   1 <1>   0.2610 
 10 C        0.2580     2.6090     1.0760 C.3   1 <1>  -0.2000 
 11 C       -0.3320     3.5770     2.0500 C.3   1 <1>  -0.2000 
 12 C       -3.9960     6.0380     0.8400 C.ar  1 <1>  -0.1500 
 13 C       -3.4940     3.8400     0.0520 C.ar  1 <1>  -0.1500 
 14 C       -0.4000     7.6460    -0.7100 C.2   1 <1>   0.5690 
 15 C       -5.3000     5.6510     1.0870 C.ar  1 <1>  -0.1500 
 16 C       -4.7990     3.4490     0.2990 C.ar  1 <1>  -0.1500 
 17 O       -0.4790     8.3970     0.2350 O.2   1 <1>  -0.5700 
 18 N        0.7400     7.5450    -1.4380 N.am  1 <1>  -0.7300 
 19 C       -5.7140     4.3590     0.8170 C.ar  1 <1>   0.0820 
 20 C        2.0520     8.0680    -0.9970 C.3   1 <1>   0.2840 
 21 O       -7.0090     4.0600     1.0870 O.3   1 <1>  -0.3620 
 22 C        2.7610     7.0090    -0.1650 C.ar  1 <1>   0.1670 
 23 C       -7.5250     2.7660     0.8710 C.3   1 <1>   0.0400 
 24 N        3.4190     6.0670    -0.8290 N.ar  1 <1>  -0.6200 
 25 C        2.6710     7.0600     1.2190 C.ar  1 <1>  -0.1500 
 26 C        4.0050     5.1430    -0.0860 C.ar  1 <1>   0.1600 
 27 C        3.2930     6.0940     1.9810 C.ar  1 <1>  -0.1500 
 28 C        3.9760     5.1110     1.2980 C.ar  1 <1>  -0.1500 
 29 H       -2.5090     4.5150    -2.5400 H     1 <1>   0.0800 
 30 H       -1.1420     4.7320    -3.6070 H     1 <1>   0.0800 
 31 H       -1.3050     6.0740     0.9840 H     1 <1>   0.0800 
 32 H        1.1540     4.6050     0.7380 H     1 <1>   0.1000 
 33 H       -2.4750     7.3640    -0.9510 H     1 <1>   0.0800 
 34 H       -0.3860     1.9490     0.5230 H     1 <1>   0.1000 
 35 H        1.2110     2.1630     1.3020 H     1 <1>   0.1000 
 36 H        0.2140     3.7810     2.9540 H     1 <1>   0.1000 
 37 H       -1.3970     3.5530     2.2050 H     1 <1>   0.1000 
 38 H       -3.7080     7.0500     1.0710 H     1 <1>   0.1500 
 39 H       -2.8140     3.1020    -0.3360 H     1 <1>   0.1500 
 40 H       -6.0090     6.3500     1.4940 H     1 <1>   0.1500 
 41 H       -5.0820     2.4370     0.0850 H     1 <1>   0.1500 
 42 H        0.7930     6.8260    -2.1650 H     1 <1>   0.3700 
 43 H        2.6490     8.3130    -1.8570 H     1 <1>   0.0800 
 44 H        1.9110     8.9630    -0.4150 H     1 <1>   0.0800 
 45 H       -8.5600     2.7660     1.1610 H     1 <1>   0.0800 
 46 H       -6.9760     2.0660     1.4760 H     1 <1>   0.0800 
 47 H       -7.4380     2.5250    -0.1740 H     1 <1>   0.0800 
 48 H        2.1120     7.8470     1.6940 H     1 <1>   0.1500 
 49 H        4.5380     4.3670    -0.6090 H     1 <1>   0.1500 
 50 H        3.2440     6.1060     3.0560 H     1 <1>   0.1500 
 51 H        4.4810     4.3250     1.8290 H     1 <1>   0.1500 
@<TRIPOS>BOND
  1   1   2  2   
  2   2   3  am  
  3   2   4  1   
  4   3   5  1   
  5   3   6  1   
  6   4   7  1   
  7   4  29  1   
  8   4  30  1   
  9   5   8  1   
 10   5   9  1   
 11   5  31  1   
 12   6  10  1   
 13   6  11  1   
 14   6  32  1   
 15   7   9  1   
 16   8  12  ar  
 17   8  13  ar  
 18   9  14  1   
 19   9  33  1   
 20  10  11  1   
 21  10  34  1   
 22  10  35  1   
 23  11  36  1   
 24  11  37  1   
 25  12  15  ar  
 26  12  38  1   
 27  13  16  ar  
 28  13  39  1   
 29  14  17  2   
 30  14  18  am  
 31  15  19  ar  
 32  15  40  1   
 33  16  19  ar  
 34  16  41  1   
 35  18  20  1   
 36  18  42  1   
 37  19  21  1   
 38  20  22  1   
 39  20  43  1   
 40  20  44  1   
 41  21  23  1   
 42  22  24  ar  
 43  22  25  ar  
 44  23  45  1   
 45  23  46  1   
 46  23  47  1   
 47  24  26  ar  
 48  25  27  ar  
 49  25  48  1   
 50  26  28  ar  
 51  26  49  1   
 52  27  28  ar  
 53  27  50  1   
 54  28  51  1   
@<TRIPOS>SUBSTRUCTURE
  1 ****   5 GROUP 4 **** **** 0

# MOE 2024.06 (io_trps.svl 2023.06)
