@<TRIPOS>MOLECULE
NONAME
50 53 1 0 0 
SMALL
USER_CHARGES


@<TRIPOS>ATOM
  1 CL       1.1970     0.1510    -2.1060 Cl    1 <1>  -0.1770 
  2 C        2.1530    -0.8690    -1.0660 C.ar  1 <1>   0.1770 
  3 C        1.8170    -2.1860    -0.9050 C.ar  1 <1>  -0.1500 
  4 C        3.2540    -0.3170    -0.4200 C.ar  1 <1>  -0.1500 
  5 C        2.5550    -3.0330    -0.0500 C.ar  1 <1>   0.0000 
  6 C        4.0320    -1.1250     0.3710 C.ar  1 <1>  -0.1500 
  7 C        3.7180    -2.4840     0.5390 C.ar  1 <1>   0.3610 
  8 C        2.2230    -4.4090     0.1990 C.ar  1 <1>   0.1000 
  9 N        4.5660    -3.3080     1.2440 N.ar  1 <1>  -0.1790 
 10 N        1.0320    -4.9690    -0.1490 N.pl3 1 <1>  -0.8380 
 11 C        3.1770    -5.1750     0.8760 C.ar  1 <1>  -0.1500 
 12 C        4.3220    -4.6220     1.3880 C.ar  1 <1>   0.2110 
 13 C        0.8870    -6.3530    -0.7140 C.3   1 <1>   0.2090 
 14 C       -0.2780    -4.2610     0.0260 C.3   1 <1>   0.2090 
 15 C       -0.1040    -7.2240     0.1070 C.3   1 <1>   0.4230 
 16 C       -1.1990    -5.1120     0.9040 C.3   1 <1>  -0.1600 
 17 N       -0.2250    -8.6690    -0.3790 N.4   1 <1>  -0.9590 
 18 C       -1.4780    -6.5230     0.3170 C.3   1 <1>   0.0000 
 19 C       -1.4450    -9.3840     0.1250 C.3   1 <1>   0.3430 
 20 C       -0.1160    -8.8650    -1.8640 C.3   1 <1>   0.2630 
 21 C       -2.3150    -7.3300     1.3520 C.3   1 <1>  -0.1600 
 22 C       -2.2430    -6.4110    -1.0330 C.3   1 <1>   0.1200 
 23 C       -1.9040    -8.8110     1.4640 C.3   1 <1>  -0.1600 
 24 O       -3.3450    -5.5800    -0.9290 O.3   1 <1>  -0.6800 
 25 H        0.9790    -2.5680    -1.4570 H     1 <1>   0.1500 
 26 H        3.4740     0.7280    -0.5650 H     1 <1>   0.1500 
 27 H        4.8950    -0.7030     0.8570 H     1 <1>   0.1500 
 28 H        5.4130    -2.8910     1.6410 H     1 <1>   0.4570 
 29 H        2.9960    -6.2210     1.0370 H     1 <1>   0.1500 
 30 H        5.0360    -5.2290     1.9240 H     1 <1>   0.1500 
 31 H        0.5390    -6.2530    -1.7260 H     1 <1>   0.0800 
 32 H        1.8470    -6.8340    -0.7470 H     1 <1>   0.0800 
 33 H       -0.1280    -3.3120     0.5130 H     1 <1>   0.0800 
 34 H       -0.7340    -4.0770    -0.9330 H     1 <1>   0.0800 
 35 H        0.3280    -7.2760     1.0930 H     1 <1>   0.0800 
 36 H       -0.7360    -5.1960     1.8720 H     1 <1>   0.0800 
 37 H       -2.1210    -4.5770     1.0500 H     1 <1>   0.0800 
 38 H        0.5730    -9.1660     0.0430 H     1 <1>   0.4500 
 39 H       -2.2500    -9.2790    -0.5840 H     1 <1>   0.0800 
 40 H       -1.2360   -10.4370     0.2320 H     1 <1>   0.0800 
 41 H       -0.9140    -8.3500    -2.3740 H     1 <1>   0.0800 
 42 H       -0.1790    -9.9140    -2.1080 H     1 <1>   0.0800 
 43 H        0.8260    -8.4910    -2.2310 H     1 <1>   0.0800 
 44 H       -2.2250    -6.8980     2.3350 H     1 <1>   0.0800 
 45 H       -3.3610    -7.2760     1.1010 H     1 <1>   0.0800 
 46 H       -2.5960    -7.3690    -1.3710 H     1 <1>   0.0800 
 47 H       -1.6210    -5.9900    -1.8030 H     1 <1>   0.0800 
 48 H       -2.7440    -9.3820     1.8240 H     1 <1>   0.0800 
 49 H       -1.1150    -8.9250     2.1870 H     1 <1>   0.0800 
 50 H       -4.0290    -5.9390    -0.3290 H     1 <1>   0.4000 
@<TRIPOS>BOND
  1   1   2  1   
  2   2   3  ar  
  3   2   4  ar  
  4   3   5  ar  
  5   3  25  1   
  6   4   6  ar  
  7   4  26  1   
  8   5   7  ar  
  9   5   8  ar  
 10   6   7  ar  
 11   6  27  1   
 12   7   9  ar  
 13   8  10  1   
 14   8  11  ar  
 15   9  12  ar  
 16   9  28  1   
 17  10  13  1   
 18  10  14  1   
 19  11  12  ar  
 20  11  29  1   
 21  12  30  1   
 22  13  15  1   
 23  13  31  1   
 24  13  32  1   
 25  14  16  1   
 26  14  33  1   
 27  14  34  1   
 28  15  17  1   
 29  15  18  1   
 30  15  35  1   
 31  16  18  1   
 32  16  36  1   
 33  16  37  1   
 34  17  19  1   
 35  17  20  1   
 36  17  38  1   
 37  18  21  1   
 38  18  22  1   
 39  19  23  1   
 40  19  39  1   
 41  19  40  1   
 42  20  41  1   
 43  20  42  1   
 44  20  43  1   
 45  21  23  1   
 46  21  44  1   
 47  21  45  1   
 48  22  24  1   
 49  22  46  1   
 50  22  47  1   
 51  23  48  1   
 52  23  49  1   
 53  24  50  1   
@<TRIPOS>SUBSTRUCTURE
  1 ****  10 GROUP 4 **** **** 0

# MOE 2024.06 (io_trps.svl 2023.06)
