@<TRIPOS>MOLECULE
NONAME
58 60 1 0 0 
SMALL
USER_CHARGES


@<TRIPOS>ATOM
  1 O        0.1680    -0.7050    -0.8500 O.2   1 <1>  -0.5700 
  2 C        0.9110    -1.5650    -0.4440 C.2   1 <1>   0.5690 
  3 N        0.5220    -2.5560     0.4150 N.am  1 <1>  -0.6600 
  4 C        2.3560    -1.5640    -0.9010 C.3   1 <1>  -0.0990 
  5 C        1.5000    -3.5510     0.9140 C.3   1 <1>   0.1400 
  6 C       -0.8620    -2.6450     0.9560 C.3   1 <1>   0.0600 
  7 C        2.7910    -2.9890    -1.2860 C.3   1 <1>  -0.0800 
  8 C        2.3880    -4.0590    -0.2430 C.3   1 <1>  -0.0800 
  9 C        4.3060    -3.1190    -1.4960 C.3   1 <1>  -0.1600 
 10 C        3.7020    -4.6870     0.2400 C.3   1 <1>  -0.1600 
 11 C        4.6560    -4.4930    -0.9370 C.3   1 <1>   0.4230 
 12 N        6.1130    -4.6680    -0.6410 N.4   1 <1>  -0.9590 
 13 C        6.6260    -4.1910     0.6840 C.3   1 <1>   0.4860 
 14 C        6.5100    -6.0910    -0.8530 C.3   1 <1>   0.2630 
 15 C        6.7330    -2.6800     0.6820 C.ar  1 <1>  -0.1440 
 16 C        7.6210    -2.0500    -0.1760 C.ar  1 <1>  -0.1500 
 17 C        5.9440    -1.9110     1.5260 C.ar  1 <1>  -0.1500 
 18 C        7.7120    -0.6700    -0.2160 C.ar  1 <1>   0.0820 
 19 C        6.0310    -0.5300     1.4930 C.ar  1 <1>  -0.1500 
 20 O        8.6030    -0.1550    -1.0990 O.3   1 <1>  -0.3630 
 21 C        6.9070     0.0930     0.6240 C.ar  1 <1>  -0.1500 
 22 C        8.9630     1.2150    -1.1190 C.3   1 <1>   0.1200 
 23 C        9.9070     1.5560     0.0500 C.3   1 <1>  -0.0800 
 24 C       10.2790     3.0440     0.0090 C.3   1 <1>  -0.2400 
 25 C       11.1850     0.7040     0.0170 C.3   1 <1>  -0.2400 
 26 H        2.4630    -0.9030    -1.7420 H     1 <1>   0.0800 
 27 H        2.9550    -1.1830    -0.0940 H     1 <1>   0.0800 
 28 H        2.1010    -3.0730     1.6690 H     1 <1>   0.0800 
 29 H        0.9850    -4.3810     1.3690 H     1 <1>   0.0800 
 30 H       -1.2960    -3.5930     0.6930 H     1 <1>   0.0800 
 31 H       -1.4780    -1.8610     0.5490 H     1 <1>   0.0800 
 32 H       -0.8430    -2.5450     2.0270 H     1 <1>   0.0800 
 33 H        2.2910    -3.2370    -2.2090 H     1 <1>   0.0800 
 34 H        1.8260    -4.8180    -0.7630 H     1 <1>   0.0800 
 35 H        4.8060    -2.3360    -0.9610 H     1 <1>   0.0800 
 36 H        4.5540    -3.0450    -2.5400 H     1 <1>   0.0800 
 37 H        3.5700    -5.7260     0.4850 H     1 <1>   0.0800 
 38 H        4.0350    -4.1450     1.1040 H     1 <1>   0.0800 
 39 H        4.3730    -5.2060    -1.6950 H     1 <1>   0.0800 
 40 H        6.6030    -4.0870    -1.3360 H     1 <1>   0.4500 
 41 H        5.9900    -4.5250     1.4860 H     1 <1>   0.0800 
 42 H        7.6120    -4.5920     0.8560 H     1 <1>   0.0800 
 43 H        6.0140    -6.7300    -0.1400 H     1 <1>   0.0800 
 44 H        7.5760    -6.2070    -0.7390 H     1 <1>   0.0800 
 45 H        6.2380    -6.4110    -1.8470 H     1 <1>   0.0800 
 46 H        8.2670    -2.6090    -0.8300 H     1 <1>   0.1500 
 47 H        5.2560    -2.3690     2.2170 H     1 <1>   0.1500 
 48 H        5.4150     0.0650     2.1470 H     1 <1>   0.1500 
 49 H        6.9510     1.1660     0.6170 H     1 <1>   0.1500 
 50 H        9.4690     1.3910    -2.0530 H     1 <1>   0.0800 
 51 H        8.0710     1.8140    -1.1060 H     1 <1>   0.0800 
 52 H        9.3950     1.3710     0.9780 H     1 <1>   0.0800 
 53 H       10.8050     3.2790    -0.9000 H     1 <1>   0.0800 
 54 H       10.9100     3.2940     0.8430 H     1 <1>   0.0800 
 55 H        9.3940     3.6530     0.0620 H     1 <1>   0.0800 
 56 H       11.7190     0.8570    -0.9040 H     1 <1>   0.0800 
 57 H       10.9400    -0.3400     0.1010 H     1 <1>   0.0800 
 58 H       11.8290     0.9640     0.8380 H     1 <1>   0.0800 
@<TRIPOS>BOND
  1   1   2  2   
  2   2   3  am  
  3   2   4  1   
  4   3   5  1   
  5   3   6  1   
  6   4   7  1   
  7   4  26  1   
  8   4  27  1   
  9   5   8  1   
 10   5  28  1   
 11   5  29  1   
 12   6  30  1   
 13   6  31  1   
 14   6  32  1   
 15   7   8  1   
 16   7   9  1   
 17   7  33  1   
 18   8  10  1   
 19   8  34  1   
 20   9  11  1   
 21   9  35  1   
 22   9  36  1   
 23  10  11  1   
 24  10  37  1   
 25  10  38  1   
 26  11  12  1   
 27  11  39  1   
 28  12  13  1   
 29  12  14  1   
 30  12  40  1   
 31  13  15  1   
 32  13  41  1   
 33  13  42  1   
 34  14  43  1   
 35  14  44  1   
 36  14  45  1   
 37  15  16  ar  
 38  15  17  ar  
 39  16  18  ar  
 40  16  46  1   
 41  17  19  ar  
 42  17  47  1   
 43  18  20  1   
 44  18  21  ar  
 45  19  21  ar  
 46  19  48  1   
 47  20  22  1   
 48  21  49  1   
 49  22  23  1   
 50  22  50  1   
 51  22  51  1   
 52  23  24  1   
 53  23  25  1   
 54  23  52  1   
 55  24  53  1   
 56  24  54  1   
 57  24  55  1   
 58  25  56  1   
 59  25  57  1   
 60  25  58  1   
@<TRIPOS>SUBSTRUCTURE
  1 ****  17 GROUP 4 **** **** 0

# MOE 2024.06 (io_trps.svl 2023.06)
