@<TRIPOS>MOLECULE
NONAME
53 55 1 0 0 
SMALL
USER_CHARGES


@<TRIPOS>ATOM
  1 O        0.2360     0.2210    -1.0700 O.2   1 <1>  -0.5700 
  2 C       -0.7350     0.9300    -0.9600 C.2   1 <1>   0.5690 
  3 N       -1.9820     0.4050    -0.7590 N.am  1 <1>  -0.6600 
  4 C       -0.5290     2.4310    -1.0370 C.3   1 <1>  -0.0990 
  5 C       -3.2580     1.1530    -0.6350 C.3   1 <1>   0.1400 
  6 C       -2.2100    -1.0530    -0.6230 C.3   1 <1>   0.1400 
  7 C       -0.2880     3.0260     0.3540 C.3   1 <1>  -0.0160 
  8 C       -4.3390     0.0750    -0.5520 C.3   1 <1>   0.2000 
  9 C       -3.6270    -1.1840    -0.0620 C.3   1 <1>  -0.0800 
 10 C       -0.1810     4.5400     0.2760 C.ar  1 <1>  -0.1440 
 11 O       -5.3450     0.4300     0.3310 O.3   1 <1>  -0.6800 
 12 C       -4.3370    -2.4790    -0.4820 C.3   1 <1>   0.0200 
 13 C        1.0210     5.1380    -0.0610 C.ar  1 <1>  -0.1500 
 14 C       -1.2800     5.3410     0.5380 C.ar  1 <1>  -0.1500 
 15 C       -3.5550    -3.6960    -0.0290 C.2   1 <1>  -0.0400 
 16 C        1.1460     6.5160    -0.1370 C.ar  1 <1>   0.0830 
 17 C       -1.1780     6.7200     0.4580 C.ar  1 <1>  -0.1500 
 18 O       -3.3680    -3.9150     1.2450 O.3   1 <1>  -0.0190 
 19 C       -2.9520    -4.6820    -0.7100 C.2   1 <1>  -0.1500 
 20 O        2.3910     6.9640    -0.4660 O.3   1 <1>  -0.3620 
 21 C        0.0270     7.3280     0.1130 C.ar  1 <1>   0.0830 
 22 N       -2.6690    -4.9920     1.4540 N.2   1 <1>  -0.4100 
 23 C       -2.4050    -5.4770     0.2940 C.2   1 <1>   0.1080 
 24 C        2.8980     8.1600     0.0830 C.3   1 <1>   0.0400 
 25 O        0.1310     8.6860     0.0000 O.3   1 <1>  -0.3630 
 26 C       -1.6030    -6.7380     0.0610 C.3   1 <1>  -0.0590 
 27 C       -0.9930     9.5340     0.0760 C.3   1 <1>   0.0400 
 28 H        0.3270     2.6260    -1.6580 H     1 <1>   0.0800 
 29 H       -1.3750     2.9000    -1.5010 H     1 <1>   0.0800 
 30 H       -3.2380     1.7460     0.2620 H     1 <1>   0.0800 
 31 H       -3.4160     1.7780    -1.4960 H     1 <1>   0.0800 
 32 H       -2.1330    -1.5090    -1.5960 H     1 <1>   0.0800 
 33 H       -1.4820    -1.4970     0.0360 H     1 <1>   0.0800 
 34 H        0.6200     2.6190     0.7640 H     1 <1>   0.0800 
 35 H       -1.0920     2.7520     1.0140 H     1 <1>   0.0800 
 36 H       -4.7780    -0.0720    -1.5250 H     1 <1>   0.0800 
 37 H       -3.5440    -1.1550     1.0100 H     1 <1>   0.0800 
 38 H       -5.0100     0.4370     1.2490 H     1 <1>   0.4000 
 39 H       -4.4490    -2.5090    -1.5510 H     1 <1>   0.0800 
 40 H       -5.3190    -2.5110    -0.0430 H     1 <1>   0.0800 
 41 H        1.8860     4.5340    -0.2680 H     1 <1>   0.1500 
 42 H       -2.2220     4.8970     0.8050 H     1 <1>   0.1500 
 43 H       -2.0550     7.2990     0.6680 H     1 <1>   0.1500 
 44 H       -2.8830    -4.8520    -1.7680 H     1 <1>   0.1500 
 45 H        3.9700     8.1290     0.0190 H     1 <1>   0.0800 
 46 H        2.5900     8.2340     1.1110 H     1 <1>   0.0800 
 47 H        2.5240     8.9900    -0.4890 H     1 <1>   0.0800 
 48 H       -2.1910    -7.4480    -0.4910 H     1 <1>   0.0800 
 49 H       -1.3250    -7.1740     1.0040 H     1 <1>   0.0800 
 50 H       -0.7120    -6.5060    -0.4920 H     1 <1>   0.0800 
 51 H       -0.6650    10.5400    -0.1150 H     1 <1>   0.0800 
 52 H       -1.4140     9.4700     1.0640 H     1 <1>   0.0800 
 53 H       -1.7080     9.2360    -0.6710 H     1 <1>   0.0800 
@<TRIPOS>BOND
  1   1   2  2   
  2   2   3  am  
  3   2   4  1   
  4   3   5  1   
  5   3   6  1   
  6   4   7  1   
  7   4  28  1   
  8   4  29  1   
  9   5   8  1   
 10   5  30  1   
 11   5  31  1   
 12   6   9  1   
 13   6  32  1   
 14   6  33  1   
 15   7  10  1   
 16   7  34  1   
 17   7  35  1   
 18   8   9  1   
 19   8  11  1   
 20   8  36  1   
 21   9  12  1   
 22   9  37  1   
 23  10  13  ar  
 24  10  14  ar  
 25  11  38  1   
 26  12  15  1   
 27  12  39  1   
 28  12  40  1   
 29  13  16  ar  
 30  13  41  1   
 31  14  17  ar  
 32  14  42  1   
 33  15  18  1   
 34  15  19  2   
 35  16  20  1   
 36  16  21  ar  
 37  17  21  ar  
 38  17  43  1   
 39  18  22  1   
 40  19  23  1   
 41  19  44  1   
 42  20  24  1   
 43  21  25  1   
 44  22  23  2   
 45  23  26  1   
 46  24  45  1   
 47  24  46  1   
 48  24  47  1   
 49  25  27  1   
 50  26  48  1   
 51  26  49  1   
 52  26  50  1   
 53  27  51  1   
 54  27  52  1   
 55  27  53  1   
@<TRIPOS>SUBSTRUCTURE
  1 ****   2 GROUP 4 **** **** 0

# MOE 2024.06 (io_trps.svl 2023.06)
