@<TRIPOS>MOLECULE
NONAME
41 42 1 0 0 
SMALL
USER_CHARGES


@<TRIPOS>ATOM
  1 CL      -0.5760    -0.9910     2.3750 Cl    1 <1>  -0.1770 
  2 C       -1.9450    -1.4180     1.3720 C.ar  1 <1>   0.1770 
  3 C       -1.9080    -2.5380     0.5500 C.ar  1 <1>   0.0820 
  4 C       -3.0670    -0.6180     1.4150 C.ar  1 <1>  -0.1500 
  5 O       -0.8210    -3.3400     0.4820 O.3   1 <1>  -0.3630 
  6 C       -3.0200    -2.8580    -0.2130 C.ar  1 <1>  -0.1500 
  7 C       -4.1680    -0.9450     0.6350 C.ar  1 <1>   0.0830 
  8 C        0.2380    -2.8860    -0.3310 C.3   1 <1>   0.0400 
  9 C       -4.1660    -2.0680    -0.1910 C.ar  1 <1>  -0.0090 
 10 O       -5.2510    -0.1400     0.6720 O.3   1 <1>  -0.3630 
 11 S       -5.6020    -2.5020    -1.2100 S.o2  1 <1>   1.4470 
 12 C       -5.9650    -0.0720     1.8870 C.3   1 <1>   0.0400 
 13 O       -5.3780    -3.7960    -1.8190 O.2   1 <1>  -0.6500 
 14 O       -5.9200    -1.4000    -2.0930 O.2   1 <1>  -0.6500 
 15 N       -6.8980    -2.6660    -0.1230 N.am  1 <1>  -0.8490 
 16 C       -6.7150    -3.6450     0.9630 C.3   1 <1>   0.1960 
 17 C       -8.2230    -2.6980    -0.7670 C.3   1 <1>   0.1960 
 18 C       -6.9900    -5.0950     0.5510 C.3   1 <1>  -0.1860 
 19 C       -9.0060    -3.9920    -0.5050 C.3   1 <1>  -0.1600 
 20 C       -7.2830    -5.8130     1.8500 C.2   1 <1>   0.9060 
 21 C       -8.0640    -5.1880    -0.5530 C.3   1 <1>   0.2000 
 22 O       -6.3580    -5.9220     2.6590 O.co2 1 <1>  -0.9000 
 23 O       -8.4300    -6.2020     2.1090 O.co2 1 <1>  -0.9000 
 24 O       -8.8190    -6.3310    -0.4240 O.3   1 <1>  -0.6800 
 25 H       -3.0790     0.2540     2.0420 H     1 <1>   0.1500 
 26 H       -2.9870    -3.7400    -0.8300 H     1 <1>   0.1500 
 27 H        1.0160    -3.6270    -0.3120 H     1 <1>   0.0800 
 28 H        0.6100    -1.9550     0.0570 H     1 <1>   0.0800 
 29 H       -0.1240    -2.7570    -1.3360 H     1 <1>   0.0800 
 30 H       -6.8700     0.4810     1.7110 H     1 <1>   0.0800 
 31 H       -5.3650     0.4280     2.6250 H     1 <1>   0.0800 
 32 H       -6.2060    -1.0700     2.2080 H     1 <1>   0.0800 
 33 H       -5.7270    -3.5740     1.3840 H     1 <1>   0.0800 
 34 H       -7.4040    -3.3820     1.7500 H     1 <1>   0.0800 
 35 H       -8.7990    -1.8600    -0.4140 H     1 <1>   0.0800 
 36 H       -8.1120    -2.5820    -1.8320 H     1 <1>   0.0800 
 37 H       -6.0830    -5.5190     0.1650 H     1 <1>   0.0800 
 38 H       -9.7720    -4.0980    -1.2510 H     1 <1>   0.0800 
 39 H       -9.4770    -3.9410     0.4610 H     1 <1>   0.0800 
 40 H       -7.5900    -5.2270    -1.5190 H     1 <1>   0.0800 
 41 H       -8.9140    -6.4840     0.5660 H     1 <1>   0.4000 
@<TRIPOS>BOND
  1   1   2  1   
  2   2   3  ar  
  3   2   4  ar  
  4   3   5  1   
  5   3   6  ar  
  6   4   7  ar  
  7   4  25  1   
  8   5   8  1   
  9   6   9  ar  
 10   6  26  1   
 11   7   9  ar  
 12   7  10  1   
 13   8  27  1   
 14   8  28  1   
 15   8  29  1   
 16   9  11  1   
 17  10  12  1   
 18  11  13  2   
 19  11  14  2   
 20  11  15  am  
 21  12  30  1   
 22  12  31  1   
 23  12  32  1   
 24  15  16  1   
 25  15  17  1   
 26  16  18  1   
 27  16  33  1   
 28  16  34  1   
 29  17  19  1   
 30  17  35  1   
 31  17  36  1   
 32  18  20  1   
 33  18  21  1   
 34  18  37  1   
 35  19  21  1   
 36  19  38  1   
 37  19  39  1   
 38  20  22  ar  
 39  20  23  ar  
 40  21  24  1   
 41  21  40  1   
 42  24  41  1   
@<TRIPOS>SUBSTRUCTURE
  1 ****   9 GROUP 4 **** **** 0

# MOE 2024.06 (io_trps.svl 2023.06)
