@<TRIPOS>MOLECULE
NONAME
48 49 1 0 0 
SMALL
USER_CHARGES


@<TRIPOS>ATOM
  1 CL      -2.5700    -0.3890    -0.0510 Cl    1 <1>  -0.1770 
  2 C       -2.0970    -2.0660    -0.1010 C.ar  1 <1>   0.1770 
  3 C       -2.1860    -2.8280     1.0510 C.ar  1 <1>  -0.1500 
  4 C       -1.6420    -2.6050    -1.2920 C.ar  1 <1>  -0.1500 
  5 C       -1.8200    -4.1650     1.0130 C.ar  1 <1>  -0.1500 
  6 C       -1.2770    -3.9410    -1.3320 C.ar  1 <1>  -0.1500 
  7 C       -1.3800    -4.7110    -0.1850 C.ar  1 <1>   0.1020 
  8 S       -0.9290    -6.4470    -0.3340 S.3   1 <1>  -0.3320 
  9 C       -1.4850    -7.2790     1.2340 C.3   1 <1>   0.1310 
 10 C       -1.5320    -8.8010     1.1200 C.2   1 <1>   0.5690 
 11 O       -0.7560    -9.4130     1.8110 O.2   1 <1>  -0.5700 
 12 N       -2.4610    -9.4600     0.3440 N.am  1 <1>  -0.6600 
 13 C       -2.6680   -10.9260     0.5560 C.3   1 <1>   0.3200 
 14 C       -3.2070    -8.8570    -0.8090 C.3   1 <1>   0.1400 
 15 C       -4.1590   -11.1960     0.5870 C.2   1 <1>  -0.3320 
 16 C       -4.5150    -8.1840    -0.3480 C.3   1 <1>   0.3430 
 17 N       -4.8250   -11.9530    -0.3080 N.pl3 1 <1>   0.0330 
 18 C       -5.0840   -10.7370     1.4580 C.2   1 <1>   0.0770 
 19 N       -5.1120    -7.2710    -1.3790 N.4   1 <1>  -0.9590 
 20 C       -6.1240   -11.8590     0.0510 C.2   1 <1>   0.0060 
 21 N       -6.3190   -11.1200     1.0920 N.2   1 <1>  -0.5650 
 22 C       -4.3070    -6.0200    -1.5700 C.3   1 <1>   0.2630 
 23 C       -6.5160    -6.9360    -0.9850 C.3   1 <1>   0.2630 
 24 C       -7.2350   -12.5700    -0.6940 C.3   1 <1>  -0.0600 
 25 H       -2.5300    -2.3720     1.9630 H     1 <1>   0.1500 
 26 H       -1.5710    -1.9830    -2.1670 H     1 <1>   0.1500 
 27 H       -1.8730    -4.7440     1.9150 H     1 <1>   0.1500 
 28 H       -0.9090    -4.3770    -2.2450 H     1 <1>   0.1500 
 29 H       -2.4590    -6.9020     1.4770 H     1 <1>   0.0800 
 30 H       -0.7850    -6.9920     1.9980 H     1 <1>   0.0800 
 31 H       -2.2360   -11.2470     1.4890 H     1 <1>   0.0800 
 32 H       -2.1920   -11.4750    -0.2380 H     1 <1>   0.0800 
 33 H       -3.4430    -9.6310    -1.5180 H     1 <1>   0.0800 
 34 H       -2.5750    -8.1570    -1.3150 H     1 <1>   0.0800 
 35 H       -4.3240    -7.6250     0.5530 H     1 <1>   0.0800 
 36 H       -5.2280    -8.9570    -0.1150 H     1 <1>   0.0800 
 37 H       -4.4460   -12.5090    -1.0820 H     1 <1>   0.2700 
 38 H       -4.9240   -10.1280     2.3330 H     1 <1>   0.1500 
 39 H       -5.1550    -7.7800    -2.2760 H     1 <1>   0.4500 
 40 H       -4.2360    -5.4710    -0.6450 H     1 <1>   0.0800 
 41 H       -4.7710    -5.3860    -2.3090 H     1 <1>   0.0800 
 42 H       -3.3100    -6.2560    -1.9040 H     1 <1>   0.0800 
 43 H       -6.5270    -6.3970    -0.0510 H     1 <1>   0.0800 
 44 H       -7.0970    -7.8370    -0.8660 H     1 <1>   0.0800 
 45 H       -6.9830    -6.3250    -1.7410 H     1 <1>   0.0800 
 46 H       -7.2630   -12.2520    -1.7190 H     1 <1>   0.0800 
 47 H       -8.1820   -12.3440    -0.2350 H     1 <1>   0.0800 
 48 H       -7.0830   -13.6330    -0.6540 H     1 <1>   0.0800 
@<TRIPOS>BOND
  1   1   2  1   
  2   2   3  ar  
  3   2   4  ar  
  4   3   5  ar  
  5   3  25  1   
  6   4   6  ar  
  7   4  26  1   
  8   5   7  ar  
  9   5  27  1   
 10   6   7  ar  
 11   6  28  1   
 12   7   8  1   
 13   8   9  1   
 14   9  10  1   
 15   9  29  1   
 16   9  30  1   
 17  10  11  2   
 18  10  12  am  
 19  12  13  1   
 20  12  14  1   
 21  13  15  1   
 22  13  31  1   
 23  13  32  1   
 24  14  16  1   
 25  14  33  1   
 26  14  34  1   
 27  15  17  1   
 28  15  18  2   
 29  16  19  1   
 30  16  35  1   
 31  16  36  1   
 32  17  20  1   
 33  17  37  1   
 34  18  21  1   
 35  18  38  1   
 36  19  22  1   
 37  19  23  1   
 38  19  39  1   
 39  20  21  2   
 40  20  24  1   
 41  22  40  1   
 42  22  41  1   
 43  22  42  1   
 44  23  43  1   
 45  23  44  1   
 46  23  45  1   
 47  24  46  1   
 48  24  47  1   
 49  24  48  1   
@<TRIPOS>SUBSTRUCTURE
  1 ****  16 GROUP 4 **** **** 0

# MOE 2024.06 (io_trps.svl 2023.06)
