@<TRIPOS>MOLECULE
NONAME
33 34 1 0 0 
SMALL
USER_CHARGES


@<TRIPOS>ATOM
  1 S        0.7380     0.4440    -0.8670 S.3   1 <1>  -0.0800 
  2 C        2.4830     0.5120    -0.7690 C.2   1 <1>   0.1980 
  3 C        0.6480     1.1550     0.7170 C.2   1 <1>  -0.1100 
  4 N        2.9300     1.0130     0.3120 N.2   1 <1>  -0.5650 
  5 C        3.2620    -0.0180    -1.9500 C.3   1 <1>  -0.0600 
  6 C        1.8930     1.3780     1.1660 C.2   1 <1>   0.0460 
  7 C        2.2550     1.9790     2.5170 C.3   1 <1>   0.0820 
  8 C        2.8820     3.3580     2.4050 C.2   1 <1>   0.5690 
  9 O        2.6310     4.1690     3.2620 O.2   1 <1>  -0.5700 
 10 N        3.7040     3.6030     1.3450 N.am  1 <1>  -0.4940 
 11 C        4.4240     4.7460     0.9900 C.2   1 <1>   0.2040 
 12 O        4.4620     5.8190     1.7440 O.3   1 <1>  -0.0190 
 13 C        5.1760     4.9860    -0.1020 C.2   1 <1>  -0.1810 
 14 N        5.2010     6.7600     1.2120 N.2   1 <1>  -0.4100 
 15 C        5.6420     6.2840     0.1020 C.2   1 <1>   0.1080 
 16 C        5.4650     4.0790    -1.2870 C.3   1 <1>  -0.0590 
 17 C        6.5480     7.0640    -0.8340 C.3   1 <1>   0.0210 
 18 C        8.0240     6.7450    -0.5730 C.3   1 <1>  -0.2400 
 19 H       -0.3260     1.3260     1.1380 H     1 <1>   0.1500 
 20 H        3.0190    -1.0520    -2.1100 H     1 <1>   0.0800 
 21 H        4.3160     0.0660    -1.7590 H     1 <1>   0.0800 
 22 H        3.0170     0.5450    -2.8310 H     1 <1>   0.0800 
 23 H        2.9420     1.3290     3.0240 H     1 <1>   0.0800 
 24 H        1.3690     2.0580     3.1200 H     1 <1>   0.0800 
 25 H        3.7620     2.8160     0.6900 H     1 <1>   0.3700 
 26 H        4.9680     3.1340    -1.1710 H     1 <1>   0.0800 
 27 H        6.5220     3.9040    -1.3660 H     1 <1>   0.0800 
 28 H        5.1170     4.5400    -2.1940 H     1 <1>   0.0800 
 29 H        6.3780     8.1160    -0.6830 H     1 <1>   0.0800 
 30 H        6.2970     6.8330    -1.8530 H     1 <1>   0.0800 
 31 H        8.2750     6.9940     0.4440 H     1 <1>   0.0800 
 32 H        8.6500     7.3180    -1.2340 H     1 <1>   0.0800 
 33 H        8.2160     5.6990    -0.7290 H     1 <1>   0.0800 
@<TRIPOS>BOND
  1   1   2  1   
  2   1   3  1   
  3   2   4  2   
  4   2   5  1   
  5   3   6  2   
  6   3  19  1   
  7   4   6  1   
  8   5  20  1   
  9   5  21  1   
 10   5  22  1   
 11   6   7  1   
 12   7   8  1   
 13   7  23  1   
 14   7  24  1   
 15   8   9  2   
 16   8  10  am  
 17  10  11  1   
 18  10  25  1   
 19  11  12  1   
 20  11  13  2   
 21  12  14  1   
 22  13  15  1   
 23  13  16  1   
 24  14  15  2   
 25  15  17  1   
 26  16  26  1   
 27  16  27  1   
 28  16  28  1   
 29  17  18  1   
 30  17  29  1   
 31  17  30  1   
 32  18  31  1   
 33  18  32  1   
 34  18  33  1   
@<TRIPOS>SUBSTRUCTURE
  1 ****  10 GROUP 4 **** **** 0

# MOE 2024.06 (io_trps.svl 2023.06)
