@<TRIPOS>MOLECULE
NONAME
48 49 1 0 0 
SMALL
USER_CHARGES


@<TRIPOS>ATOM
  1 S       -0.7570     0.9010    -1.0260 S.o2  1 <1>   1.4470 
  2 O       -1.3410     2.0980    -0.4540 O.2   1 <1>  -0.6500 
  3 O       -0.8180     0.7450    -2.4650 O.2   1 <1>  -0.6500 
  4 N       -1.5830    -0.4160    -0.3520 N.am  1 <1>  -0.8490 
  5 C        0.9570     0.6970    -0.4360 C.ar  1 <1>  -0.0090 
  6 C       -1.1950    -1.7070    -0.9540 C.3   1 <1>   0.1960 
  7 C       -3.0390    -0.2410    -0.4480 C.3   1 <1>   0.1960 
  8 C        1.3440     0.8970     0.8930 C.ar  1 <1>  -0.1440 
  9 C        1.9370     0.3000    -1.3420 C.ar  1 <1>  -0.1500 
 10 C       -1.7100    -2.9140    -0.1250 C.3   1 <1>  -0.1060 
 11 C       -3.8150    -1.4900     0.0010 C.3   1 <1>  -0.1600 
 12 C        2.6660     0.7140     1.2710 C.ar  1 <1>  -0.1500 
 13 C        0.3430     1.3090     1.9660 C.3   1 <1>  -0.0970 
 14 C        3.2560     0.1140    -0.9680 C.ar  1 <1>  -0.1440 
 15 C       -2.1110    -3.9700    -1.1710 C.2   1 <1>   0.9060 
 16 C       -2.9050    -2.4540     0.7580 C.3   1 <1>   0.2000 
 17 C       -0.5780    -3.5210     0.7590 C.3   1 <1>  -0.1600 
 18 C        3.6180     0.3250     0.3480 C.ar  1 <1>  -0.1500 
 19 C        4.2850    -0.3250    -1.9940 C.3   1 <1>  -0.0960 
 20 O       -3.1980    -4.5650    -1.0930 O.co2 1 <1>  -0.9000 
 21 O       -1.3240    -4.2090    -2.0940 O.co2 1 <1>  -0.9000 
 22 O       -3.6580    -3.5240     1.1930 O.3   1 <1>  -0.6800 
 23 C        0.1120    -2.5560     1.7400 C.3   1 <1>  -0.1600 
 24 C        1.2410    -3.2590     2.4970 C.3   1 <1>  -0.2400 
 25 H       -1.5960    -1.7470    -1.9550 H     1 <1>   0.0800 
 26 H       -0.1250    -1.7790    -1.0500 H     1 <1>   0.0800 
 27 H       -3.3250     0.5900     0.1760 H     1 <1>   0.0800 
 28 H       -3.3130    -0.0020    -1.4630 H     1 <1>   0.0800 
 29 H        1.6570     0.1290    -2.3680 H     1 <1>   0.1500 
 30 H       -4.2150    -1.9850    -0.8670 H     1 <1>   0.0800 
 31 H       -4.6370    -1.1940     0.6260 H     1 <1>   0.0800 
 32 H        2.9650     0.8710     2.2920 H     1 <1>   0.1500 
 33 H        0.7800     1.2530     2.9460 H     1 <1>   0.0800 
 34 H       -0.5150     0.6610     1.9510 H     1 <1>   0.0800 
 35 H        0.0180     2.3210     1.7990 H     1 <1>   0.0800 
 36 H       -2.5510    -1.9470     1.6360 H     1 <1>   0.0800 
 37 H       -0.9910    -4.3480     1.3120 H     1 <1>   0.0800 
 38 H        0.1730    -3.9310     0.1040 H     1 <1>   0.0800 
 39 H        4.6370     0.1850     0.6620 H     1 <1>   0.1500 
 40 H        5.2750    -0.0410    -1.6840 H     1 <1>   0.0800 
 41 H        4.0820     0.1340    -2.9450 H     1 <1>   0.0800 
 42 H        4.2490    -1.3930    -2.1090 H     1 <1>   0.0800 
 43 H       -3.7170    -4.1390     0.3980 H     1 <1>   0.4000 
 44 H        0.5280    -1.7250     1.2010 H     1 <1>   0.0800 
 45 H       -0.5950    -2.1730     2.4520 H     1 <1>   0.0800 
 46 H        1.9800    -3.6260     1.8060 H     1 <1>   0.0800 
 47 H        0.8520    -4.0880     3.0620 H     1 <1>   0.0800 
 48 H        1.7140    -2.5710     3.1730 H     1 <1>   0.0800 
@<TRIPOS>BOND
  1   1   2  2   
  2   1   3  2   
  3   1   4  am  
  4   1   5  1   
  5   4   6  1   
  6   4   7  1   
  7   5   8  ar  
  8   5   9  ar  
  9   6  10  1   
 10   6  25  1   
 11   6  26  1   
 12   7  11  1   
 13   7  27  1   
 14   7  28  1   
 15   8  12  ar  
 16   8  13  1   
 17   9  14  ar  
 18   9  29  1   
 19  10  15  1   
 20  10  16  1   
 21  10  17  1   
 22  11  16  1   
 23  11  30  1   
 24  11  31  1   
 25  12  18  ar  
 26  12  32  1   
 27  13  33  1   
 28  13  34  1   
 29  13  35  1   
 30  14  18  ar  
 31  14  19  1   
 32  15  20  ar  
 33  15  21  ar  
 34  16  22  1   
 35  16  36  1   
 36  17  23  1   
 37  17  37  1   
 38  17  38  1   
 39  18  39  1   
 40  19  40  1   
 41  19  41  1   
 42  19  42  1   
 43  22  43  1   
 44  23  24  1   
 45  23  44  1   
 46  23  45  1   
 47  24  46  1   
 48  24  47  1   
 49  24  48  1   
@<TRIPOS>SUBSTRUCTURE
  1 ****   6 GROUP 4 **** **** 0

# MOE 2024.06 (io_trps.svl 2023.06)
