@<TRIPOS>MOLECULE
NONAME
45 47 1 0 0 
SMALL
USER_CHARGES


@<TRIPOS>ATOM
  1 F        0.0600    -0.4110     1.6920 F     1 <1>  -0.1900 
  2 C       -0.0760    -1.6600     1.3450 C.ar  1 <1>   0.1900 
  3 C        0.9580    -2.2830     0.6750 C.ar  1 <1>  -0.1500 
  4 C       -1.2530    -2.3080     1.6630 C.ar  1 <1>  -0.1500 
  5 C        0.8180    -3.6160     0.3010 C.ar  1 <1>  -0.1440 
  6 C       -1.4060    -3.6360     1.2910 C.ar  1 <1>  -0.1440 
  7 C       -0.3690    -4.2760     0.6200 C.ar  1 <1>  -0.1500 
  8 C        1.9360    -4.3640    -0.4470 C.3   1 <1>   1.1640 
  9 C       -2.6910    -4.3790     1.6150 C.3   1 <1>   0.4870 
 10 F        2.9340    -3.5810    -0.8330 F     1 <1>  -0.3400 
 11 F        2.4690    -5.3220     0.2980 F     1 <1>  -0.3400 
 12 F        1.4740    -4.9550    -1.5420 F     1 <1>  -0.3400 
 13 N       -3.7780    -3.8880     0.7280 N.4   1 <1>  -0.9590 
 14 C       -5.1200    -4.4190     1.1460 C.3   1 <1>   0.3430 
 15 C       -3.5090    -4.1190    -0.7180 C.3   1 <1>   0.3430 
 16 C       -6.2290    -4.1940     0.0930 C.3   1 <1>   0.0000 
 17 C       -4.4790    -3.2720    -1.5500 C.3   1 <1>  -0.1600 
 18 C       -7.5640    -3.9610     0.8170 C.3   1 <1>   0.2000 
 19 C       -5.8430    -3.0360    -0.8710 C.3   1 <1>  -0.1600 
 20 C       -6.5660    -5.4610    -0.7170 C.3   1 <1>  -0.1600 
 21 O       -7.6560    -2.6760     1.3130 O.3   1 <1>  -0.6800 
 22 C       -8.6490    -4.2480    -0.2130 C.3   1 <1>  -0.1600 
 23 C       -8.0290    -5.2920    -1.1550 C.3   1 <1>  -0.1600 
 24 H        1.8510    -1.7200     0.4580 H     1 <1>   0.1500 
 25 H       -2.0170    -1.7660     2.1950 H     1 <1>   0.1500 
 26 H       -0.4760    -5.3130     0.3370 H     1 <1>   0.1500 
 27 H       -2.9500    -4.2040     2.6470 H     1 <1>   0.0800 
 28 H       -2.5490    -5.4380     1.4760 H     1 <1>   0.0800 
 29 H       -3.8210    -2.8660     0.8350 H     1 <1>   0.4500 
 30 H       -5.0510    -5.4730     1.3550 H     1 <1>   0.0800 
 31 H       -5.4160    -3.9230     2.0560 H     1 <1>   0.0800 
 32 H       -2.4960    -3.8510    -0.9700 H     1 <1>   0.0800 
 33 H       -3.6520    -5.1630    -0.9460 H     1 <1>   0.0800 
 34 H       -4.0240    -2.3210    -1.7690 H     1 <1>   0.0800 
 35 H       -4.6270    -3.7660    -2.4960 H     1 <1>   0.0800 
 36 H       -7.6710    -4.6470     1.6420 H     1 <1>   0.0800 
 37 H       -6.5990    -2.8840    -1.6230 H     1 <1>   0.0800 
 38 H       -5.7820    -2.1190    -0.3080 H     1 <1>   0.0800 
 39 H       -5.9230    -5.6190    -1.5650 H     1 <1>   0.0800 
 40 H       -6.5040    -6.3290    -0.0820 H     1 <1>   0.0800 
 41 H       -8.5780    -2.4810     1.5790 H     1 <1>   0.4000 
 42 H       -9.5390    -4.6290     0.2560 H     1 <1>   0.0800 
 43 H       -8.8870    -3.3580    -0.7710 H     1 <1>   0.0800 
 44 H       -8.5550    -6.2300    -1.0980 H     1 <1>   0.0800 
 45 H       -8.0770    -4.9360    -2.1710 H     1 <1>   0.0800 
@<TRIPOS>BOND
  1   1   2  1   
  2   2   3  ar  
  3   2   4  ar  
  4   3   5  ar  
  5   3  24  1   
  6   4   6  ar  
  7   4  25  1   
  8   5   7  ar  
  9   5   8  1   
 10   6   7  ar  
 11   6   9  1   
 12   7  26  1   
 13   8  10  1   
 14   8  11  1   
 15   8  12  1   
 16   9  13  1   
 17   9  27  1   
 18   9  28  1   
 19  13  14  1   
 20  13  15  1   
 21  13  29  1   
 22  14  16  1   
 23  14  30  1   
 24  14  31  1   
 25  15  17  1   
 26  15  32  1   
 27  15  33  1   
 28  16  18  1   
 29  16  19  1   
 30  16  20  1   
 31  17  19  1   
 32  17  34  1   
 33  17  35  1   
 34  18  21  1   
 35  18  22  1   
 36  18  36  1   
 37  19  37  1   
 38  19  38  1   
 39  20  23  1   
 40  20  39  1   
 41  20  40  1   
 42  21  41  1   
 43  22  23  1   
 44  22  42  1   
 45  22  43  1   
 46  23  44  1   
 47  23  45  1   
@<TRIPOS>SUBSTRUCTURE
  1 ****  13 GROUP 4 **** **** 0

# MOE 2024.06 (io_trps.svl 2023.06)
