@<TRIPOS>MOLECULE
NONAME
35 36 1 0 0 
SMALL
USER_CHARGES


@<TRIPOS>ATOM
  1 F       -0.4770    -0.5560    -0.1330 F     1 <1>  -0.1900 
  2 C       -0.3940    -1.8330     0.1150 C.ar  1 <1>   0.1900 
  3 C        0.7530    -2.5120    -0.2480 C.ar  1 <1>  -0.1500 
  4 C       -1.4560    -2.4630     0.7300 C.ar  1 <1>  -0.1500 
  5 C        0.8440    -3.8710     0.0090 C.ar  1 <1>  -0.1440 
  6 C       -1.3570    -3.8180     0.9850 C.ar  1 <1>  -0.1500 
  7 C       -0.2180    -4.5470     0.6310 C.ar  1 <1>   0.0860 
  8 C        2.1070    -4.6230    -0.3910 C.3   1 <1>  -0.0960 
  9 C       -0.1790    -5.9710     0.9090 C.2   1 <1>   0.5440 
 10 O        0.5720    -6.3970     1.7670 O.2   1 <1>  -0.5700 
 11 N       -0.9890    -6.8520     0.2290 N.am  1 <1>  -0.6600 
 12 C       -1.2220    -8.2500     0.7320 C.3   1 <1>   0.1400 
 13 C       -1.8100    -6.4840    -0.9580 C.3   1 <1>   0.1400 
 14 C       -2.6560    -8.7600     0.4690 C.3   1 <1>   0.2000 
 15 C       -3.3060    -6.5280    -0.6090 C.3   1 <1>  -0.1600 
 16 O       -2.7130    -9.4040    -0.7580 O.3   1 <1>  -0.6800 
 17 C       -3.6680    -7.6050     0.4490 C.3   1 <1>  -0.1860 
 18 C       -5.0780    -8.1320     0.2800 C.2   1 <1>   0.9060 
 19 O       -5.9470    -7.7670     1.0750 O.co2 1 <1>  -0.9000 
 20 O       -5.3070    -8.9190    -0.6500 O.co2 1 <1>  -0.9000 
 21 H        1.5540    -1.9740    -0.7220 H     1 <1>   0.1500 
 22 H       -2.3340    -1.9050     1.0020 H     1 <1>   0.1500 
 23 H       -2.1710    -4.3340     1.4660 H     1 <1>   0.1500 
 24 H        2.7920    -3.9830    -0.9180 H     1 <1>   0.0800 
 25 H        1.8580    -5.4540    -1.0270 H     1 <1>   0.0800 
 26 H        2.6000    -5.0000     0.4880 H     1 <1>   0.0800 
 27 H       -0.5090    -8.9200     0.2860 H     1 <1>   0.0800 
 28 H       -1.0610    -8.2570     1.7960 H     1 <1>   0.0800 
 29 H       -1.5430    -5.5150    -1.3390 H     1 <1>   0.0800 
 30 H       -1.6110    -7.2040    -1.7340 H     1 <1>   0.0800 
 31 H       -2.9330    -9.4850     1.2150 H     1 <1>   0.0800 
 32 H       -3.6300    -5.5670    -0.2550 H     1 <1>   0.0800 
 33 H       -3.8480    -6.7280    -1.5180 H     1 <1>   0.0800 
 34 H       -3.6890    -9.4390    -0.9900 H     1 <1>   0.4000 
 35 H       -3.6280    -7.1400     1.4160 H     1 <1>   0.0800 
@<TRIPOS>BOND
  1   1   2  1   
  2   2   3  ar  
  3   2   4  ar  
  4   3   5  ar  
  5   3  21  1   
  6   4   6  ar  
  7   4  22  1   
  8   5   7  ar  
  9   5   8  1   
 10   6   7  ar  
 11   6  23  1   
 12   7   9  1   
 13   8  24  1   
 14   8  25  1   
 15   8  26  1   
 16   9  10  2   
 17   9  11  am  
 18  11  12  1   
 19  11  13  1   
 20  12  14  1   
 21  12  27  1   
 22  12  28  1   
 23  13  15  1   
 24  13  29  1   
 25  13  30  1   
 26  14  16  1   
 27  14  17  1   
 28  14  31  1   
 29  15  17  1   
 30  15  32  1   
 31  15  33  1   
 32  16  34  1   
 33  17  18  1   
 34  17  35  1   
 35  18  19  ar  
 36  18  20  ar  
@<TRIPOS>SUBSTRUCTURE
  1 ****  11 GROUP 4 **** **** 0

# MOE 2024.06 (io_trps.svl 2023.06)
