@<TRIPOS>MOLECULE
NONAME
38 40 1 0 0 
SMALL
USER_CHARGES


@<TRIPOS>ATOM
  1 O       -0.4300     0.1000     0.2020 O.2   1 <1>  -0.5700 
  2 C       -0.1750     1.2060    -0.2110 C.2   1 <1>   0.5690 
  3 N       -0.9660     2.2910     0.0800 N.am  1 <1>  -0.6600 
  4 C        1.0730     1.3310    -1.0520 C.3   1 <1>   0.1570 
  5 C       -2.2150     2.1420     0.8910 C.3   1 <1>   0.1400 
  6 C       -0.6940     3.7010    -0.3250 C.3   1 <1>   0.1400 
  7 N        2.1360     1.9270    -0.2410 N.pl3 1 <1>   0.3140 
  8 C       -3.4580     2.6470     0.1190 C.3   1 <1>   0.0000 
  9 C       -1.8810     4.2380    -1.1280 C.3   1 <1>  -0.1600 
 10 N        2.8140     2.9910    -0.6120 N.2   1 <1>  -0.4180 
 11 C        2.5860     1.5640     0.9450 C.2   1 <1>   0.0360 
 12 C       -4.6920     2.5030     1.0330 C.3   1 <1>   0.2000 
 13 C       -3.2010     4.1010    -0.3520 C.3   1 <1>  -0.1600 
 14 C       -3.7860     1.6980    -1.0520 C.3   1 <1>  -0.1600 
 15 N        3.6420     3.2410     0.3390 N.2   1 <1>   0.0000 
 16 N        3.5120     2.3570     1.3230 N.2   1 <1>  -0.3380 
 17 O       -5.7450     3.2600     0.5490 O.3   1 <1>  -0.6800 
 18 C       -5.1050     1.0370     0.9210 C.3   1 <1>  -0.1600 
 19 C       -4.6460     0.5680    -0.4670 C.3   1 <1>  -0.1600 
 20 H        0.8860     1.9420    -1.9130 H     1 <1>   0.0800 
 21 H        1.3910     0.3590    -1.3760 H     1 <1>   0.0800 
 22 H       -2.3530     1.1140     1.1770 H     1 <1>   0.0800 
 23 H       -2.1010     2.7130     1.7960 H     1 <1>   0.0800 
 24 H       -0.5570     4.2980     0.5620 H     1 <1>   0.0800 
 25 H        0.2010     3.7840    -0.9140 H     1 <1>   0.0800 
 26 H       -1.7100     5.2740    -1.3590 H     1 <1>   0.0800 
 27 H       -1.9460     3.7050    -2.0600 H     1 <1>   0.0800 
 28 H        2.2100     0.7220     1.4990 H     1 <1>   0.1500 
 29 H       -4.5060     2.8090     2.0490 H     1 <1>   0.0800 
 30 H       -4.0100     4.4460    -0.9720 H     1 <1>   0.0800 
 31 H       -3.1650     4.7430     0.5120 H     1 <1>   0.0800 
 32 H       -4.3640     2.2230    -1.7930 H     1 <1>   0.0800 
 33 H       -2.9040     1.3110    -1.5300 H     1 <1>   0.0800 
 34 H       -5.9740     2.9430    -0.3450 H     1 <1>   0.4000 
 35 H       -4.5820     0.4700     1.6700 H     1 <1>   0.0800 
 36 H       -6.1620     0.9000     1.0750 H     1 <1>   0.0800 
 37 H       -4.0650    -0.3340    -0.3750 H     1 <1>   0.0800 
 38 H       -5.4900     0.3700    -1.1060 H     1 <1>   0.0800 
@<TRIPOS>BOND
  1   1   2  2   
  2   2   3  am  
  3   2   4  1   
  4   3   5  1   
  5   3   6  1   
  6   4   7  1   
  7   4  20  1   
  8   4  21  1   
  9   5   8  1   
 10   5  22  1   
 11   5  23  1   
 12   6   9  1   
 13   6  24  1   
 14   6  25  1   
 15   7  10  1   
 16   7  11  1   
 17   8  12  1   
 18   8  13  1   
 19   8  14  1   
 20   9  13  1   
 21   9  26  1   
 22   9  27  1   
 23  10  15  2   
 24  11  16  2   
 25  11  28  1   
 26  12  17  1   
 27  12  18  1   
 28  12  29  1   
 29  13  30  1   
 30  13  31  1   
 31  14  19  1   
 32  14  32  1   
 33  14  33  1   
 34  15  16  1   
 35  17  34  1   
 36  18  19  1   
 37  18  35  1   
 38  18  36  1   
 39  19  37  1   
 40  19  38  1   
@<TRIPOS>SUBSTRUCTURE
  1 ****   3 GROUP 4 **** **** 0

# MOE 2024.06 (io_trps.svl 2023.06)
