@<TRIPOS>MOLECULE
NONAME
45 46 1 0 0 
SMALL
USER_CHARGES


@<TRIPOS>ATOM
  1 O       -1.0000     0.6250    -2.4690 O.2   1 <1>  -0.5700 
  2 C       -1.7820     1.2420    -1.7710 C.2   1 <1>   0.5440 
  3 N       -3.0900     0.8150    -1.6770 N.am  1 <1>  -0.6600 
  4 C       -1.3160     2.4160    -1.0580 C.ar  1 <1>   0.0860 
  5 C       -3.5090    -0.5550    -2.1140 C.3   1 <1>   0.1400 
  6 C       -4.1670     1.5930    -1.0030 C.3   1 <1>   0.1400 
  7 C       -0.9950     2.4070     0.3070 C.ar  1 <1>  -0.1440 
  8 C       -1.1910     3.6140    -1.7630 C.ar  1 <1>  -0.1500 
  9 C       -4.1020    -1.3420    -0.9330 C.3   1 <1>   0.2000 
 10 C       -4.6880     0.8070     0.2020 C.3   1 <1>  -0.1600 
 11 C       -0.5910     3.5900     0.9160 C.ar  1 <1>   0.0820 
 12 C       -1.0690     1.1190     1.1340 C.3   1 <1>  -0.0960 
 13 C       -0.7800     4.7810    -1.1470 C.ar  1 <1>  -0.1500 
 14 O       -4.5740    -2.5610    -1.3940 O.3   1 <1>  -0.6800 
 15 C       -5.2320    -0.6030    -0.1690 C.3   1 <1>  -0.1060 
 16 O       -0.2960     3.6220     2.2250 O.3   1 <1>  -0.5320 
 17 C       -0.4810     4.7690     0.2010 C.ar  1 <1>  -0.1500 
 18 C       -5.4760    -1.4550     1.0920 C.2   1 <1>   0.9060 
 19 C       -6.5280    -0.4960    -1.0470 C.3   1 <1>  -0.1600 
 20 O       -5.2580    -0.9840     2.2160 O.co2 1 <1>  -0.9000 
 21 O       -5.8330    -2.6350     0.9440 O.co2 1 <1>  -0.9000 
 22 C       -7.6630     0.4350    -0.5710 C.3   1 <1>  -0.1600 
 23 C       -8.2400     0.0580     0.7970 C.3   1 <1>  -0.2400 
 24 H       -4.2370    -0.4640    -2.8980 H     1 <1>   0.0800 
 25 H       -2.6660    -1.1000    -2.4990 H     1 <1>   0.0800 
 26 H       -3.8040     2.5510    -0.6740 H     1 <1>   0.0800 
 27 H       -4.9650     1.7670    -1.7030 H     1 <1>   0.0800 
 28 H       -1.4230     3.6180    -2.8140 H     1 <1>   0.1500 
 29 H       -3.3040    -1.5620    -0.2430 H     1 <1>   0.0800 
 30 H       -3.8800     0.6950     0.9010 H     1 <1>   0.0800 
 31 H       -5.4430     1.3740     0.7130 H     1 <1>   0.0800 
 32 H       -1.3600     0.2680     0.5460 H     1 <1>   0.0800 
 33 H       -1.7870     1.2280     1.9270 H     1 <1>   0.0800 
 34 H       -0.1060     0.9010     1.5590 H     1 <1>   0.0800 
 35 H       -0.6920     5.6930    -1.7120 H     1 <1>   0.1500 
 36 H       -5.1080    -2.9370    -0.6330 H     1 <1>   0.4000 
 37 H       -0.4450     2.7620     2.6560 H     1 <1>   0.4500 
 38 H       -0.1620     5.6650     0.7030 H     1 <1>   0.1500 
 39 H       -6.2590    -0.1790    -2.0360 H     1 <1>   0.0800 
 40 H       -6.9440    -1.4840    -1.1540 H     1 <1>   0.0800 
 41 H       -7.3290     1.4570    -0.5520 H     1 <1>   0.0800 
 42 H       -8.4580     0.3770    -1.2930 H     1 <1>   0.0800 
 43 H       -7.5320     0.2620     1.5810 H     1 <1>   0.0800 
 44 H       -8.4840    -0.9900     0.8260 H     1 <1>   0.0800 
 45 H       -9.1300     0.6260     0.9950 H     1 <1>   0.0800 
@<TRIPOS>BOND
  1   1   2  2   
  2   2   3  am  
  3   2   4  1   
  4   3   5  1   
  5   3   6  1   
  6   4   7  ar  
  7   4   8  ar  
  8   5   9  1   
  9   5  24  1   
 10   5  25  1   
 11   6  10  1   
 12   6  26  1   
 13   6  27  1   
 14   7  11  ar  
 15   7  12  1   
 16   8  13  ar  
 17   8  28  1   
 18   9  14  1   
 19   9  15  1   
 20   9  29  1   
 21  10  15  1   
 22  10  30  1   
 23  10  31  1   
 24  11  16  1   
 25  11  17  ar  
 26  12  32  1   
 27  12  33  1   
 28  12  34  1   
 29  13  17  ar  
 30  13  35  1   
 31  14  36  1   
 32  15  18  1   
 33  15  19  1   
 34  16  37  1   
 35  17  38  1   
 36  18  20  ar  
 37  18  21  ar  
 38  19  22  1   
 39  19  39  1   
 40  19  40  1   
 41  22  23  1   
 42  22  41  1   
 43  22  42  1   
 44  23  43  1   
 45  23  44  1   
 46  23  45  1   
@<TRIPOS>SUBSTRUCTURE
  1 ****   6 GROUP 4 **** **** 0

# MOE 2024.06 (io_trps.svl 2023.06)
