@<TRIPOS>MOLECULE
NONAME
51 53 1 0 0 
SMALL
USER_CHARGES


@<TRIPOS>ATOM
  1 F       -0.8480     0.9240     0.5120 F     1 <1>  -0.1900 
  2 C       -0.2670     2.0700     0.2740 C.ar  1 <1>   0.1900 
  3 C       -0.4830     3.1200     1.1460 C.ar  1 <1>  -0.1500 
  4 C        0.5410     2.1890    -0.8410 C.ar  1 <1>  -0.1500 
  5 C        0.1330     4.3350     0.8930 C.ar  1 <1>  -0.1500 
  6 C        1.1520     3.4070    -1.0850 C.ar  1 <1>  -0.1500 
  7 C        0.9540     4.4820    -0.2270 C.ar  1 <1>   0.0820 
  8 O        1.5950     5.6330    -0.5560 O.3   1 <1>  -0.3630 
  9 C        1.4860     6.8270     0.1930 C.3   1 <1>   0.2000 
 10 C        1.8470     7.9800    -0.7570 C.3   1 <1>  -0.1600 
 11 C        2.4240     6.7460     1.4080 C.3   1 <1>  -0.1600 
 12 C        2.6300     9.0920    -0.0530 C.3   1 <1>   0.1400 
 13 C        3.8510     7.1470     1.0350 C.3   1 <1>   0.1400 
 14 N        3.9020     8.5550     0.5230 N.am  1 <1>  -0.6600 
 15 C        5.1040     9.2290     0.5810 C.2   1 <1>   0.5690 
 16 O        6.0860     8.7000     1.0490 O.2   1 <1>  -0.5700 
 17 C        5.3030    10.6680     0.0770 C.3   1 <1>  -0.0190 
 18 C        4.4220    11.7150     0.7930 C.3   1 <1>  -0.1600 
 19 C        5.2660    10.7820    -1.4670 C.3   1 <1>  -0.1600 
 20 C        4.8000    13.1580     0.4000 C.3   1 <1>   0.2000 
 21 C        4.8110    12.1670    -1.9650 C.3   1 <1>  -0.1600 
 22 O        3.6470    13.9540     0.5330 O.3   1 <1>  -0.5600 
 23 C        5.3430    13.2740    -1.0520 C.3   1 <1>   0.2000 
 24 C        3.3850    14.4050     1.8260 C.3   1 <1>   0.0400 
 25 O        4.9590    14.4860    -1.5870 O.3   1 <1>  -0.6800 
 26 H       -1.1190     2.9840     2.0020 H     1 <1>   0.1500 
 27 H        0.6860     1.3490    -1.4960 H     1 <1>   0.1500 
 28 H       -0.0360     5.1450     1.5760 H     1 <1>   0.1500 
 29 H        1.7870     3.5330    -1.9440 H     1 <1>   0.1500 
 30 H        0.4640     6.9400     0.5090 H     1 <1>   0.0800 
 31 H        2.4510     7.6150    -1.5700 H     1 <1>   0.0800 
 32 H        0.9450     8.3900    -1.1720 H     1 <1>   0.0800 
 33 H        2.0770     7.4130     2.1770 H     1 <1>   0.0800 
 34 H        2.4220     5.7530     1.8200 H     1 <1>   0.0800 
 35 H        2.0340     9.5060     0.7430 H     1 <1>   0.0800 
 36 H        2.8260     9.8730    -0.7620 H     1 <1>   0.0800 
 37 H        4.2280     6.4850     0.2740 H     1 <1>   0.0800 
 38 H        4.4840     7.0520     1.9020 H     1 <1>   0.0800 
 39 H        6.3120    10.9230     0.3580 H     1 <1>   0.0800 
 40 H        4.5320    11.5970     1.8560 H     1 <1>   0.0800 
 41 H        3.3920    11.5570     0.5430 H     1 <1>   0.0800 
 42 H        6.2590    10.5870    -1.8370 H     1 <1>   0.0800 
 43 H        4.6320    10.0290    -1.8990 H     1 <1>   0.0800 
 44 H        5.5620    13.5340     1.0620 H     1 <1>   0.0800 
 45 H        3.7350    12.2090    -1.9710 H     1 <1>   0.0800 
 46 H        5.1630    12.3210    -2.9700 H     1 <1>   0.0800 
 47 H        6.4190    13.2410    -1.0480 H     1 <1>   0.0800 
 48 H        2.4910    15.0020     1.7970 H     1 <1>   0.0800 
 49 H        4.2100    15.0070     2.1660 H     1 <1>   0.0800 
 50 H        3.2350    13.5630     2.4790 H     1 <1>   0.0800 
 51 H        4.1450    14.7460    -1.0960 H     1 <1>   0.4000 
@<TRIPOS>BOND
  1   1   2  1   
  2   2   3  ar  
  3   2   4  ar  
  4   3   5  ar  
  5   3  26  1   
  6   4   6  ar  
  7   4  27  1   
  8   5   7  ar  
  9   5  28  1   
 10   6   7  ar  
 11   6  29  1   
 12   7   8  1   
 13   8   9  1   
 14   9  10  1   
 15   9  11  1   
 16   9  30  1   
 17  10  12  1   
 18  10  31  1   
 19  10  32  1   
 20  11  13  1   
 21  11  33  1   
 22  11  34  1   
 23  12  14  1   
 24  12  35  1   
 25  12  36  1   
 26  13  14  1   
 27  13  37  1   
 28  13  38  1   
 29  14  15  am  
 30  15  16  2   
 31  15  17  1   
 32  17  18  1   
 33  17  19  1   
 34  17  39  1   
 35  18  20  1   
 36  18  40  1   
 37  18  41  1   
 38  19  21  1   
 39  19  42  1   
 40  19  43  1   
 41  20  22  1   
 42  20  23  1   
 43  20  44  1   
 44  21  23  1   
 45  21  45  1   
 46  21  46  1   
 47  22  24  1   
 48  23  25  1   
 49  23  47  1   
 50  24  48  1   
 51  24  49  1   
 52  24  50  1   
 53  25  51  1   
@<TRIPOS>SUBSTRUCTURE
  1 ****  12 GROUP 4 **** **** 0

# MOE 2024.06 (io_trps.svl 2023.06)
