@<TRIPOS>MOLECULE
NONAME
46 48 1 0 0 
SMALL
USER_CHARGES


@<TRIPOS>ATOM
  1 CL      -2.5220    -4.1970     1.1390 Cl    1 <1>  -0.1770 
  2 C       -2.3280    -2.7360     0.2000 C.ar  1 <1>   0.1770 
  3 C       -3.4010    -1.8630    -0.0030 C.ar  1 <1>   0.0530 
  4 C       -1.0770    -2.5020    -0.3410 C.ar  1 <1>  -0.1500 
  5 C       -4.7200    -2.0640     0.5470 C.2   1 <1>   0.0870 
  6 C       -3.1560    -0.7410    -0.7960 C.ar  1 <1>  -0.1500 
  7 C       -0.8640    -1.3780    -1.1190 C.ar  1 <1>  -0.1500 
  8 O       -4.9180    -2.5250     1.7630 O.3   1 <1>  -0.0190 
  9 C       -5.9440    -1.8300     0.0300 C.2   1 <1>  -0.1500 
 10 C       -1.9090    -0.4990    -1.3460 C.ar  1 <1>  -0.1500 
 11 N       -6.1800    -2.6090     2.0730 N.2   1 <1>  -0.4100 
 12 C       -6.8240    -2.1930     1.0400 C.2   1 <1>   0.1080 
 13 C       -8.3390    -2.1240     0.9290 C.3   1 <1>   0.3210 
 14 N       -8.8530    -3.3490     0.2820 N.am  1 <1>  -0.7300 
 15 C       -8.7500    -3.6070    -1.0430 C.2   1 <1>   0.5690 
 16 O       -8.4110    -2.7600    -1.8340 O.2   1 <1>  -0.5700 
 17 C       -9.0470    -5.0270    -1.5340 C.3   1 <1>   0.1710 
 18 N       -8.8610    -6.1110    -0.5060 N.3   1 <1>  -0.8100 
 19 C       -7.4730    -6.6360    -0.4950 C.3   1 <1>   0.1900 
 20 C       -9.8550    -7.1730    -0.7570 C.3   1 <1>   0.0300 
 21 C       -7.3010    -7.8000     0.4800 C.3   1 <1>  -0.0550 
 22 C       -6.4630    -5.5730    -0.0280 C.3   1 <1>  -0.1600 
 23 S       -5.5520    -8.0050     0.6800 S.o2  1 <1>   1.0900 
 24 C       -5.1720    -6.2860     0.4000 C.3   1 <1>  -0.0550 
 25 O       -5.2640    -8.3890     2.0420 O.2   1 <1>  -0.6500 
 26 O       -5.0680    -8.7740    -0.4440 O.2   1 <1>  -0.6500 
 27 H       -0.2790    -3.1980    -0.1570 H     1 <1>   0.1500 
 28 H       -3.9530    -0.0430    -0.9810 H     1 <1>   0.1500 
 29 H        0.1060    -1.1880    -1.5450 H     1 <1>   0.1500 
 30 H       -6.2140    -1.4570    -0.9410 H     1 <1>   0.1500 
 31 H       -1.7490     0.3770    -1.9520 H     1 <1>   0.1500 
 32 H       -8.6180    -1.2650     0.3440 H     1 <1>   0.0800 
 33 H       -8.7720    -2.0260     1.9090 H     1 <1>   0.0800 
 34 H       -8.9790    -4.1680     0.8850 H     1 <1>   0.3700 
 35 H       -8.4390    -5.2290    -2.3980 H     1 <1>   0.0800 
 36 H      -10.0700    -5.0110    -1.8650 H     1 <1>   0.0800 
 37 H       -7.2010    -6.9750    -1.4830 H     1 <1>   0.0800 
 38 H      -10.8450    -6.7510    -0.8040 H     1 <1>   0.0800 
 39 H       -9.8550    -7.8930     0.0430 H     1 <1>   0.0800 
 40 H       -9.6460    -7.6760    -1.6870 H     1 <1>   0.0800 
 41 H       -7.7430    -8.7020     0.1070 H     1 <1>   0.0800 
 42 H       -7.7420    -7.5370     1.4230 H     1 <1>   0.0800 
 43 H       -6.8580    -5.0740     0.8390 H     1 <1>   0.0800 
 44 H       -6.2540    -4.8490    -0.7950 H     1 <1>   0.0800 
 45 H       -4.7880    -5.8330     1.2950 H     1 <1>   0.0800 
 46 H       -4.4290    -6.2000    -0.3710 H     1 <1>   0.0800 
@<TRIPOS>BOND
  1   1   2  1   
  2   2   3  ar  
  3   2   4  ar  
  4   3   5  1   
  5   3   6  ar  
  6   4   7  ar  
  7   4  27  1   
  8   5   8  1   
  9   5   9  2   
 10   6  10  ar  
 11   6  28  1   
 12   7  10  ar  
 13   7  29  1   
 14   8  11  1   
 15   9  12  1   
 16   9  30  1   
 17  10  31  1   
 18  11  12  2   
 19  12  13  1   
 20  13  14  1   
 21  13  32  1   
 22  13  33  1   
 23  14  15  am  
 24  14  34  1   
 25  15  16  2   
 26  15  17  1   
 27  17  18  1   
 28  17  35  1   
 29  17  36  1   
 30  18  19  1   
 31  18  20  1   
 32  19  21  1   
 33  19  22  1   
 34  19  37  1   
 35  20  38  1   
 36  20  39  1   
 37  20  40  1   
 38  21  23  1   
 39  21  41  1   
 40  21  42  1   
 41  22  24  1   
 42  22  43  1   
 43  22  44  1   
 44  23  24  1   
 45  23  25  2   
 46  23  26  2   
 47  24  45  1   
 48  24  46  1   
@<TRIPOS>SUBSTRUCTURE
  1 ****  22 GROUP 4 **** **** 0

# MOE 2024.06 (io_trps.svl 2023.06)
