@<TRIPOS>MOLECULE
NONAME
40 43 1 0 0 
SMALL
USER_CHARGES


@<TRIPOS>ATOM
  1 F       -1.1940     1.1080    -0.3950 F     1 <1>  -0.1900 
  2 C       -2.4230     0.6850    -0.5440 C.ar  1 <1>   0.1900 
  3 C       -2.8700    -0.3530     0.2360 C.ar  1 <1>  -0.1500 
  4 C       -3.2200     1.3220    -1.5010 C.ar  1 <1>  -0.1500 
  5 C       -4.1840    -0.7760     0.0490 C.ar  1 <1>   0.2270 
  6 C       -4.5190     0.9000    -1.6830 C.ar  1 <1>  -0.1500 
  7 N       -4.8690    -1.7690     0.6810 N.2   1 <1>  -0.5650 
  8 C       -4.9870    -0.1570    -0.8940 C.ar  1 <1>  -0.1520 
  9 C       -6.0380    -1.7490     0.1410 C.2   1 <1>   0.0060 
 10 N       -6.1800    -0.7990    -0.8200 N.pl3 1 <1>   0.0330 
 11 C       -7.1640    -2.6960     0.5300 C.3   1 <1>   0.1000 
 12 C       -7.5320    -3.6220    -0.6400 C.3   1 <1>  -0.1600 
 13 C       -8.3960    -1.9230     1.0290 C.3   1 <1>  -0.1600 
 14 C       -8.6920    -4.5450    -0.2680 C.3   1 <1>   0.2090 
 15 C       -9.5470    -2.8720     1.3660 C.3   1 <1>   0.2090 
 16 N       -9.8380    -3.7180     0.1790 N.pl3 1 <1>  -0.8380 
 17 C      -11.1120    -4.2520     0.0360 C.ar  1 <1>   0.4100 
 18 N      -11.7830    -4.5110     1.1480 N.ar  1 <1>  -0.6200 
 19 C      -11.6490    -4.5170    -1.2320 C.ar  1 <1>   0.1600 
 20 C      -12.9750    -5.0410     0.9160 C.ar  1 <1>   0.1600 
 21 N      -12.8280    -5.0460    -1.4640 N.ar  1 <1>  -0.6200 
 22 C      -13.5290    -5.3260    -0.3380 C.ar  1 <1>   0.1310 
 23 C      -14.8720    -5.9250    -0.3500 C.2   1 <1>   0.9790 
 24 O      -15.4250    -6.3460    -1.3860 O.co2 1 <1>  -0.9000 
 25 O      -15.5120    -6.0450     0.7180 O.co2 1 <1>  -0.9000 
 26 H       -2.2500    -0.8340     0.9670 H     1 <1>   0.1500 
 27 H       -2.8040     2.1290    -2.0770 H     1 <1>   0.1500 
 28 H       -5.1610     1.3670    -2.4100 H     1 <1>   0.1500 
 29 H       -7.0170    -0.6050    -1.3730 H     1 <1>   0.2700 
 30 H       -6.8080    -3.3100     1.3400 H     1 <1>   0.0800 
 31 H       -6.6760    -4.2160    -0.9070 H     1 <1>   0.0800 
 32 H       -7.8170    -3.0450    -1.5000 H     1 <1>   0.0800 
 33 H       -8.7380    -1.2340     0.2780 H     1 <1>   0.0800 
 34 H       -8.1340    -1.3580     1.9050 H     1 <1>   0.0800 
 35 H       -8.4010    -5.2070     0.5310 H     1 <1>   0.0800 
 36 H       -8.9730    -5.1460    -1.1170 H     1 <1>   0.0800 
 37 H      -10.4230    -2.3040     1.6320 H     1 <1>   0.0800 
 38 H       -9.2870    -3.5030     2.1990 H     1 <1>   0.0800 
 39 H      -11.0480    -4.2630    -2.0810 H     1 <1>   0.1500 
 40 H      -13.5670    -5.2740     1.7850 H     1 <1>   0.1500 
@<TRIPOS>BOND
  1   1   2  1   
  2   2   3  ar  
  3   2   4  ar  
  4   3   5  ar  
  5   3  26  1   
  6   4   6  ar  
  7   4  27  1   
  8   5   7  1   
  9   5   8  ar  
 10   6   8  ar  
 11   6  28  1   
 12   7   9  2   
 13   8  10  1   
 14   9  10  1   
 15   9  11  1   
 16  10  29  1   
 17  11  12  1   
 18  11  13  1   
 19  11  30  1   
 20  12  14  1   
 21  12  31  1   
 22  12  32  1   
 23  13  15  1   
 24  13  33  1   
 25  13  34  1   
 26  14  16  1   
 27  14  35  1   
 28  14  36  1   
 29  15  16  1   
 30  15  37  1   
 31  15  38  1   
 32  16  17  1   
 33  17  18  ar  
 34  17  19  ar  
 35  18  20  ar  
 36  19  21  ar  
 37  19  39  1   
 38  20  22  ar  
 39  20  40  1   
 40  21  22  ar  
 41  22  23  1   
 42  23  24  ar  
 43  23  25  ar  
@<TRIPOS>SUBSTRUCTURE
  1 ****  12 GROUP 4 **** **** 0

# MOE 2024.06 (io_trps.svl 2023.06)
