@<TRIPOS>MOLECULE
NONAME
43 44 1 0 0 
SMALL
USER_CHARGES


@<TRIPOS>ATOM
  1 CL      -0.0380    -1.1810     1.3600 Cl    1 <1>  -0.1400 
  2 C       -1.4670    -1.5090     0.4030 C.2   1 <1>   0.1540 
  3 C       -2.3430    -0.4230     0.0850 C.2   1 <1>   0.6160 
  4 C       -1.7220    -2.7760    -0.0180 C.2   1 <1>  -0.1500 
  5 O       -2.1940     0.7370     0.4370 O.2   1 <1>  -0.5700 
  6 N       -3.4430    -0.7230    -0.6760 N.am  1 <1>  -0.5390 
  7 C       -2.8890    -3.0560    -0.7930 C.2   1 <1>   0.0140 
  8 C       -3.7090    -1.9980    -1.1100 C.2   1 <1>  -0.0410 
  9 C       -3.1480    -4.4100    -1.2190 C.2   1 <1>   0.6160 
 10 O       -2.2870    -4.9960    -1.8480 O.2   1 <1>  -0.5700 
 11 N       -4.3290    -5.0680    -0.9230 N.am  1 <1>  -0.6600 
 12 C       -4.6440    -6.4070    -1.5140 C.3   1 <1>   0.1400 
 13 C       -5.3570    -4.5590     0.0230 C.3   1 <1>   0.1400 
 14 C       -4.8810    -7.5110    -0.4520 C.3   1 <1>   0.0000 
 15 C       -5.5400    -5.5550     1.1650 C.3   1 <1>  -0.1600 
 16 C       -5.8500    -6.9580     0.6320 C.3   1 <1>   0.2000 
 17 C       -5.6370    -8.6750    -1.1470 C.3   1 <1>   0.1200 
 18 C       -3.5310    -8.0900     0.0900 C.3   1 <1>  -0.1600 
 19 O       -5.9150    -7.8200     1.7080 O.3   1 <1>  -0.6800 
 20 O       -4.8950    -9.2490    -2.1750 O.3   1 <1>  -0.6800 
 21 C       -2.6920    -7.2510     1.0690 C.3   1 <1>  -0.1600 
 22 C       -1.3350    -7.9120     1.3260 C.3   1 <1>  -0.2400 
 23 H       -1.0570    -3.5910     0.2150 H     1 <1>   0.1500 
 24 H       -4.0290     0.0850    -0.9010 H     1 <1>   0.3700 
 25 H       -4.5890    -2.1460    -1.7160 H     1 <1>   0.1500 
 26 H       -5.5330    -6.2930    -2.1090 H     1 <1>   0.0800 
 27 H       -3.8590    -6.7190    -2.1810 H     1 <1>   0.0800 
 28 H       -5.0730    -3.6080     0.4380 H     1 <1>   0.0800 
 29 H       -6.2870    -4.4310    -0.5040 H     1 <1>   0.0800 
 30 H       -6.3610    -5.2270     1.7770 H     1 <1>   0.0800 
 31 H       -4.6590    -5.5440     1.7730 H     1 <1>   0.0800 
 32 H       -6.8430    -6.9200     0.2150 H     1 <1>   0.0800 
 33 H       -6.5700    -8.3370    -1.5650 H     1 <1>   0.0800 
 34 H       -5.8530    -9.4550    -0.4350 H     1 <1>   0.0800 
 35 H       -3.7310    -9.0350     0.5670 H     1 <1>   0.0800 
 36 H       -2.9060    -8.3150    -0.7580 H     1 <1>   0.0800 
 37 H       -5.0110    -8.0140     2.0240 H     1 <1>   0.4000 
 38 H       -4.6830    -8.6020    -2.8750 H     1 <1>   0.4000 
 39 H       -2.5190    -6.2700     0.6690 H     1 <1>   0.0800 
 40 H       -3.1990    -7.1560     2.0110 H     1 <1>   0.0800 
 41 H       -0.7760    -7.9870     0.4090 H     1 <1>   0.0800 
 42 H       -1.4660    -8.8990     1.7340 H     1 <1>   0.0800 
 43 H       -0.7650    -7.3240     2.0240 H     1 <1>   0.0800 
@<TRIPOS>BOND
  1   1   2  1   
  2   2   3  1   
  3   2   4  2   
  4   3   5  2   
  5   3   6  am  
  6   4   7  1   
  7   4  23  1   
  8   6   8  1   
  9   6  24  1   
 10   7   8  2   
 11   7   9  1   
 12   8  25  1   
 13   9  10  2   
 14   9  11  am  
 15  11  12  1   
 16  11  13  1   
 17  12  14  1   
 18  12  26  1   
 19  12  27  1   
 20  13  15  1   
 21  13  28  1   
 22  13  29  1   
 23  14  16  1   
 24  14  17  1   
 25  14  18  1   
 26  15  16  1   
 27  15  30  1   
 28  15  31  1   
 29  16  19  1   
 30  16  32  1   
 31  17  20  1   
 32  17  33  1   
 33  17  34  1   
 34  18  21  1   
 35  18  35  1   
 36  18  36  1   
 37  19  37  1   
 38  20  38  1   
 39  21  22  1   
 40  21  39  1   
 41  21  40  1   
 42  22  41  1   
 43  22  42  1   
 44  22  43  1   
@<TRIPOS>SUBSTRUCTURE
  1 ****  11 GROUP 4 **** **** 0

# MOE 2024.06 (io_trps.svl 2023.06)
