@<TRIPOS>MOLECULE
NONAME
58 61 1 0 0 
SMALL
USER_CHARGES


@<TRIPOS>ATOM
  1 N       -0.3360     0.5010     1.0270 N.ar  1 <1>  -0.6200 
  2 C       -1.0110     1.1790     0.1380 C.ar  1 <1>   0.7200 
  3 C        0.2850     1.2340     1.8960 C.ar  1 <1>   0.7200 
  4 N       -1.0840     2.4940     0.0800 N.ar  1 <1>  -0.6200 
  5 N       -1.7160     0.5290    -0.8290 N.pl3 1 <1>  -0.6000 
  6 N        0.2960     2.5410     1.9500 N.ar  1 <1>  -0.6200 
  7 N        1.0000     0.5940     2.8170 N.pl3 1 <1>  -0.9000 
  8 C       -0.4140     3.1070     1.0160 C.ar  1 <1>   0.4770 
  9 C       -1.7350    -0.8110    -1.2350 C.ar  1 <1>   0.1000 
 10 C       -0.3830     4.6350     0.9730 C.3   1 <1>   0.4860 
 11 C       -2.9110    -1.3370    -1.7580 C.ar  1 <1>  -0.1500 
 12 C       -0.6150    -1.6340    -1.1650 C.ar  1 <1>  -0.1500 
 13 N        0.9670     5.1400     0.5400 N.4   1 <1>  -0.8520 
 14 C       -2.9790    -2.6490    -2.1950 C.ar  1 <1>  -0.1430 
 15 C       -0.6740    -2.9460    -1.5980 C.ar  1 <1>  -0.1500 
 16 C        1.2090     6.5950     0.6770 C.3   1 <1>   0.2960 
 17 C        1.3070     4.6810    -0.8310 C.3   1 <1>   0.5240 
 18 C       -1.8540    -3.4530    -2.1120 C.ar  1 <1>  -0.1500 
 19 C       -4.2700    -3.2130    -2.7620 C.3   1 <1>  -0.0970 
 20 C        0.5780     7.3880     1.7720 C.3   1 <1>  -0.2000 
 21 C        0.1280     7.5690     0.3490 C.3   1 <1>  -0.2000 
 22 C        2.8110     4.7070    -0.9450 C.2   1 <1>  -0.1810 
 23 C        3.6700     3.7210    -0.4710 C.2   1 <1>   0.1080 
 24 C        3.6210     5.6440    -1.4920 C.2   1 <1>  -0.3320 
 25 N        4.9070     4.0260    -0.6770 N.2   1 <1>  -0.7070 
 26 C        3.2920     2.4200     0.2080 C.3   1 <1>  -0.0590 
 27 N        4.8880     5.2040    -1.3150 N.pl3 1 <1>   0.3140 
 28 C        3.2790     6.9510    -2.1950 C.3   1 <1>  -0.0600 
 29 C        6.1370     5.8510    -1.7420 C.3   1 <1>   0.0160 
 30 H       -2.3830     1.1340    -1.2990 H     1 <1>   0.4000 
 31 H        1.2540     1.0780     3.6740 H     1 <1>   0.4000 
 32 H        0.8570    -0.4130     2.8940 H     1 <1>   0.4000 
 33 H       -0.6100     4.9960     1.9600 H     1 <1>   0.0800 
 34 H       -1.1450     4.9830     0.2970 H     1 <1>   0.0800 
 35 H       -3.7830    -0.7130    -1.8200 H     1 <1>   0.1500 
 36 H        0.3090    -1.2520    -0.7750 H     1 <1>   0.1500 
 37 H        1.6580     4.6700     1.1430 H     1 <1>   0.4500 
 38 H        0.1980    -3.5730    -1.5360 H     1 <1>   0.1500 
 39 H        2.2230     6.8640     0.4110 H     1 <1>   0.1000 
 40 H        0.8650     5.3310    -1.5670 H     1 <1>   0.0800 
 41 H        0.9610     3.6750    -1.0030 H     1 <1>   0.0800 
 42 H       -1.8920    -4.4740    -2.4480 H     1 <1>   0.1500 
 43 H       -5.1050    -2.5840    -2.5120 H     1 <1>   0.0800 
 44 H       -4.4520    -4.1940    -2.3600 H     1 <1>   0.0800 
 45 H       -4.1970    -3.2840    -3.8320 H     1 <1>   0.0800 
 46 H        1.1460     8.1860     2.2190 H     1 <1>   0.1000 
 47 H       -0.1050     6.9440     2.4740 H     1 <1>   0.1000 
 48 H       -0.8620     7.2430     0.0850 H     1 <1>   0.1000 
 49 H        0.3920     8.4920    -0.1390 H     1 <1>   0.1000 
 50 H        2.3920     2.0120    -0.2120 H     1 <1>   0.0800 
 51 H        3.1650     2.5750     1.2630 H     1 <1>   0.0800 
 52 H        4.0810     1.7030     0.0670 H     1 <1>   0.0800 
 53 H        2.2160     7.0960    -2.2500 H     1 <1>   0.0800 
 54 H        3.6690     6.9400    -3.1980 H     1 <1>   0.0800 
 55 H        3.7130     7.7820    -1.6670 H     1 <1>   0.0800 
 56 H        6.2080     6.8210    -1.2880 H     1 <1>   0.0800 
 57 H        6.1410     5.9420    -2.8110 H     1 <1>   0.0800 
 58 H        6.9700     5.2470    -1.4310 H     1 <1>   0.0800 
@<TRIPOS>BOND
  1   1   2  ar  
  2   1   3  ar  
  3   2   4  ar  
  4   2   5  1   
  5   3   6  ar  
  6   3   7  1   
  7   4   8  ar  
  8   5   9  1   
  9   5  30  1   
 10   6   8  ar  
 11   7  31  1   
 12   7  32  1   
 13   8  10  1   
 14   9  11  ar  
 15   9  12  ar  
 16  10  13  1   
 17  10  33  1   
 18  10  34  1   
 19  11  14  ar  
 20  11  35  1   
 21  12  15  ar  
 22  12  36  1   
 23  13  16  1   
 24  13  17  1   
 25  13  37  1   
 26  14  18  ar  
 27  14  19  1   
 28  15  18  ar  
 29  15  38  1   
 30  16  20  1   
 31  16  21  1   
 32  16  39  1   
 33  17  22  1   
 34  17  40  1   
 35  17  41  1   
 36  18  42  1   
 37  19  43  1   
 38  19  44  1   
 39  19  45  1   
 40  20  21  1   
 41  20  46  1   
 42  20  47  1   
 43  21  48  1   
 44  21  49  1   
 45  22  23  1   
 46  22  24  2   
 47  23  25  2   
 48  23  26  1   
 49  24  27  1   
 50  24  28  1   
 51  25  27  1   
 52  26  50  1   
 53  26  51  1   
 54  26  52  1   
 55  27  29  1   
 56  28  53  1   
 57  28  54  1   
 58  28  55  1   
 59  29  56  1   
 60  29  57  1   
 61  29  58  1   
@<TRIPOS>SUBSTRUCTURE
  1 ****   4 GROUP 4 **** **** 0

# MOE 2024.06 (io_trps.svl 2023.06)
