@<TRIPOS>MOLECULE
NONAME
43 45 1 0 0 
SMALL
USER_CHARGES


@<TRIPOS>ATOM
  1 O       -2.1010    -0.0730    -2.7120 O.2   1 <1>  -0.5700 
  2 C       -2.2080    -0.5900    -1.6350 C.2   1 <1>   0.5690 
  3 N       -2.0850     0.1420    -0.5150 N.am  1 <1>  -0.7300 
  4 C       -2.5210    -2.0590    -1.5410 C.3   1 <1>  -0.0190 
  5 C       -2.1970    -0.3710     0.8700 C.3   1 <1>   0.2200 
  6 C       -1.4020    -2.8360    -0.8120 C.3   1 <1>   0.1200 
  7 C       -3.9450    -2.2190    -0.9900 C.3   1 <1>   0.3430 
  8 C       -1.1200    -1.4550     1.1310 C.3   1 <1>   0.1200 
  9 C       -3.6490    -0.8510     1.1570 C.3   1 <1>   0.3430 
 10 O       -1.4550    -2.7070     0.5860 O.3   1 <1>  -0.5600 
 11 N       -4.0300    -2.1570     0.5100 N.4   1 <1>  -0.9590 
 12 C       -5.3040    -2.7150     1.0330 C.3   1 <1>   0.4860 
 13 C       -5.4160    -4.1550     0.5770 C.ar  1 <1>  -0.1440 
 14 C       -4.5110    -5.1060     1.0260 C.ar  1 <1>  -0.1500 
 15 C       -6.4110    -4.5300    -0.3100 C.ar  1 <1>  -0.1500 
 16 C       -4.5850    -6.4180     0.5880 C.ar  1 <1>  -0.1440 
 17 C       -6.4900    -5.8380    -0.7480 C.ar  1 <1>  -0.1500 
 18 C       -5.5820    -6.7870    -0.3080 C.ar  1 <1>  -0.1440 
 19 C       -3.5700    -7.4310     1.1030 C.3   1 <1>  -0.0970 
 20 C       -5.7060    -8.2180    -0.8150 C.3   1 <1>  -0.0970 
 21 H       -1.8190     1.1240    -0.6480 H     1 <1>   0.3700 
 22 H       -2.5380    -2.4190    -2.5540 H     1 <1>   0.0800 
 23 H       -1.9890     0.4570     1.5260 H     1 <1>   0.0800 
 24 H       -0.4290    -2.5200    -1.1530 H     1 <1>   0.0800 
 25 H       -1.5010    -3.8870    -1.0280 H     1 <1>   0.0800 
 26 H       -4.3050    -3.1820    -1.3180 H     1 <1>   0.0800 
 27 H       -4.5840    -1.4690    -1.4280 H     1 <1>   0.0800 
 28 H       -1.0180    -1.6020     2.1920 H     1 <1>   0.0800 
 29 H       -0.1620    -1.1480     0.7470 H     1 <1>   0.0800 
 30 H       -4.3340    -0.0780     0.8500 H     1 <1>   0.0800 
 31 H       -3.7450    -0.9630     2.2250 H     1 <1>   0.0800 
 32 H       -3.2830    -2.8190     0.8030 H     1 <1>   0.4500 
 33 H       -5.3110    -2.6850     2.1100 H     1 <1>   0.0800 
 34 H       -6.1420    -2.1440     0.6660 H     1 <1>   0.0800 
 35 H       -3.7380    -4.8340     1.7240 H     1 <1>   0.1500 
 36 H       -7.1350    -3.8180    -0.6700 H     1 <1>   0.1500 
 37 H       -7.2690    -6.1170    -1.4370 H     1 <1>   0.1500 
 38 H       -2.8690    -6.9740     1.7780 H     1 <1>   0.0800 
 39 H       -3.0200    -7.8540     0.2820 H     1 <1>   0.0800 
 40 H       -4.0750    -8.2220     1.6290 H     1 <1>   0.0800 
 41 H       -6.5350    -8.3190    -1.4920 H     1 <1>   0.0800 
 42 H       -5.8640    -8.8890     0.0090 H     1 <1>   0.0800 
 43 H       -4.8110    -8.5060    -1.3360 H     1 <1>   0.0800 
@<TRIPOS>BOND
  1   1   2  2   
  2   2   3  am  
  3   2   4  1   
  4   3   5  1   
  5   3  21  1   
  6   4   6  1   
  7   4   7  1   
  8   4  22  1   
  9   5   8  1   
 10   5   9  1   
 11   5  23  1   
 12   6  10  1   
 13   6  24  1   
 14   6  25  1   
 15   7  11  1   
 16   7  26  1   
 17   7  27  1   
 18   8  10  1   
 19   8  28  1   
 20   8  29  1   
 21   9  11  1   
 22   9  30  1   
 23   9  31  1   
 24  11  12  1   
 25  11  32  1   
 26  12  13  1   
 27  12  33  1   
 28  12  34  1   
 29  13  14  ar  
 30  13  15  ar  
 31  14  16  ar  
 32  14  35  1   
 33  15  17  ar  
 34  15  36  1   
 35  16  18  ar  
 36  16  19  1   
 37  17  18  ar  
 38  17  37  1   
 39  18  20  1   
 40  19  38  1   
 41  19  39  1   
 42  19  40  1   
 43  20  41  1   
 44  20  42  1   
 45  20  43  1   
@<TRIPOS>SUBSTRUCTURE
  1 ****  11 GROUP 4 **** **** 0

# MOE 2024.06 (io_trps.svl 2023.06)
