@<TRIPOS>MOLECULE
NONAME
53 54 1 0 0 
SMALL
USER_CHARGES


@<TRIPOS>ATOM
  1 N        0.1850     0.3100     0.5700 N.pl3 1 <1>   0.0480 
  2 C        0.1910    -0.7210    -0.3160 C.2   1 <1>  -0.3020 
  3 C        0.3660    -0.2230     1.8070 C.2   1 <1>  -0.3020 
  4 C        0.0670     1.7400     0.2440 C.3   1 <1>   0.0960 
  5 C        0.3720    -1.8910     0.3500 C.2   1 <1>  -0.1500 
  6 C        0.4840    -1.5730     1.7060 C.2   1 <1>  -0.1500 
  7 C        1.4660     2.3180    -0.0120 C.3   1 <1>  -0.1600 
  8 C        1.3940     3.8010    -0.3750 C.3   1 <1>   0.3430 
  9 N        2.7700     4.3760    -0.5150 N.4   1 <1>  -0.9590 
 10 C        2.7100     5.8750    -0.4710 C.3   1 <1>   0.3430 
 11 C        3.4260     3.8660    -1.7680 C.3   1 <1>   0.2630 
 12 C        3.9790     6.4980     0.1470 C.3   1 <1>  -0.0800 
 13 C        3.8280     8.0110     0.3710 C.3   1 <1>   0.3430 
 14 C        5.2640     6.3590    -0.6790 C.3   1 <1>  -0.1600 
 15 N        5.0980     8.6400    -0.0960 N.4   1 <1>  -0.9590 
 16 C        6.1020     7.5660    -0.2840 C.3   1 <1>   0.3430 
 17 C        5.6000     9.7280     0.7990 C.3   1 <1>   0.3430 
 18 C        4.6660    10.9510     0.7830 C.3   1 <1>  -0.0800 
 19 C        4.4450    11.5100    -0.6340 C.3   1 <1>  -0.2400 
 20 C        5.2540    12.0530     1.6740 C.3   1 <1>  -0.2400 
 21 H        0.0650    -0.5790    -1.3750 H     1 <1>   0.1500 
 22 H        0.4010     0.3740     2.7000 H     1 <1>   0.1500 
 23 H       -0.4120     2.2380     1.0690 H     1 <1>   0.0800 
 24 H       -0.5550     1.8380    -0.6280 H     1 <1>   0.0800 
 25 H        0.4220    -2.8860    -0.0590 H     1 <1>   0.1500 
 26 H        0.6330    -2.2870     2.4980 H     1 <1>   0.1500 
 27 H        1.9150     1.7590    -0.8130 H     1 <1>   0.0800 
 28 H        2.0540     2.1900     0.8810 H     1 <1>   0.0800 
 29 H        0.8640     4.3190     0.4100 H     1 <1>   0.0800 
 30 H        0.8410     3.9290    -1.2930 H     1 <1>   0.0800 
 31 H        3.3120     4.0370     0.2950 H     1 <1>   0.4500 
 32 H        1.8670     6.1700     0.1330 H     1 <1>   0.0800 
 33 H        2.5490     6.2630    -1.4650 H     1 <1>   0.0800 
 34 H        2.8630     4.1650    -2.6370 H     1 <1>   0.0800 
 35 H        3.4820     2.7890    -1.7540 H     1 <1>   0.0800 
 36 H        4.4290     4.2480    -1.8590 H     1 <1>   0.0800 
 37 H        4.1340     6.0620     1.1190 H     1 <1>   0.0800 
 38 H        3.6700     8.2130     1.4190 H     1 <1>   0.0800 
 39 H        2.9970     8.4110    -0.1890 H     1 <1>   0.0800 
 40 H        5.0590     6.4190    -1.7340 H     1 <1>   0.0800 
 41 H        5.7920     5.4440    -0.4730 H     1 <1>   0.0800 
 42 H        4.9330     9.0810    -1.0140 H     1 <1>   0.4500 
 43 H        6.8290     7.8220    -1.0390 H     1 <1>   0.0800 
 44 H        6.6080     7.3680     0.6480 H     1 <1>   0.0800 
 45 H        6.5770    10.0430     0.4670 H     1 <1>   0.0800 
 46 H        5.6960     9.3620     1.8090 H     1 <1>   0.0800 
 47 H        3.7130    10.6780     1.2030 H     1 <1>   0.0800 
 48 H        5.3840    11.7620    -1.0980 H     1 <1>   0.0800 
 49 H        3.8500    12.4080    -0.5860 H     1 <1>   0.0800 
 50 H        3.9200    10.8130    -1.2610 H     1 <1>   0.0800 
 51 H        6.2050    12.3890     1.2970 H     1 <1>   0.0800 
 52 H        5.3900    11.6980     2.6810 H     1 <1>   0.0800 
 53 H        4.5890    12.9000     1.7100 H     1 <1>   0.0800 
@<TRIPOS>BOND
  1   1   2  1   
  2   1   3  1   
  3   1   4  1   
  4   2   5  2   
  5   2  21  1   
  6   3   6  2   
  7   3  22  1   
  8   4   7  1   
  9   4  23  1   
 10   4  24  1   
 11   5   6  1   
 12   5  25  1   
 13   6  26  1   
 14   7   8  1   
 15   7  27  1   
 16   7  28  1   
 17   8   9  1   
 18   8  29  1   
 19   8  30  1   
 20   9  10  1   
 21   9  11  1   
 22   9  31  1   
 23  10  12  1   
 24  10  32  1   
 25  10  33  1   
 26  11  34  1   
 27  11  35  1   
 28  11  36  1   
 29  12  13  1   
 30  12  14  1   
 31  12  37  1   
 32  13  15  1   
 33  13  38  1   
 34  13  39  1   
 35  14  16  1   
 36  14  40  1   
 37  14  41  1   
 38  15  16  1   
 39  15  17  1   
 40  15  42  1   
 41  16  43  1   
 42  16  44  1   
 43  17  18  1   
 44  17  45  1   
 45  17  46  1   
 46  18  19  1   
 47  18  20  1   
 48  18  47  1   
 49  19  48  1   
 50  19  49  1   
 51  19  50  1   
 52  20  51  1   
 53  20  52  1   
 54  20  53  1   
@<TRIPOS>SUBSTRUCTURE
  1 ****   9 GROUP 4 **** **** 0

# MOE 2024.06 (io_trps.svl 2023.06)
