@<TRIPOS>MOLECULE
NONAME
57 59 1 0 0 
SMALL
USER_CHARGES


@<TRIPOS>ATOM
  1 O       -0.2060    -0.8970    -1.2470 O.2   1 <1>  -0.5700 
  2 C        0.7670    -1.4320    -1.7180 C.2   1 <1>   0.5690 
  3 N        0.7580    -1.6880    -3.0510 N.am  1 <1>  -0.8000 
  4 C        1.9390    -1.8540    -0.7530 C.3   1 <1>   0.5640 
  5 N        1.6270    -3.1600    -0.0320 N.4   1 <1>  -0.9590 
  6 C        2.1590    -0.7650     0.3270 C.3   1 <1>  -0.1600 
  7 C        3.2730    -2.0430    -1.5160 C.3   1 <1>  -0.1600 
  8 C        1.4350    -4.3300    -0.9410 C.3   1 <1>   0.3430 
  9 C        0.4340    -3.0410     0.8870 C.3   1 <1>   0.3430 
 10 C        2.6590     0.5450    -0.2730 C.3   1 <1>   0.2090 
 11 C        3.8070    -0.7330    -2.0950 C.3   1 <1>   0.2090 
 12 C        1.5300    -5.6290    -0.1290 C.3   1 <1>  -0.1600 
 13 C       -0.0600    -4.4050     1.3940 C.3   1 <1>  -0.1600 
 14 N        3.9140     0.2610    -1.0050 N.pl3 1 <1>  -0.8380 
 15 C        1.0140    -5.4960     1.3140 C.3   1 <1>  -0.1600 
 16 C        5.1200     0.7280    -0.5870 C.ar  1 <1>   0.4100 
 17 N        6.0160    -0.1990    -0.3030 N.ar  1 <1>  -0.6200 
 18 C        5.3920     2.1190    -0.4510 C.ar  1 <1>  -0.1440 
 19 C        7.1700     0.2070     0.1760 C.ar  1 <1>   0.7710 
 20 C        6.5930     2.4870     0.0850 C.ar  1 <1>   0.2180 
 21 C        4.3600     3.1500    -0.9300 C.3   1 <1>  -0.0970 
 22 N        7.4640     1.4960     0.3900 N.ar  1 <1>  -0.1790 
 23 N        8.0680    -0.7350     0.4540 N.pl3 1 <1>  -0.9000 
 24 C        7.0650     3.9170     0.3690 C.3   1 <1>  -0.0160 
 25 C        7.4630     4.1220     1.8380 C.3   1 <1>  -0.2400 
 26 H       -0.0530    -1.3750    -3.5970 H     1 <1>   0.3700 
 27 H        1.5090    -2.0970    -3.6080 H     1 <1>   0.3700 
 28 H        2.4340    -3.3790     0.5610 H     1 <1>   0.4500 
 29 H        2.8830    -1.0970     1.0490 H     1 <1>   0.0800 
 30 H        1.2440    -0.5410     0.8450 H     1 <1>   0.0800 
 31 H        3.1680    -2.7350    -2.3300 H     1 <1>   0.0800 
 32 H        4.0230    -2.4280    -0.8490 H     1 <1>   0.0800 
 33 H        2.1780    -4.3540    -1.7200 H     1 <1>   0.0800 
 34 H        0.4620    -4.2650    -1.4030 H     1 <1>   0.0800 
 35 H       -0.3810    -2.5470     0.3820 H     1 <1>   0.0800 
 36 H        0.7030    -2.4370     1.7380 H     1 <1>   0.0800 
 37 H        2.8420     1.2520     0.5190 H     1 <1>   0.0800 
 38 H        1.9300     0.9700    -0.9440 H     1 <1>   0.0800 
 39 H        3.1550    -0.3470    -2.8600 H     1 <1>   0.0800 
 40 H        4.7750    -0.8960    -2.5410 H     1 <1>   0.0800 
 41 H        2.5500    -5.9720    -0.1130 H     1 <1>   0.0800 
 42 H        0.9570    -6.3810    -0.6440 H     1 <1>   0.0800 
 43 H       -0.9120    -4.7020     0.8070 H     1 <1>   0.0800 
 44 H       -0.4050    -4.2990     2.4080 H     1 <1>   0.0800 
 45 H        1.8290    -5.2390     1.9700 H     1 <1>   0.0800 
 46 H        0.6150    -6.4390     1.6510 H     1 <1>   0.0800 
 47 H        3.7440     2.7450    -1.7130 H     1 <1>   0.0800 
 48 H        4.8320     4.0210    -1.3460 H     1 <1>   0.0800 
 49 H        3.7260     3.4530    -0.1160 H     1 <1>   0.0800 
 50 H        8.3730     1.7040     0.7870 H     1 <1>   0.4570 
 51 H        9.0160    -0.6270     0.8190 H     1 <1>   0.4000 
 52 H        7.8100    -1.7090     0.2690 H     1 <1>   0.4000 
 53 H        6.2930     4.6290     0.1440 H     1 <1>   0.0800 
 54 H        7.9020     4.1510    -0.2670 H     1 <1>   0.0800 
 55 H        6.6430     3.8720     2.4900 H     1 <1>   0.0800 
 56 H        7.7120     5.1570     2.0030 H     1 <1>   0.0800 
 57 H        8.3200     3.5320     2.1090 H     1 <1>   0.0800 
@<TRIPOS>BOND
  1   1   2  2   
  2   2   3  am  
  3   2   4  1   
  4   3  26  1   
  5   3  27  1   
  6   4   5  1   
  7   4   6  1   
  8   4   7  1   
  9   5   8  1   
 10   5   9  1   
 11   5  28  1   
 12   6  10  1   
 13   6  29  1   
 14   6  30  1   
 15   7  11  1   
 16   7  31  1   
 17   7  32  1   
 18   8  12  1   
 19   8  33  1   
 20   8  34  1   
 21   9  13  1   
 22   9  35  1   
 23   9  36  1   
 24  10  14  1   
 25  10  37  1   
 26  10  38  1   
 27  11  14  1   
 28  11  39  1   
 29  11  40  1   
 30  12  15  1   
 31  12  41  1   
 32  12  42  1   
 33  13  15  1   
 34  13  43  1   
 35  13  44  1   
 36  14  16  1   
 37  15  45  1   
 38  15  46  1   
 39  16  17  ar  
 40  16  18  ar  
 41  17  19  ar  
 42  18  20  ar  
 43  18  21  1   
 44  19  22  ar  
 45  19  23  1   
 46  20  22  ar  
 47  20  24  1   
 48  21  47  1   
 49  21  48  1   
 50  21  49  1   
 51  22  50  1   
 52  23  51  1   
 53  23  52  1   
 54  24  25  1   
 55  24  53  1   
 56  24  54  1   
 57  25  55  1   
 58  25  56  1   
 59  25  57  1   
@<TRIPOS>SUBSTRUCTURE
  1 ****  14 GROUP 4 **** **** 0

# MOE 2024.06 (io_trps.svl 2023.06)
