@<TRIPOS>MOLECULE
NONAME
45 47 1 0 0 
SMALL
USER_CHARGES


@<TRIPOS>ATOM
  1 S        0.9490    -0.1210     0.4000 S.3   1 <1>  -0.4600 
  2 C        1.3700     1.3050    -0.6360 C.3   1 <1>   0.0700 
  3 C        0.2820    -1.3190    -0.7860 C.3   1 <1>  -0.0100 
  4 C        1.9230     2.4180     0.2680 C.3   1 <1>  -0.0800 
  5 C        2.0890     3.7240    -0.5250 C.3   1 <1>  -0.1600 
  6 C        3.2710     2.0260     0.9020 C.3   1 <1>  -0.1600 
  7 C        2.6880     4.8360     0.3360 C.3   1 <1>   0.3430 
  8 C        3.8510     3.1590     1.7440 C.3   1 <1>   0.3430 
  9 N        3.9860     4.3790     0.9060 N.4   1 <1>  -0.9590 
 10 C        4.7480     5.4460     1.6030 C.3   1 <1>   0.4860 
 11 C        4.9670     6.6280     0.6650 C.ar  1 <1>  -0.1440 
 12 C        5.9030     6.5990    -0.3840 C.ar  1 <1>  -0.0230 
 13 C        4.2030     7.7680     0.8740 C.ar  1 <1>  -0.1500 
 14 N        6.7340     5.4670    -0.6460 N.pl3 1 <1>   0.5930 
 15 C        6.0330     7.7190    -1.2080 C.ar  1 <1>  -0.1500 
 16 C        4.3650     8.8540     0.0380 C.ar  1 <1>   0.1900 
 17 N        6.2610     4.1940    -0.7490 N.2   1 <1>  -0.7070 
 18 C        8.0730     5.4740    -0.8450 C.2   1 <1>  -0.3020 
 19 C        5.2670     8.8520    -1.0040 C.ar  1 <1>  -0.1500 
 20 F        3.6340     9.9160     0.2420 F     1 <1>  -0.1900 
 21 C        7.2980     3.4600    -1.0230 C.2   1 <1>   0.1390 
 22 C        8.4650     4.2080    -1.0920 C.2   1 <1>  -0.1500 
 23 H        0.4620     1.6100    -1.1270 H     1 <1>   0.0800 
 24 H        2.0910     0.9770    -1.3650 H     1 <1>   0.0800 
 25 H        0.0040    -2.2010    -0.2370 H     1 <1>   0.0800 
 26 H        1.0510    -1.5430    -1.5040 H     1 <1>   0.0800 
 27 H       -0.5760    -0.8780    -1.2610 H     1 <1>   0.0800 
 28 H        1.2050     2.5880     1.0540 H     1 <1>   0.0800 
 29 H        1.1300     4.0480    -0.8900 H     1 <1>   0.0800 
 30 H        2.7230     3.5630    -1.3810 H     1 <1>   0.0800 
 31 H        3.9780     1.7540     0.1370 H     1 <1>   0.0800 
 32 H        3.1420     1.1680     1.5390 H     1 <1>   0.0800 
 33 H        2.0050     5.0860     1.1320 H     1 <1>   0.0800 
 34 H        2.8370     5.7130    -0.2740 H     1 <1>   0.0800 
 35 H        4.8160     2.8620     2.1230 H     1 <1>   0.0800 
 36 H        3.1990     3.3570     2.5800 H     1 <1>   0.0800 
 37 H        4.5930     4.1160     0.1020 H     1 <1>   0.4500 
 38 H        5.7040     5.0610     1.9180 H     1 <1>   0.0800 
 39 H        4.2080     5.7700     2.4780 H     1 <1>   0.0800 
 40 H        3.4830     7.8370     1.6710 H     1 <1>   0.1500 
 41 H        6.7400     7.7110    -2.0220 H     1 <1>   0.1500 
 42 H        8.6590     6.3740    -0.8020 H     1 <1>   0.1500 
 43 H        5.3640     9.7180    -1.6360 H     1 <1>   0.1500 
 44 H        7.2590     2.3930    -1.1800 H     1 <1>   0.1500 
 45 H        9.4520     3.8300    -1.3000 H     1 <1>   0.1500 
@<TRIPOS>BOND
  1   1   2  1   
  2   1   3  1   
  3   2   4  1   
  4   2  23  1   
  5   2  24  1   
  6   3  25  1   
  7   3  26  1   
  8   3  27  1   
  9   4   5  1   
 10   4   6  1   
 11   4  28  1   
 12   5   7  1   
 13   5  29  1   
 14   5  30  1   
 15   6   8  1   
 16   6  31  1   
 17   6  32  1   
 18   7   9  1   
 19   7  33  1   
 20   7  34  1   
 21   8   9  1   
 22   8  35  1   
 23   8  36  1   
 24   9  10  1   
 25   9  37  1   
 26  10  11  1   
 27  10  38  1   
 28  10  39  1   
 29  11  12  ar  
 30  11  13  ar  
 31  12  14  1   
 32  12  15  ar  
 33  13  16  ar  
 34  13  40  1   
 35  14  17  1   
 36  14  18  1   
 37  15  19  ar  
 38  15  41  1   
 39  16  19  ar  
 40  16  20  1   
 41  17  21  2   
 42  18  22  2   
 43  18  42  1   
 44  19  43  1   
 45  21  22  1   
 46  21  44  1   
 47  22  45  1   
@<TRIPOS>SUBSTRUCTURE
  1 ****   9 GROUP 4 **** **** 0

# MOE 2024.06 (io_trps.svl 2023.06)
