@<TRIPOS>MOLECULE
NONAME
53 55 1 0 0 
SMALL
USER_CHARGES


@<TRIPOS>ATOM
  1 O       -0.8690     1.0110     0.4150 O.2   1 <1>  -0.5700 
  2 C       -0.9120     2.1940     0.1920 C.2   1 <1>   0.5690 
  3 N       -1.2120     3.0730     1.1710 N.am  1 <1>  -0.7300 
  4 C       -0.6670     2.7240    -1.2200 C.3   1 <1>   0.1810 
  5 C       -1.4050     4.5290     0.9480 C.3   1 <1>   0.3640 
  6 O       -0.2710     4.0760    -1.2170 O.3   1 <1>  -0.5600 
  7 C       -2.8220     4.8840     1.3970 C.ar  1 <1>  -0.1440 
  8 C       -1.1540     4.9610    -0.5270 C.3   1 <1>   0.2610 
  9 C       -3.9140     4.1080     1.0240 C.ar  1 <1>  -0.1500 
 10 C       -3.0370     6.0030     2.1890 C.ar  1 <1>  -0.1500 
 11 C       -0.5980     6.3910    -0.5680 C.2   1 <1>   0.5690 
 12 C       -5.1910     4.4430     1.4390 C.ar  1 <1>  -0.1500 
 13 C       -4.3130     6.3400     2.6040 C.ar  1 <1>  -0.1500 
 14 O       -1.1480     7.2620     0.0620 O.2   1 <1>  -0.5700 
 15 N        0.5160     6.6320    -1.3170 N.am  1 <1>  -0.7300 
 16 C       -5.3920     5.5600     2.2290 C.ar  1 <1>  -0.1500 
 17 C        1.2290     7.9060    -1.5480 C.3   1 <1>   0.2200 
 18 C        1.7660     8.4800    -0.2330 C.3   1 <1>  -0.1600 
 19 C        0.3260     8.9110    -2.2710 C.3   1 <1>  -0.1600 
 20 C        2.4950     9.8010    -0.4850 C.3   1 <1>   0.1400 
 21 C        1.0590    10.2350    -2.5010 C.3   1 <1>   0.1400 
 22 N        1.5910    10.7360    -1.2070 N.am  1 <1>  -0.6600 
 23 C        1.3260    12.0120    -0.7890 C.2   1 <1>   0.6900 
 24 O        1.0050    12.8770    -1.5830 O.2   1 <1>  -0.5700 
 25 N        1.3970    12.2970     0.5330 N.am  1 <1>  -0.7300 
 26 C        1.0730    13.6080     1.1200 C.3   1 <1>   0.1400 
 27 C        1.8050    13.7420     2.4500 C.3   1 <1>  -0.2400 
 28 H       -1.4470     2.7120     2.0970 H     1 <1>   0.3700 
 29 H       -1.5640     2.6290    -1.8040 H     1 <1>   0.0800 
 30 H        0.1150     2.1510    -1.6830 H     1 <1>   0.0800 
 31 H       -0.7020     5.0490     1.5760 H     1 <1>   0.0800 
 32 H       -2.0890     4.9600    -1.0580 H     1 <1>   0.0800 
 33 H       -3.7810     3.2330     0.4120 H     1 <1>   0.1500 
 34 H       -2.2110     6.6300     2.4830 H     1 <1>   0.1500 
 35 H       -6.0300     3.8350     1.1470 H     1 <1>   0.1500 
 36 H       -4.4660     7.2120     3.2150 H     1 <1>   0.1500 
 37 H        0.9100     5.8130    -1.7910 H     1 <1>   0.3700 
 38 H       -6.3850     5.8220     2.5520 H     1 <1>   0.1500 
 39 H        2.0710     7.6980    -2.1870 H     1 <1>   0.0800 
 40 H        0.9580     8.6650     0.4520 H     1 <1>   0.0800 
 41 H        2.4440     7.7800     0.2190 H     1 <1>   0.0800 
 42 H        0.0180     8.5080    -3.2190 H     1 <1>   0.0800 
 43 H       -0.5530     9.1100    -1.6850 H     1 <1>   0.0800 
 44 H        3.3660     9.6280    -1.0930 H     1 <1>   0.0800 
 45 H        2.8250    10.2250     0.4470 H     1 <1>   0.0800 
 46 H        0.3780    10.9510    -2.9300 H     1 <1>   0.0800 
 47 H        1.8770    10.0980    -3.1870 H     1 <1>   0.0800 
 48 H        1.3490    11.5000     1.1620 H     1 <1>   0.3700 
 49 H        1.3800    14.3910     0.4450 H     1 <1>   0.0800 
 50 H        0.0080    13.6790     1.2660 H     1 <1>   0.0800 
 51 H        2.8670    13.6690     2.2960 H     1 <1>   0.0800 
 52 H        1.4850    12.9780     3.1350 H     1 <1>   0.0800 
 53 H        1.5890    14.7010     2.8830 H     1 <1>   0.0800 
@<TRIPOS>BOND
  1   1   2  2   
  2   2   3  am  
  3   2   4  1   
  4   3   5  1   
  5   3  28  1   
  6   4   6  1   
  7   4  29  1   
  8   4  30  1   
  9   5   7  1   
 10   5   8  1   
 11   5  31  1   
 12   6   8  1   
 13   7   9  ar  
 14   7  10  ar  
 15   8  11  1   
 16   8  32  1   
 17   9  12  ar  
 18   9  33  1   
 19  10  13  ar  
 20  10  34  1   
 21  11  14  2   
 22  11  15  am  
 23  12  16  ar  
 24  12  35  1   
 25  13  16  ar  
 26  13  36  1   
 27  15  17  1   
 28  15  37  1   
 29  16  38  1   
 30  17  18  1   
 31  17  19  1   
 32  17  39  1   
 33  18  20  1   
 34  18  40  1   
 35  18  41  1   
 36  19  21  1   
 37  19  42  1   
 38  19  43  1   
 39  20  22  1   
 40  20  44  1   
 41  20  45  1   
 42  21  22  1   
 43  21  46  1   
 44  21  47  1   
 45  22  23  am  
 46  23  24  2   
 47  23  25  am  
 48  25  26  1   
 49  25  48  1   
 50  26  27  1   
 51  26  49  1   
 52  26  50  1   
 53  27  51  1   
 54  27  52  1   
 55  27  53  1   
@<TRIPOS>SUBSTRUCTURE
  1 ****  14 GROUP 4 **** **** 0

# MOE 2024.06 (io_trps.svl 2023.06)
