@<TRIPOS>MOLECULE
NONAME
42 43 1 0 0 
SMALL
USER_CHARGES


@<TRIPOS>ATOM
  1 S       -0.9530     0.7150     1.3600 S.o2  1 <1>   1.4470 
  2 O       -0.8470    -0.4800     2.1690 O.2   1 <1>  -0.6500 
  3 O       -1.6160     1.8840     1.8980 O.2   1 <1>  -0.6500 
  4 N       -1.7340     0.3150    -0.0920 N.am  1 <1>  -0.8490 
  5 C        0.6990     1.2120     0.7950 C.ar  1 <1>  -0.0090 
  6 C       -1.1910    -0.8850    -0.7640 C.3   1 <1>   0.1960 
  7 C       -3.2110     0.3660    -0.0340 C.3   1 <1>   0.1960 
  8 C        1.8420     0.5400     1.2130 C.ar  1 <1>  -0.1500 
  9 C        0.8600     2.2750    -0.0850 C.ar  1 <1>  -0.1500 
 10 C       -1.7230    -2.2350    -0.2270 C.3   1 <1>   0.2000 
 11 C       -3.9030    -0.9800    -0.3080 C.3   1 <1>  -0.1600 
 12 C        3.0990     0.9130     0.7680 C.ar  1 <1>  -0.1500 
 13 C        2.1130     2.6530    -0.5350 C.ar  1 <1>  -0.1500 
 14 O       -1.7250    -3.1030    -1.3030 O.3   1 <1>  -0.6800 
 15 C       -3.1430    -2.1320     0.3720 C.3   1 <1>  -0.1860 
 16 C        3.2420     1.9720    -0.1120 C.ar  1 <1>  -0.1430 
 17 C       -3.9540    -3.4220     0.4250 C.2   1 <1>   0.9060 
 18 C        4.6200     2.3820    -0.6060 C.3   1 <1>  -0.0160 
 19 O       -4.9690    -3.4350     1.1270 O.co2 1 <1>  -0.9000 
 20 O       -3.6020    -4.4140    -0.2300 O.co2 1 <1>  -0.9000 
 21 C        5.2380     3.4290     0.3280 C.3   1 <1>  -0.1600 
 22 C        6.6300     3.8590    -0.1480 C.3   1 <1>  -0.2400 
 23 H       -1.4640    -0.8140    -1.8040 H     1 <1>   0.0800 
 24 H       -0.1170    -0.8880    -0.7170 H     1 <1>   0.0800 
 25 H       -3.5270     0.7040     0.9390 H     1 <1>   0.0800 
 26 H       -3.5610     1.0900    -0.7490 H     1 <1>   0.0800 
 27 H        1.7470    -0.2870     1.8970 H     1 <1>   0.1500 
 28 H       -0.0120     2.8100    -0.4220 H     1 <1>   0.1500 
 29 H       -1.0530    -2.6450     0.5100 H     1 <1>   0.0800 
 30 H       -4.9100    -0.9390     0.0690 H     1 <1>   0.0800 
 31 H       -3.9630    -1.1600    -1.3670 H     1 <1>   0.0800 
 32 H        3.9660     0.3750     1.1110 H     1 <1>   0.1500 
 33 H        2.2060     3.4820    -1.2160 H     1 <1>   0.1500 
 34 H       -2.4000    -3.8190    -1.0680 H     1 <1>   0.4000 
 35 H       -3.0220    -1.8530     1.4010 H     1 <1>   0.0800 
 36 H        5.2580     1.5170    -0.6540 H     1 <1>   0.0800 
 37 H        4.5410     2.7840    -1.6010 H     1 <1>   0.0800 
 38 H        4.5940     4.2910     0.3720 H     1 <1>   0.0800 
 39 H        5.3110     3.0210     1.3220 H     1 <1>   0.0800 
 40 H        6.5750     4.2930    -1.1320 H     1 <1>   0.0800 
 41 H        7.2970     3.0150    -0.1770 H     1 <1>   0.0800 
 42 H        7.0370     4.5930     0.5250 H     1 <1>   0.0800 
@<TRIPOS>BOND
  1   1   2  2   
  2   1   3  2   
  3   1   4  am  
  4   1   5  1   
  5   4   6  1   
  6   4   7  1   
  7   5   8  ar  
  8   5   9  ar  
  9   6  10  1   
 10   6  23  1   
 11   6  24  1   
 12   7  11  1   
 13   7  25  1   
 14   7  26  1   
 15   8  12  ar  
 16   8  27  1   
 17   9  13  ar  
 18   9  28  1   
 19  10  14  1   
 20  10  15  1   
 21  10  29  1   
 22  11  15  1   
 23  11  30  1   
 24  11  31  1   
 25  12  16  ar  
 26  12  32  1   
 27  13  16  ar  
 28  13  33  1   
 29  14  34  1   
 30  15  17  1   
 31  15  35  1   
 32  16  18  1   
 33  17  19  ar  
 34  17  20  ar  
 35  18  21  1   
 36  18  36  1   
 37  18  37  1   
 38  21  22  1   
 39  21  38  1   
 40  21  39  1   
 41  22  40  1   
 42  22  41  1   
 43  22  42  1   
@<TRIPOS>SUBSTRUCTURE
  1 ****   1 GROUP 4 **** **** 0

# MOE 2024.06 (io_trps.svl 2023.06)
