@<TRIPOS>MOLECULE
NONAME
52 55 1 0 0 
SMALL
USER_CHARGES


@<TRIPOS>ATOM
  1 O       -0.8550    -1.7860    -0.1120 O.2   1 <1>  -0.5700 
  2 C        0.1330    -2.4730    -0.2110 C.2   1 <1>   0.5690 
  3 N        0.3420    -3.3480    -1.2420 N.am  1 <1>  -0.6600 
  4 C        1.2030    -2.3790     0.8570 C.3   1 <1>  -0.0990 
  5 C        1.5730    -4.1770    -1.2850 C.3   1 <1>   0.1400 
  6 C       -0.6510    -3.5600    -2.3280 C.3   1 <1>   0.0600 
  7 C        2.5980    -2.3040     0.2120 C.3   1 <1>  -0.0800 
  8 C        2.8060    -3.3210    -0.9350 C.3   1 <1>  -0.0800 
  9 C        3.7380    -2.5290     1.2140 C.3   1 <1>  -0.1600 
 10 C        4.0210    -4.1670    -0.5320 C.3   1 <1>  -0.1600 
 11 C        4.8080    -3.2630     0.4150 C.3   1 <1>   0.2200 
 12 N        5.7840    -3.9810     1.2890 N.am  1 <1>  -0.6600 
 13 C        7.0850    -3.5400     1.4360 C.2   1 <1>   0.5440 
 14 C        5.3440    -5.2390     1.9680 C.3   1 <1>   0.0600 
 15 O        7.9030    -4.2670     1.9680 O.2   1 <1>  -0.5700 
 16 C        7.4970    -2.2360     0.9720 C.ar  1 <1>   0.0860 
 17 C        8.2770    -2.0700    -0.1980 C.ar  1 <1>   0.0000 
 18 C        7.1200    -1.0970     1.6300 C.ar  1 <1>  -0.1500 
 19 C        8.5710    -0.7530    -0.6170 C.ar  1 <1>   0.3100 
 20 C        8.7680    -3.1460    -0.9680 C.ar  1 <1>  -0.1500 
 21 C        7.4690     0.1610     1.1390 C.ar  1 <1>   0.3930 
 22 N        8.1600     0.3500     0.0510 N.ar  1 <1>  -0.6200 
 23 C        9.3240    -0.5720    -1.7880 C.ar  1 <1>  -0.1500 
 24 C        9.5010    -2.9350    -2.1050 C.ar  1 <1>  -0.1500 
 25 O        7.0430     1.2180     1.8560 O.3   1 <1>  -0.3630 
 26 C        9.7820    -1.6330    -2.5230 C.ar  1 <1>  -0.1500 
 27 C        7.3650     2.5390     1.4680 C.3   1 <1>   0.0400 
 28 H        1.0290    -1.5090     1.4640 H     1 <1>   0.0800 
 29 H        1.1180    -3.2490     1.4810 H     1 <1>   0.0800 
 30 H        1.4610    -4.9780    -0.5750 H     1 <1>   0.0800 
 31 H        1.6980    -4.6080    -2.2640 H     1 <1>   0.0800 
 32 H       -0.9710    -4.5870    -2.3350 H     1 <1>   0.0800 
 33 H       -0.2080    -3.3170    -3.2780 H     1 <1>   0.0800 
 34 H       -1.5120    -2.9310    -2.1800 H     1 <1>   0.0800 
 35 H        2.7080    -1.3190    -0.2120 H     1 <1>   0.0800 
 36 H        3.0710    -2.7620    -1.8170 H     1 <1>   0.0800 
 37 H        3.4000    -3.1440     2.0280 H     1 <1>   0.0800 
 38 H        4.1070    -1.5970     1.6020 H     1 <1>   0.0800 
 39 H        4.6120    -4.4470    -1.3860 H     1 <1>   0.0800 
 40 H        3.6830    -5.0500    -0.0230 H     1 <1>   0.0800 
 41 H        5.3190    -2.5390    -0.1970 H     1 <1>   0.0800 
 42 H        4.3180    -5.1660     2.2800 H     1 <1>   0.0800 
 43 H        5.9470    -5.4250     2.8410 H     1 <1>   0.0800 
 44 H        5.4540    -6.0700     1.2940 H     1 <1>   0.0800 
 45 H        6.5430    -1.1480     2.5340 H     1 <1>   0.1500 
 46 H        8.5650    -4.1550    -0.6500 H     1 <1>   0.1500 
 47 H        9.5330     0.4380    -2.0920 H     1 <1>   0.1500 
 48 H        9.8710    -3.7640    -2.6840 H     1 <1>   0.1500 
 49 H       10.3590    -1.4780    -3.4180 H     1 <1>   0.1500 
 50 H        6.9350     3.2170     2.1830 H     1 <1>   0.0800 
 51 H        6.9580     2.7240     0.4900 H     1 <1>   0.0800 
 52 H        8.4360     2.6460     1.4550 H     1 <1>   0.0800 
@<TRIPOS>BOND
  1   1   2  2   
  2   2   3  am  
  3   2   4  1   
  4   3   5  1   
  5   3   6  1   
  6   4   7  1   
  7   4  28  1   
  8   4  29  1   
  9   5   8  1   
 10   5  30  1   
 11   5  31  1   
 12   6  32  1   
 13   6  33  1   
 14   6  34  1   
 15   7   8  1   
 16   7   9  1   
 17   7  35  1   
 18   8  10  1   
 19   8  36  1   
 20   9  11  1   
 21   9  37  1   
 22   9  38  1   
 23  10  11  1   
 24  10  39  1   
 25  10  40  1   
 26  11  12  1   
 27  11  41  1   
 28  12  13  am  
 29  12  14  1   
 30  13  15  2   
 31  13  16  1   
 32  14  42  1   
 33  14  43  1   
 34  14  44  1   
 35  16  17  ar  
 36  16  18  ar  
 37  17  19  ar  
 38  17  20  ar  
 39  18  21  ar  
 40  18  45  1   
 41  19  22  ar  
 42  19  23  ar  
 43  20  24  ar  
 44  20  46  1   
 45  21  22  ar  
 46  21  25  1   
 47  23  26  ar  
 48  23  47  1   
 49  24  26  ar  
 50  24  48  1   
 51  25  27  1   
 52  26  49  1   
 53  27  50  1   
 54  27  51  1   
 55  27  52  1   
@<TRIPOS>SUBSTRUCTURE
  1 ****  11 GROUP 4 **** **** 0

# MOE 2024.06 (io_trps.svl 2023.06)
