@<TRIPOS>MOLECULE
NONAME
48 52 1 0 0 
SMALL
USER_CHARGES


@<TRIPOS>ATOM
  1 O        0.4000     0.7540    -0.0770 O.2   1 <1>  -0.5700 
  2 C       -0.1000     1.7880    -0.4760 C.2   1 <1>   0.5440 
  3 N       -1.4110     1.7810    -0.9100 N.am  1 <1>  -0.6600 
  4 C        0.6940     3.0010    -0.4540 C.ar  1 <1>   0.0860 
  5 C       -2.2460     3.0140    -1.0690 C.3   1 <1>   0.1400 
  6 C       -2.1820     0.5130    -1.0620 C.3   1 <1>   0.1400 
  7 C        1.3020     3.4340     0.7220 C.ar  1 <1>  -0.1500 
  8 C        0.8850     3.7780    -1.5970 C.ar  1 <1>  -0.1500 
  9 C       -3.4040     3.0320    -0.0520 C.3   1 <1>   0.1440 
 10 C       -3.3410     0.4840    -0.0570 C.3   1 <1>  -0.1600 
 11 C        2.0480     4.5960     0.7640 C.ar  1 <1>  -0.1500 
 12 C        1.6310     4.9420    -1.5630 C.ar  1 <1>  -0.1500 
 13 C       -4.2340     4.2790    -0.3010 C.ar  1 <1>   0.1670 
 14 C       -4.2310     1.7340    -0.1770 C.3   1 <1>  -0.1600 
 15 C       -2.8900     3.2590     1.3960 C.3   1 <1>  -0.1600 
 16 C        2.2250     5.3710    -0.3790 C.ar  1 <1>  -0.0230 
 17 N       -5.0500     4.4630    -1.3110 N.ar  1 <1>  -0.6200 
 18 C       -4.0140     5.2250     0.6580 C.ar  1 <1>  -0.1440 
 19 C       -3.0140     4.7640     1.6870 C.3   1 <1>  -0.0160 
 20 N        2.9970     6.5660    -0.3320 N.pl3 1 <1>   0.5930 
 21 C       -5.6490     5.6450    -1.3130 C.ar  1 <1>   0.7200 
 22 C       -4.6980     6.4130     0.5540 C.ar  1 <1>   0.1600 
 23 N        3.0140     7.4200     0.6810 N.2   1 <1>  -0.4180 
 24 C        3.8240     7.0630    -1.2430 C.2   1 <1>   0.0360 
 25 N       -5.5320     6.6340    -0.4380 N.ar  1 <1>  -0.6200 
 26 N       -6.5000     5.8600    -2.3170 N.pl3 1 <1>  -0.9000 
 27 N        3.8150     8.3700     0.3600 N.2   1 <1>   0.0000 
 28 N        4.3330     8.1630    -0.8450 N.2   1 <1>  -0.3380 
 29 H       -2.6530     3.0310    -2.0660 H     1 <1>   0.0800 
 30 H       -1.6580     3.9040    -0.9410 H     1 <1>   0.0800 
 31 H       -1.5470    -0.3430    -0.9080 H     1 <1>   0.0800 
 32 H       -2.5690     0.4590    -2.0650 H     1 <1>   0.0800 
 33 H        1.1820     2.8390     1.6130 H     1 <1>   0.1500 
 34 H        0.4370     3.4540    -2.5210 H     1 <1>   0.1500 
 35 H       -2.9340     0.4090     0.9360 H     1 <1>   0.0800 
 36 H       -3.9330    -0.3970    -0.2300 H     1 <1>   0.0800 
 37 H        2.5000     4.9020     1.6940 H     1 <1>   0.1500 
 38 H        1.7420     5.5160    -2.4680 H     1 <1>   0.1500 
 39 H       -4.7140     1.7210    -1.1390 H     1 <1>   0.0800 
 40 H       -5.0050     1.7130     0.5700 H     1 <1>   0.0800 
 41 H       -1.8850     2.9060     1.5410 H     1 <1>   0.0800 
 42 H       -3.5280     2.7350     2.0860 H     1 <1>   0.0800 
 43 H       -2.0720     5.2610     1.5270 H     1 <1>   0.0800 
 44 H       -3.3590     4.9460     2.6910 H     1 <1>   0.0800 
 45 H       -4.5600     7.1880     1.2880 H     1 <1>   0.1500 
 46 H        4.0240     6.5810    -2.1800 H     1 <1>   0.1500 
 47 H       -7.1710     6.6060    -2.1580 H     1 <1>   0.4000 
 48 H       -6.8420     5.0240    -2.7790 H     1 <1>   0.4000 
@<TRIPOS>BOND
  1   1   2  2   
  2   2   3  am  
  3   2   4  1   
  4   3   5  1   
  5   3   6  1   
  6   4   7  ar  
  7   4   8  ar  
  8   5   9  1   
  9   5  29  1   
 10   5  30  1   
 11   6  10  1   
 12   6  31  1   
 13   6  32  1   
 14   7  11  ar  
 15   7  33  1   
 16   8  12  ar  
 17   8  34  1   
 18   9  13  1   
 19   9  14  1   
 20   9  15  1   
 21  10  14  1   
 22  10  35  1   
 23  10  36  1   
 24  11  16  ar  
 25  11  37  1   
 26  12  16  ar  
 27  12  38  1   
 28  13  17  ar  
 29  13  18  ar  
 30  14  39  1   
 31  14  40  1   
 32  15  19  1   
 33  15  41  1   
 34  15  42  1   
 35  16  20  1   
 36  17  21  ar  
 37  18  19  1   
 38  18  22  ar  
 39  19  43  1   
 40  19  44  1   
 41  20  23  1   
 42  20  24  1   
 43  21  25  ar  
 44  21  26  1   
 45  22  25  ar  
 46  22  45  1   
 47  23  27  2   
 48  24  28  2   
 49  24  46  1   
 50  26  47  1   
 51  26  48  1   
 52  27  28  1   
@<TRIPOS>SUBSTRUCTURE
  1 ****   5 GROUP 4 **** **** 0

# MOE 2024.06 (io_trps.svl 2023.06)
