@<TRIPOS>MOLECULE
NONAME
55 59 1 0 0 
SMALL
USER_CHARGES


@<TRIPOS>ATOM
  1 O        0.1490    -0.3770    -0.3810 O.2   1 <1>  -0.5700 
  2 C       -0.9650     0.0530    -0.1510 C.2   1 <1>   0.7160 
  3 N       -1.9900    -0.8330    -0.0710 N.am  1 <1>  -0.7300 
  4 C       -1.2140     1.4530     0.0400 C.2   1 <1>  -0.0860 
  5 C       -1.9480    -2.2940    -0.2380 C.3   1 <1>   0.2200 
  6 C       -2.4690     2.0490     0.2450 C.2   1 <1>   0.3720 
  7 C       -0.3650     2.5200     0.0540 C.2   1 <1>   0.0870 
  8 C       -2.9490    -2.7960    -1.3010 C.3   1 <1>  -0.0800 
  9 C       -2.4240    -3.0000     1.0410 C.3   1 <1>  -0.1600 
 10 N       -2.3690     3.3260     0.3580 N.2   1 <1>  -0.4100 
 11 N       -3.6970     1.3730     0.3360 N.pl3 1 <1>  -0.8210 
 12 O       -1.0980     3.5890     0.2360 O.3   1 <1>  -0.0190 
 13 C        1.0620     2.6720    -0.0790 C.ar  1 <1>   0.0530 
 14 C       -3.1600    -4.2300    -0.8400 C.3   1 <1>  -0.1600 
 15 C       -4.3600    -2.2190    -1.0590 C.3   1 <1>  -0.1600 
 16 C       -3.6160    -3.8440     0.5580 C.3   1 <1>  -0.0800 
 17 C       -4.7860     1.9300    -0.5180 C.3   1 <1>   0.2090 
 18 C       -4.2050     1.2520     1.7290 C.3   1 <1>   0.2090 
 19 C        1.9650     1.8210     0.5590 C.ar  1 <1>  -0.1500 
 20 C        1.5940     3.7090    -0.8470 C.ar  1 <1>  -0.1500 
 21 C       -4.7900    -2.8990     0.2520 C.3   1 <1>  -0.1600 
 22 C       -5.9280     2.2800     0.4260 C.3   1 <1>  -0.1600 
 23 C       -5.7170     1.3690     1.6240 C.3   1 <1>  -0.1600 
 24 C        3.3320     1.9850     0.4310 C.ar  1 <1>  -0.1500 
 25 C        2.9580     3.8820    -0.9780 C.ar  1 <1>  -0.1500 
 26 C        3.8410     3.0240    -0.3440 C.ar  1 <1>   0.0830 
 27 O        5.1620     3.2560    -0.5230 O.3   1 <1>  -0.3620 
 28 C        6.1410     2.4120     0.0410 C.3   1 <1>   0.0400 
 29 H       -2.9220    -0.4160     0.0570 H     1 <1>   0.3700 
 30 H       -0.9500    -2.6150    -0.4880 H     1 <1>   0.0800 
 31 H       -2.5910    -2.6970    -2.3110 H     1 <1>   0.0800 
 32 H       -1.6430    -3.6450     1.4030 H     1 <1>   0.0800 
 33 H       -2.7030    -2.3120     1.8190 H     1 <1>   0.0800 
 34 H       -3.9240    -4.7440    -1.4010 H     1 <1>   0.0800 
 35 H       -2.2510    -4.8090    -0.8390 H     1 <1>   0.0800 
 36 H       -4.3750    -1.1470    -0.9910 H     1 <1>   0.0800 
 37 H       -5.0160    -2.5170    -1.8590 H     1 <1>   0.0800 
 38 H       -3.8670    -4.6650     1.2070 H     1 <1>   0.0800 
 39 H       -4.4640     2.7960    -1.0740 H     1 <1>   0.0800 
 40 H       -5.1020     1.1720    -1.2130 H     1 <1>   0.0800 
 41 H       -3.9140     0.3100     2.1600 H     1 <1>   0.0800 
 42 H       -3.8150     2.0560     2.3330 H     1 <1>   0.0800 
 43 H        1.5890     1.0160     1.1640 H     1 <1>   0.1500 
 44 H        0.9240     4.3860    -1.3470 H     1 <1>   0.1500 
 45 H       -5.6950    -3.4610     0.0980 H     1 <1>   0.0800 
 46 H       -4.9470    -2.1850     1.0420 H     1 <1>   0.0800 
 47 H       -5.8270     3.3090     0.7240 H     1 <1>   0.0800 
 48 H       -6.8890     2.1410    -0.0370 H     1 <1>   0.0800 
 49 H       -6.1330     0.3960     1.4280 H     1 <1>   0.0800 
 50 H       -6.1510     1.7660     2.5250 H     1 <1>   0.0800 
 51 H        3.9820     1.2980     0.9380 H     1 <1>   0.1500 
 52 H        3.3510     4.6850    -1.5740 H     1 <1>   0.1500 
 53 H        7.1080     2.7820    -0.2490 H     1 <1>   0.0800 
 54 H        6.0010     1.4150    -0.3380 H     1 <1>   0.0800 
 55 H        6.0460     2.4360     1.1120 H     1 <1>   0.0800 
@<TRIPOS>BOND
  1   1   2  2   
  2   2   3  am  
  3   2   4  1   
  4   3   5  1   
  5   3  29  1   
  6   4   6  1   
  7   4   7  2   
  8   5   8  1   
  9   5   9  1   
 10   5  30  1   
 11   6  10  2   
 12   6  11  1   
 13   7  12  1   
 14   7  13  1   
 15   8  14  1   
 16   8  15  1   
 17   8  31  1   
 18   9  16  1   
 19   9  32  1   
 20   9  33  1   
 21  10  12  1   
 22  11  17  1   
 23  11  18  1   
 24  13  19  ar  
 25  13  20  ar  
 26  14  16  1   
 27  14  34  1   
 28  14  35  1   
 29  15  21  1   
 30  15  36  1   
 31  15  37  1   
 32  16  21  1   
 33  16  38  1   
 34  17  22  1   
 35  17  39  1   
 36  17  40  1   
 37  18  23  1   
 38  18  41  1   
 39  18  42  1   
 40  19  24  ar  
 41  19  43  1   
 42  20  25  ar  
 43  20  44  1   
 44  21  45  1   
 45  21  46  1   
 46  22  23  1   
 47  22  47  1   
 48  22  48  1   
 49  23  49  1   
 50  23  50  1   
 51  24  26  ar  
 52  24  51  1   
 53  25  26  ar  
 54  25  52  1   
 55  26  27  1   
 56  27  28  1   
 57  28  53  1   
 58  28  54  1   
 59  28  55  1   
@<TRIPOS>SUBSTRUCTURE
  1 ****   4 GROUP 4 **** **** 0

# MOE 2024.06 (io_trps.svl 2023.06)
