@<TRIPOS>MOLECULE
NONAME
45 47 1 0 0 
SMALL
USER_CHARGES


@<TRIPOS>ATOM
  1 CL      -0.7470    -0.9840     0.4260 Cl    1 <1>  -0.1770 
  2 C        0.8240    -1.7400     0.3070 C.ar  1 <1>   0.1770 
  3 C        1.1480    -2.5630    -0.7670 C.ar  1 <1>  -0.0090 
  4 C        1.7170    -1.4780     1.3310 C.ar  1 <1>  -0.1500 
  5 S       -0.0330    -2.9060    -2.0880 S.o2  1 <1>   1.4470 
  6 C        2.4210    -3.1280    -0.7820 C.ar  1 <1>  -0.1500 
  7 C        2.9800    -2.0420     1.2990 C.ar  1 <1>   0.0830 
  8 O       -0.4940    -1.6590    -2.6570 O.2   1 <1>  -0.6500 
  9 O        0.5230    -3.9080    -2.9720 O.2   1 <1>  -0.6500 
 10 N       -1.3270    -3.6460    -1.2780 N.am  1 <1>  -0.8490 
 11 C        3.3200    -2.8750     0.2370 C.ar  1 <1>   0.1770 
 12 O        3.8280    -1.7830     2.3160 O.3   1 <1>  -0.3630 
 13 C       -1.0480    -5.0410    -0.9240 C.3   1 <1>   0.1960 
 14 C       -2.5870    -3.5160    -2.0150 C.3   1 <1>   0.1960 
 15 CL       4.8900    -3.6430     0.1630 Cl    1 <1>  -0.1770 
 16 C        4.8620    -0.8560     2.0650 C.3   1 <1>   0.0400 
 17 C       -2.1480    -5.5720    -0.0070 C.3   1 <1>  -0.1600 
 18 C       -3.7480    -4.0040    -1.1480 C.3   1 <1>  -0.1600 
 19 C       -3.5060    -5.4450    -0.6950 C.3   1 <1>   0.2200 
 20 N       -4.5850    -5.9150     0.2050 N.am  1 <1>  -0.6600 
 21 C       -5.2850    -7.0550     0.0140 C.2   1 <1>   0.5690 
 22 C       -5.0120    -5.1830     1.4140 C.3   1 <1>   0.1400 
 23 O       -5.1330    -7.8370    -0.8930 O.2   1 <1>  -0.5700 
 24 C       -6.3080    -7.2460     1.0990 C.3   1 <1>  -0.0990 
 25 C       -5.9490    -6.1650     2.1320 C.3   1 <1>  -0.1600 
 26 H        1.4330    -0.8420     2.1500 H     1 <1>   0.1500 
 27 H        2.7180    -3.7740    -1.5910 H     1 <1>   0.1500 
 28 H       -0.1030    -5.1080    -0.4110 H     1 <1>   0.0800 
 29 H       -0.9890    -5.6440    -1.8170 H     1 <1>   0.0800 
 30 H       -2.5360    -4.0810    -2.9320 H     1 <1>   0.0800 
 31 H       -2.7620    -2.4830    -2.2660 H     1 <1>   0.0800 
 32 H        5.4240    -0.7290     2.9720 H     1 <1>   0.0800 
 33 H        4.4260     0.0810     1.7680 H     1 <1>   0.0800 
 34 H        5.5020    -1.2360     1.2890 H     1 <1>   0.0800 
 35 H       -2.1320    -5.0110     0.9090 H     1 <1>   0.0800 
 36 H       -1.9570    -6.6060     0.2160 H     1 <1>   0.0800 
 37 H       -4.6600    -3.9540    -1.7150 H     1 <1>   0.0800 
 38 H       -3.8300    -3.3480    -0.3010 H     1 <1>   0.0800 
 39 H       -3.4970    -6.0730    -1.5710 H     1 <1>   0.0800 
 40 H       -5.5430    -4.2920     1.1260 H     1 <1>   0.0800 
 41 H       -4.1690    -4.9260     2.0310 H     1 <1>   0.0800 
 42 H       -6.2420    -8.2360     1.5120 H     1 <1>   0.0800 
 43 H       -7.2860    -7.0830     0.6860 H     1 <1>   0.0800 
 44 H       -6.8220    -5.6670     2.5150 H     1 <1>   0.0800 
 45 H       -5.4190    -6.6120     2.9540 H     1 <1>   0.0800 
@<TRIPOS>BOND
  1   1   2  1   
  2   2   3  ar  
  3   2   4  ar  
  4   3   5  1   
  5   3   6  ar  
  6   4   7  ar  
  7   4  26  1   
  8   5   8  2   
  9   5   9  2   
 10   5  10  am  
 11   6  11  ar  
 12   6  27  1   
 13   7  11  ar  
 14   7  12  1   
 15  10  13  1   
 16  10  14  1   
 17  11  15  1   
 18  12  16  1   
 19  13  17  1   
 20  13  28  1   
 21  13  29  1   
 22  14  18  1   
 23  14  30  1   
 24  14  31  1   
 25  16  32  1   
 26  16  33  1   
 27  16  34  1   
 28  17  19  1   
 29  17  35  1   
 30  17  36  1   
 31  18  19  1   
 32  18  37  1   
 33  18  38  1   
 34  19  20  1   
 35  19  39  1   
 36  20  21  am  
 37  20  22  1   
 38  21  23  2   
 39  21  24  1   
 40  22  25  1   
 41  22  40  1   
 42  22  41  1   
 43  24  25  1   
 44  24  42  1   
 45  24  43  1   
 46  25  44  1   
 47  25  45  1   
@<TRIPOS>SUBSTRUCTURE
  1 ****  10 GROUP 4 **** **** 0

# MOE 2024.06 (io_trps.svl 2023.06)
