@<TRIPOS>MOLECULE
NONAME
52 55 1 0 0 
SMALL
USER_CHARGES


@<TRIPOS>ATOM
  1 O        0.3670     0.2950    -1.2080 O.2   1 <1>  -0.5700 
  2 C       -0.1420     1.0050    -0.3610 C.2   1 <1>   0.6900 
  3 N       -1.5000     1.1890    -0.3150 N.am  1 <1>  -0.6600 
  4 N        0.6440     1.6480     0.5300 N.am  1 <1>  -0.7300 
  5 C       -2.1630     2.2840     0.4610 C.3   1 <1>   0.1400 
  6 C       -2.3790     0.4840    -1.2970 C.3   1 <1>   0.1400 
  7 C        2.0420     2.0220     0.2790 C.3   1 <1>   0.2840 
  8 C       -2.7340     3.3540    -0.4940 C.3   1 <1>   0.1430 
  9 C       -3.7320     1.1940    -1.4860 C.3   1 <1>  -0.1600 
 10 C        2.1000     3.5390     0.2940 C.ar  1 <1>  -0.1440 
 11 C       -3.5340     4.3240     0.3590 C.ar  1 <1>   0.1670 
 12 C       -3.5550     2.7140    -1.6500 C.3   1 <1>  -0.1600 
 13 C       -1.6080     4.2730    -1.0390 C.3   1 <1>  -0.1600 
 14 C        2.0740     4.2500    -0.8960 C.ar  1 <1>  -0.1500 
 15 C        2.1580     4.2300     1.4940 C.ar  1 <1>  -0.1500 
 16 N       -4.7360     4.1060     0.8480 N.ar  1 <1>  -0.6200 
 17 C       -2.8370     5.4720     0.5970 C.ar  1 <1>  -0.1440 
 18 C       -1.4800     5.4520    -0.0610 C.3   1 <1>  -0.0170 
 19 C        2.0990     5.6340    -0.8860 C.ar  1 <1>  -0.1500 
 20 C        2.1810     5.6140     1.5040 C.ar  1 <1>  -0.1500 
 21 C       -5.2200     5.1020     1.5770 C.ar  1 <1>   0.4770 
 22 C       -3.4340     6.4370     1.3690 C.ar  1 <1>   0.1600 
 23 C        2.1480     6.3230     0.3140 C.ar  1 <1>  -0.1440 
 24 N       -4.6400     6.2590     1.8690 N.ar  1 <1>  -0.6200 
 25 C       -6.6020     4.9010     2.1500 C.3   1 <1>  -0.0970 
 26 C        2.1750     7.8410     0.3250 C.3   1 <1>  -0.0970 
 27 H        0.1780     2.2470     1.2010 H     1 <1>   0.3700 
 28 H       -1.4900     2.7470     1.1570 H     1 <1>   0.0800 
 29 H       -2.9660     1.8570     1.0380 H     1 <1>   0.0800 
 30 H       -2.5370    -0.5270    -0.9650 H     1 <1>   0.0800 
 31 H       -1.8740     0.4430    -2.2480 H     1 <1>   0.0800 
 32 H        2.3720     1.6380    -0.6720 H     1 <1>   0.0800 
 33 H        2.6690     1.6120     1.0510 H     1 <1>   0.0800 
 34 H       -4.3630     0.9910    -0.6380 H     1 <1>   0.0800 
 35 H       -4.2250     0.7890    -2.3520 H     1 <1>   0.0800 
 36 H       -3.0540     2.8770    -2.5880 H     1 <1>   0.0800 
 37 H       -4.5210     3.1830    -1.7210 H     1 <1>   0.0800 
 38 H       -1.9010     4.6780    -1.9910 H     1 <1>   0.0800 
 39 H       -0.6770     3.7510    -1.1680 H     1 <1>   0.0800 
 40 H        2.0290     3.7250    -1.8350 H     1 <1>   0.1500 
 41 H        2.1830     3.6940     2.4270 H     1 <1>   0.1500 
 42 H       -1.2630     6.3720    -0.5740 H     1 <1>   0.0800 
 43 H       -0.7180     5.2560     0.6740 H     1 <1>   0.0800 
 44 H        2.0800     6.1700    -1.8180 H     1 <1>   0.1500 
 45 H        2.2280     6.1380     2.4430 H     1 <1>   0.1500 
 46 H       -2.9230     7.3600     1.5820 H     1 <1>   0.1500 
 47 H       -6.9680     3.9180     1.9200 H     1 <1>   0.0800 
 48 H       -7.2690     5.6320     1.7320 H     1 <1>   0.0800 
 49 H       -6.5680     5.0230     3.2160 H     1 <1>   0.0800 
 50 H        1.6550     8.2340    -0.5300 H     1 <1>   0.0800 
 51 H        3.1940     8.1850     0.3000 H     1 <1>   0.0800 
 52 H        1.7030     8.2200     1.2140 H     1 <1>   0.0800 
@<TRIPOS>BOND
  1   1   2  2   
  2   2   3  am  
  3   2   4  am  
  4   3   5  1   
  5   3   6  1   
  6   4   7  1   
  7   4  27  1   
  8   5   8  1   
  9   5  28  1   
 10   5  29  1   
 11   6   9  1   
 12   6  30  1   
 13   6  31  1   
 14   7  10  1   
 15   7  32  1   
 16   7  33  1   
 17   8  11  1   
 18   8  12  1   
 19   8  13  1   
 20   9  12  1   
 21   9  34  1   
 22   9  35  1   
 23  10  14  ar  
 24  10  15  ar  
 25  11  16  ar  
 26  11  17  ar  
 27  12  36  1   
 28  12  37  1   
 29  13  18  1   
 30  13  38  1   
 31  13  39  1   
 32  14  19  ar  
 33  14  40  1   
 34  15  20  ar  
 35  15  41  1   
 36  16  21  ar  
 37  17  18  1   
 38  17  22  ar  
 39  18  42  1   
 40  18  43  1   
 41  19  23  ar  
 42  19  44  1   
 43  20  23  ar  
 44  20  45  1   
 45  21  24  ar  
 46  21  25  1   
 47  22  24  ar  
 48  22  46  1   
 49  23  26  1   
 50  25  47  1   
 51  25  48  1   
 52  25  49  1   
 53  26  50  1   
 54  26  51  1   
 55  26  52  1   
@<TRIPOS>SUBSTRUCTURE
  1 ****  13 GROUP 4 **** **** 0

# MOE 2024.06 (io_trps.svl 2023.06)
