@<TRIPOS>MOLECULE
NONAME
40 41 1 0 0 
SMALL
USER_CHARGES


@<TRIPOS>ATOM
  1 O        0.0830     0.8490    -1.5790 O.3   1 <1>  -0.6800 
  2 C        0.2710     1.5760    -0.4060 C.3   1 <1>   0.2000 
  3 C       -1.0570     2.2410     0.0410 C.3   1 <1>  -0.0800 
  4 C        1.3960     2.6040    -0.6660 C.3   1 <1>   0.2090 
  5 C       -1.2220     3.6040    -0.6640 C.3   1 <1>  -0.1600 
  6 C       -2.2800     1.3250    -0.1370 C.3   1 <1>   0.1200 
  7 N        1.1590     3.8640     0.0980 N.pl3 1 <1>  -0.8380 
  8 C       -0.0910     4.5820    -0.2950 C.3   1 <1>   0.2090 
  9 O       -3.3960     1.9080     0.4410 O.3   1 <1>  -0.6800 
 10 C        2.2530     4.6030     0.5180 C.ar  1 <1>   0.4100 
 11 N        2.3450     5.8560     0.0880 N.ar  1 <1>  -0.6200 
 12 C        3.1970     4.0220     1.3610 C.ar  1 <1>  -0.1500 
 13 C        3.4000     6.5500     0.4890 C.ar  1 <1>   0.1670 
 14 C        4.2910     4.7410     1.7760 C.ar  1 <1>  -0.1500 
 15 C        4.3850     6.0400     1.3200 C.ar  1 <1>  -0.1500 
 16 C        3.4900     7.9910    -0.0190 C.3   1 <1>   0.0630 
 17 C        4.7500     8.2160    -0.8660 C.3   1 <1>  -0.2400 
 18 C        3.4270     8.9990     1.1360 C.3   1 <1>  -0.2400 
 19 H       -0.5620     0.1300    -1.4410 H     1 <1>   0.4000 
 20 H        0.5980     0.8830     0.3500 H     1 <1>   0.0800 
 21 H       -0.9540     2.4380     1.0940 H     1 <1>   0.0800 
 22 H        1.4190     2.8520    -1.7130 H     1 <1>   0.0800 
 23 H        2.3460     2.1750    -0.4020 H     1 <1>   0.0800 
 24 H       -2.1620     4.0590    -0.4070 H     1 <1>   0.0800 
 25 H       -1.2210     3.4560    -1.7290 H     1 <1>   0.0800 
 26 H       -2.1210     0.3740     0.3410 H     1 <1>   0.0800 
 27 H       -2.4980     1.1700    -1.1800 H     1 <1>   0.0800 
 28 H       -0.4000     5.1910     0.5370 H     1 <1>   0.0800 
 29 H        0.1100     5.2360    -1.1270 H     1 <1>   0.0800 
 30 H       -3.2230     2.1340     1.3750 H     1 <1>   0.4000 
 31 H        3.0520     3.0110     1.6850 H     1 <1>   0.1500 
 32 H        5.0370     4.3170     2.4260 H     1 <1>   0.1500 
 33 H        5.2200     6.6480     1.6140 H     1 <1>   0.1500 
 34 H        2.6370     8.1700    -0.6530 H     1 <1>   0.0800 
 35 H        5.6390     8.1000    -0.2740 H     1 <1>   0.0800 
 36 H        4.7430     9.2050    -1.2880 H     1 <1>   0.0800 
 37 H        4.7760     7.5010    -1.6700 H     1 <1>   0.0800 
 38 H        4.2800     8.8990     1.7820 H     1 <1>   0.0800 
 39 H        2.5350     8.8300     1.7140 H     1 <1>   0.0800 
 40 H        3.3990    10.0030     0.7530 H     1 <1>   0.0800 
@<TRIPOS>BOND
  1   1   2  1   
  2   1  19  1   
  3   2   3  1   
  4   2   4  1   
  5   2  20  1   
  6   3   5  1   
  7   3   6  1   
  8   3  21  1   
  9   4   7  1   
 10   4  22  1   
 11   4  23  1   
 12   5   8  1   
 13   5  24  1   
 14   5  25  1   
 15   6   9  1   
 16   6  26  1   
 17   6  27  1   
 18   7   8  1   
 19   7  10  1   
 20   8  28  1   
 21   8  29  1   
 22   9  30  1   
 23  10  11  ar  
 24  10  12  ar  
 25  11  13  ar  
 26  12  14  ar  
 27  12  31  1   
 28  13  15  ar  
 29  13  16  1   
 30  14  15  ar  
 31  14  32  1   
 32  15  33  1   
 33  16  17  1   
 34  16  18  1   
 35  16  34  1   
 36  17  35  1   
 37  17  36  1   
 38  17  37  1   
 39  18  38  1   
 40  18  39  1   
 41  18  40  1   
@<TRIPOS>SUBSTRUCTURE
  1 ****   7 GROUP 4 **** **** 0

# MOE 2024.06 (io_trps.svl 2023.06)
