@<TRIPOS>MOLECULE
NONAME
39 41 1 0 0 
SMALL
USER_CHARGES


@<TRIPOS>ATOM
  1 F       -0.2890    -1.1810     1.9260 F     1 <1>  -0.1900 
  2 C       -0.2720    -2.2870     1.2280 C.ar  1 <1>   0.1900 
  3 C       -1.1350    -3.3010     1.5400 C.ar  1 <1>  -0.1500 
  4 C        0.6390    -2.3860     0.1830 C.ar  1 <1>  -0.1500 
  5 C       -1.1170    -4.4890     0.7930 C.ar  1 <1>  -0.1710 
  6 C        0.6620    -3.5490    -0.5580 C.ar  1 <1>  -0.1500 
  7 O       -1.9220    -5.3910     1.1370 O.3   1 <1>  -0.8290 
  8 C       -0.1980    -4.6260    -0.2960 C.ar  1 <1>   0.0860 
  9 C       -0.1310    -5.8150    -1.1080 C.2   1 <1>   0.5440 
 10 O        0.7910    -6.0450    -1.8840 O.2   1 <1>  -0.5700 
 11 N       -1.1120    -6.7490    -1.0010 N.am  1 <1>  -0.7300 
 12 C       -0.9030    -8.1940    -1.1610 C.3   1 <1>   0.2200 
 13 C       -2.1630    -9.0110    -0.9150 C.3   1 <1>  -0.0800 
 14 C        0.0690    -8.7590    -0.1260 C.3   1 <1>   0.1200 
 15 C       -1.5450   -10.3510    -0.5150 C.3   1 <1>   0.1200 
 16 C       -3.0770    -8.4460     0.2000 C.3   1 <1>  -0.0160 
 17 O       -0.3690   -10.0580     0.1740 O.3   1 <1>  -0.5600 
 18 C       -4.2570    -9.3670     0.4810 C.ar  1 <1>  -0.1440 
 19 C       -4.3160   -10.1490     1.6150 C.ar  1 <1>  -0.1500 
 20 C       -5.3260    -9.4650    -0.3850 C.ar  1 <1>  -0.1500 
 21 C       -5.4080   -10.9770     1.8190 C.ar  1 <1>   0.1600 
 22 C       -6.3700   -10.3250    -0.0870 C.ar  1 <1>   0.1600 
 23 N       -6.4360   -11.0890     0.9920 N.ar  1 <1>  -0.6200 
 24 H       -1.8350    -3.2210     2.3490 H     1 <1>   0.1500 
 25 H        1.3010    -1.5680    -0.0260 H     1 <1>   0.1500 
 26 H        1.3610    -3.6440    -1.3700 H     1 <1>   0.1500 
 27 H       -1.7070    -6.4760    -0.1850 H     1 <1>   0.3700 
 28 H       -0.5150    -8.3880    -2.1470 H     1 <1>   0.0800 
 29 H       -2.7260    -9.1170    -1.8230 H     1 <1>   0.0800 
 30 H        0.0360    -8.1830     0.7830 H     1 <1>   0.0800 
 31 H        1.0730    -8.8020    -0.5080 H     1 <1>   0.0800 
 32 H       -1.2730   -10.9150    -1.3900 H     1 <1>   0.0800 
 33 H       -2.1800   -10.9510     0.1120 H     1 <1>   0.0800 
 34 H       -3.4630    -7.4840    -0.0940 H     1 <1>   0.0800 
 35 H       -2.5090    -8.2900     1.1010 H     1 <1>   0.0800 
 36 H       -3.5210   -10.1180     2.3390 H     1 <1>   0.1500 
 37 H       -5.3530    -8.8770    -1.2840 H     1 <1>   0.1500 
 38 H       -5.4350   -11.5800     2.7100 H     1 <1>   0.1500 
 39 H       -7.1960   -10.3870    -0.7750 H     1 <1>   0.1500 
@<TRIPOS>BOND
  1   1   2  1   
  2   2   3  ar  
  3   2   4  ar  
  4   3   5  ar  
  5   3  24  1   
  6   4   6  ar  
  7   4  25  1   
  8   5   7  1   
  9   5   8  ar  
 10   6   8  ar  
 11   6  26  1   
 12   8   9  1   
 13   9  10  2   
 14   9  11  am  
 15  11  12  1   
 16  11  27  1   
 17  12  13  1   
 18  12  14  1   
 19  12  28  1   
 20  13  15  1   
 21  13  16  1   
 22  13  29  1   
 23  14  17  1   
 24  14  30  1   
 25  14  31  1   
 26  15  17  1   
 27  15  32  1   
 28  15  33  1   
 29  16  18  1   
 30  16  34  1   
 31  16  35  1   
 32  18  19  ar  
 33  18  20  ar  
 34  19  21  ar  
 35  19  36  1   
 36  20  22  ar  
 37  20  37  1   
 38  21  23  ar  
 39  21  38  1   
 40  22  23  ar  
 41  22  39  1   
@<TRIPOS>SUBSTRUCTURE
  1 ****  11 GROUP 4 **** **** 0

# MOE 2024.06 (io_trps.svl 2023.06)
