@<TRIPOS>MOLECULE
NONAME
49 51 1 0 0 
SMALL
USER_CHARGES


@<TRIPOS>ATOM
  1 S        0.3770     0.5410    -1.3830 S.o2  1 <1>   1.4470 
  2 O        0.0970     1.9610    -1.4370 O.2   1 <1>  -0.6500 
  3 O        0.9800    -0.1370    -2.5110 O.2   1 <1>  -0.6500 
  4 N        1.3410     0.2250    -0.0130 N.am  1 <1>  -0.8490 
  5 C       -1.1550    -0.3300    -0.9500 C.ar  1 <1>  -0.0090 
  6 C        1.4200     1.2940     1.0010 C.3   1 <1>   0.1960 
  7 C        2.5510    -0.5830    -0.2250 C.3   1 <1>   0.1960 
  8 C       -1.2490    -1.7120    -1.0710 C.ar  1 <1>  -0.1500 
  9 C       -2.2620     0.3520    -0.4600 C.ar  1 <1>  -0.1500 
 10 C        2.6870     2.1820     0.9490 C.3   1 <1>   0.2200 
 11 C        3.8000     0.1460    -0.7800 C.3   1 <1>  -0.0190 
 12 C       -2.4000    -2.3990    -0.7210 C.ar  1 <1>  -0.1440 
 13 C       -3.4210    -0.3150    -0.1060 C.ar  1 <1>  -0.1500 
 14 N        3.0660     2.5100    -0.4620 N.am  1 <1>  -0.6600 
 15 C        3.8390     1.5590     1.7880 C.3   1 <1>   0.1200 
 16 C        3.5800     1.5560    -1.3000 C.2   1 <1>   0.5690 
 17 C        4.9700     0.1390     0.2190 C.3   1 <1>   0.1200 
 18 C       -3.4980    -1.6990    -0.2330 C.ar  1 <1>   0.0830 
 19 C       -2.4560    -3.9130    -0.8750 C.3   1 <1>  -0.0960 
 20 C        2.7350     3.8800    -0.9390 C.3   1 <1>   0.0600 
 21 O        4.9930     1.2560     1.0590 O.3   1 <1>  -0.5600 
 22 O        3.8930     1.7930    -2.4440 O.2   1 <1>  -0.5700 
 23 O       -4.6060    -2.4110     0.0990 O.3   1 <1>  -0.3630 
 24 C       -5.7800    -1.7910     0.5680 C.3   1 <1>   0.1200 
 25 C       -6.8200    -2.8790     0.8200 C.3   1 <1>  -0.2400 
 26 H        0.5570     1.9330     0.9200 H     1 <1>   0.0800 
 27 H        1.3540     0.8410     1.9740 H     1 <1>   0.0800 
 28 H        2.8020    -1.0490     0.7120 H     1 <1>   0.0800 
 29 H        2.3090    -1.3910    -0.8950 H     1 <1>   0.0800 
 30 H       -0.4000    -2.2530    -1.4510 H     1 <1>   0.1500 
 31 H       -2.2180     1.4240    -0.3580 H     1 <1>   0.1500 
 32 H        2.4280     3.1000     1.4460 H     1 <1>   0.0800 
 33 H        4.1270    -0.4450    -1.6160 H     1 <1>   0.0800 
 34 H       -4.2490     0.2580     0.2650 H     1 <1>   0.1500 
 35 H        3.5230     0.6710     2.3060 H     1 <1>   0.0800 
 36 H        4.1350     2.2740     2.5350 H     1 <1>   0.0800 
 37 H        5.8950     0.1660    -0.3320 H     1 <1>   0.0800 
 38 H        4.9730    -0.7480     0.8270 H     1 <1>   0.0800 
 39 H       -1.5300    -4.3010    -1.2580 H     1 <1>   0.0800 
 40 H       -3.2470    -4.1790    -1.5530 H     1 <1>   0.0800 
 41 H       -2.6540    -4.3690     0.0780 H     1 <1>   0.0800 
 42 H        3.2750     4.6080    -0.3600 H     1 <1>   0.0800 
 43 H        1.6770     4.0530    -0.8420 H     1 <1>   0.0800 
 44 H        3.0030     3.9970    -1.9750 H     1 <1>   0.0800 
 45 H       -5.5490    -1.2680     1.4790 H     1 <1>   0.0800 
 46 H       -6.1250    -1.1020    -0.1840 H     1 <1>   0.0800 
 47 H       -6.4580    -3.5710     1.5600 H     1 <1>   0.0800 
 48 H       -7.0310    -3.4070    -0.0920 H     1 <1>   0.0800 
 49 H       -7.7310    -2.4360     1.1800 H     1 <1>   0.0800 
@<TRIPOS>BOND
  1   1   2  2   
  2   1   3  2   
  3   1   4  am  
  4   1   5  1   
  5   4   6  1   
  6   4   7  1   
  7   5   8  ar  
  8   5   9  ar  
  9   6  10  1   
 10   6  26  1   
 11   6  27  1   
 12   7  11  1   
 13   7  28  1   
 14   7  29  1   
 15   8  12  ar  
 16   8  30  1   
 17   9  13  ar  
 18   9  31  1   
 19  10  14  1   
 20  10  15  1   
 21  10  32  1   
 22  11  16  1   
 23  11  17  1   
 24  11  33  1   
 25  12  18  ar  
 26  12  19  1   
 27  13  18  ar  
 28  13  34  1   
 29  14  16  am  
 30  14  20  1   
 31  15  21  1   
 32  15  35  1   
 33  15  36  1   
 34  16  22  2   
 35  17  21  1   
 36  17  37  1   
 37  17  38  1   
 38  18  23  1   
 39  19  39  1   
 40  19  40  1   
 41  19  41  1   
 42  20  42  1   
 43  20  43  1   
 44  20  44  1   
 45  23  24  1   
 46  24  25  1   
 47  24  45  1   
 48  24  46  1   
 49  25  47  1   
 50  25  48  1   
 51  25  49  1   
@<TRIPOS>SUBSTRUCTURE
  1 ****   1 GROUP 4 **** **** 0

# MOE 2024.06 (io_trps.svl 2023.06)
