@<TRIPOS>MOLECULE
F1913-1020
28 29 1 0 0 
SMALL
USER_CHARGES


@<TRIPOS>ATOM
  1 O       -0.5950    -0.0160    -0.1220 O.2   1 <1>  -0.5700 
  2 C       -1.6410     0.5450    -0.2440 C.2   1 <1>   0.4480 
  3 C       -2.9030     0.0470     0.4340 C.3   1 <1>  -0.0990 
  4 C       -1.7820     1.8140    -1.0620 C.3   1 <1>  -0.0990 
  5 C       -3.5920     1.1800     1.2180 C.3   1 <1>  -0.1600 
  6 C       -2.4960     2.9140    -0.2530 C.3   1 <1>  -0.1600 
  7 C       -3.8300     2.4360     0.3550 C.3   1 <1>   0.2800 
  8 O       -4.6320     2.0670    -0.7360 O.3   1 <1>  -0.5600 
  9 C       -4.4880     3.5690     1.1840 C.3   1 <1>  -0.1600 
 10 C       -6.0140     2.1860    -0.5850 C.3   1 <1>   0.1200 
 11 C       -5.3410     4.4920     0.3050 C.3   1 <1>  -0.1600 
 12 C       -6.3910     3.6710    -0.4620 C.3   1 <1>  -0.1600 
 13 H       -2.6550    -0.7610     1.0970 H     1 <1>   0.0800 
 14 H       -3.5680    -0.3310    -0.3210 H     1 <1>   0.0800 
 15 H       -2.3470     1.5890    -1.9480 H     1 <1>   0.0800 
 16 H       -0.8080     2.1540    -1.3640 H     1 <1>   0.0800 
 17 H       -2.9670     1.4480     2.0510 H     1 <1>   0.0800 
 18 H       -4.5240     0.8250     1.6170 H     1 <1>   0.0800 
 19 H       -2.6730     3.7650    -0.8860 H     1 <1>   0.0800 
 20 H       -1.8430     3.2310     0.5400 H     1 <1>   0.0800 
 21 H       -3.7340     4.1390     1.6970 H     1 <1>   0.0800 
 22 H       -5.1190     3.1400     1.9420 H     1 <1>   0.0800 
 23 H       -6.3100     1.6360     0.2910 H     1 <1>   0.0800 
 24 H       -6.4830     1.7450    -1.4470 H     1 <1>   0.0800 
 25 H       -4.7010     4.9890    -0.4030 H     1 <1>   0.0800 
 26 H       -5.8220     5.2480     0.9020 H     1 <1>   0.0800 
 27 H       -7.3410     3.7360     0.0370 H     1 <1>   0.0800 
 28 H       -6.5180     4.0860    -1.4470 H     1 <1>   0.0800 
@<TRIPOS>BOND
  1   1   2  2   
  2   2   3  1   
  3   2   4  1   
  4   3   5  1   
  5   3  13  1   
  6   3  14  1   
  7   4   6  1   
  8   4  15  1   
  9   4  16  1   
 10   5   7  1   
 11   5  17  1   
 12   5  18  1   
 13   6   7  1   
 14   6  19  1   
 15   6  20  1   
 16   7   8  1   
 17   7   9  1   
 18   8  10  1   
 19   9  11  1   
 20   9  21  1   
 21   9  22  1   
 22  10  12  1   
 23  10  23  1   
 24  10  24  1   
 25  11  12  1   
 26  11  25  1   
 27  11  26  1   
 28  12  27  1   
 29  12  28  1   
@<TRIPOS>SUBSTRUCTURE
  1 ****   7 GROUP 4 **** **** 0

# MOE 2024.06 (io_trps.svl 2023.06)
