@<TRIPOS>MOLECULE
NONAME
44 47 1 0 0 
SMALL
USER_CHARGES


@<TRIPOS>ATOM
  1 O        0.1420     1.3200    -0.3880 O.2   1 <1>  -0.5700 
  2 C       -0.5750     2.2180    -0.0100 C.2   1 <1>   0.5770 
  3 N       -1.9300     2.0340     0.1360 N.am  1 <1>  -0.6600 
  4 C        0.0610     3.5780     0.2860 C.3   1 <1>   0.0530 
  5 C       -2.9120     3.1030     0.5100 C.3   1 <1>   0.1400 
  6 C       -2.5640     0.7060    -0.1050 C.3   1 <1>   0.1400 
  7 C        1.6160     3.6490     0.2730 C.3   1 <1>   0.0000 
  8 C        0.1470     3.9330     1.7960 C.3   1 <1>   0.0000 
  9 C       -3.9830     3.2760    -0.5840 C.3   1 <1>   0.1440 
 10 C       -3.6380     0.8260    -1.1940 C.3   1 <1>  -0.1600 
 11 C        1.5010     4.6170     1.4780 C.3   1 <1>   0.0000 
 12 C       -4.9630     4.3410    -0.1270 C.ar  1 <1>   0.1660 
 13 C       -4.6680     1.9210    -0.8610 C.3   1 <1>  -0.1600 
 14 C       -3.3890     3.9020    -1.8760 C.3   1 <1>  -0.1600 
 15 N       -5.8630     4.1930     0.8200 N.ar  1 <1>  -0.6200 
 16 C       -4.7920     5.5080    -0.8090 C.ar  1 <1>  -0.1430 
 17 C       -3.6780     5.4120    -1.8200 C.3   1 <1>  -0.0170 
 18 C       -6.6020     5.2700     1.0470 C.ar  1 <1>   0.4770 
 19 C       -5.6120     6.5620    -0.4910 C.ar  1 <1>   0.1600 
 20 N       -6.5310     6.4500     0.4450 N.ar  1 <1>  -0.6200 
 21 C       -7.6580     5.1390     2.1180 C.3   1 <1>  -0.0970 
 22 H       -0.3680     4.3780    -0.2940 H     1 <1>   0.0000 
 23 H       -2.4260     4.0460     0.6770 H     1 <1>   0.0800 
 24 H       -3.3940     2.8210     1.4310 H     1 <1>   0.0800 
 25 H       -3.0110     0.3630     0.8120 H     1 <1>   0.0800 
 26 H       -1.8290    -0.0210    -0.4050 H     1 <1>   0.0800 
 27 H        2.0240     4.1040    -0.6120 H     1 <1>   0.0000 
 28 H        2.1010     2.7270     0.5450 H     1 <1>   0.0000 
 29 H        0.2590     3.0680     2.4280 H     1 <1>   0.0000 
 30 H       -0.6130     4.6160     2.1320 H     1 <1>   0.0000 
 31 H       -4.1400    -0.1190    -1.2980 H     1 <1>   0.0800 
 32 H       -3.1560     1.0410    -2.1320 H     1 <1>   0.0800 
 33 H        1.3880     5.6450     1.1770 H     1 <1>   0.0000 
 34 H        2.2530     4.4680     2.2310 H     1 <1>   0.0000 
 35 H       -5.3780     2.0200    -1.6630 H     1 <1>   0.0800 
 36 H       -5.2160     1.6230     0.0170 H     1 <1>   0.0800 
 37 H       -3.8990     3.5000    -2.7340 H     1 <1>   0.0800 
 38 H       -2.3390     3.7010    -1.9900 H     1 <1>   0.0800 
 39 H       -3.9780     5.7930    -2.7810 H     1 <1>   0.0800 
 40 H       -2.8170     5.9520    -1.4650 H     1 <1>   0.0800 
 41 H       -5.5170     7.5040    -1.0030 H     1 <1>   0.1500 
 42 H       -7.4010     4.3500     2.8000 H     1 <1>   0.0800 
 43 H       -8.6010     4.9150     1.6580 H     1 <1>   0.0800 
 44 H       -7.7410     6.0600     2.6640 H     1 <1>   0.0800 
@<TRIPOS>BOND
  1   1   2  2   
  2   2   3  am  
  3   2   4  1   
  4   3   5  1   
  5   3   6  1   
  6   4   7  1   
  7   4   8  1   
  8   4  22  1   
  9   5   9  1   
 10   5  23  1   
 11   5  24  1   
 12   6  10  1   
 13   6  25  1   
 14   6  26  1   
 15   7  11  1   
 16   7  27  1   
 17   7  28  1   
 18   8  11  1   
 19   8  29  1   
 20   8  30  1   
 21   9  12  1   
 22   9  13  1   
 23   9  14  1   
 24  10  13  1   
 25  10  31  1   
 26  10  32  1   
 27  11  33  1   
 28  11  34  1   
 29  12  15  ar  
 30  12  16  ar  
 31  13  35  1   
 32  13  36  1   
 33  14  17  1   
 34  14  37  1   
 35  14  38  1   
 36  15  18  ar  
 37  16  17  1   
 38  16  19  ar  
 39  17  39  1   
 40  17  40  1   
 41  18  20  ar  
 42  18  21  1   
 43  19  20  ar  
 44  19  41  1   
 45  21  42  1   
 46  21  43  1   
 47  21  44  1   
@<TRIPOS>SUBSTRUCTURE
  1 ****   5 GROUP 4 **** **** 0

# MOE 2024.06 (io_trps.svl 2023.06)
