@<TRIPOS>MOLECULE
NONAME
56 58 1 0 0 
SMALL
USER_CHARGES


@<TRIPOS>ATOM
  1 O       -0.3530    -2.4250    -1.3380 O.3   1 <1>  -0.5600 
  2 C       -1.1820    -1.4400    -0.7850 C.3   1 <1>   0.2640 
  3 C        0.8470    -1.9560    -1.8640 C.3   1 <1>   0.1200 
  4 C       -2.4690    -2.0730    -0.2640 C.ar  1 <1>  -0.1440 
  5 C        1.8830    -1.8510    -0.7460 C.3   1 <1>  -0.2400 
  6 C       -3.6300    -1.3110    -0.1770 C.ar  1 <1>   0.0830 
  7 C       -2.4960    -3.4020     0.1320 C.ar  1 <1>  -0.1500 
  8 O       -3.5570    -0.0070    -0.5540 O.3   1 <1>  -0.3630 
  9 C       -4.8050    -1.8960     0.2890 C.ar  1 <1>  -0.1500 
 10 C       -3.6680    -3.9890     0.5810 C.ar  1 <1>  -0.1430 
 11 C       -4.6700     0.8570    -0.4740 C.3   1 <1>   0.0400 
 12 C       -4.8230    -3.2270     0.6620 C.ar  1 <1>  -0.1500 
 13 C       -3.6870    -5.4570     0.9560 C.3   1 <1>   0.4860 
 14 N       -3.4270    -6.2590    -0.2710 N.4   1 <1>  -0.9590 
 15 C       -4.5230    -6.0720    -1.2740 C.3   1 <1>   0.3430 
 16 C       -3.3880    -7.7170     0.0550 C.3   1 <1>   0.3430 
 17 C       -5.4970    -7.2270    -1.0360 C.3   1 <1>   0.2000 
 18 C       -4.5570    -8.3810    -0.6860 C.3   1 <1>  -0.0800 
 19 O       -6.2980    -6.9120     0.0600 O.3   1 <1>  -0.6800 
 20 C       -5.1800    -9.5440     0.1100 C.3   1 <1>   0.0210 
 21 C       -4.1620   -10.6390     0.3640 C.2   1 <1>   0.1080 
 22 N       -3.0750   -10.4480     1.0480 N.2   1 <1>  -0.7070 
 23 C       -4.2740   -11.9480    -0.0920 C.2   1 <1>  -0.1500 
 24 N       -2.4640   -11.6520     1.0570 N.pl3 1 <1>   0.3000 
 25 C       -3.1690   -12.5710     0.3670 C.2   1 <1>  -0.3320 
 26 C       -2.7410   -14.0170     0.1930 C.3   1 <1>  -0.0600 
 27 H       -0.6640    -0.9550     0.0240 H     1 <1>   0.0800 
 28 H       -1.4030    -0.7190    -1.5530 H     1 <1>   0.0800 
 29 H        1.1750    -2.6730    -2.5970 H     1 <1>   0.0800 
 30 H        0.6880    -1.0100    -2.3550 H     1 <1>   0.0800 
 31 H        1.9870    -2.7990    -0.2500 H     1 <1>   0.0800 
 32 H        1.6060    -1.0980    -0.0320 H     1 <1>   0.0800 
 33 H        2.8350    -1.5810    -1.1650 H     1 <1>   0.0800 
 34 H       -1.5870    -3.9760     0.0820 H     1 <1>   0.1500 
 35 H       -5.7140    -1.3300     0.3670 H     1 <1>   0.1500 
 36 H       -4.3630     1.8290    -0.8160 H     1 <1>   0.0800 
 37 H       -4.9940     0.9160     0.5490 H     1 <1>   0.0800 
 38 H       -5.4530     0.4790    -1.1080 H     1 <1>   0.0800 
 39 H       -5.7450    -3.6620     1.0140 H     1 <1>   0.1500 
 40 H       -4.6460    -5.7180     1.3740 H     1 <1>   0.0800 
 41 H       -2.9260    -5.6480     1.6940 H     1 <1>   0.0800 
 42 H       -2.5370    -5.9300    -0.6670 H     1 <1>   0.4500 
 43 H       -5.0130    -5.1170    -1.1780 H     1 <1>   0.0800 
 44 H       -4.1140    -6.1560    -2.2670 H     1 <1>   0.0800 
 45 H       -2.4550    -8.1650    -0.2460 H     1 <1>   0.0800 
 46 H       -3.5060    -7.8670     1.1170 H     1 <1>   0.0800 
 47 H       -6.1270    -7.4180    -1.8890 H     1 <1>   0.0800 
 48 H       -4.1620    -8.7820    -1.6030 H     1 <1>   0.0800 
 49 H       -7.0710    -7.5120     0.1190 H     1 <1>   0.4000 
 50 H       -6.0110    -9.9560    -0.4350 H     1 <1>   0.0800 
 51 H       -5.5410    -9.2030     1.0640 H     1 <1>   0.0800 
 52 H       -5.0770   -12.3570    -0.6790 H     1 <1>   0.1500 
 53 H       -1.5740   -11.8190     1.5440 H     1 <1>   0.2700 
 54 H       -3.4690   -14.5520    -0.3910 H     1 <1>   0.0800 
 55 H       -2.6540   -14.4980     1.1520 H     1 <1>   0.0800 
 56 H       -1.7930   -14.0690    -0.3130 H     1 <1>   0.0800 
@<TRIPOS>BOND
  1   1   2  1   
  2   1   3  1   
  3   2   4  1   
  4   2  27  1   
  5   2  28  1   
  6   3   5  1   
  7   3  29  1   
  8   3  30  1   
  9   4   6  ar  
 10   4   7  ar  
 11   5  31  1   
 12   5  32  1   
 13   5  33  1   
 14   6   8  1   
 15   6   9  ar  
 16   7  10  ar  
 17   7  34  1   
 18   8  11  1   
 19   9  12  ar  
 20   9  35  1   
 21  10  12  ar  
 22  10  13  1   
 23  11  36  1   
 24  11  37  1   
 25  11  38  1   
 26  12  39  1   
 27  13  14  1   
 28  13  40  1   
 29  13  41  1   
 30  14  15  1   
 31  14  16  1   
 32  14  42  1   
 33  15  17  1   
 34  15  43  1   
 35  15  44  1   
 36  16  18  1   
 37  16  45  1   
 38  16  46  1   
 39  17  18  1   
 40  17  19  1   
 41  17  47  1   
 42  18  20  1   
 43  18  48  1   
 44  19  49  1   
 45  20  21  1   
 46  20  50  1   
 47  20  51  1   
 48  21  22  2   
 49  21  23  1   
 50  22  24  1   
 51  23  25  2   
 52  23  52  1   
 53  24  25  1   
 54  24  53  1   
 55  25  26  1   
 56  26  54  1   
 57  26  55  1   
 58  26  56  1   
@<TRIPOS>SUBSTRUCTURE
  1 ****  14 GROUP 4 **** **** 0

# MOE 2024.06 (io_trps.svl 2023.06)
