@<TRIPOS>MOLECULE
NONAME
50 52 1 0 0 
SMALL
USER_CHARGES


@<TRIPOS>ATOM
  1 F       -3.0160    -0.6350    -2.4750 F     1 <1>  -0.1900 
  2 C       -3.1130    -1.1490    -1.2790 C.ar  1 <1>   0.1900 
  3 C       -3.2980    -2.5110    -1.1520 C.ar  1 <1>  -0.1500 
  4 C       -3.0270    -0.3090    -0.1850 C.ar  1 <1>  -0.1500 
  5 C       -3.4030    -3.0560     0.1170 C.ar  1 <1>   0.0830 
  6 C       -3.1290    -0.8580     1.0820 C.ar  1 <1>  -0.1500 
  7 O       -3.5900    -4.3970     0.1880 O.3   1 <1>  -0.3630 
  8 C       -3.3150    -2.2240     1.2340 C.ar  1 <1>  -0.1500 
  9 C       -3.7790    -5.0510     1.4340 C.3   1 <1>   0.1810 
 10 C       -4.0370    -6.5450     1.2420 C.2   1 <1>   0.5690 
 11 O       -3.3610    -7.3110     1.8890 O.2   1 <1>  -0.5700 
 12 N       -5.0180    -7.0240     0.4020 N.am  1 <1>  -0.6600 
 13 C       -5.1130    -8.4790     0.0940 C.3   1 <1>   0.1400 
 14 C       -6.0620    -6.1860    -0.2540 C.3   1 <1>   0.1400 
 15 C       -6.5010    -9.0180     0.5030 C.3   1 <1>   0.4230 
 16 C       -7.4420    -6.7070     0.1660 C.3   1 <1>  -0.1600 
 17 N       -6.6390   -10.5300     0.3660 N.4   1 <1>  -0.9590 
 18 C       -7.6640    -8.2140    -0.1530 C.3   1 <1>   0.0000 
 19 C       -8.0570   -11.0170     0.3460 C.3   1 <1>   0.3430 
 20 C       -5.8730   -11.1480    -0.7670 C.3   1 <1>   0.2630 
 21 C       -9.0160    -8.6620     0.4760 C.3   1 <1>  -0.1600 
 22 C       -7.6760    -8.4430    -1.6920 C.3   1 <1>   0.1200 
 23 C       -8.9740   -10.0650     1.1120 C.3   1 <1>  -0.1600 
 24 O       -8.5590    -7.5890    -2.3300 O.3   1 <1>  -0.6800 
 25 H       -3.3590    -3.1360    -2.0230 H     1 <1>   0.1500 
 26 H       -2.8820     0.7470    -0.3270 H     1 <1>   0.1500 
 27 H       -3.0620    -0.2220     1.9490 H     1 <1>   0.1500 
 28 H       -3.3860    -2.6170     2.2310 H     1 <1>   0.1500 
 29 H       -2.8880    -4.9160     2.0200 H     1 <1>   0.0800 
 30 H       -4.6170    -4.6030     1.9340 H     1 <1>   0.0800 
 31 H       -4.9380    -8.6090    -0.9580 H     1 <1>   0.0800 
 32 H       -4.3530    -9.0220     0.6280 H     1 <1>   0.0800 
 33 H       -5.9740    -5.1540     0.0380 H     1 <1>   0.0800 
 34 H       -5.9450    -6.2320    -1.3240 H     1 <1>   0.0800 
 35 H       -6.5770    -8.8060     1.5570 H     1 <1>   0.0800 
 36 H       -7.5400    -6.5370     1.2250 H     1 <1>   0.0800 
 37 H       -8.1960    -6.1040    -0.3100 H     1 <1>   0.0800 
 38 H       -6.2260   -10.9020     1.2340 H     1 <1>   0.4500 
 39 H       -8.4060   -11.0830    -0.6710 H     1 <1>   0.0800 
 40 H       -8.1110   -12.0040     0.7790 H     1 <1>   0.0800 
 41 H       -6.2220   -10.7690    -1.7130 H     1 <1>   0.0800 
 42 H       -5.9970   -12.2190    -0.7610 H     1 <1>   0.0800 
 43 H       -4.8200   -10.9320    -0.6760 H     1 <1>   0.0800 
 44 H       -9.3240    -7.9730     1.2450 H     1 <1>   0.0800 
 45 H       -9.7940    -8.6400    -0.2670 H     1 <1>   0.0800 
 46 H       -7.9660    -9.4480    -1.9410 H     1 <1>   0.0800 
 47 H       -6.7100    -8.2530    -2.1240 H     1 <1>   0.0800 
 48 H       -9.9700   -10.4730     1.1310 H     1 <1>   0.0800 
 49 H       -8.6410   -10.0010     2.1340 H     1 <1>   0.0800 
 50 H       -9.4870    -7.7460    -2.0650 H     1 <1>   0.4000 
@<TRIPOS>BOND
  1   1   2  1   
  2   2   3  ar  
  3   2   4  ar  
  4   3   5  ar  
  5   3  25  1   
  6   4   6  ar  
  7   4  26  1   
  8   5   7  1   
  9   5   8  ar  
 10   6   8  ar  
 11   6  27  1   
 12   7   9  1   
 13   8  28  1   
 14   9  10  1   
 15   9  29  1   
 16   9  30  1   
 17  10  11  2   
 18  10  12  am  
 19  12  13  1   
 20  12  14  1   
 21  13  15  1   
 22  13  31  1   
 23  13  32  1   
 24  14  16  1   
 25  14  33  1   
 26  14  34  1   
 27  15  17  1   
 28  15  18  1   
 29  15  35  1   
 30  16  18  1   
 31  16  36  1   
 32  16  37  1   
 33  17  19  1   
 34  17  20  1   
 35  17  38  1   
 36  18  21  1   
 37  18  22  1   
 38  19  23  1   
 39  19  39  1   
 40  19  40  1   
 41  20  41  1   
 42  20  42  1   
 43  20  43  1   
 44  21  23  1   
 45  21  44  1   
 46  21  45  1   
 47  22  24  1   
 48  22  46  1   
 49  22  47  1   
 50  23  48  1   
 51  23  49  1   
 52  24  50  1   
@<TRIPOS>SUBSTRUCTURE
  1 ****  14 GROUP 4 **** **** 0

# MOE 2024.06 (io_trps.svl 2023.06)
