@<TRIPOS>MOLECULE
NONAME
55 59 1 0 0 
SMALL
USER_CHARGES


@<TRIPOS>ATOM
  1 O       -1.9560     1.2860    -2.8840 O.2   1 <1>  -0.5700 
  2 C       -2.9260     1.4970    -2.1650 C.2   1 <1>   0.4690 
  3 C       -2.7930     1.9930    -0.8240 C.ar  1 <1>   0.0860 
  4 C       -4.2260     1.2350    -2.6470 C.2   1 <1>  -0.1360 
  5 C       -3.9550     2.2560    -0.0700 C.ar  1 <1>   0.1000 
  6 C       -1.5350     2.2020    -0.2470 C.ar  1 <1>  -0.1500 
  7 C       -5.3360     1.5200    -1.9250 C.2   1 <1>  -0.0380 
  8 N       -5.2270     2.1010    -0.6690 N.pl3 1 <1>  -0.5690 
  9 C       -3.7860     2.6580     1.2630 C.ar  1 <1>  -0.1500 
 10 C       -1.4030     2.6280     1.0540 C.ar  1 <1>  -0.1500 
 11 C       -6.7030     1.1820    -2.5010 C.3   1 <1>  -0.1020 
 12 C       -6.4460     2.6980     0.0060 C.3   1 <1>   0.2700 
 13 C       -2.5390     2.8480     1.8150 C.ar  1 <1>  -0.1500 
 14 C       -7.2290     1.7310     0.9140 C.2   1 <1>   0.5690 
 15 O       -6.7100     1.4240     1.9640 O.2   1 <1>  -0.5700 
 16 N       -8.4890     1.2580     0.5990 N.am  1 <1>  -0.6600 
 17 C       -9.4180     1.8000    -0.4470 C.3   1 <1>   0.1400 
 18 C       -9.0850     0.1260     1.3710 C.3   1 <1>   0.1400 
 19 C      -10.7420     2.2830     0.1800 C.3   1 <1>   0.1430 
 20 C      -10.3990     0.5660     2.0270 C.3   1 <1>  -0.1600 
 21 C      -11.6460     2.7720    -0.9360 C.ar  1 <1>   0.1670 
 22 C      -11.3830     1.1390     0.9930 C.3   1 <1>  -0.1600 
 23 C      -10.5420     3.5620     1.0400 C.3   1 <1>  -0.1600 
 24 N      -12.2330     2.0080    -1.8270 N.ar  1 <1>  -0.6200 
 25 C      -11.7690     4.1310    -0.9280 C.ar  1 <1>  -0.1430 
 26 C      -10.9690     4.7660     0.1810 C.3   1 <1>  -0.0170 
 27 C      -12.9640     2.6720    -2.7100 C.ar  1 <1>   0.7200 
 28 C      -12.5610     4.7080    -1.8910 C.ar  1 <1>   0.1600 
 29 N      -13.1750     3.9780    -2.7950 N.ar  1 <1>  -0.6200 
 30 N      -13.5900     1.9270    -3.6210 N.pl3 1 <1>  -0.9000 
 31 H       -4.2760     0.7940    -3.6230 H     1 <1>   0.1500 
 32 H       -0.6550     2.0160    -0.8390 H     1 <1>   0.1500 
 33 H       -4.6340     2.8170     1.9010 H     1 <1>   0.1500 
 34 H       -0.4290     2.7820     1.4840 H     1 <1>   0.1500 
 35 H       -7.2320     0.5330    -1.8290 H     1 <1>   0.0800 
 36 H       -6.6010     0.6650    -3.4390 H     1 <1>   0.0800 
 37 H       -7.2740     2.0730    -2.6820 H     1 <1>   0.0800 
 38 H       -7.0800     3.1160    -0.7430 H     1 <1>   0.0800 
 39 H       -6.1420     3.5340     0.6060 H     1 <1>   0.0800 
 40 H       -2.4420     3.1620     2.8400 H     1 <1>   0.1500 
 41 H       -9.6350     1.0170    -1.1540 H     1 <1>   0.0800 
 42 H       -8.9810     2.6140    -0.9910 H     1 <1>   0.0800 
 43 H       -8.4050    -0.2250     2.1290 H     1 <1>   0.0800 
 44 H       -9.2720    -0.6930     0.6980 H     1 <1>   0.0800 
 45 H      -10.1800     1.2990     2.7840 H     1 <1>   0.0800 
 46 H      -10.8460    -0.2810     2.5170 H     1 <1>   0.0800 
 47 H      -11.6720     0.3510     0.3180 H     1 <1>   0.0800 
 48 H      -12.2770     1.4850     1.4820 H     1 <1>   0.0800 
 49 H       -9.5330     3.6670     1.3970 H     1 <1>   0.0800 
 50 H      -11.1910     3.5220     1.8980 H     1 <1>   0.0800 
 51 H      -10.1100     5.2660    -0.2310 H     1 <1>   0.0800 
 52 H      -11.5610     5.4630     0.7480 H     1 <1>   0.0800 
 53 H      -12.6920     5.7760    -1.9210 H     1 <1>   0.1500 
 54 H      -14.3680     2.3840    -4.0870 H     1 <1>   0.4000 
 55 H      -13.7170     0.9520    -3.3690 H     1 <1>   0.4000 
@<TRIPOS>BOND
  1   1   2  2   
  2   2   3  1   
  3   2   4  1   
  4   3   5  ar  
  5   3   6  ar  
  6   4   7  2   
  7   4  31  1   
  8   5   8  1   
  9   5   9  ar  
 10   6  10  ar  
 11   6  32  1   
 12   7   8  1   
 13   7  11  1   
 14   8  12  1   
 15   9  13  ar  
 16   9  33  1   
 17  10  13  ar  
 18  10  34  1   
 19  11  35  1   
 20  11  36  1   
 21  11  37  1   
 22  12  14  1   
 23  12  38  1   
 24  12  39  1   
 25  13  40  1   
 26  14  15  2   
 27  14  16  am  
 28  16  17  1   
 29  16  18  1   
 30  17  19  1   
 31  17  41  1   
 32  17  42  1   
 33  18  20  1   
 34  18  43  1   
 35  18  44  1   
 36  19  21  1   
 37  19  22  1   
 38  19  23  1   
 39  20  22  1   
 40  20  45  1   
 41  20  46  1   
 42  21  24  ar  
 43  21  25  ar  
 44  22  47  1   
 45  22  48  1   
 46  23  26  1   
 47  23  49  1   
 48  23  50  1   
 49  24  27  ar  
 50  25  26  1   
 51  25  28  ar  
 52  26  51  1   
 53  26  52  1   
 54  27  29  ar  
 55  27  30  1   
 56  28  29  ar  
 57  28  53  1   
 58  30  54  1   
 59  30  55  1   
@<TRIPOS>SUBSTRUCTURE
  1 ****  12 GROUP 4 **** **** 0

# MOE 2024.06 (io_trps.svl 2023.06)
