@<TRIPOS>MOLECULE
NONAME
47 49 1 0 0 
SMALL
USER_CHARGES


@<TRIPOS>ATOM
  1 F        0.5260    -0.8680     0.4720 F     1 <1>  -0.1900 
  2 C        0.3600    -2.1560     0.6340 C.ar  1 <1>   0.1900 
  3 C        1.0040    -3.0910    -0.1840 C.ar  1 <1>   0.0820 
  4 C       -0.4910    -2.5430     1.6520 C.ar  1 <1>  -0.1500 
  5 O        1.8590    -2.8380    -1.2130 O.3   1 <1>  -0.3630 
  6 C        0.7570    -4.4340     0.0560 C.ar  1 <1>  -0.1500 
  7 C       -0.7250    -3.8900     1.8690 C.ar  1 <1>  -0.1500 
  8 C        2.3650    -1.5490    -1.4880 C.3   1 <1>   0.0400 
  9 C       -0.1060    -4.8400     1.0650 C.ar  1 <1>  -0.1430 
 10 C       -0.3650    -6.3190     1.2700 C.3   1 <1>   0.4870 
 11 N       -1.2380    -6.7780     0.1600 N.4   1 <1>  -0.9590 
 12 C       -1.2420    -8.2730     0.0550 C.3   1 <1>   0.5660 
 13 C       -2.6280    -6.2230     0.2590 C.3   1 <1>   0.3430 
 14 C        0.1650    -8.7130    -0.3270 C.ar  1 <1>  -0.1430 
 15 C       -2.2940    -8.8190    -0.9480 C.3   1 <1>   0.2000 
 16 C       -3.5420    -6.8040    -0.8330 C.3   1 <1>   0.1200 
 17 C        0.8490    -9.5830     0.5110 C.ar  1 <1>  -0.1500 
 18 C        0.7840    -8.2580    -1.4870 C.ar  1 <1>  -0.1500 
 19 O       -3.5450    -8.1990    -0.7620 O.3   1 <1>  -0.5600 
 20 C       -2.4700   -10.3360    -0.7650 C.3   1 <1>   0.1200 
 21 C        2.1370    -9.9820     0.2030 C.ar  1 <1>  -0.1500 
 22 C        2.0730    -8.6590    -1.7910 C.ar  1 <1>  -0.1500 
 23 O       -2.6090   -10.6440     0.5870 O.3   1 <1>  -0.6800 
 24 C        2.7510    -9.5180    -0.9460 C.ar  1 <1>  -0.1500 
 25 H       -0.9620    -1.7930     2.2640 H     1 <1>   0.1500 
 26 H        1.2650    -5.1530    -0.5640 H     1 <1>   0.1500 
 27 H       -1.3870    -4.1820     2.6670 H     1 <1>   0.1500 
 28 H        3.0870    -1.6340    -2.2800 H     1 <1>   0.0800 
 29 H        2.8380    -1.1600    -0.6040 H     1 <1>   0.0800 
 30 H        1.5550    -0.9140    -1.8030 H     1 <1>   0.0800 
 31 H       -0.8370    -6.4940     2.2230 H     1 <1>   0.0800 
 32 H        0.5770    -6.8440     1.2510 H     1 <1>   0.0800 
 33 H       -0.8080    -6.4260    -0.6990 H     1 <1>   0.4500 
 34 H       -1.4790    -8.6860     1.0220 H     1 <1>   0.0800 
 35 H       -3.0520    -6.4650     1.2190 H     1 <1>   0.0800 
 36 H       -2.6010    -5.1490     0.1680 H     1 <1>   0.0800 
 37 H       -1.9860    -8.6260    -1.9600 H     1 <1>   0.0800 
 38 H       -3.2240    -6.5020    -1.8160 H     1 <1>   0.0800 
 39 H       -4.5550    -6.4690    -0.6830 H     1 <1>   0.0800 
 40 H        0.3880    -9.9640     1.4080 H     1 <1>   0.1500 
 41 H        0.2850    -7.5960    -2.1720 H     1 <1>   0.1500 
 42 H       -1.6090   -10.8650    -1.1370 H     1 <1>   0.0800 
 43 H       -3.3470   -10.6740    -1.2920 H     1 <1>   0.0800 
 44 H        2.6660   -10.6570     0.8560 H     1 <1>   0.1500 
 45 H        2.5550    -8.3060    -2.6880 H     1 <1>   0.1500 
 46 H       -2.9610   -11.5530     0.6980 H     1 <1>   0.4000 
 47 H        3.7540    -9.8300    -1.1840 H     1 <1>   0.1500 
@<TRIPOS>BOND
  1   1   2  1   
  2   2   3  ar  
  3   2   4  ar  
  4   3   5  1   
  5   3   6  ar  
  6   4   7  ar  
  7   4  25  1   
  8   5   8  1   
  9   6   9  ar  
 10   6  26  1   
 11   7   9  ar  
 12   7  27  1   
 13   8  28  1   
 14   8  29  1   
 15   8  30  1   
 16   9  10  1   
 17  10  11  1   
 18  10  31  1   
 19  10  32  1   
 20  11  12  1   
 21  11  13  1   
 22  11  33  1   
 23  12  14  1   
 24  12  15  1   
 25  12  34  1   
 26  13  16  1   
 27  13  35  1   
 28  13  36  1   
 29  14  17  ar  
 30  14  18  ar  
 31  15  19  1   
 32  15  20  1   
 33  15  37  1   
 34  16  19  1   
 35  16  38  1   
 36  16  39  1   
 37  17  21  ar  
 38  17  40  1   
 39  18  22  ar  
 40  18  41  1   
 41  20  23  1   
 42  20  42  1   
 43  20  43  1   
 44  21  24  ar  
 45  21  44  1   
 46  22  24  ar  
 47  22  45  1   
 48  23  46  1   
 49  24  47  1   
@<TRIPOS>SUBSTRUCTURE
  1 ****  11 GROUP 4 **** **** 0

# MOE 2024.06 (io_trps.svl 2023.06)
