@<TRIPOS>MOLECULE
NONAME
50 52 1 0 0 
SMALL
USER_CHARGES


@<TRIPOS>ATOM
  1 S        0.3100     0.6190     0.5640 S.o2  1 <1>   1.4470 
  2 O        0.3280     1.7550    -0.3230 O.2   1 <1>  -0.6500 
  3 O       -0.9160     0.0580     1.0740 O.2   1 <1>  -0.6500 
  4 N        1.1850     1.0810     1.9050 N.am  1 <1>  -0.9780 
  5 C        1.3360    -0.7090    -0.1260 C.ar  1 <1>  -0.0090 
  6 C        1.2900    -1.9920     0.4000 C.ar  1 <1>  -0.1500 
  7 C        2.2120    -0.4710    -1.1800 C.ar  1 <1>  -0.1500 
  8 C        2.0810    -3.0360    -0.0800 C.ar  1 <1>   0.0860 
  9 C        3.0170    -1.4790    -1.6740 C.ar  1 <1>  -0.1500 
 10 C        2.9710    -2.7480    -1.1230 C.ar  1 <1>   0.0830 
 11 C        1.9500    -4.3490     0.5090 C.2   1 <1>   0.5440 
 12 O        3.8010    -3.6720    -1.6460 O.3   1 <1>  -0.3630 
 13 O        2.2330    -4.4860     1.6850 O.2   1 <1>  -0.5700 
 14 N        1.4980    -5.4290    -0.2120 N.am  1 <1>  -0.6600 
 15 C        4.8170    -4.2150    -0.8250 C.3   1 <1>   0.0400 
 16 C        1.5920    -6.8110     0.3710 C.3   1 <1>   0.3640 
 17 C        0.8170    -5.2510    -1.5320 C.3   1 <1>   0.1400 
 18 C        3.0130    -7.3480     0.1700 C.ar  1 <1>  -0.1430 
 19 C        0.5510    -7.8340    -0.1750 C.3   1 <1>   0.2000 
 20 C        0.1710    -6.5320    -2.0780 C.3   1 <1>   0.1200 
 21 C        3.7270    -7.8050     1.2690 C.ar  1 <1>  -0.1500 
 22 C        3.6120    -7.3940    -1.0830 C.ar  1 <1>  -0.1500 
 23 O       -0.3970    -7.2620    -1.0390 O.3   1 <1>  -0.5600 
 24 C       -0.2280    -8.5270     0.9510 C.3   1 <1>   0.1200 
 25 C        5.0090    -8.3030     1.1200 C.ar  1 <1>  -0.1500 
 26 C        4.8930    -7.8940    -1.2350 C.ar  1 <1>  -0.1500 
 27 O        0.6340    -9.2210     1.7970 O.3   1 <1>  -0.6800 
 28 C        5.5940    -8.3500    -0.1330 C.ar  1 <1>  -0.1500 
 29 H        2.0960     1.3900     1.5870 H     1 <1>   0.4200 
 30 H        1.2740     0.2710     2.5100 H     1 <1>   0.4200 
 31 H        0.6130    -2.2070     1.2110 H     1 <1>   0.1500 
 32 H        2.2630     0.5130    -1.6200 H     1 <1>   0.1500 
 33 H        3.6920    -1.2860    -2.4900 H     1 <1>   0.1500 
 34 H        5.4820    -4.7870    -1.4460 H     1 <1>   0.0800 
 35 H        4.3840    -4.8590    -0.0810 H     1 <1>   0.0800 
 36 H        5.3550    -3.4110    -0.3540 H     1 <1>   0.0800 
 37 H        1.4250    -6.7290     1.4310 H     1 <1>   0.0800 
 38 H        0.0460    -4.5080    -1.4210 H     1 <1>   0.0800 
 39 H        1.5230    -4.8830    -2.2550 H     1 <1>   0.0800 
 40 H        1.0620    -8.5940    -0.7400 H     1 <1>   0.0800 
 41 H        0.8920    -7.1480    -2.5850 H     1 <1>   0.0800 
 42 H       -0.6100    -6.2820    -2.7740 H     1 <1>   0.0800 
 43 H        3.2840    -7.7720     2.2510 H     1 <1>   0.1500 
 44 H        3.0880    -7.0350    -1.9480 H     1 <1>   0.1500 
 45 H       -0.9340    -9.2290     0.5430 H     1 <1>   0.0800 
 46 H       -0.7510    -7.7960     1.5440 H     1 <1>   0.0800 
 47 H        5.5510    -8.6530     1.9810 H     1 <1>   0.1500 
 48 H        5.3470    -7.9250    -2.2100 H     1 <1>   0.1500 
 49 H        1.0820    -9.9500     1.3220 H     1 <1>   0.4000 
 50 H        6.5910    -8.7380    -0.2480 H     1 <1>   0.1500 
@<TRIPOS>BOND
  1   1   2  2   
  2   1   3  2   
  3   1   4  am  
  4   1   5  1   
  5   4  29  1   
  6   4  30  1   
  7   5   6  ar  
  8   5   7  ar  
  9   6   8  ar  
 10   6  31  1   
 11   7   9  ar  
 12   7  32  1   
 13   8  10  ar  
 14   8  11  1   
 15   9  10  ar  
 16   9  33  1   
 17  10  12  1   
 18  11  13  2   
 19  11  14  am  
 20  12  15  1   
 21  14  16  1   
 22  14  17  1   
 23  15  34  1   
 24  15  35  1   
 25  15  36  1   
 26  16  18  1   
 27  16  19  1   
 28  16  37  1   
 29  17  20  1   
 30  17  38  1   
 31  17  39  1   
 32  18  21  ar  
 33  18  22  ar  
 34  19  23  1   
 35  19  24  1   
 36  19  40  1   
 37  20  23  1   
 38  20  41  1   
 39  20  42  1   
 40  21  25  ar  
 41  21  43  1   
 42  22  26  ar  
 43  22  44  1   
 44  24  27  1   
 45  24  45  1   
 46  24  46  1   
 47  25  28  ar  
 48  25  47  1   
 49  26  28  ar  
 50  26  48  1   
 51  27  49  1   
 52  28  50  1   
@<TRIPOS>SUBSTRUCTURE
  1 ****  11 GROUP 4 **** **** 0

# MOE 2024.06 (io_trps.svl 2023.06)
