@<TRIPOS>MOLECULE
NONAME
39 40 1 0 0 
SMALL
USER_CHARGES


@<TRIPOS>ATOM
  1 CL       5.1820     1.6280    -3.4150 Cl    1 <1>  -0.1770 
  2 C        4.2940     2.0420    -1.9710 C.ar  1 <1>   0.1770 
  3 C        4.3140     3.3460    -1.5160 C.ar  1 <1>  -0.1500 
  4 C        3.5860     1.0590    -1.3070 C.ar  1 <1>  -0.1500 
  5 C        3.6110     3.6800    -0.3700 C.ar  1 <1>   0.0830 
  6 C        2.8830     1.3900    -0.1610 C.ar  1 <1>  -0.1500 
  7 O        3.6710     4.9750     0.0250 O.3   1 <1>  -0.3630 
  8 C        2.8940     2.6940     0.3080 C.ar  1 <1>  -0.1500 
  9 C        2.9730     5.4260     1.1810 C.3   1 <1>   0.1810 
 10 C        3.1980     6.9130     1.4190 C.2   1 <1>   0.5690 
 11 O        2.6910     7.4120     2.3950 O.2   1 <1>  -0.5700 
 12 N        3.9680     7.6020     0.5220 N.am  1 <1>  -0.4940 
 13 C        4.4340     8.9400     0.4800 C.2   1 <1>  -0.0880 
 14 N        3.8290    10.0610     0.9680 N.pl3 1 <1>   0.3140 
 15 C        5.5890     9.3560    -0.0950 C.2   1 <1>  -0.1810 
 16 N        4.5640    11.1650     0.7180 N.2   1 <1>  -0.7070 
 17 C        2.5150    10.2010     1.6090 C.3   1 <1>   0.0160 
 18 C        5.6110    10.7360     0.0880 C.2   1 <1>   0.1080 
 19 C        6.6520     8.5240    -0.7920 C.3   1 <1>  -0.0590 
 20 C        6.7060    11.6780    -0.3790 C.3   1 <1>   0.0210 
 21 C        6.4420    12.1690    -1.8070 C.3   1 <1>  -0.2400 
 22 H        4.8710     4.0930    -2.0500 H     1 <1>   0.1500 
 23 H        3.5880     0.0510    -1.6840 H     1 <1>   0.1500 
 24 H        2.3270     0.6310     0.3650 H     1 <1>   0.1500 
 25 H        2.3380     2.9160     1.1990 H     1 <1>   0.1500 
 26 H        3.3320     4.8760     2.0320 H     1 <1>   0.0800 
 27 H        1.9240     5.2450     1.0390 H     1 <1>   0.0800 
 28 H        4.3550     6.9990    -0.2070 H     1 <1>   0.3700 
 29 H        1.8160     9.5360     1.1390 H     1 <1>   0.0800 
 30 H        2.1780    11.2140     1.5030 H     1 <1>   0.0800 
 31 H        2.6090     9.9600     2.6510 H     1 <1>   0.0800 
 32 H        6.3960     7.4820    -0.7770 H     1 <1>   0.0800 
 33 H        7.5960     8.6500    -0.2940 H     1 <1>   0.0800 
 34 H        6.7520     8.8410    -1.8150 H     1 <1>   0.0800 
 35 H        7.6560    11.1810    -0.3310 H     1 <1>   0.0800 
 36 H        6.7400    12.5210     0.2880 H     1 <1>   0.0800 
 37 H        6.4110    11.3370    -2.4870 H     1 <1>   0.0800 
 38 H        7.2160    12.8470    -2.1160 H     1 <1>   0.0800 
 39 H        5.4960    12.6790    -1.8440 H     1 <1>   0.0800 
@<TRIPOS>BOND
  1   1   2  1   
  2   2   3  ar  
  3   2   4  ar  
  4   3   5  ar  
  5   3  22  1   
  6   4   6  ar  
  7   4  23  1   
  8   5   7  1   
  9   5   8  ar  
 10   6   8  ar  
 11   6  24  1   
 12   7   9  1   
 13   8  25  1   
 14   9  10  1   
 15   9  26  1   
 16   9  27  1   
 17  10  11  2   
 18  10  12  am  
 19  12  13  1   
 20  12  28  1   
 21  13  14  1   
 22  13  15  2   
 23  14  16  1   
 24  14  17  1   
 25  15  18  1   
 26  15  19  1   
 27  16  18  2   
 28  17  29  1   
 29  17  30  1   
 30  17  31  1   
 31  18  20  1   
 32  19  32  1   
 33  19  33  1   
 34  19  34  1   
 35  20  21  1   
 36  20  35  1   
 37  20  36  1   
 38  21  37  1   
 39  21  38  1   
 40  21  39  1   
@<TRIPOS>SUBSTRUCTURE
  1 ****  12 GROUP 4 **** **** 0

# MOE 2024.06 (io_trps.svl 2023.06)
