@<TRIPOS>MOLECULE
NONAME
44 46 1 0 0 
SMALL
USER_CHARGES


@<TRIPOS>ATOM
  1 S        0.3120    -0.1280     1.7390 S.o2  1 <1>   1.5010 
  2 O        1.0630    -1.1170     2.4820 O.2   1 <1>  -0.6500 
  3 O       -0.2450     0.9880     2.4710 O.2   1 <1>  -0.6500 
  4 N        1.3330     0.4580     0.5060 N.am  1 <1>  -0.8490 
  5 C       -0.9960    -1.0010     0.8590 C.2   1 <1>  -0.0630 
  6 C        0.9890     1.7030    -0.2810 C.3   1 <1>   0.4170 
  7 C        2.7760     0.3540     0.8240 C.3   1 <1>   0.1960 
  8 C       -1.0060    -1.8560    -0.2000 C.2   1 <1>  -0.3320 
  9 C       -2.3340    -0.8950     1.2110 C.2   1 <1>   0.1390 
 10 C        1.9150     1.7580    -1.5540 C.2   1 <1>   0.5690 
 11 C        1.2810     2.9790     0.5600 C.3   1 <1>  -0.1600 
 12 C       -0.5140     1.6930    -0.6990 C.3   1 <1>  -0.1600 
 13 C        3.6650     0.3420    -0.4340 C.3   1 <1>   0.1400 
 14 N       -2.2940    -2.1920    -0.4260 N.pl3 1 <1>   0.3140 
 15 C        0.1670    -2.3740    -1.0200 C.3   1 <1>  -0.0600 
 16 N       -3.1150    -1.5950     0.4480 N.2   1 <1>  -0.7070 
 17 O        1.5670     2.2420    -2.6050 O.2   1 <1>  -0.5700 
 18 N        3.1720     1.2440    -1.5000 N.am  1 <1>  -0.7300 
 19 C        0.7720     4.2770    -0.0900 C.3   1 <1>  -0.1600 
 20 C       -1.0520     3.0110    -1.2880 C.3   1 <1>  -0.1600 
 21 C       -2.8150    -3.0860    -1.4680 C.3   1 <1>   0.0160 
 22 C       -0.7300     4.1970    -0.3740 C.3   1 <1>  -0.1600 
 23 H        2.9890    -0.5600     1.3480 H     1 <1>   0.0800 
 24 H        3.0680     1.1580     1.4760 H     1 <1>   0.0800 
 25 H       -2.6930    -0.2900     2.0280 H     1 <1>   0.1500 
 26 H        2.3400     3.0870     0.7050 H     1 <1>   0.0800 
 27 H        0.8240     2.9080     1.5260 H     1 <1>   0.0800 
 28 H       -1.1330     1.5200     0.1560 H     1 <1>   0.0800 
 29 H       -0.6810     0.9000    -1.4060 H     1 <1>   0.0800 
 30 H        3.6940    -0.6610    -0.8240 H     1 <1>   0.0800 
 31 H        4.6690     0.6190    -0.1630 H     1 <1>   0.0800 
 32 H        1.1000    -2.0430    -0.6010 H     1 <1>   0.0800 
 33 H        0.1010    -2.0120    -2.0310 H     1 <1>   0.0800 
 34 H        0.1680    -3.4500    -1.0310 H     1 <1>   0.0800 
 35 H        3.7130     1.3000    -2.3660 H     1 <1>   0.3700 
 36 H        1.3000     4.4620    -1.0110 H     1 <1>   0.0800 
 37 H        0.9650     5.1060     0.5680 H     1 <1>   0.0800 
 38 H       -2.1200     2.9340    -1.4050 H     1 <1>   0.0800 
 39 H       -0.6440     3.1910    -2.2660 H     1 <1>   0.0800 
 40 H       -2.5000    -2.7290    -2.4300 H     1 <1>   0.0800 
 41 H       -3.8890    -3.0920    -1.4210 H     1 <1>   0.0800 
 42 H       -2.4420    -4.0780    -1.3010 H     1 <1>   0.0800 
 43 H       -1.0580     5.1090    -0.8430 H     1 <1>   0.0800 
 44 H       -1.2660     4.0910     0.5540 H     1 <1>   0.0800 
@<TRIPOS>BOND
  1   1   2  2   
  2   1   3  2   
  3   1   4  am  
  4   1   5  1   
  5   4   6  1   
  6   4   7  1   
  7   5   8  2   
  8   5   9  1   
  9   6  10  1   
 10   6  11  1   
 11   6  12  1   
 12   7  13  1   
 13   7  23  1   
 14   7  24  1   
 15   8  14  1   
 16   8  15  1   
 17   9  16  2   
 18   9  25  1   
 19  10  17  2   
 20  10  18  am  
 21  11  19  1   
 22  11  26  1   
 23  11  27  1   
 24  12  20  1   
 25  12  28  1   
 26  12  29  1   
 27  13  18  1   
 28  13  30  1   
 29  13  31  1   
 30  14  16  1   
 31  14  21  1   
 32  15  32  1   
 33  15  33  1   
 34  15  34  1   
 35  18  35  1   
 36  19  22  1   
 37  19  36  1   
 38  19  37  1   
 39  20  22  1   
 40  20  38  1   
 41  20  39  1   
 42  21  40  1   
 43  21  41  1   
 44  21  42  1   
 45  22  43  1   
 46  22  44  1   
@<TRIPOS>SUBSTRUCTURE
  1 ****   4 GROUP 4 **** **** 0

# MOE 2024.06 (io_trps.svl 2023.06)
