@<TRIPOS>MOLECULE
NONAME
39 39 1 0 0 
SMALL
USER_CHARGES


@<TRIPOS>ATOM
  1 O       -0.1280    -0.0590    -2.0690 O.2   1 <1>  -0.5700 
  2 C       -0.9750    -0.7970    -1.6150 C.2   1 <1>   0.7800 
  3 O       -0.6770    -1.8280    -0.8280 O.3   1 <1>  -0.4300 
  4 N       -2.2810    -0.5840    -1.8810 N.am  1 <1>  -0.5790 
  5 C        0.5910    -2.2090    -0.3480 C.3   1 <1>   0.2800 
  6 C       -3.4040    -1.2460    -1.1700 C.3   1 <1>   0.1490 
  7 C        1.1850    -1.0880     0.5120 C.3   1 <1>  -0.2400 
  8 C        0.3290    -3.4350     0.5270 C.3   1 <1>  -0.2400 
  9 C        1.5030    -2.5990    -1.5160 C.3   1 <1>  -0.2400 
 10 C       -3.6120    -0.7340     0.2710 C.2   1 <1>   0.7200 
 11 C       -3.7060    -2.6580    -1.5810 C.3   1 <1>  -0.0600 
 12 C       -4.6120    -1.5600    -2.0160 C.3   1 <1>  -0.2000 
 13 O       -3.4010    -1.4030     1.2520 O.2   1 <1>  -0.5700 
 14 O       -4.0370     0.5210     0.3650 O.3   1 <1>  -0.4300 
 15 C       -4.2050    -3.7290    -0.6260 C.2   1 <1>  -0.1900 
 16 C       -4.2440     1.1340     1.6160 C.3   1 <1>   0.1200 
 17 C       -3.8690    -5.0190    -0.7010 C.2   1 <1>  -0.3000 
 18 C       -4.7180     2.5630     1.3690 C.3   1 <1>  -0.2400 
 19 H       -2.4930     0.2860    -2.3630 H     1 <1>   0.3700 
 20 H        2.0870    -1.4290     0.9860 H     1 <1>   0.0800 
 21 H        0.4880    -0.7960     1.2770 H     1 <1>   0.0800 
 22 H        1.4350    -0.2310    -0.0860 H     1 <1>   0.0800 
 23 H        1.2470    -3.7990     0.9490 H     1 <1>   0.0800 
 24 H       -0.1140    -4.2220    -0.0580 H     1 <1>   0.0800 
 25 H       -0.3400    -3.1810     1.3300 H     1 <1>   0.0800 
 26 H        2.4210    -3.0140    -1.1410 H     1 <1>   0.0800 
 27 H        1.7540    -1.7420    -2.1140 H     1 <1>   0.0800 
 28 H        1.0230    -3.3350    -2.1350 H     1 <1>   0.0800 
 29 H       -3.0490    -3.0730    -2.3260 H     1 <1>   0.1000 
 30 H       -5.5900    -1.5080    -1.5700 H     1 <1>   0.1000 
 31 H       -4.6160    -1.2860    -3.0560 H     1 <1>   0.1000 
 32 H       -4.8660    -3.3520     0.1370 H     1 <1>   0.1500 
 33 H       -4.9840     0.5680     2.1560 H     1 <1>   0.0800 
 34 H       -3.3130     1.1240     2.1590 H     1 <1>   0.0800 
 35 H       -4.2240    -5.7700    -0.0180 H     1 <1>   0.1500 
 36 H       -3.2100    -5.4290    -1.4450 H     1 <1>   0.1500 
 37 H       -5.6410     2.5580     0.8180 H     1 <1>   0.0800 
 38 H       -3.9730     3.1120     0.8220 H     1 <1>   0.0800 
 39 H       -4.8840     3.0560     2.3100 H     1 <1>   0.0800 
@<TRIPOS>BOND
  1   1   2  2   
  2   2   3  1   
  3   2   4  am  
  4   3   5  1   
  5   4   6  1   
  6   4  19  1   
  7   5   7  1   
  8   5   8  1   
  9   5   9  1   
 10   6  10  1   
 11   6  11  1   
 12   6  12  1   
 13   7  20  1   
 14   7  21  1   
 15   7  22  1   
 16   8  23  1   
 17   8  24  1   
 18   8  25  1   
 19   9  26  1   
 20   9  27  1   
 21   9  28  1   
 22  10  13  2   
 23  10  14  1   
 24  11  12  1   
 25  11  15  1   
 26  11  29  1   
 27  12  30  1   
 28  12  31  1   
 29  14  16  1   
 30  15  17  2   
 31  15  32  1   
 32  16  18  1   
 33  16  33  1   
 34  16  34  1   
 35  17  35  1   
 36  17  36  1   
 37  18  37  1   
 38  18  38  1   
 39  18  39  1   
@<TRIPOS>SUBSTRUCTURE
  1 ****   6 GROUP 4 **** **** 0

# MOE 2024.06 (io_trps.svl 2023.06)
