@<TRIPOS>MOLECULE
NONAME
54 57 1 0 0 
SMALL
USER_CHARGES


@<TRIPOS>ATOM
  1 O       -1.8160     1.2370     1.7360 O.2   1 <1>  -0.5700 
  2 C       -1.8260     0.9960     0.5410 C.2   1 <1>   0.7160 
  3 N       -2.0240    -0.2930     0.0840 N.am  1 <1>  -0.6600 
  4 C       -1.6270     2.0700    -0.3750 C.2   1 <1>  -0.0860 
  5 C       -1.8860    -1.5400     0.8890 C.3   1 <1>   0.2200 
  6 C       -2.8600    -0.5190    -1.1270 C.3   1 <1>   0.1400 
  7 C       -2.6170     2.8970    -0.9140 C.2   1 <1>   0.3720 
  8 C       -0.4840     2.5040    -0.9620 C.2   1 <1>   0.0870 
  9 C       -3.2710    -1.9190     1.4280 C.3   1 <1>  -0.1600 
 10 C       -0.8190    -1.4750     1.9850 C.3   1 <1>  -0.2400 
 11 C       -4.2760    -0.9070    -0.6780 C.3   1 <1>  -0.1600 
 12 N       -2.1040     3.7300    -1.7530 N.2   1 <1>  -0.4100 
 13 N       -3.9870     2.8090    -0.6090 N.pl3 1 <1>  -0.8210 
 14 O       -0.8200     3.4810    -1.7650 O.3   1 <1>  -0.0190 
 15 C        0.8880     2.0790    -0.8470 C.ar  1 <1>   0.0530 
 16 C       -4.2720    -2.1150     0.2750 C.3   1 <1>  -0.1600 
 17 C       -4.9460     3.6320    -1.4000 C.3   1 <1>   0.2090 
 18 C       -4.3210     2.9330     0.8360 C.3   1 <1>   0.2090 
 19 C        1.3960     1.5450     0.3380 C.ar  1 <1>  -0.1500 
 20 C        1.7630     2.1850    -1.9290 C.ar  1 <1>  -0.1500 
 21 C       -5.6850     4.4900    -0.3830 C.3   1 <1>  -0.1600 
 22 C       -5.6550     3.6650     0.8940 C.3   1 <1>  -0.1600 
 23 C        2.7090     1.1250     0.4320 C.ar  1 <1>  -0.1500 
 24 C        3.0790     1.7680    -1.8430 C.ar  1 <1>  -0.1500 
 25 C        3.5620     1.2300    -0.6540 C.ar  1 <1>   0.0830 
 26 O        4.8320     0.7950    -0.4820 O.3   1 <1>  -0.3630 
 27 C        5.7860     0.8720    -1.5180 C.3   1 <1>   0.0400 
 28 H       -1.5730    -2.3190     0.2130 H     1 <1>   0.0800 
 29 H       -2.4290    -1.3110    -1.7150 H     1 <1>   0.0800 
 30 H       -2.9080     0.3610    -1.7440 H     1 <1>   0.0800 
 31 H       -3.6150    -1.1400     2.0870 H     1 <1>   0.0800 
 32 H       -3.2010    -2.8270     1.9990 H     1 <1>   0.0800 
 33 H       -1.1390    -0.8660     2.8090 H     1 <1>   0.0800 
 34 H        0.1010    -1.0890     1.5840 H     1 <1>   0.0800 
 35 H       -0.6340    -2.4630     2.3630 H     1 <1>   0.0800 
 36 H       -4.8740    -1.1300    -1.5430 H     1 <1>   0.0800 
 37 H       -4.7220    -0.0600    -0.1860 H     1 <1>   0.0800 
 38 H       -5.2600    -2.2670     0.6740 H     1 <1>   0.0800 
 39 H       -4.0000    -2.9970    -0.2780 H     1 <1>   0.0800 
 40 H       -5.6360     2.9690    -1.8930 H     1 <1>   0.0800 
 41 H       -4.4650     4.2450    -2.1430 H     1 <1>   0.0800 
 42 H       -3.5600     3.5070     1.3390 H     1 <1>   0.0800 
 43 H       -4.3930     1.9610     1.2960 H     1 <1>   0.0800 
 44 H        0.7610     1.4630     1.2020 H     1 <1>   0.1500 
 45 H        1.4010     2.5980    -2.8550 H     1 <1>   0.1500 
 46 H       -6.6840     4.7210    -0.7040 H     1 <1>   0.0800 
 47 H       -5.1370     5.4060    -0.2410 H     1 <1>   0.0800 
 48 H       -5.7380     4.2700     1.7790 H     1 <1>   0.0800 
 49 H       -6.4500     2.9400     0.8840 H     1 <1>   0.0800 
 50 H        3.0840     0.7140     1.3520 H     1 <1>   0.1500 
 51 H        3.7100     1.8690    -2.7040 H     1 <1>   0.1500 
 52 H        6.7150     0.4770    -1.1470 H     1 <1>   0.0800 
 53 H        5.9140     1.9030    -1.7990 H     1 <1>   0.0800 
 54 H        5.4450     0.2840    -2.3510 H     1 <1>   0.0800 
@<TRIPOS>BOND
  1   1   2  2   
  2   2   3  am  
  3   2   4  1   
  4   3   5  1   
  5   3   6  1   
  6   4   7  1   
  7   4   8  2   
  8   5   9  1   
  9   5  10  1   
 10   5  28  1   
 11   6  11  1   
 12   6  29  1   
 13   6  30  1   
 14   7  12  2   
 15   7  13  1   
 16   8  14  1   
 17   8  15  1   
 18   9  16  1   
 19   9  31  1   
 20   9  32  1   
 21  10  33  1   
 22  10  34  1   
 23  10  35  1   
 24  11  16  1   
 25  11  36  1   
 26  11  37  1   
 27  12  14  1   
 28  13  17  1   
 29  13  18  1   
 30  15  19  ar  
 31  15  20  ar  
 32  16  38  1   
 33  16  39  1   
 34  17  21  1   
 35  17  40  1   
 36  17  41  1   
 37  18  22  1   
 38  18  42  1   
 39  18  43  1   
 40  19  23  ar  
 41  19  44  1   
 42  20  24  ar  
 43  20  45  1   
 44  21  22  1   
 45  21  46  1   
 46  21  47  1   
 47  22  48  1   
 48  22  49  1   
 49  23  25  ar  
 50  23  50  1   
 51  24  25  ar  
 52  24  51  1   
 53  25  26  1   
 54  26  27  1   
 55  27  52  1   
 56  27  53  1   
 57  27  54  1   
@<TRIPOS>SUBSTRUCTURE
  1 ****   4 GROUP 4 **** **** 0

# MOE 2024.06 (io_trps.svl 2023.06)
