@<TRIPOS>MOLECULE
NONAME
52 56 1 0 0 
SMALL
USER_CHARGES


@<TRIPOS>ATOM
  1 S       -0.4700     0.3240    -0.6770 S.3   1 <1>  -0.0800 
  2 C        0.3830    -1.0080     0.0190 C.2   1 <1>   0.4620 
  3 C        0.9380     1.3100    -0.3930 C.2   1 <1>   0.3250 
  4 N        1.5680    -0.6810     0.3940 N.2   1 <1>  -0.3380 
  5 N       -0.2290    -2.2300     0.1090 N.pl3 1 <1>  -0.8220 
  6 N        1.8750     0.6220     0.1620 N.2   1 <1>  -0.3380 
  7 C        0.9400     2.7050    -0.7720 C.ar  1 <1>   0.0530 
  8 C        0.2740    -3.4120     0.7980 C.3   1 <1>   0.2890 
  9 C       -1.6040    -2.6310    -0.1090 C.3   1 <1>   0.2890 
 10 C        2.0780     3.4850    -0.5510 C.ar  1 <1>  -0.1500 
 11 C       -0.1570     3.3440    -1.3620 C.ar  1 <1>  -0.1500 
 12 C       -0.0230    -4.4870    -0.2790 C.3   1 <1>   0.0610 
 13 C       -0.7260    -3.4310     1.9710 C.3   1 <1>  -0.1600 
 14 C       -1.3880    -3.9660    -0.8360 C.3   1 <1>  -0.1600 
 15 C       -2.0290    -2.9130     1.3330 C.3   1 <1>  -0.1600 
 16 C        2.1260     4.8220    -0.8960 C.ar  1 <1>  -0.1500 
 17 C       -0.1160     4.6820    -1.7090 C.ar  1 <1>  -0.1500 
 18 C       -0.1130    -5.9220     0.2580 C.2   1 <1>   0.5690 
 19 C        1.0380    -4.4380    -1.4110 C.3   1 <1>   0.0210 
 20 C        1.0260     5.4260    -1.4770 C.ar  1 <1>  -0.1500 
 21 O        0.3690    -6.2060     1.3290 O.2   1 <1>  -0.5700 
 22 N       -0.7210    -6.8700    -0.5070 N.am  1 <1>  -0.7300 
 23 C        2.4540    -4.8950    -1.0820 C.2   1 <1>   0.0460 
 24 C       -0.8630    -8.2920    -0.1430 C.3   1 <1>   0.1400 
 25 N        3.2920    -5.0080    -2.1820 N.2   1 <1>  -0.5650 
 26 C        3.0060    -5.1980     0.1060 C.2   1 <1>  -0.1100 
 27 C       -2.2930    -8.7270    -0.4380 C.3   1 <1>  -0.2400 
 28 C        4.4590    -5.3850    -1.8440 C.2   1 <1>   0.2280 
 29 S        4.6680    -5.6520    -0.1300 S.3   1 <1>  -0.0800 
 30 H        1.3040    -3.3300     1.0990 H     1 <1>   0.0800 
 31 H       -2.2130    -1.9140    -0.6340 H     1 <1>   0.0800 
 32 H        2.9440     3.0310    -0.0990 H     1 <1>   0.1500 
 33 H       -1.0620     2.8000    -1.5580 H     1 <1>   0.1500 
 34 H       -0.8500    -4.3960     2.4230 H     1 <1>   0.0800 
 35 H       -0.3870    -2.7460     2.7290 H     1 <1>   0.0800 
 36 H       -2.2050    -4.6350    -0.6350 H     1 <1>   0.0800 
 37 H       -1.3480    -3.7880    -1.8960 H     1 <1>   0.0800 
 38 H       -2.3440    -2.0000     1.8070 H     1 <1>   0.0800 
 39 H       -2.8270    -3.6330     1.3860 H     1 <1>   0.0800 
 40 H        3.0190     5.3940    -0.7120 H     1 <1>   0.1500 
 41 H       -0.9740     5.1480    -2.1620 H     1 <1>   0.1500 
 42 H        1.1100    -3.4380    -1.8000 H     1 <1>   0.0800 
 43 H        0.6940    -5.0570    -2.2200 H     1 <1>   0.0800 
 44 H        1.0600     6.4670    -1.7470 H     1 <1>   0.1500 
 45 H       -1.0590    -6.6280    -1.4390 H     1 <1>   0.3700 
 46 H       -0.1670    -8.8800    -0.7180 H     1 <1>   0.0800 
 47 H       -0.6440    -8.4310     0.9040 H     1 <1>   0.0800 
 48 H        2.6350    -5.2120     1.1140 H     1 <1>   0.1500 
 49 H       -2.5130    -8.6220    -1.4850 H     1 <1>   0.0800 
 50 H       -2.9860    -8.1390     0.1390 H     1 <1>   0.0800 
 51 H       -2.4170    -9.7590    -0.1660 H     1 <1>   0.0800 
 52 H        5.3140    -5.5560    -2.4730 H     1 <1>   0.1500 
@<TRIPOS>BOND
  1   1   2  1   
  2   1   3  1   
  3   2   4  2   
  4   2   5  1   
  5   3   6  2   
  6   3   7  1   
  7   4   6  1   
  8   5   8  1   
  9   5   9  1   
 10   7  10  ar  
 11   7  11  ar  
 12   8  12  1   
 13   8  13  1   
 14   8  30  1   
 15   9  14  1   
 16   9  15  1   
 17   9  31  1   
 18  10  16  ar  
 19  10  32  1   
 20  11  17  ar  
 21  11  33  1   
 22  12  14  1   
 23  12  18  1   
 24  12  19  1   
 25  13  15  1   
 26  13  34  1   
 27  13  35  1   
 28  14  36  1   
 29  14  37  1   
 30  15  38  1   
 31  15  39  1   
 32  16  20  ar  
 33  16  40  1   
 34  17  20  ar  
 35  17  41  1   
 36  18  21  2   
 37  18  22  am  
 38  19  23  1   
 39  19  42  1   
 40  19  43  1   
 41  20  44  1   
 42  22  24  1   
 43  22  45  1   
 44  23  25  1   
 45  23  26  2   
 46  24  27  1   
 47  24  46  1   
 48  24  47  1   
 49  25  28  2   
 50  26  29  1   
 51  26  48  1   
 52  27  49  1   
 53  27  50  1   
 54  27  51  1   
 55  28  29  1   
 56  28  52  1   
@<TRIPOS>SUBSTRUCTURE
  1 ****   5 GROUP 4 **** **** 0

# MOE 2024.06 (io_trps.svl 2023.06)
