@<TRIPOS>MOLECULE
NONAME
50 51 1 0 0 
SMALL
USER_CHARGES


@<TRIPOS>ATOM
  1 CL      -0.6570     1.9020     1.2350 Cl    1 <1>  -0.1770 
  2 C        1.0290     2.2210     0.9120 C.ar  1 <1>   0.1770 
  3 C        1.4470     3.5220     0.7190 C.ar  1 <1>  -0.1500 
  4 C        1.9170     1.1630     0.8560 C.ar  1 <1>  -0.1500 
  5 C        2.7840     3.7780     0.4630 C.ar  1 <1>   0.0820 
  6 C        3.2540     1.4160     0.6000 C.ar  1 <1>  -0.1500 
  7 O        3.1300     5.0770     0.2820 O.3   1 <1>  -0.3630 
  8 C        3.6880     2.7180     0.4050 C.ar  1 <1>  -0.1500 
  9 C        4.4600     5.4520     0.0100 C.3   1 <1>   0.1200 
 10 C        4.5060     6.9720    -0.1250 C.3   1 <1>  -0.1600 
 11 C        5.9110     7.4380    -0.5090 C.3   1 <1>   0.1400 
 12 N        5.9620     8.9270    -0.5200 N.am  1 <1>  -0.6600 
 13 C        6.4030     9.6040     0.5990 C.2   1 <1>   0.5690 
 14 C        5.4780     9.5330    -1.7960 C.3   1 <1>   0.0600 
 15 O        6.7810     8.9990     1.5770 O.2   1 <1>  -0.5700 
 16 C        6.4360    11.1350     0.7110 C.3   1 <1>  -0.0190 
 17 C        5.0400    11.7910     0.6200 C.3   1 <1>  -0.1600 
 18 C        7.4920    11.7980    -0.2090 C.3   1 <1>  -0.1600 
 19 C        5.0830    13.3020     0.9280 C.3   1 <1>   0.2000 
 20 C        7.1350    13.2430    -0.6030 C.3   1 <1>  -0.1600 
 21 O        4.0440    13.9180     0.2040 O.3   1 <1>  -0.5600 
 22 C        6.4350    13.9660     0.5500 C.3   1 <1>   0.2000 
 23 C        2.7840    13.8390     0.7940 C.3   1 <1>   0.0400 
 24 O        6.2100    15.2700     0.1610 O.3   1 <1>  -0.6800 
 25 H        0.7430     4.3310     0.7670 H     1 <1>   0.1500 
 26 H        1.5630     0.1590     1.0100 H     1 <1>   0.1500 
 27 H        3.9570     0.6010     0.5550 H     1 <1>   0.1500 
 28 H        4.7310     2.8850     0.2100 H     1 <1>   0.1500 
 29 H        5.0800     5.1260     0.8280 H     1 <1>   0.0800 
 30 H        4.7640     4.9770    -0.9060 H     1 <1>   0.0800 
 31 H        3.8040     7.2810    -0.8780 H     1 <1>   0.0800 
 32 H        4.2350     7.4120     0.8190 H     1 <1>   0.0800 
 33 H        6.1790     7.0580    -1.4800 H     1 <1>   0.0800 
 34 H        6.6260     7.0530     0.1990 H     1 <1>   0.0800 
 35 H        5.9190     9.0200    -2.6330 H     1 <1>   0.0800 
 36 H        5.7380    10.5700    -1.8720 H     1 <1>   0.0800 
 37 H        4.4080     9.4420    -1.8560 H     1 <1>   0.0800 
 38 H        6.7670    11.3350     1.7160 H     1 <1>   0.0800 
 39 H        4.3810    11.3070     1.3180 H     1 <1>   0.0800 
 40 H        4.6380    11.6540    -0.3650 H     1 <1>   0.0800 
 41 H        8.4320    11.8000     0.3160 H     1 <1>   0.0800 
 42 H        7.6470    11.2210    -1.1030 H     1 <1>   0.0800 
 43 H        4.9210    13.4700     1.9790 H     1 <1>   0.0800 
 44 H        6.4750    13.2280    -1.4540 H     1 <1>   0.0800 
 45 H        8.0310    13.7720    -0.8770 H     1 <1>   0.0800 
 46 H        7.0910    13.9860     1.4040 H     1 <1>   0.0800 
 47 H        2.0830    14.3480     0.1550 H     1 <1>   0.0800 
 48 H        2.8110    14.3210     1.7560 H     1 <1>   0.0800 
 49 H        2.4950    12.8070     0.8940 H     1 <1>   0.0800 
 50 H        5.2860    15.2860    -0.1820 H     1 <1>   0.4000 
@<TRIPOS>BOND
  1   1   2  1   
  2   2   3  ar  
  3   2   4  ar  
  4   3   5  ar  
  5   3  25  1   
  6   4   6  ar  
  7   4  26  1   
  8   5   7  1   
  9   5   8  ar  
 10   6   8  ar  
 11   6  27  1   
 12   7   9  1   
 13   8  28  1   
 14   9  10  1   
 15   9  29  1   
 16   9  30  1   
 17  10  11  1   
 18  10  31  1   
 19  10  32  1   
 20  11  12  1   
 21  11  33  1   
 22  11  34  1   
 23  12  13  am  
 24  12  14  1   
 25  13  15  2   
 26  13  16  1   
 27  14  35  1   
 28  14  36  1   
 29  14  37  1   
 30  16  17  1   
 31  16  18  1   
 32  16  38  1   
 33  17  19  1   
 34  17  39  1   
 35  17  40  1   
 36  18  20  1   
 37  18  41  1   
 38  18  42  1   
 39  19  21  1   
 40  19  22  1   
 41  19  43  1   
 42  20  22  1   
 43  20  44  1   
 44  20  45  1   
 45  21  23  1   
 46  22  24  1   
 47  22  46  1   
 48  23  47  1   
 49  23  48  1   
 50  23  49  1   
 51  24  50  1   
@<TRIPOS>SUBSTRUCTURE
  1 ****  10 GROUP 4 **** **** 0

# MOE 2024.06 (io_trps.svl 2023.06)
