@<TRIPOS>MOLECULE
NONAME
56 58 1 0 0 
SMALL
USER_CHARGES


@<TRIPOS>ATOM
  1 CL       0.4380     0.3730     2.7580 Cl    1 <1>  -0.1770 
  2 C        1.5030    -0.5060     1.6850 C.ar  1 <1>   0.1770 
  3 C        2.4130     0.1700     0.8840 C.ar  1 <1>   0.0830 
  4 C        1.3910    -1.8840     1.6490 C.ar  1 <1>  -0.1500 
  5 O        2.4700     1.5240     0.9410 O.3   1 <1>  -0.3630 
  6 C        3.2460    -0.5780     0.0460 C.ar  1 <1>   0.0830 
  7 C        2.1910    -2.6210     0.7870 C.ar  1 <1>  -0.1440 
  8 C        1.9870     2.2260    -0.1800 C.3   1 <1>   0.1200 
  9 O        4.1820    -0.0180    -0.7580 O.3   1 <1>  -0.3630 
 10 C        3.1220    -1.9580    -0.0030 C.ar  1 <1>  -0.1500 
 11 C        2.0510    -4.1290     0.6990 C.3   1 <1>   0.4860 
 12 C        2.1290     3.7180     0.1020 C.3   1 <1>  -0.2400 
 13 C        5.2530     0.6820    -0.1540 C.3   1 <1>   0.1200 
 14 N        1.5180    -4.5200    -0.6460 N.4   1 <1>  -0.9590 
 15 C        6.2900    -0.3220     0.3490 C.3   1 <1>  -0.2400 
 16 C        0.0650    -4.2840    -0.9280 C.3   1 <1>   0.4230 
 17 C        1.8570    -5.9490    -0.9230 C.3   1 <1>   0.2630 
 18 C       -0.8920    -4.5140     0.2400 C.3   1 <1>  -0.1600 
 19 C       -0.2430    -2.8720    -1.4150 C.3   1 <1>  -0.1600 
 20 C       -2.1870    -3.8230    -0.2050 C.3   1 <1>  -0.0800 
 21 C       -1.7470    -2.6850    -1.1610 C.3   1 <1>  -0.0800 
 22 C       -3.0910    -3.4040     0.9780 C.3   1 <1>   0.1400 
 23 C       -2.1010    -1.2730    -0.6550 C.3   1 <1>  -0.0990 
 24 N       -3.9590    -2.2800     0.5770 N.am  1 <1>  -0.7300 
 25 C       -3.5330    -1.2400    -0.1690 C.2   1 <1>   0.5690 
 26 O       -4.2570    -0.3200    -0.4420 O.2   1 <1>  -0.5700 
 27 H        0.6710    -2.3520     2.2970 H     1 <1>   0.1500 
 28 H        2.5630     1.9450    -1.0450 H     1 <1>   0.0800 
 29 H        0.9540     1.9620    -0.3260 H     1 <1>   0.0800 
 30 H        3.7780    -2.4920    -0.6670 H     1 <1>   0.1500 
 31 H        1.4120    -4.4960     1.4840 H     1 <1>   0.0800 
 32 H        3.0270    -4.5630     0.8410 H     1 <1>   0.0800 
 33 H        3.1630     3.9690     0.2580 H     1 <1>   0.0800 
 34 H        1.5590     3.9840     0.9740 H     1 <1>   0.0800 
 35 H        1.7610     4.2830    -0.7340 H     1 <1>   0.0800 
 36 H        5.6850     1.3200    -0.9050 H     1 <1>   0.0800 
 37 H        4.8840     1.2930     0.6500 H     1 <1>   0.0800 
 38 H        2.0280    -3.9340    -1.3220 H     1 <1>   0.4500 
 39 H        6.6350    -0.9370    -0.4620 H     1 <1>   0.0800 
 40 H        5.8720    -0.9380     1.1240 H     1 <1>   0.0800 
 41 H        7.1320     0.2070     0.7580 H     1 <1>   0.0800 
 42 H       -0.2410    -4.9470    -1.7220 H     1 <1>   0.0800 
 43 H        1.3400    -6.5980    -0.2350 H     1 <1>   0.0800 
 44 H        2.9180    -6.1110    -0.8200 H     1 <1>   0.0800 
 45 H        1.5690    -6.2140    -1.9280 H     1 <1>   0.0800 
 46 H       -1.0550    -5.5610     0.4270 H     1 <1>   0.0800 
 47 H       -0.5430    -4.0320     1.1320 H     1 <1>   0.0800 
 48 H        0.3050    -2.1330    -0.8670 H     1 <1>   0.0800 
 49 H       -0.0200    -2.7650    -2.4620 H     1 <1>   0.0800 
 50 H       -2.7500    -4.5290    -0.7940 H     1 <1>   0.0800 
 51 H       -2.2750    -2.8280    -2.0910 H     1 <1>   0.0800 
 52 H       -2.4970    -3.0810     1.8160 H     1 <1>   0.0800 
 53 H       -3.6980    -4.2370     1.2930 H     1 <1>   0.0800 
 54 H       -1.9770    -0.5510    -1.4420 H     1 <1>   0.0800 
 55 H       -1.4710    -0.9880     0.1680 H     1 <1>   0.0800 
 56 H       -4.9150    -2.2350     0.9410 H     1 <1>   0.3700 
@<TRIPOS>BOND
  1   1   2  1   
  2   2   3  ar  
  3   2   4  ar  
  4   3   5  1   
  5   3   6  ar  
  6   4   7  ar  
  7   4  27  1   
  8   5   8  1   
  9   6   9  1   
 10   6  10  ar  
 11   7  10  ar  
 12   7  11  1   
 13   8  12  1   
 14   8  28  1   
 15   8  29  1   
 16   9  13  1   
 17  10  30  1   
 18  11  14  1   
 19  11  31  1   
 20  11  32  1   
 21  12  33  1   
 22  12  34  1   
 23  12  35  1   
 24  13  15  1   
 25  13  36  1   
 26  13  37  1   
 27  14  16  1   
 28  14  17  1   
 29  14  38  1   
 30  15  39  1   
 31  15  40  1   
 32  15  41  1   
 33  16  18  1   
 34  16  19  1   
 35  16  42  1   
 36  17  43  1   
 37  17  44  1   
 38  17  45  1   
 39  18  20  1   
 40  18  46  1   
 41  18  47  1   
 42  19  21  1   
 43  19  48  1   
 44  19  49  1   
 45  20  21  1   
 46  20  22  1   
 47  20  50  1   
 48  21  23  1   
 49  21  51  1   
 50  22  24  1   
 51  22  52  1   
 52  22  53  1   
 53  23  25  1   
 54  23  54  1   
 55  23  55  1   
 56  24  25  am  
 57  24  56  1   
 58  25  26  2   
@<TRIPOS>SUBSTRUCTURE
  1 ****   4 GROUP 4 **** **** 0

# MOE 2024.06 (io_trps.svl 2023.06)
