@<TRIPOS>MOLECULE
NONAME
42 43 1 0 0 
SMALL
USER_CHARGES


@<TRIPOS>ATOM
  1 O       -0.3080     0.0750     0.8510 O.2   1 <1>  -0.5700 
  2 C       -1.2890     0.7040     0.5100 C.2   1 <1>   0.5690 
  3 N       -2.4720     0.0200     0.3130 N.am  1 <1>  -0.6600 
  4 C       -1.1410     2.2470     0.2630 C.3   1 <1>   0.3410 
  5 C       -3.7930     0.5620    -0.1070 C.3   1 <1>   0.1400 
  6 C       -2.5700    -1.4450     0.5310 C.3   1 <1>   0.1400 
  7 O       -2.2380     2.9250     0.8520 O.3   1 <1>  -0.5600 
  8 C       -1.1330     2.5230    -1.2520 C.3   1 <1>  -0.2400 
  9 C        0.1600     2.7920     0.8910 C.3   1 <1>  -0.2400 
 10 C       -4.7900    -0.5370     0.2560 C.3   1 <1>   0.2000 
 11 C       -3.9850    -1.8290     0.0840 C.3   1 <1>  -0.0800 
 12 C       -2.3300     4.3210     0.8040 C.3   1 <1>   0.0400 
 13 O       -5.1350    -0.3800     1.5900 O.3   1 <1>  -0.6800 
 14 C       -4.5610    -3.0530     0.8190 C.3   1 <1>   0.0200 
 15 C       -3.8210    -4.3430     0.5030 C.2   1 <1>  -0.0400 
 16 O       -4.1450    -5.4260     1.1590 O.3   1 <1>  -0.0190 
 17 C       -2.8410    -4.6660    -0.3560 C.2   1 <1>  -0.1500 
 18 N       -3.4340    -6.4520     0.7890 N.2   1 <1>  -0.4100 
 19 C       -2.6390    -6.0230    -0.1240 C.2   1 <1>   0.1080 
 20 C       -1.6240    -6.8850    -0.8410 C.3   1 <1>  -0.0590 
 21 H       -4.0450     1.4820     0.3880 H     1 <1>   0.0800 
 22 H       -3.7880     0.7120    -1.1720 H     1 <1>   0.0800 
 23 H       -1.8160    -1.9620    -0.0360 H     1 <1>   0.0800 
 24 H       -2.4270    -1.6510     1.5780 H     1 <1>   0.0800 
 25 H       -0.3980     1.8940    -1.7210 H     1 <1>   0.0800 
 26 H       -0.8720     3.5420    -1.4670 H     1 <1>   0.0800 
 27 H       -2.0910     2.2990    -1.6810 H     1 <1>   0.0800 
 28 H        1.0040     2.2390     0.5170 H     1 <1>   0.0800 
 29 H        0.1290     2.6680     1.9580 H     1 <1>   0.0800 
 30 H        0.3240     3.8240     0.6480 H     1 <1>   0.0800 
 31 H       -5.6890    -0.5080    -0.3360 H     1 <1>   0.0800 
 32 H       -3.9490    -2.0480    -0.9690 H     1 <1>   0.0800 
 33 H       -3.2720     4.6010     1.2420 H     1 <1>   0.0800 
 34 H       -2.3010     4.6620    -0.2140 H     1 <1>   0.0800 
 35 H       -1.5360     4.7590     1.3810 H     1 <1>   0.0800 
 36 H       -4.3260    -0.1580     2.0960 H     1 <1>   0.4000 
 37 H       -5.5940    -3.1800     0.5470 H     1 <1>   0.0800 
 38 H       -4.5250    -2.8940     1.8830 H     1 <1>   0.0800 
 39 H       -2.3110    -4.0640    -1.0700 H     1 <1>   0.1500 
 40 H       -1.8090    -6.8640    -1.8990 H     1 <1>   0.0800 
 41 H       -1.6960    -7.9000    -0.4950 H     1 <1>   0.0800 
 42 H       -0.6330    -6.5200    -0.6450 H     1 <1>   0.0800 
@<TRIPOS>BOND
  1   1   2  2   
  2   2   3  am  
  3   2   4  1   
  4   3   5  1   
  5   3   6  1   
  6   4   7  1   
  7   4   8  1   
  8   4   9  1   
  9   5  10  1   
 10   5  21  1   
 11   5  22  1   
 12   6  11  1   
 13   6  23  1   
 14   6  24  1   
 15   7  12  1   
 16   8  25  1   
 17   8  26  1   
 18   8  27  1   
 19   9  28  1   
 20   9  29  1   
 21   9  30  1   
 22  10  11  1   
 23  10  13  1   
 24  10  31  1   
 25  11  14  1   
 26  11  32  1   
 27  12  33  1   
 28  12  34  1   
 29  12  35  1   
 30  13  36  1   
 31  14  15  1   
 32  14  37  1   
 33  14  38  1   
 34  15  16  1   
 35  15  17  2   
 36  16  18  1   
 37  17  19  1   
 38  17  39  1   
 39  18  19  2   
 40  19  20  1   
 41  20  40  1   
 42  20  41  1   
 43  20  42  1   
@<TRIPOS>SUBSTRUCTURE
  1 ****   6 GROUP 4 **** **** 0

# MOE 2024.06 (io_trps.svl 2023.06)
