@<TRIPOS>MOLECULE
NONAME
53 56 1 0 0 
SMALL
USER_CHARGES


@<TRIPOS>ATOM
  1 O       -2.8450     2.4640     2.1040 O.2   1 <1>  -0.5700 
  2 C       -2.6770     1.6790     1.1890 C.2   1 <1>   0.5440 
  3 N       -1.5560     1.8170     0.3960 N.am  1 <1>  -0.6600 
  4 C       -3.6550     0.6430     0.9580 C.ar  1 <1>   0.0860 
  5 C       -0.4070     2.6860     0.7990 C.3   1 <1>   0.1400 
  6 C       -1.4970     1.4070    -1.0410 C.3   1 <1>   0.1400 
  7 C       -3.2710    -0.6680     0.6840 C.ar  1 <1>   0.1600 
  8 C       -5.0210     0.8930     1.0120 C.ar  1 <1>  -0.1500 
  9 C       -0.2180     3.8330    -0.2060 C.3   1 <1>   0.1200 
 10 C       -1.2280     2.6250    -1.9430 C.3   1 <1>   0.1200 
 11 N       -4.0800    -1.6820     0.4370 N.ar  1 <1>  -0.6200 
 12 C       -5.8800    -0.1500     0.7670 C.ar  1 <1>  -0.1500 
 13 O       -0.1010     3.3290    -1.5080 O.3   1 <1>  -0.5600 
 14 C       -5.3840    -1.4200     0.4730 C.ar  1 <1>   0.4100 
 15 N       -6.2400    -2.4680     0.2110 N.pl3 1 <1>  -0.8380 
 16 C       -5.8030    -3.8610     0.5280 C.3   1 <1>   0.3530 
 17 C       -7.4210    -2.3020    -0.6830 C.3   1 <1>   0.1290 
 18 C       -6.9970    -4.7870     0.7550 C.ar  1 <1>  -0.1430 
 19 C       -7.4920    -5.6570    -0.2530 C.ar  1 <1>   0.0000 
 20 C       -7.5880    -4.7580     1.9900 C.ar  1 <1>  -0.1500 
 21 C       -8.5950    -6.5090     0.0350 C.ar  1 <1>   0.3100 
 22 C       -6.9380    -5.7230    -1.5500 C.ar  1 <1>  -0.1500 
 23 C       -8.6740    -5.5780     2.2770 C.ar  1 <1>  -0.1500 
 24 N       -9.0690    -7.3890    -0.8980 N.ar  1 <1>  -0.6200 
 25 C       -9.1840    -6.4310     1.3350 C.ar  1 <1>   0.0830 
 26 C       -7.4500    -6.6060    -2.4470 C.ar  1 <1>  -0.1500 
 27 C       -8.5160    -7.4230    -2.0680 C.ar  1 <1>   0.1600 
 28 O      -10.2540    -7.1600     1.7580 O.3   1 <1>  -0.3630 
 29 C      -11.3200    -7.5040     0.9000 C.3   1 <1>   0.0400 
 30 H        0.4900     2.0940     0.8310 H     1 <1>   0.0800 
 31 H       -0.5630     3.0960     1.7820 H     1 <1>   0.0800 
 32 H       -2.4210     0.9490    -1.3460 H     1 <1>   0.0800 
 33 H       -0.7070     0.6890    -1.1740 H     1 <1>   0.0800 
 34 H       -2.2160    -0.8810     0.6700 H     1 <1>   0.1500 
 35 H       -5.3800     1.8810     1.2460 H     1 <1>   0.1500 
 36 H        0.6800     4.3790     0.0180 H     1 <1>   0.0800 
 37 H       -1.0550     4.5090    -0.1680 H     1 <1>   0.0800 
 38 H       -2.0730     3.2920    -1.9400 H     1 <1>   0.0800 
 39 H       -1.0450     2.3050    -2.9540 H     1 <1>   0.0800 
 40 H       -6.9410    -0.0030     0.8110 H     1 <1>   0.1500 
 41 H       -5.2170    -3.8360     1.4310 H     1 <1>   0.0800 
 42 H       -5.1510    -4.2190    -0.2460 H     1 <1>   0.0800 
 43 H       -7.4780    -1.2950    -1.0570 H     1 <1>   0.0800 
 44 H       -8.3230    -2.5250    -0.1390 H     1 <1>   0.0800 
 45 H       -7.3440    -2.9680    -1.5240 H     1 <1>   0.0800 
 46 H       -7.2230    -4.0960     2.7580 H     1 <1>   0.1500 
 47 H       -6.1220    -5.0890    -1.8410 H     1 <1>   0.1500 
 48 H       -9.1210    -5.5350     3.2550 H     1 <1>   0.1500 
 49 H       -7.0550    -6.6920    -3.4430 H     1 <1>   0.1500 
 50 H       -8.9010    -8.1220    -2.7910 H     1 <1>   0.1500 
 51 H      -12.1880    -7.6980     1.5030 H     1 <1>   0.0800 
 52 H      -11.0530    -8.3910     0.3540 H     1 <1>   0.0800 
 53 H      -11.5110    -6.6860     0.2270 H     1 <1>   0.0800 
@<TRIPOS>BOND
  1   1   2  2   
  2   2   3  am  
  3   2   4  1   
  4   3   5  1   
  5   3   6  1   
  6   4   7  ar  
  7   4   8  ar  
  8   5   9  1   
  9   5  30  1   
 10   5  31  1   
 11   6  10  1   
 12   6  32  1   
 13   6  33  1   
 14   7  11  ar  
 15   7  34  1   
 16   8  12  ar  
 17   8  35  1   
 18   9  13  1   
 19   9  36  1   
 20   9  37  1   
 21  10  13  1   
 22  10  38  1   
 23  10  39  1   
 24  11  14  ar  
 25  12  14  ar  
 26  12  40  1   
 27  14  15  1   
 28  15  16  1   
 29  15  17  1   
 30  16  18  1   
 31  16  41  1   
 32  16  42  1   
 33  17  43  1   
 34  17  44  1   
 35  17  45  1   
 36  18  19  ar  
 37  18  20  ar  
 38  19  21  ar  
 39  19  22  ar  
 40  20  23  ar  
 41  20  46  1   
 42  21  24  ar  
 43  21  25  ar  
 44  22  26  ar  
 45  22  47  1   
 46  23  25  ar  
 47  23  48  1   
 48  24  27  ar  
 49  25  28  1   
 50  26  27  ar  
 51  26  49  1   
 52  27  50  1   
 53  28  29  1   
 54  29  51  1   
 55  29  52  1   
 56  29  53  1   
@<TRIPOS>SUBSTRUCTURE
  1 ****  15 GROUP 4 **** **** 0

# MOE 2024.06 (io_trps.svl 2023.06)
