@<TRIPOS>MOLECULE
NONAME
48 49 1 0 0 
SMALL
USER_CHARGES


@<TRIPOS>ATOM
  1 S        0.5930    -0.3870    -1.2940 S.o2  1 <1>   1.3330 
  2 O        0.0230    -0.5040    -2.6160 O.2   1 <1>  -0.6500 
  3 O        1.9070    -0.9310    -1.0310 O.2   1 <1>  -0.6500 
  4 N       -0.4980    -1.1230    -0.2190 N.am  1 <1>  -0.8490 
  5 C        0.5520     1.3400    -0.7930 C.3   1 <1>  -0.0550 
  6 C       -0.1680    -2.5310     0.0300 C.3   1 <1>   0.1160 
  7 C       -1.8990    -1.0130    -0.6420 C.3   1 <1>   0.1160 
  8 C        1.3970     1.7460     0.4350 C.3   1 <1>  -0.0800 
  9 C        2.9050     1.6490     0.1920 C.3   1 <1>   0.2200 
 10 C        1.1830     0.9530     1.7300 C.3   1 <1>   0.1200 
 11 N        3.4920     3.0060     0.2770 N.am  1 <1>  -0.7300 
 12 C        3.3890     0.7740     1.3460 C.3   1 <1>   0.1200 
 13 O        2.4310     0.9330     2.3410 O.3   1 <1>  -0.5600 
 14 C        3.4970     3.8980    -0.7570 C.2   1 <1>   0.5440 
 15 O        3.0400     3.5420    -1.8230 O.2   1 <1>  -0.5700 
 16 C        4.0120     5.2370    -0.6000 C.ar  1 <1>   0.0860 
 17 C        4.1670     5.8540     0.6260 C.ar  1 <1>   0.1600 
 18 C        4.3780     6.0050    -1.6890 C.ar  1 <1>   0.1600 
 19 N        4.6390     7.0720     0.7690 N.ar  1 <1>  -0.6200 
 20 N        4.8530     7.2270    -1.5850 N.ar  1 <1>  -0.6200 
 21 C        4.9620     7.7040    -0.3530 C.ar  1 <1>   0.4770 
 22 C        5.5170     9.1290    -0.2240 C.3   1 <1>   0.0630 
 23 C        6.8360     9.1600     0.5660 C.3   1 <1>  -0.2400 
 24 C        4.4950    10.0850     0.4140 C.3   1 <1>  -0.2400 
 25 H        0.8940     1.9320    -1.6210 H     1 <1>   0.0800 
 26 H       -0.4670     1.6220    -0.6150 H     1 <1>   0.0800 
 27 H       -0.8730    -2.9650     0.7180 H     1 <1>   0.0800 
 28 H        0.8150    -2.6090     0.4630 H     1 <1>   0.0800 
 29 H       -0.1840    -3.0870    -0.8930 H     1 <1>   0.0800 
 30 H       -2.5480    -1.4100     0.1200 H     1 <1>   0.0800 
 31 H       -2.0600    -1.5590    -1.5580 H     1 <1>   0.0800 
 32 H       -2.1600     0.0180    -0.8070 H     1 <1>   0.0800 
 33 H        1.1410     2.7670     0.6580 H     1 <1>   0.0800 
 34 H        3.1620     1.2040    -0.7550 H     1 <1>   0.0800 
 35 H        0.9000    -0.0680     1.5570 H     1 <1>   0.0800 
 36 H        0.4750     1.4220     2.3910 H     1 <1>   0.0800 
 37 H        3.8100     3.2590     1.2130 H     1 <1>   0.3700 
 38 H        4.3560     1.0600     1.7190 H     1 <1>   0.0800 
 39 H        3.3980    -0.2630     1.0570 H     1 <1>   0.0800 
 40 H        3.8900     5.3310     1.5240 H     1 <1>   0.1500 
 41 H        4.2740     5.5890    -2.6780 H     1 <1>   0.1500 
 42 H        5.7250     9.4920    -1.2160 H     1 <1>   0.0800 
 43 H        6.6760     8.8290     1.5770 H     1 <1>   0.0800 
 44 H        7.2390    10.1560     0.5860 H     1 <1>   0.0800 
 45 H        7.5540     8.5070     0.1020 H     1 <1>   0.0800 
 46 H        4.2730     9.7800     1.4210 H     1 <1>   0.0800 
 47 H        3.5830    10.0760    -0.1560 H     1 <1>   0.0800 
 48 H        4.8800    11.0890     0.4320 H     1 <1>   0.0800 
@<TRIPOS>BOND
  1   1   2  2   
  2   1   3  2   
  3   1   4  am  
  4   1   5  1   
  5   4   6  1   
  6   4   7  1   
  7   5   8  1   
  8   5  25  1   
  9   5  26  1   
 10   6  27  1   
 11   6  28  1   
 12   6  29  1   
 13   7  30  1   
 14   7  31  1   
 15   7  32  1   
 16   8   9  1   
 17   8  10  1   
 18   8  33  1   
 19   9  11  1   
 20   9  12  1   
 21   9  34  1   
 22  10  13  1   
 23  10  35  1   
 24  10  36  1   
 25  11  14  am  
 26  11  37  1   
 27  12  13  1   
 28  12  38  1   
 29  12  39  1   
 30  14  15  2   
 31  14  16  1   
 32  16  17  ar  
 33  16  18  ar  
 34  17  19  ar  
 35  17  40  1   
 36  18  20  ar  
 37  18  41  1   
 38  19  21  ar  
 39  20  21  ar  
 40  21  22  1   
 41  22  23  1   
 42  22  24  1   
 43  22  42  1   
 44  23  43  1   
 45  23  44  1   
 46  23  45  1   
 47  24  46  1   
 48  24  47  1   
 49  24  48  1   
@<TRIPOS>SUBSTRUCTURE
  1 ****  11 GROUP 4 **** **** 0

# MOE 2024.06 (io_trps.svl 2023.06)
