@<TRIPOS>MOLECULE
NONAME
54 57 1 0 0 
SMALL
USER_CHARGES


@<TRIPOS>ATOM
  1 O       -1.2480    -0.1250     1.3710 O.2   1 <1>  -0.5700 
  2 C       -1.4980     0.3630     0.2820 C.2   1 <1>   0.7160 
  3 N       -1.6520    -0.4720    -0.8070 N.am  1 <1>  -0.6600 
  4 C       -1.6580     1.7760     0.1700 C.2   1 <1>  -0.0860 
  5 C       -1.8510    -1.9320    -0.6250 C.3   1 <1>   0.1400 
  6 C       -1.9210     0.0530    -2.1760 C.3   1 <1>   0.0600 
  7 C       -2.8740     2.4310    -0.0480 C.2   1 <1>   0.3720 
  8 C       -0.7490     2.7860     0.1960 C.2   1 <1>   0.0870 
  9 C       -3.3400    -2.2060    -0.4070 C.3   1 <1>  -0.1600 
 10 N       -2.6980     3.7020    -0.1550 N.2   1 <1>  -0.4100 
 11 N       -4.1250     1.8010    -0.1520 N.pl3 1 <1>  -0.8210 
 12 O       -1.4150     3.8950    -0.0020 O.3   1 <1>  -0.0190 
 13 C        0.6830     2.8200     0.3570 C.ar  1 <1>   0.0530 
 14 C       -3.6010    -3.6730    -0.0510 C.3   1 <1>   0.0960 
 15 C       -5.2300     2.5920    -0.7850 C.3   1 <1>   0.2090 
 16 C       -4.6080     1.1100     1.0890 C.3   1 <1>   0.2090 
 17 C        1.3590     1.9240     1.1860 C.ar  1 <1>  -0.1500 
 18 C        1.4500     3.7670    -0.3220 C.ar  1 <1>  -0.1500 
 19 N       -5.0440    -3.8980     0.1610 N.pl3 1 <1>   0.3140 
 20 C       -5.9610     3.4790     0.2420 C.3   1 <1>   0.1200 
 21 C       -5.3710     2.0740     2.0170 C.3   1 <1>   0.1200 
 22 C        2.7350     1.9640     1.3210 C.ar  1 <1>  -0.1500 
 23 C        2.8250     3.8140    -0.1900 C.ar  1 <1>  -0.1500 
 24 N       -5.6780    -3.4660     1.2670 N.2   1 <1>  -0.7070 
 25 C       -5.8970    -4.5200    -0.6780 C.2   1 <1>  -0.3020 
 26 O       -6.4080     2.7190     1.3300 O.3   1 <1>  -0.5600 
 27 C        3.4720     2.9090     0.6310 C.ar  1 <1>  -0.1500 
 28 C       -6.9150    -3.8240     1.1040 C.2   1 <1>   0.1390 
 29 C       -7.1150    -4.4900    -0.0980 C.2   1 <1>  -0.1500 
 30 H       -1.2870    -2.2700     0.2300 H     1 <1>   0.0800 
 31 H       -1.4890    -2.4610    -1.4900 H     1 <1>   0.0800 
 32 H       -1.4290     0.9990    -2.3210 H     1 <1>   0.0800 
 33 H       -2.9810     0.1880    -2.3090 H     1 <1>   0.0800 
 34 H       -1.5550    -0.6360    -2.9170 H     1 <1>   0.0800 
 35 H       -3.8890    -1.9480    -1.2950 H     1 <1>   0.0800 
 36 H       -3.6870    -1.5970     0.4090 H     1 <1>   0.0800 
 37 H       -3.0890    -3.9300     0.8580 H     1 <1>   0.0800 
 38 H       -3.2620    -4.3210    -0.8390 H     1 <1>   0.0800 
 39 H       -5.9380     1.9130    -1.2260 H     1 <1>   0.0800 
 40 H       -4.8340     3.2080    -1.5740 H     1 <1>   0.0800 
 41 H       -3.7820     0.6890     1.6330 H     1 <1>   0.0800 
 42 H       -5.2610     0.3000     0.8120 H     1 <1>   0.0800 
 43 H        0.8070     1.1890     1.7420 H     1 <1>   0.1500 
 44 H        0.9590     4.4770    -0.9650 H     1 <1>   0.1500 
 45 H       -6.8200     3.9390    -0.2120 H     1 <1>   0.0800 
 46 H       -5.3060     4.2520     0.6060 H     1 <1>   0.0800 
 47 H       -4.7030     2.8200     2.4120 H     1 <1>   0.0800 
 48 H       -5.8080     1.5300     2.8350 H     1 <1>   0.0800 
 49 H        3.2320     1.2600     1.9650 H     1 <1>   0.1500 
 50 H        3.3940     4.5540    -0.7270 H     1 <1>   0.1500 
 51 H       -5.5990    -4.9390    -1.6210 H     1 <1>   0.1500 
 52 H        4.5430     2.9410     0.7360 H     1 <1>   0.1500 
 53 H       -7.6890    -3.6220     1.8260 H     1 <1>   0.1500 
 54 H       -8.0490    -4.8830    -0.4580 H     1 <1>   0.1500 
@<TRIPOS>BOND
  1   1   2  2   
  2   2   3  am  
  3   2   4  1   
  4   3   5  1   
  5   3   6  1   
  6   4   7  1   
  7   4   8  2   
  8   5   9  1   
  9   5  30  1   
 10   5  31  1   
 11   6  32  1   
 12   6  33  1   
 13   6  34  1   
 14   7  10  2   
 15   7  11  1   
 16   8  12  1   
 17   8  13  1   
 18   9  14  1   
 19   9  35  1   
 20   9  36  1   
 21  10  12  1   
 22  11  15  1   
 23  11  16  1   
 24  13  17  ar  
 25  13  18  ar  
 26  14  19  1   
 27  14  37  1   
 28  14  38  1   
 29  15  20  1   
 30  15  39  1   
 31  15  40  1   
 32  16  21  1   
 33  16  41  1   
 34  16  42  1   
 35  17  22  ar  
 36  17  43  1   
 37  18  23  ar  
 38  18  44  1   
 39  19  24  1   
 40  19  25  1   
 41  20  26  1   
 42  20  45  1   
 43  20  46  1   
 44  21  26  1   
 45  21  47  1   
 46  21  48  1   
 47  22  27  ar  
 48  22  49  1   
 49  23  27  ar  
 50  23  50  1   
 51  24  28  2   
 52  25  29  2   
 53  25  51  1   
 54  27  52  1   
 55  28  29  1   
 56  28  53  1   
 57  29  54  1   
@<TRIPOS>SUBSTRUCTURE
  1 ****   2 GROUP 4 **** **** 0

# MOE 2024.06 (io_trps.svl 2023.06)
