@<TRIPOS>MOLECULE
NONAME
52 54 1 0 0 
SMALL
USER_CHARGES


@<TRIPOS>ATOM
  1 O       -0.6540     0.2430    -1.0720 O.2   1 <1>  -0.5700 
  2 C       -1.4900     1.1020    -0.8640 C.2   1 <1>   0.5440 
  3 N       -2.8170     0.7170    -0.9120 N.am  1 <1>  -0.6600 
  4 C       -1.1040     2.4780    -0.5870 C.ar  1 <1>   0.0860 
  5 C       -3.2060    -0.5960    -1.4890 C.3   1 <1>   0.1400 
  6 C       -3.8890     1.3870    -0.1260 C.3   1 <1>   0.1400 
  7 C       -0.2030     2.8570     0.4210 C.ar  1 <1>  -0.1440 
  8 C       -1.6680     3.4920    -1.3640 C.ar  1 <1>  -0.1500 
  9 C       -3.5970    -1.5510    -0.3430 C.3   1 <1>   0.4230 
 10 C       -4.3270     0.4500     1.0090 C.3   1 <1>  -0.1600 
 11 C        0.0820     4.1980     0.6310 C.ar  1 <1>  -0.1500 
 12 C        0.4990     1.8390     1.3180 C.3   1 <1>  -0.0160 
 13 C       -1.3780     4.8250    -1.1520 C.ar  1 <1>  -0.1500 
 14 N       -3.8180    -2.9910    -0.7900 N.4   1 <1>  -0.9590 
 15 C       -4.7490    -0.9720     0.5340 C.3   1 <1>   0.0000 
 16 C       -0.5010     5.1810    -0.1470 C.ar  1 <1>  -0.1500 
 17 C       -0.4380     1.3120     2.4070 C.3   1 <1>  -0.2400 
 18 C       -4.5870    -3.8260     0.1890 C.3   1 <1>   0.3430 
 19 C       -4.3870    -3.1610    -2.1670 C.3   1 <1>   0.2630 
 20 C       -4.9460    -1.8780     1.7870 C.3   1 <1>  -0.1600 
 21 C       -6.0650    -0.8940    -0.2920 C.3   1 <1>   0.1200 
 22 C       -4.4010    -3.3090     1.6140 C.3   1 <1>  -0.1600 
 23 O       -7.0610    -0.2140     0.3900 O.3   1 <1>  -0.6800 
 24 H       -4.0220    -0.4400    -2.1700 H     1 <1>   0.0800 
 25 H       -2.3840    -1.0130    -2.0440 H     1 <1>   0.0800 
 26 H       -3.5340     2.3130     0.2950 H     1 <1>   0.0800 
 27 H       -4.7220     1.6160    -0.7700 H     1 <1>   0.0800 
 28 H       -2.3480     3.2250    -2.1540 H     1 <1>   0.1500 
 29 H       -2.7340    -1.5680     0.3030 H     1 <1>   0.0800 
 30 H       -3.5000     0.3730     1.6920 H     1 <1>   0.0800 
 31 H       -5.1250     0.9220     1.5550 H     1 <1>   0.0800 
 32 H        0.7670     4.4920     1.4080 H     1 <1>   0.1500 
 33 H        0.8810     1.0210     0.7330 H     1 <1>   0.0800 
 34 H        1.3510     2.2980     1.7900 H     1 <1>   0.0800 
 35 H       -1.8300     5.5850    -1.7660 H     1 <1>   0.1500 
 36 H       -2.8660    -3.3890    -0.8150 H     1 <1>   0.4500 
 37 H       -0.2680     6.2180     0.0280 H     1 <1>   0.1500 
 38 H       -1.2420     0.7560     1.9660 H     1 <1>   0.0800 
 39 H       -0.8440     2.1300     2.9750 H     1 <1>   0.0800 
 40 H        0.1030     0.6630     3.0720 H     1 <1>   0.0800 
 41 H       -5.6370    -3.7940    -0.0510 H     1 <1>   0.0800 
 42 H       -4.2630    -4.8530     0.1280 H     1 <1>   0.0800 
 43 H       -5.3680    -2.7210    -2.2280 H     1 <1>   0.0800 
 44 H       -4.4650    -4.2080    -2.4120 H     1 <1>   0.0800 
 45 H       -3.7500    -2.6920    -2.9000 H     1 <1>   0.0800 
 46 H       -4.4540    -1.4510     2.6450 H     1 <1>   0.0800 
 47 H       -5.9890    -1.9320     2.0440 H     1 <1>   0.0800 
 48 H       -6.4460    -1.8720    -0.5220 H     1 <1>   0.0800 
 49 H       -5.9190    -0.3610    -1.2140 H     1 <1>   0.0800 
 50 H       -4.9120    -3.9640     2.2990 H     1 <1>   0.0800 
 51 H       -3.3550    -3.3420     1.8680 H     1 <1>   0.0800 
 52 H       -7.3060    -0.6550     1.2280 H     1 <1>   0.4000 
@<TRIPOS>BOND
  1   1   2  2   
  2   2   3  am  
  3   2   4  1   
  4   3   5  1   
  5   3   6  1   
  6   4   7  ar  
  7   4   8  ar  
  8   5   9  1   
  9   5  24  1   
 10   5  25  1   
 11   6  10  1   
 12   6  26  1   
 13   6  27  1   
 14   7  11  ar  
 15   7  12  1   
 16   8  13  ar  
 17   8  28  1   
 18   9  14  1   
 19   9  15  1   
 20   9  29  1   
 21  10  15  1   
 22  10  30  1   
 23  10  31  1   
 24  11  16  ar  
 25  11  32  1   
 26  12  17  1   
 27  12  33  1   
 28  12  34  1   
 29  13  16  ar  
 30  13  35  1   
 31  14  18  1   
 32  14  19  1   
 33  14  36  1   
 34  15  20  1   
 35  15  21  1   
 36  16  37  1   
 37  17  38  1   
 38  17  39  1   
 39  17  40  1   
 40  18  22  1   
 41  18  41  1   
 42  18  42  1   
 43  19  43  1   
 44  19  44  1   
 45  19  45  1   
 46  20  22  1   
 47  20  46  1   
 48  20  47  1   
 49  21  23  1   
 50  21  48  1   
 51  21  49  1   
 52  22  50  1   
 53  22  51  1   
 54  23  52  1   
@<TRIPOS>SUBSTRUCTURE
  1 ****   3 GROUP 4 **** **** 0

# MOE 2024.06 (io_trps.svl 2023.06)
