@<TRIPOS>MOLECULE
NONAME
43 45 1 0 0 
SMALL
USER_CHARGES


@<TRIPOS>ATOM
  1 O        0.7470     0.4900     1.3870 O.3   1 <1>  -0.0190 
  2 N        1.4870    -0.5140     1.0140 N.2   1 <1>  -0.4100 
  3 C        0.7900     1.4740     0.5290 C.2   1 <1>  -0.0400 
  4 C        2.0120    -0.1740    -0.1070 C.2   1 <1>   0.1080 
  5 C        1.6000     1.1040    -0.4760 C.2   1 <1>  -0.1500 
  6 C       -0.0170     2.7300     0.8140 C.3   1 <1>   0.0200 
  7 C        2.9470    -1.0520    -0.9080 C.3   1 <1>  -0.0590 
  8 C        0.4530     3.9380    -0.0180 C.3   1 <1>  -0.0800 
  9 C       -0.3800     5.2090     0.1540 C.3   1 <1>   0.2000 
 10 C        1.8840     4.3830     0.3050 C.3   1 <1>   0.2090 
 11 O       -0.6190     5.4280     1.5020 O.3   1 <1>  -0.6800 
 12 C        0.5540     6.3090    -0.3480 C.3   1 <1>   0.2090 
 13 N        1.9250     5.8530     0.0400 N.pl3 1 <1>  -0.8380 
 14 C        3.0330     6.6440     0.1330 C.ar  1 <1>   0.1000 
 15 C        4.2460     6.1600     0.6450 C.ar  1 <1>  -0.1500 
 16 C        3.0250     7.9840    -0.2800 C.ar  1 <1>  -0.1500 
 17 C        5.3550     6.9610     0.7360 C.ar  1 <1>   0.2180 
 18 C        4.1440     8.7700    -0.1810 C.ar  1 <1>   0.2180 
 19 N        5.2880     8.2500     0.3230 N.ar  1 <1>  -0.1790 
 20 C        6.6740     6.4500     1.2900 C.3   1 <1>  -0.0970 
 21 C        4.1480    10.2230    -0.6260 C.3   1 <1>  -0.0970 
 22 H        1.8870     1.6230    -1.3710 H     1 <1>   0.1500 
 23 H       -1.0530     2.5270     0.6090 H     1 <1>   0.0800 
 24 H        0.0660     2.9540     1.8630 H     1 <1>   0.0800 
 25 H        3.8820    -0.5460    -1.0630 H     1 <1>   0.0800 
 26 H        2.5050    -1.2830    -1.8590 H     1 <1>   0.0800 
 27 H        3.1320    -1.9690    -0.3780 H     1 <1>   0.0800 
 28 H        0.4200     3.6700    -1.0590 H     1 <1>   0.0800 
 29 H       -1.3240     5.1800    -0.3640 H     1 <1>   0.0800 
 30 H        2.6000     3.8640    -0.3100 H     1 <1>   0.0800 
 31 H        2.1060     4.2040     1.3430 H     1 <1>   0.0800 
 32 H        0.2300     5.6580     1.9330 H     1 <1>   0.4000 
 33 H        0.3010     7.2600     0.0890 H     1 <1>   0.0800 
 34 H        0.4960     6.3740    -1.4210 H     1 <1>   0.0800 
 35 H        4.2980     5.1390     0.9750 H     1 <1>   0.1500 
 36 H        2.1200     8.3960    -0.6860 H     1 <1>   0.1500 
 37 H        6.1200     8.8420     0.3930 H     1 <1>   0.4570 
 38 H        6.5880     5.4180     1.5810 H     1 <1>   0.0800 
 39 H        6.9630     7.0180     2.1570 H     1 <1>   0.0800 
 40 H        7.4480     6.5240     0.5470 H     1 <1>   0.0800 
 41 H        3.1820    10.5060    -1.0040 H     1 <1>   0.0800 
 42 H        4.8700    10.3750    -1.4090 H     1 <1>   0.0800 
 43 H        4.3850    10.8690     0.2020 H     1 <1>   0.0800 
@<TRIPOS>BOND
  1   1   2  1   
  2   1   3  1   
  3   2   4  2   
  4   3   5  2   
  5   3   6  1   
  6   4   5  1   
  7   4   7  1   
  8   5  22  1   
  9   6   8  1   
 10   6  23  1   
 11   6  24  1   
 12   7  25  1   
 13   7  26  1   
 14   7  27  1   
 15   8   9  1   
 16   8  10  1   
 17   8  28  1   
 18   9  11  1   
 19   9  12  1   
 20   9  29  1   
 21  10  13  1   
 22  10  30  1   
 23  10  31  1   
 24  11  32  1   
 25  12  13  1   
 26  12  33  1   
 27  12  34  1   
 28  13  14  1   
 29  14  15  ar  
 30  14  16  ar  
 31  15  17  ar  
 32  15  35  1   
 33  16  18  ar  
 34  16  36  1   
 35  17  19  ar  
 36  17  20  1   
 37  18  19  ar  
 38  18  21  1   
 39  19  37  1   
 40  20  38  1   
 41  20  39  1   
 42  20  40  1   
 43  21  41  1   
 44  21  42  1   
 45  21  43  1   
@<TRIPOS>SUBSTRUCTURE
  1 ****  10 GROUP 4 **** **** 0

# MOE 2024.06 (io_trps.svl 2023.06)
