@<TRIPOS>MOLECULE
NONAME
39 41 1 0 0 
SMALL
USER_CHARGES


@<TRIPOS>ATOM
  1 CL      -0.2380    -0.0990    -0.9460 Cl    1 <1>  -0.1230 
  2 C       -1.7670     0.4280    -0.2600 C.2   1 <1>   0.1230 
  3 C       -2.8540    -0.3710     0.1160 C.2   1 <1>   0.2030 
  4 C       -2.1000     1.7060    -0.0190 C.2   1 <1>  -0.3020 
  5 N       -3.8220     0.4220     0.5660 N.2   1 <1>  -0.7070 
  6 C       -2.8820    -1.8270     0.0200 C.2   1 <1>   0.7160 
  7 N       -3.3470     1.6740     0.4830 N.pl3 1 <1>   0.3140 
  8 O       -1.8450    -2.4690     0.0210 O.2   1 <1>  -0.5700 
  9 N       -4.0580    -2.5500    -0.0790 N.am  1 <1>  -0.6600 
 10 C       -4.1380     2.8370     0.9030 C.3   1 <1>   0.0160 
 11 C       -5.4200    -1.9780    -0.2190 C.3   1 <1>   0.1400 
 12 C       -4.0950    -4.0290    -0.1450 C.3   1 <1>   0.1400 
 13 C       -6.3140    -3.1730    -0.5490 C.3   1 <1>   0.2000 
 14 C       -5.5740    -4.3990    -0.0150 C.3   1 <1>  -0.0800 
 15 O       -7.5560    -3.0660     0.0570 O.3   1 <1>  -0.6800 
 16 C       -5.9530    -5.6940    -0.7480 C.3   1 <1>  -0.0170 
 17 C       -5.1760    -6.8790    -0.1960 C.ar  1 <1>  -0.1430 
 18 C       -5.5770    -7.5360     0.9500 C.ar  1 <1>  -0.1500 
 19 C       -4.0330    -7.3570    -0.8050 C.ar  1 <1>  -0.1500 
 20 C       -4.8340    -8.6060     1.4210 C.ar  1 <1>   0.1600 
 21 C       -3.3620    -8.4350    -0.2500 C.ar  1 <1>   0.1600 
 22 N       -3.7350    -9.0700     0.8490 N.ar  1 <1>  -0.6200 
 23 H       -1.5350     2.6060    -0.1750 H     1 <1>   0.1500 
 24 H       -3.6070     3.3670     1.6710 H     1 <1>   0.0800 
 25 H       -5.0840     2.5010     1.2850 H     1 <1>   0.0800 
 26 H       -4.2980     3.4790     0.0570 H     1 <1>   0.0800 
 27 H       -5.7080    -1.5250     0.7140 H     1 <1>   0.0800 
 28 H       -5.4440    -1.2480    -1.0080 H     1 <1>   0.0800 
 29 H       -3.6990    -4.3420    -1.0960 H     1 <1>   0.0800 
 30 H       -3.5080    -4.4640     0.6460 H     1 <1>   0.0800 
 31 H       -6.4600    -3.2350    -1.6140 H     1 <1>   0.0800 
 32 H       -5.7790    -4.5100     1.0360 H     1 <1>   0.0800 
 33 H       -7.4540    -2.9700     1.0240 H     1 <1>   0.4000 
 34 H       -5.7590    -5.5910    -1.8010 H     1 <1>   0.0800 
 35 H       -7.0080    -5.8740    -0.6300 H     1 <1>   0.0800 
 36 H       -6.4580    -7.2260     1.4800 H     1 <1>   0.1500 
 37 H       -3.6540    -6.9040    -1.7020 H     1 <1>   0.1500 
 38 H       -5.1610    -9.1060     2.3160 H     1 <1>   0.1500 
 39 H       -2.4710    -8.7930    -0.7370 H     1 <1>   0.1500 
@<TRIPOS>BOND
  1   1   2  1   
  2   2   3  1   
  3   2   4  2   
  4   3   5  2   
  5   3   6  1   
  6   4   7  1   
  7   4  23  1   
  8   5   7  1   
  9   6   8  2   
 10   6   9  am  
 11   7  10  1   
 12   9  11  1   
 13   9  12  1   
 14  10  24  1   
 15  10  25  1   
 16  10  26  1   
 17  11  13  1   
 18  11  27  1   
 19  11  28  1   
 20  12  14  1   
 21  12  29  1   
 22  12  30  1   
 23  13  14  1   
 24  13  15  1   
 25  13  31  1   
 26  14  16  1   
 27  14  32  1   
 28  15  33  1   
 29  16  17  1   
 30  16  34  1   
 31  16  35  1   
 32  17  18  ar  
 33  17  19  ar  
 34  18  20  ar  
 35  18  36  1   
 36  19  21  ar  
 37  19  37  1   
 38  20  22  ar  
 39  20  38  1   
 40  21  22  ar  
 41  21  39  1   
@<TRIPOS>SUBSTRUCTURE
  1 ****   9 GROUP 4 **** **** 0

# MOE 2024.06 (io_trps.svl 2023.06)
