@<TRIPOS>MOLECULE
NONAME
59 61 1 0 0 
SMALL
USER_CHARGES


@<TRIPOS>ATOM
  1 O       -0.6140     1.9020     2.5810 O.2   1 <1>  -0.5700 
  2 C       -0.2430     2.6490     1.7080 C.2   1 <1>   0.5690 
  3 N       -1.1450     3.3890     0.9760 N.am  1 <1>  -0.6600 
  4 C        1.2770     2.6800     1.4970 C.3   1 <1>  -0.0190 
  5 C       -2.6170     3.1560     1.1490 C.3   1 <1>   0.1400 
  6 C       -0.8670     4.4270    -0.0540 C.3   1 <1>   0.1400 
  7 C        1.9520     3.9900     1.9400 C.3   1 <1>  -0.1600 
  8 C        1.7360     2.2480     0.0920 C.3   1 <1>  -0.1600 
  9 C       -3.2690     2.6710    -0.1680 C.3   1 <1>   0.0000 
 10 C       -1.4540     3.9890    -1.4000 C.3   1 <1>  -0.1600 
 11 C        3.4710     3.8970     1.7970 C.3   1 <1>   0.3430 
 12 C        3.2610     2.2030     0.0060 C.3   1 <1>   0.3430 
 13 C       -4.7790     2.4660     0.0720 C.3   1 <1>   0.2000 
 14 C       -2.9570     3.6910    -1.2900 C.3   1 <1>  -0.1600 
 15 C       -2.7900     1.2510    -0.5220 C.3   1 <1>  -0.1600 
 16 N        3.8330     3.5310     0.3940 N.4   1 <1>  -0.9590 
 17 O       -5.4500     2.4390    -1.1560 O.3   1 <1>  -0.5600 
 18 C       -4.8970     1.0810     0.7220 C.3   1 <1>  -0.1600 
 19 C       -3.6360     0.2990     0.3280 C.3   1 <1>  -0.1600 
 20 C        5.3270     3.5590     0.2420 C.3   1 <1>   0.3430 
 21 C       -6.8030     2.7590    -1.0990 C.3   1 <1>   0.0400 
 22 C        5.7890     3.4780    -1.2180 C.3   1 <1>   0.1200 
 23 O        7.1720     3.5700    -1.2100 O.3   1 <1>  -0.5600 
 24 C        7.7650     3.5310    -2.4710 C.3   1 <1>   0.0400 
 25 H        1.6590     1.9230     2.1640 H     1 <1>   0.0800 
 26 H       -2.7990     2.4400     1.9310 H     1 <1>   0.0800 
 27 H       -3.0740     4.0810     1.4540 H     1 <1>   0.0800 
 28 H       -1.3310     5.3490     0.2530 H     1 <1>   0.0800 
 29 H        0.1800     4.6100    -0.1640 H     1 <1>   0.0800 
 30 H        1.7120     4.1710     2.9740 H     1 <1>   0.0800 
 31 H        1.5930     4.8330     1.3830 H     1 <1>   0.0800 
 32 H        1.3610     2.9030    -0.6700 H     1 <1>   0.0800 
 33 H        1.3460     1.2660    -0.1150 H     1 <1>   0.0800 
 34 H       -1.3000     4.7670    -2.1260 H     1 <1>   0.0800 
 35 H       -0.9370     3.1120    -1.7470 H     1 <1>   0.0800 
 36 H        3.8490     3.1500     2.4770 H     1 <1>   0.0800 
 37 H        3.9140     4.8460     2.0590 H     1 <1>   0.0800 
 38 H        3.5520     1.9490    -1.0000 H     1 <1>   0.0800 
 39 H        3.6350     1.4390     0.6690 H     1 <1>   0.0800 
 40 H       -5.1950     3.2500     0.6820 H     1 <1>   0.0800 
 41 H       -3.3170     3.3240    -2.2360 H     1 <1>   0.0800 
 42 H       -3.4830     4.6070    -1.0820 H     1 <1>   0.0800 
 43 H       -3.0020     1.0560    -1.5600 H     1 <1>   0.0800 
 44 H       -1.7380     1.1050    -0.3540 H     1 <1>   0.0800 
 45 H        3.4330     4.2480    -0.2240 H     1 <1>   0.4500 
 46 H       -4.9190     1.1920     1.7910 H     1 <1>   0.0800 
 47 H       -5.7890     0.5650     0.4130 H     1 <1>   0.0800 
 48 H       -3.0910     0.0140     1.2120 H     1 <1>   0.0800 
 49 H       -3.8850    -0.5870    -0.2310 H     1 <1>   0.0800 
 50 H        5.7090     4.4780     0.6550 H     1 <1>   0.0800 
 51 H        5.7630     2.7390     0.7890 H     1 <1>   0.0800 
 52 H       -7.2080     2.6720    -2.0910 H     1 <1>   0.0800 
 53 H       -6.9120     3.7720    -0.7520 H     1 <1>   0.0800 
 54 H       -7.3090     2.0760    -0.4400 H     1 <1>   0.0800 
 55 H        5.3980     4.3020    -1.7910 H     1 <1>   0.0800 
 56 H        5.5180     2.5380    -1.6650 H     1 <1>   0.0800 
 57 H        8.8310     3.6100    -2.3440 H     1 <1>   0.0800 
 58 H        7.4130     4.3610    -3.0610 H     1 <1>   0.0800 
 59 H        7.5290     2.5970    -2.9510 H     1 <1>   0.0800 
@<TRIPOS>BOND
  1   1   2  2   
  2   2   3  am  
  3   2   4  1   
  4   3   5  1   
  5   3   6  1   
  6   4   7  1   
  7   4   8  1   
  8   4  25  1   
  9   5   9  1   
 10   5  26  1   
 11   5  27  1   
 12   6  10  1   
 13   6  28  1   
 14   6  29  1   
 15   7  11  1   
 16   7  30  1   
 17   7  31  1   
 18   8  12  1   
 19   8  32  1   
 20   8  33  1   
 21   9  13  1   
 22   9  14  1   
 23   9  15  1   
 24  10  14  1   
 25  10  34  1   
 26  10  35  1   
 27  11  16  1   
 28  11  36  1   
 29  11  37  1   
 30  12  16  1   
 31  12  38  1   
 32  12  39  1   
 33  13  17  1   
 34  13  18  1   
 35  13  40  1   
 36  14  41  1   
 37  14  42  1   
 38  15  19  1   
 39  15  43  1   
 40  15  44  1   
 41  16  20  1   
 42  16  45  1   
 43  17  21  1   
 44  18  19  1   
 45  18  46  1   
 46  18  47  1   
 47  19  48  1   
 48  19  49  1   
 49  20  22  1   
 50  20  50  1   
 51  20  51  1   
 52  21  52  1   
 53  21  53  1   
 54  21  54  1   
 55  22  23  1   
 56  22  55  1   
 57  22  56  1   
 58  23  24  1   
 59  24  57  1   
 60  24  58  1   
 61  24  59  1   
@<TRIPOS>SUBSTRUCTURE
  1 ****   3 GROUP 4 **** **** 0

# MOE 2024.06 (io_trps.svl 2023.06)
