@<TRIPOS>MOLECULE
NONAME
50 53 1 0 0 
SMALL
USER_CHARGES


@<TRIPOS>ATOM
  1 F       -2.4840    -1.2240     1.9120 F     1 <1>  -0.3400 
  2 C       -2.0580    -1.4910     0.6800 C.3   1 <1>   0.8560 
  3 F       -0.8420    -0.9550     0.6120 F     1 <1>  -0.3400 
  4 N       -2.9800    -0.8440    -0.3220 N.pl3 1 <1>   0.0480 
  5 C       -3.8590    -1.5200    -1.1470 C.2   1 <1>  -0.2370 
  6 C       -3.1390     0.4950    -0.5730 C.2   1 <1>  -0.3320 
  7 C       -4.0130    -2.9520    -1.1630 C.2   1 <1>   0.7150 
  8 C       -4.5160    -0.5920    -1.9130 C.2   1 <1>  -0.1500 
  9 C       -4.0690     0.6700    -1.5470 C.2   1 <1>  -0.1500 
 10 C       -2.3810     1.6020     0.1430 C.3   1 <1>  -0.0600 
 11 O       -3.0360    -3.6580    -0.9920 O.2   1 <1>  -0.5700 
 12 N       -5.2410    -3.5440    -1.3360 N.am  1 <1>  -0.6600 
 13 C       -6.5330    -2.8920    -0.9600 C.3   1 <1>   0.1400 
 14 C       -5.3860    -4.9960    -1.6620 C.3   1 <1>   0.1400 
 15 C       -7.2580    -3.6920     0.1400 C.3   1 <1>   0.1900 
 16 C       -6.1420    -5.7390    -0.5490 C.3   1 <1>   0.1100 
 17 N       -7.4500    -5.1050    -0.2720 N.3   1 <1>  -0.8100 
 18 C       -8.6110    -3.0360     0.4770 C.3   1 <1>   0.1200 
 19 C       -8.2080    -5.8360     0.7730 C.3   1 <1>   0.3330 
 20 O       -9.2720    -3.7600     1.4750 O.3   1 <1>  -0.5600 
 21 C       -8.5370    -7.2580     0.3190 C.ar  1 <1>  -0.1430 
 22 C       -9.5170    -5.0950     1.1180 C.3   1 <1>   0.1200 
 23 C       -9.0740    -7.4980    -0.9380 C.ar  1 <1>  -0.1500 
 24 C       -8.3030    -8.3300     1.1690 C.ar  1 <1>  -0.1500 
 25 C       -9.3750    -8.7880    -1.3400 C.ar  1 <1>  -0.1500 
 26 C       -8.6030    -9.6210     0.7680 C.ar  1 <1>  -0.1500 
 27 C       -9.1390    -9.8510    -0.4860 C.ar  1 <1>  -0.1500 
 28 H       -1.9610    -2.5530     0.5780 H     1 <1>   0.0800 
 29 H       -5.2530    -0.7850    -2.6740 H     1 <1>   0.1500 
 30 H       -4.4110     1.5990    -1.9710 H     1 <1>   0.1500 
 31 H       -2.7380     2.5640    -0.1780 H     1 <1>   0.0800 
 32 H       -1.3300     1.5400    -0.0800 H     1 <1>   0.0800 
 33 H       -2.5200     1.5240     1.2060 H     1 <1>   0.0800 
 34 H       -6.3610    -1.8940    -0.5970 H     1 <1>   0.0800 
 35 H       -7.1620    -2.8300    -1.8300 H     1 <1>   0.0800 
 36 H       -5.9340    -5.0960    -2.5820 H     1 <1>   0.0800 
 37 H       -4.4220    -5.4530    -1.8040 H     1 <1>   0.0800 
 38 H       -6.6490    -3.6580     1.0280 H     1 <1>   0.0800 
 39 H       -5.5380    -5.7500     0.3430 H     1 <1>   0.0800 
 40 H       -6.2890    -6.7580    -0.8630 H     1 <1>   0.0800 
 41 H       -9.2420    -2.9960    -0.3940 H     1 <1>   0.0800 
 42 H       -8.4620    -2.0370     0.8460 H     1 <1>   0.0800 
 43 H       -7.6110    -5.8840     1.6680 H     1 <1>   0.0800 
 44 H      -10.0010    -5.5740     1.9500 H     1 <1>   0.0800 
 45 H      -10.1870    -5.1080     0.2770 H     1 <1>   0.0800 
 46 H       -9.2530    -6.6750    -1.6070 H     1 <1>   0.1500 
 47 H       -7.8870    -8.1680     2.1470 H     1 <1>   0.1500 
 48 H       -9.7910    -8.9630    -2.3170 H     1 <1>   0.1500 
 49 H       -8.4190   -10.4470     1.4320 H     1 <1>   0.1500 
 50 H       -9.3720   -10.8540    -0.7980 H     1 <1>   0.1500 
@<TRIPOS>BOND
  1   1   2  1   
  2   2   3  1   
  3   2   4  1   
  4   2  28  1   
  5   4   5  1   
  6   4   6  1   
  7   5   7  1   
  8   5   8  2   
  9   6   9  2   
 10   6  10  1   
 11   7  11  2   
 12   7  12  am  
 13   8   9  1   
 14   8  29  1   
 15   9  30  1   
 16  10  31  1   
 17  10  32  1   
 18  10  33  1   
 19  12  13  1   
 20  12  14  1   
 21  13  15  1   
 22  13  34  1   
 23  13  35  1   
 24  14  16  1   
 25  14  36  1   
 26  14  37  1   
 27  15  17  1   
 28  15  18  1   
 29  15  38  1   
 30  16  17  1   
 31  16  39  1   
 32  16  40  1   
 33  17  19  1   
 34  18  20  1   
 35  18  41  1   
 36  18  42  1   
 37  19  21  1   
 38  19  22  1   
 39  19  43  1   
 40  20  22  1   
 41  21  23  ar  
 42  21  24  ar  
 43  22  44  1   
 44  22  45  1   
 45  23  25  ar  
 46  23  46  1   
 47  24  26  ar  
 48  24  47  1   
 49  25  27  ar  
 50  25  48  1   
 51  26  27  ar  
 52  26  49  1   
 53  27  50  1   
@<TRIPOS>SUBSTRUCTURE
  1 ****  12 GROUP 4 **** **** 0

# MOE 2024.06 (io_trps.svl 2023.06)
