@<TRIPOS>MOLECULE
NONAME
52 54 1 0 0 
SMALL
USER_CHARGES


@<TRIPOS>ATOM
  1 S       -0.5520     0.3410     2.2940 S.3   1 <1>  -0.0800 
  2 C        0.2000    -0.9570     1.3530 C.2   1 <1>  -0.0450 
  3 C        0.3220     1.5680     1.4080 C.2   1 <1>  -0.1400 
  4 C       -0.1340    -2.3320     1.6290 C.2   1 <1>   0.7150 
  5 C        1.0630    -0.4070     0.4600 C.2   1 <1>  -0.1500 
  6 C        1.1280     1.0160     0.4920 C.2   1 <1>  -0.1810 
  7 C        0.1360     3.0370     1.7070 C.3   1 <1>   0.0200 
  8 O        0.7710    -3.1160     1.8560 O.2   1 <1>  -0.5700 
  9 N       -1.4350    -2.7950     1.6400 N.am  1 <1>  -0.6600 
 10 C        2.0130     1.8540    -0.4120 C.3   1 <1>   0.0210 
 11 C        0.7630     3.8630     0.5670 C.3   1 <1>  -0.1600 
 12 C       -1.7250    -4.2220     1.9780 C.3   1 <1>   0.3210 
 13 C       -2.5940    -2.0250     1.0820 C.3   1 <1>   0.1400 
 14 C        2.1360     3.3070     0.1150 C.3   1 <1>  -0.0800 
 15 C       -1.9630    -5.0490     0.7170 C.2   1 <1>   0.0460 
 16 C       -2.4270    -1.6160    -0.3960 C.3   1 <1>   0.1200 
 17 C        2.7660     4.2510    -0.9280 C.3   1 <1>  -0.1600 
 18 N       -3.1670    -5.0470     0.1020 N.2   1 <1>  -0.5650 
 19 C       -1.0870    -5.8340     0.0460 C.2   1 <1>  -0.3320 
 20 O       -1.9730    -2.6750    -1.1660 O.3   1 <1>  -0.6800 
 21 C        4.1960     3.8540    -1.3230 C.3   1 <1>  -0.1600 
 22 C       -2.9970    -5.8230    -0.9190 C.2   1 <1>   0.0360 
 23 N       -1.7530    -6.3320    -1.0110 N.pl3 1 <1>   0.0330 
 24 C        0.3770    -6.1430     0.3130 C.3   1 <1>  -0.0600 
 25 C        4.8090     4.8870    -2.2720 C.3   1 <1>  -0.2400 
 26 H        1.6610    -0.9800    -0.2270 H     1 <1>   0.1500 
 27 H        0.6210     3.2650     2.6400 H     1 <1>   0.0800 
 28 H       -0.9100     3.2690     1.7960 H     1 <1>   0.0800 
 29 H        1.5870     1.8530    -1.4000 H     1 <1>   0.0800 
 30 H        2.9870     1.4020    -0.4620 H     1 <1>   0.0800 
 31 H        0.8650     4.8830     0.8940 H     1 <1>   0.0800 
 32 H        0.0920     3.8520    -0.2740 H     1 <1>   0.0800 
 33 H       -2.6000    -4.2710     2.6010 H     1 <1>   0.0800 
 34 H       -0.9120    -4.6500     2.5360 H     1 <1>   0.0800 
 35 H       -2.7590    -1.1450     1.6750 H     1 <1>   0.0800 
 36 H       -3.4890    -2.6170     1.1640 H     1 <1>   0.0800 
 37 H        2.7770     3.2870     0.9810 H     1 <1>   0.0800 
 38 H       -1.7280    -0.8050    -0.5000 H     1 <1>   0.0800 
 39 H       -3.3750    -1.3000    -0.7950 H     1 <1>   0.0800 
 40 H        2.7910     5.2470    -0.5200 H     1 <1>   0.0800 
 41 H        2.1470     4.2770    -1.8090 H     1 <1>   0.0800 
 42 H       -2.2550    -3.5300    -0.7480 H     1 <1>   0.4000 
 43 H        4.1950     2.8950    -1.8120 H     1 <1>   0.0800 
 44 H        4.8090     3.7800    -0.4400 H     1 <1>   0.0800 
 45 H       -3.7620    -6.0520    -1.6410 H     1 <1>   0.1500 
 46 H       -1.3910    -6.9540    -1.7390 H     1 <1>   0.2700 
 47 H        0.7030    -5.6870     1.2300 H     1 <1>   0.0800 
 48 H        0.9860    -5.7580    -0.4860 H     1 <1>   0.0800 
 49 H        0.5270    -7.2050     0.3910 H     1 <1>   0.0800 
 50 H        4.2230     4.9670    -3.1710 H     1 <1>   0.0800 
 51 H        5.8080     4.5920    -2.5410 H     1 <1>   0.0800 
 52 H        4.8540     5.8530    -1.8010 H     1 <1>   0.0800 
@<TRIPOS>BOND
  1   1   2  1   
  2   1   3  1   
  3   2   4  1   
  4   2   5  2   
  5   3   6  2   
  6   3   7  1   
  7   4   8  2   
  8   4   9  am  
  9   5   6  1   
 10   5  26  1   
 11   6  10  1   
 12   7  11  1   
 13   7  27  1   
 14   7  28  1   
 15   9  12  1   
 16   9  13  1   
 17  10  14  1   
 18  10  29  1   
 19  10  30  1   
 20  11  14  1   
 21  11  31  1   
 22  11  32  1   
 23  12  15  1   
 24  12  33  1   
 25  12  34  1   
 26  13  16  1   
 27  13  35  1   
 28  13  36  1   
 29  14  17  1   
 30  14  37  1   
 31  15  18  1   
 32  15  19  2   
 33  16  20  1   
 34  16  38  1   
 35  16  39  1   
 36  17  21  1   
 37  17  40  1   
 38  17  41  1   
 39  18  22  2   
 40  19  23  1   
 41  19  24  1   
 42  20  42  1   
 43  21  25  1   
 44  21  43  1   
 45  21  44  1   
 46  22  23  1   
 47  22  45  1   
 48  23  46  1   
 49  24  47  1   
 50  24  48  1   
 51  24  49  1   
 52  25  50  1   
 53  25  51  1   
 54  25  52  1   
@<TRIPOS>SUBSTRUCTURE
  1 ****   2 GROUP 4 **** **** 0

# MOE 2024.06 (io_trps.svl 2023.06)
