@<TRIPOS>MOLECULE
NONAME
46 48 1 0 0 
SMALL
USER_CHARGES


@<TRIPOS>ATOM
  1 O       -0.6690     0.3660     1.4070 O.2   1 <1>  -0.5700 
  2 C       -1.4710     0.9120     0.6850 C.2   1 <1>   0.5690 
  3 N       -2.4650     0.1810     0.0830 N.am  1 <1>  -0.6600 
  4 C       -1.3080     2.4280     0.5120 C.3   1 <1>  -0.0190 
  5 C       -3.5010     0.6150    -0.8910 C.3   1 <1>   0.1400 
  6 C       -2.7020    -1.2350     0.4530 C.3   1 <1>   0.1400 
  7 C       -2.4160     3.2370     1.2120 C.3   1 <1>  -0.1600 
  8 C       -1.1140     2.9060    -0.9400 C.3   1 <1>  -0.1600 
  9 C       -4.5440    -0.5090    -0.9230 C.3   1 <1>   0.2000 
 10 C       -3.7340    -1.7540    -0.5510 C.3   1 <1>  -0.0800 
 11 C       -2.2190     4.7400     0.9890 C.3   1 <1>   0.1200 
 12 C       -0.9940     4.4320    -0.9910 C.3   1 <1>   0.1200 
 13 O       -5.5170    -0.2920     0.0610 O.3   1 <1>  -0.5600 
 14 C       -4.5760    -2.9280    -0.0180 C.3   1 <1>   0.0200 
 15 O       -2.1140     4.9940    -0.3780 O.3   1 <1>  -0.5600 
 16 C       -6.5670     0.5440    -0.3140 C.3   1 <1>   0.0400 
 17 C       -3.7740    -4.2040     0.1750 C.2   1 <1>  -0.0400 
 18 O       -4.3720    -5.2490     0.6830 O.3   1 <1>  -0.0190 
 19 C       -2.5000    -4.5470    -0.0750 C.2   1 <1>  -0.1500 
 20 N       -3.5690    -6.2680     0.7890 N.2   1 <1>  -0.4100 
 21 C       -2.4320    -5.8730     0.3410 C.2   1 <1>   0.1080 
 22 C       -1.1940    -6.7390     0.2790 C.3   1 <1>  -0.0590 
 23 H       -0.3940     2.6790     1.0240 H     1 <1>   0.0800 
 24 H       -3.9440     1.5550    -0.6240 H     1 <1>   0.0800 
 25 H       -3.0450     0.6930    -1.8610 H     1 <1>   0.0800 
 26 H       -1.7850    -1.7960     0.4200 H     1 <1>   0.0800 
 27 H       -3.1000    -1.2640     1.4540 H     1 <1>   0.0800 
 28 H       -2.3990     3.0280     2.2670 H     1 <1>   0.0800 
 29 H       -3.3860     2.9650     0.8470 H     1 <1>   0.0800 
 30 H       -1.9430     2.6270    -1.5590 H     1 <1>   0.0800 
 31 H       -0.2270     2.4600    -1.3530 H     1 <1>   0.0800 
 32 H       -5.0220    -0.6100    -1.8820 H     1 <1>   0.0800 
 33 H       -3.2060    -2.0760    -1.4310 H     1 <1>   0.0800 
 34 H       -1.3260     5.0960     1.4760 H     1 <1>   0.0800 
 35 H       -3.0640     5.2920     1.3630 H     1 <1>   0.0800 
 36 H       -0.9690     4.7770    -2.0100 H     1 <1>   0.0800 
 37 H       -0.1100     4.7770    -0.4810 H     1 <1>   0.0800 
 38 H       -5.3750    -3.1330    -0.7080 H     1 <1>   0.0800 
 39 H       -5.0220    -2.6580     0.9240 H     1 <1>   0.0800 
 40 H       -7.2380     0.6290     0.5230 H     1 <1>   0.0800 
 41 H       -7.0880     0.1090    -1.1490 H     1 <1>   0.0800 
 42 H       -6.1850     1.5170    -0.5680 H     1 <1>   0.0800 
 43 H       -1.6920    -3.9760    -0.4920 H     1 <1>   0.1500 
 44 H       -0.4120    -6.2980     0.8690 H     1 <1>   0.0800 
 45 H       -0.8640    -6.8310    -0.7390 H     1 <1>   0.0800 
 46 H       -1.4120    -7.7180     0.6650 H     1 <1>   0.0800 
@<TRIPOS>BOND
  1   1   2  2   
  2   2   3  am  
  3   2   4  1   
  4   3   5  1   
  5   3   6  1   
  6   4   7  1   
  7   4   8  1   
  8   4  23  1   
  9   5   9  1   
 10   5  24  1   
 11   5  25  1   
 12   6  10  1   
 13   6  26  1   
 14   6  27  1   
 15   7  11  1   
 16   7  28  1   
 17   7  29  1   
 18   8  12  1   
 19   8  30  1   
 20   8  31  1   
 21   9  10  1   
 22   9  13  1   
 23   9  32  1   
 24  10  14  1   
 25  10  33  1   
 26  11  15  1   
 27  11  34  1   
 28  11  35  1   
 29  12  15  1   
 30  12  36  1   
 31  12  37  1   
 32  13  16  1   
 33  14  17  1   
 34  14  38  1   
 35  14  39  1   
 36  16  40  1   
 37  16  41  1   
 38  16  42  1   
 39  17  18  1   
 40  17  19  2   
 41  18  20  1   
 42  19  21  1   
 43  19  43  1   
 44  20  21  2   
 45  21  22  1   
 46  22  44  1   
 47  22  45  1   
 48  22  46  1   
@<TRIPOS>SUBSTRUCTURE
  1 ****   6 GROUP 4 **** **** 0

# MOE 2024.06 (io_trps.svl 2023.06)
