@<TRIPOS>MOLECULE
NONAME
52 55 1 0 0 
SMALL
USER_CHARGES


@<TRIPOS>ATOM
  1 S       -1.4560     0.3440     0.6450 S.o2  1 <1>   1.0900 
  2 O       -0.7720    -0.8640     0.2650 O.2   1 <1>  -0.6500 
  3 O       -2.1230     1.1170    -0.3790 O.2   1 <1>  -0.6500 
  4 C       -2.7500    -0.1790     1.7500 C.3   1 <1>  -0.0550 
  5 C       -0.3800     1.3900     1.6090 C.3   1 <1>  -0.1350 
  6 C       -3.6320    -1.1920     1.0220 C.3   1 <1>   0.3430 
  7 N       -4.3010    -0.5980    -0.1770 N.4   1 <1>  -0.9590 
  8 C       -5.4590     0.2940     0.1720 C.3   1 <1>   0.3430 
  9 C       -4.7020    -1.6550    -1.1500 C.3   1 <1>   0.3430 
 10 C       -6.0300     1.0020    -1.0680 C.3   1 <1>   0.1430 
 11 C       -5.2340    -1.0060    -2.4310 C.3   1 <1>  -0.1600 
 12 C       -7.2560     1.7800    -0.6550 C.ar  1 <1>   0.1670 
 13 C       -6.3940    -0.0330    -2.1530 C.3   1 <1>  -0.1600 
 14 C       -5.1000     2.1180    -1.6170 C.3   1 <1>  -0.1600 
 15 N       -8.2120     1.3110     0.1070 N.ar  1 <1>  -0.6200 
 16 C       -7.2460     3.0440    -1.1570 C.ar  1 <1>  -0.1430 
 17 C       -6.0100     3.3080    -1.9800 C.3   1 <1>  -0.0170 
 18 C       -9.2230     2.1600     0.3520 C.ar  1 <1>   0.6200 
 19 C       -8.3070     3.8540    -0.8510 C.ar  1 <1>   0.1600 
 20 N       -9.2940     3.4190    -0.1000 N.ar  1 <1>  -0.6200 
 21 C      -10.3260     1.6760     1.1720 C.ar  1 <1>   0.0000 
 22 C      -10.1370     0.7120     2.1670 C.ar  1 <1>  -0.1500 
 23 C      -11.6280     2.1560     1.0000 C.ar  1 <1>  -0.1500 
 24 C      -11.1850     0.2520     2.9430 C.ar  1 <1>  -0.1500 
 25 C      -12.6810     1.7010     1.7730 C.ar  1 <1>  -0.1500 
 26 C      -12.4610     0.7450     2.7470 C.ar  1 <1>  -0.1500 
 27 H       -3.3340     0.6540     2.0890 H     1 <1>   0.0800 
 28 H       -2.3190    -0.6600     2.6070 H     1 <1>   0.0800 
 29 H        0.4290     1.7430     0.9990 H     1 <1>   0.0800 
 30 H        0.0380     0.8470     2.4350 H     1 <1>   0.0800 
 31 H       -0.9110     2.2420     1.9860 H     1 <1>   0.0800 
 32 H       -4.3750    -1.5850     1.6970 H     1 <1>   0.0800 
 33 H       -3.0040    -2.0120     0.7060 H     1 <1>   0.0800 
 34 H       -3.6010     0.0010    -0.6670 H     1 <1>   0.4500 
 35 H       -5.1550     1.0410     0.8850 H     1 <1>   0.0800 
 36 H       -6.2450    -0.2930     0.6200 H     1 <1>   0.0800 
 37 H       -5.4690    -2.2780    -0.7170 H     1 <1>   0.0800 
 38 H       -3.8530    -2.2760    -1.3910 H     1 <1>   0.0800 
 39 H       -5.5760    -1.7810    -3.0950 H     1 <1>   0.0800 
 40 H       -4.4270    -0.4970    -2.9300 H     1 <1>   0.0800 
 41 H       -6.6830     0.4670    -3.0610 H     1 <1>   0.0800 
 42 H       -7.2480    -0.6010    -1.8180 H     1 <1>   0.0800 
 43 H       -4.5110     1.8060    -2.4600 H     1 <1>   0.0800 
 44 H       -4.4290     2.4440    -0.8410 H     1 <1>   0.0800 
 45 H       -6.2620     3.2920    -3.0260 H     1 <1>   0.0800 
 46 H       -5.5530     4.2500    -1.7290 H     1 <1>   0.0800 
 47 H       -8.3530     4.8650    -1.2220 H     1 <1>   0.1500 
 48 H       -9.1520     0.3170     2.3370 H     1 <1>   0.1500 
 49 H      -11.8190     2.9000     0.2460 H     1 <1>   0.1500 
 50 H      -11.0100    -0.4910     3.7020 H     1 <1>   0.1500 
 51 H      -13.6710     2.0900     1.6150 H     1 <1>   0.1500 
 52 H      -13.2790     0.3890     3.3500 H     1 <1>   0.1500 
@<TRIPOS>BOND
  1   1   2  2   
  2   1   3  2   
  3   1   4  1   
  4   1   5  1   
  5   4   6  1   
  6   4  27  1   
  7   4  28  1   
  8   5  29  1   
  9   5  30  1   
 10   5  31  1   
 11   6   7  1   
 12   6  32  1   
 13   6  33  1   
 14   7   8  1   
 15   7   9  1   
 16   7  34  1   
 17   8  10  1   
 18   8  35  1   
 19   8  36  1   
 20   9  11  1   
 21   9  37  1   
 22   9  38  1   
 23  10  12  1   
 24  10  13  1   
 25  10  14  1   
 26  11  13  1   
 27  11  39  1   
 28  11  40  1   
 29  12  15  ar  
 30  12  16  ar  
 31  13  41  1   
 32  13  42  1   
 33  14  17  1   
 34  14  43  1   
 35  14  44  1   
 36  15  18  ar  
 37  16  17  1   
 38  16  19  ar  
 39  17  45  1   
 40  17  46  1   
 41  18  20  ar  
 42  18  21  1   
 43  19  20  ar  
 44  19  47  1   
 45  21  22  ar  
 46  21  23  ar  
 47  22  24  ar  
 48  22  48  1   
 49  23  25  ar  
 50  23  49  1   
 51  24  26  ar  
 52  24  50  1   
 53  25  26  ar  
 54  25  51  1   
 55  26  52  1   
@<TRIPOS>SUBSTRUCTURE
  1 ****  12 GROUP 4 **** **** 0

# MOE 2024.06 (io_trps.svl 2023.06)
