@<TRIPOS>MOLECULE
NONAME
63 64 1 0 0 
SMALL
USER_CHARGES


@<TRIPOS>ATOM
  1 O       -0.0540     1.5100     1.3300 O.2   1 <1>  -0.5700 
  2 C        0.0990     1.8310     0.1520 C.2   1 <1>   0.5690 
  3 N       -0.8660     1.5340    -0.7650 N.am  1 <1>  -0.7300 
  4 C        1.4140     2.5160    -0.3080 C.3   1 <1>   0.2810 
  5 C       -2.2480     1.0880    -0.4620 C.3   1 <1>   0.1400 
  6 N        2.5270     1.5610    -0.2680 N.am  1 <1>  -0.7300 
  7 C        1.7450     3.7890     0.5200 C.3   1 <1>  -0.0800 
  8 C       -2.3270    -0.4430    -0.4400 C.3   1 <1>  -0.1600 
  9 C        3.5210     1.4860    -1.1620 C.2   1 <1>   0.5690 
 10 C        0.5530     4.7630     0.5960 C.3   1 <1>  -0.2400 
 11 C        2.9620     4.5700    -0.0110 C.3   1 <1>  -0.2400 
 12 C       -1.6420    -1.0100     0.8030 C.3   1 <1>   0.3430 
 13 O        3.5680     2.2480    -2.1200 O.2   1 <1>  -0.5700 
 14 C        4.6070     0.3890    -0.9560 C.3   1 <1>   0.2810 
 15 N       -1.3560    -2.4540     0.6060 N.4   1 <1>  -0.9590 
 16 N        4.1360    -0.7270    -0.1240 N.am  1 <1>  -0.7300 
 17 C        5.8560     0.9610    -0.2820 C.3   1 <1>  -0.2400 
 18 C        0.0280    -2.8440     0.9890 C.3   1 <1>   0.3430 
 19 C       -2.3940    -3.3520     1.1960 C.3   1 <1>   0.4860 
 20 C        3.3510    -1.7060    -0.6360 C.2   1 <1>   0.5690 
 21 C        1.0130    -2.1930     0.0160 C.3   1 <1>  -0.1600 
 22 C       -2.4230    -4.6600     0.4070 C.ar  1 <1>   0.1670 
 23 O        3.2410    -1.8830    -1.8210 O.2   1 <1>  -0.5700 
 24 C        2.4880    -2.5340     0.2950 C.3   1 <1>  -0.0990 
 25 N       -2.1850    -4.5610    -0.8980 N.ar  1 <1>  -0.6200 
 26 C       -2.6790    -5.8560     1.0630 C.ar  1 <1>  -0.1500 
 27 C       -2.2110    -5.7020    -1.5730 C.ar  1 <1>   0.1600 
 28 C       -2.7000    -7.0320     0.3450 C.ar  1 <1>  -0.1500 
 29 C       -2.4590    -6.9410    -1.0090 C.ar  1 <1>  -0.1500 
 30 H       -0.6830     1.7460    -1.7520 H     1 <1>   0.3700 
 31 H        1.2630     2.8330    -1.3410 H     1 <1>   0.0800 
 32 H       -2.5600     1.4940     0.4880 H     1 <1>   0.0800 
 33 H       -2.9090     1.4750    -1.2190 H     1 <1>   0.0800 
 34 H        2.5450     0.9120     0.4980 H     1 <1>   0.3700 
 35 H        1.9720     3.4720     1.5400 H     1 <1>   0.0800 
 36 H       -1.8690    -0.8200    -1.3370 H     1 <1>   0.0800 
 37 H       -3.3610    -0.7360    -0.4340 H     1 <1>   0.0800 
 38 H        0.2600     5.0800    -0.4060 H     1 <1>   0.0800 
 39 H        0.8290     5.6440     1.1770 H     1 <1>   0.0800 
 40 H       -0.2990     4.2940     1.0910 H     1 <1>   0.0800 
 41 H        2.8070     4.8460    -1.0550 H     1 <1>   0.0800 
 42 H        3.8640     3.9620     0.0620 H     1 <1>   0.0800 
 43 H        3.1190     5.4740     0.5790 H     1 <1>   0.0800 
 44 H       -2.2490    -0.8480     1.6800 H     1 <1>   0.0800 
 45 H       -0.7160    -0.4910     0.9540 H     1 <1>   0.0800 
 46 H        4.8870     0.0190    -1.9450 H     1 <1>   0.0800 
 47 H       -1.4360    -2.6800    -0.4040 H     1 <1>   0.4500 
 48 H        4.3600    -0.7060     0.8550 H     1 <1>   0.3700 
 49 H        5.6060     1.3590     0.7020 H     1 <1>   0.0800 
 50 H        6.2570     1.7670    -0.8980 H     1 <1>   0.0800 
 51 H        6.6130     0.1820    -0.1850 H     1 <1>   0.0800 
 52 H        0.2380    -2.5300     1.9990 H     1 <1>   0.0800 
 53 H        0.1350    -3.9160     0.9290 H     1 <1>   0.0800 
 54 H       -2.1900    -3.5390     2.2370 H     1 <1>   0.0800 
 55 H       -3.3630    -2.8900     1.1100 H     1 <1>   0.0800 
 56 H        0.7760    -2.5120    -0.9850 H     1 <1>   0.0800 
 57 H        0.9200    -1.1230     0.0530 H     1 <1>   0.0800 
 58 H        2.6750    -3.5760     0.1040 H     1 <1>   0.0800 
 59 H        2.7420    -2.3180     1.3160 H     1 <1>   0.0800 
 60 H       -2.8660    -5.8830     2.1220 H     1 <1>   0.1500 
 61 H       -2.0260    -5.6510    -2.6340 H     1 <1>   0.1500 
 62 H       -2.8970    -7.9810     0.8160 H     1 <1>   0.1500 
 63 H       -2.4640    -7.8240    -1.6250 H     1 <1>   0.1500 
@<TRIPOS>BOND
  1   1   2  2   
  2   2   3  am  
  3   2   4  1   
  4   3   5  1   
  5   3  30  1   
  6   4   6  1   
  7   4   7  1   
  8   4  31  1   
  9   5   8  1   
 10   5  32  1   
 11   5  33  1   
 12   6   9  am  
 13   6  34  1   
 14   7  10  1   
 15   7  11  1   
 16   7  35  1   
 17   8  12  1   
 18   8  36  1   
 19   8  37  1   
 20   9  13  2   
 21   9  14  1   
 22  10  38  1   
 23  10  39  1   
 24  10  40  1   
 25  11  41  1   
 26  11  42  1   
 27  11  43  1   
 28  12  15  1   
 29  12  44  1   
 30  12  45  1   
 31  14  16  1   
 32  14  17  1   
 33  14  46  1   
 34  15  18  1   
 35  15  19  1   
 36  15  47  1   
 37  16  20  am  
 38  16  48  1   
 39  17  49  1   
 40  17  50  1   
 41  17  51  1   
 42  18  21  1   
 43  18  52  1   
 44  18  53  1   
 45  19  22  1   
 46  19  54  1   
 47  19  55  1   
 48  20  23  2   
 49  20  24  1   
 50  21  24  1   
 51  21  56  1   
 52  21  57  1   
 53  22  25  ar  
 54  22  26  ar  
 55  24  58  1   
 56  24  59  1   
 57  25  27  ar  
 58  26  28  ar  
 59  26  60  1   
 60  27  29  ar  
 61  27  61  1   
 62  28  29  ar  
 63  28  62  1   
 64  29  63  1   
@<TRIPOS>SUBSTRUCTURE
  1 ****  21 GROUP 4 **** **** 0

# MOE 2024.06 (io_trps.svl 2023.06)
