@<TRIPOS>MOLECULE
NONAME
41 42 1 0 0 
SMALL
USER_CHARGES


@<TRIPOS>ATOM
  1 CL      -0.8440    -0.5830     1.2000 Cl    1 <1>  -0.1770 
  2 C        0.6820     0.2160     0.9140 C.ar  1 <1>   0.1770 
  3 C        1.6330    -0.3750     0.0870 C.ar  1 <1>   0.0860 
  4 C        0.9020     1.4280     1.5430 C.ar  1 <1>  -0.1500 
  5 C        2.8320     0.3130    -0.0730 C.ar  1 <1>   0.1770 
  6 C        1.3880    -1.6290    -0.5700 C.2   1 <1>   0.5440 
  7 C        2.1050     2.0900     1.3590 C.ar  1 <1>  -0.1500 
  8 CL       4.0940    -0.3550    -1.0790 Cl    1 <1>  -0.1770 
  9 C        3.0740     1.5260     0.5470 C.ar  1 <1>  -0.1500 
 10 O        0.6730    -1.6840    -1.5510 O.2   1 <1>  -0.5700 
 11 N        1.9350    -2.7830    -0.0900 N.am  1 <1>  -0.7300 
 12 C        1.6780    -4.1160    -0.6720 C.3   1 <1>   0.2200 
 13 C        0.3240    -4.6210    -0.1810 C.3   1 <1>  -0.0800 
 14 C        2.6640    -5.1550    -0.1430 C.3   1 <1>   0.1200 
 15 C        0.6670    -5.8610     0.6490 C.3   1 <1>   0.1200 
 16 C       -0.6330    -4.8900    -1.3550 C.3   1 <1>  -0.0550 
 17 O        2.0250    -5.7540     0.9350 O.3   1 <1>  -0.5600 
 18 S       -2.3150    -5.2610    -0.8590 S.o2  1 <1>   1.3330 
 19 O       -2.2840    -6.4370    -0.0180 O.2   1 <1>  -0.6500 
 20 O       -3.1650    -5.2480    -2.0280 O.2   1 <1>  -0.6500 
 21 N       -2.7660    -3.9450     0.1130 N.am  1 <1>  -0.8490 
 22 C       -2.9350    -2.6950    -0.6380 C.3   1 <1>   0.1160 
 23 C       -3.9750    -4.2300     0.8870 C.3   1 <1>   0.1160 
 24 H        0.1380     1.8500     2.1730 H     1 <1>   0.1500 
 25 H        2.2840     3.0350     1.8440 H     1 <1>   0.1500 
 26 H        4.0160     2.0240     0.3930 H     1 <1>   0.1500 
 27 H        2.3830    -2.8010     0.8300 H     1 <1>   0.3700 
 28 H        1.7380    -4.0550    -1.7460 H     1 <1>   0.0800 
 29 H       -0.1250    -3.8950     0.4750 H     1 <1>   0.0800 
 30 H        3.5960    -4.7260     0.1800 H     1 <1>   0.0800 
 31 H        2.8440    -5.9170    -0.8810 H     1 <1>   0.0800 
 32 H        0.5150    -6.7710     0.0950 H     1 <1>   0.0800 
 33 H        0.1130    -5.9010     1.5720 H     1 <1>   0.0800 
 34 H       -0.2540    -5.7000    -1.9470 H     1 <1>   0.0800 
 35 H       -0.6500    -4.0180    -1.9810 H     1 <1>   0.0800 
 36 H       -3.2010    -1.8950     0.0320 H     1 <1>   0.0800 
 37 H       -3.7090    -2.8000    -1.3800 H     1 <1>   0.0800 
 38 H       -2.0150    -2.4240    -1.1280 H     1 <1>   0.0800 
 39 H       -4.2160    -3.3960     1.5230 H     1 <1>   0.0800 
 40 H       -3.8170    -5.0950     1.5100 H     1 <1>   0.0800 
 41 H       -4.8040    -4.4270     0.2260 H     1 <1>   0.0800 
@<TRIPOS>BOND
  1   1   2  1   
  2   2   3  ar  
  3   2   4  ar  
  4   3   5  ar  
  5   3   6  1   
  6   4   7  ar  
  7   4  24  1   
  8   5   8  1   
  9   5   9  ar  
 10   6  10  2   
 11   6  11  am  
 12   7   9  ar  
 13   7  25  1   
 14   9  26  1   
 15  11  12  1   
 16  11  27  1   
 17  12  13  1   
 18  12  14  1   
 19  12  28  1   
 20  13  15  1   
 21  13  16  1   
 22  13  29  1   
 23  14  17  1   
 24  14  30  1   
 25  14  31  1   
 26  15  17  1   
 27  15  32  1   
 28  15  33  1   
 29  16  18  1   
 30  16  34  1   
 31  16  35  1   
 32  18  19  2   
 33  18  20  2   
 34  18  21  am  
 35  21  22  1   
 36  21  23  1   
 37  22  36  1   
 38  22  37  1   
 39  22  38  1   
 40  23  39  1   
 41  23  40  1   
 42  23  41  1   
@<TRIPOS>SUBSTRUCTURE
  1 ****   6 GROUP 4 **** **** 0

# MOE 2024.06 (io_trps.svl 2023.06)
