@<TRIPOS>MOLECULE
NONAME
52 56 1 0 0 
SMALL
USER_CHARGES


@<TRIPOS>ATOM
  1 CL      -1.8620     0.6100     0.1890 Cl    1 <1>  -0.1770 
  2 C       -2.9810    -0.7290     0.1810 C.ar  1 <1>   0.1770 
  3 C       -3.8450    -0.9030     1.2360 C.ar  1 <1>  -0.1500 
  4 C       -2.9780    -1.5990    -0.8990 C.ar  1 <1>  -0.1500 
  5 C       -4.7460    -1.9720     1.2410 C.ar  1 <1>   0.0860 
  6 C       -3.8590    -2.6590    -0.9130 C.ar  1 <1>  -0.1500 
  7 C       -5.6710    -2.2090     2.3160 C.2   1 <1>   0.4690 
  8 C       -4.7480    -2.8560     0.1450 C.ar  1 <1>   0.1000 
  9 O       -5.7360    -1.4770     3.2910 O.2   1 <1>  -0.5700 
 10 C       -6.5440    -3.3230     2.2210 C.2   1 <1>  -0.1360 
 11 N       -5.6360    -3.9300     0.1240 N.pl3 1 <1>  -0.6000 
 12 C       -6.5330    -4.1570     1.1510 C.2   1 <1>  -0.0380 
 13 C       -7.5060    -5.3280     1.0420 C.3   1 <1>   0.4810 
 14 N       -8.5020    -5.0150    -0.0200 N.4   1 <1>  -0.9590 
 15 C       -9.3730    -3.8570     0.3890 C.3   1 <1>   0.3430 
 16 C       -9.3250    -6.2040    -0.3860 C.3   1 <1>   0.3430 
 17 C      -10.3280    -3.4280    -0.7360 C.3   1 <1>   0.1440 
 18 C      -10.2550    -5.8500    -1.5510 C.3   1 <1>  -0.1600 
 19 C      -11.2430    -2.3600    -0.1910 C.ar  1 <1>   0.1670 
 20 C      -11.1490    -4.6370    -1.2330 C.3   1 <1>  -0.1600 
 21 C       -9.6060    -2.6910    -1.8980 C.3   1 <1>  -0.1600 
 22 N      -11.8730    -2.4390     0.9580 N.ar  1 <1>  -0.6200 
 23 C      -11.3270    -1.2870    -1.0240 C.ar  1 <1>  -0.1430 
 24 C      -10.4810    -1.4730    -2.2580 C.3   1 <1>  -0.0170 
 25 C      -12.6210    -1.3780     1.2370 C.ar  1 <1>   0.4770 
 26 C      -12.1260    -0.2420    -0.6340 C.ar  1 <1>   0.1600 
 27 N      -12.7820    -0.2820     0.5080 N.ar  1 <1>  -0.6200 
 28 C      -13.3750    -1.4150     2.5440 C.3   1 <1>  -0.0970 
 29 H       -3.8270    -0.2150     2.0640 H     1 <1>   0.1500 
 30 H       -2.2860    -1.4330    -1.7070 H     1 <1>   0.1500 
 31 H       -3.8580    -3.3360    -1.7480 H     1 <1>   0.1500 
 32 H       -7.2130    -3.4490     3.0530 H     1 <1>   0.1500 
 33 H       -5.5000    -4.6040    -0.6400 H     1 <1>   0.4000 
 34 H       -8.0060    -5.4810     1.9850 H     1 <1>   0.0800 
 35 H       -6.9590    -6.2240     0.7950 H     1 <1>   0.0800 
 36 H       -7.9730    -4.7100    -0.8450 H     1 <1>   0.4500 
 37 H       -8.7690    -3.0100     0.6690 H     1 <1>   0.0800 
 38 H       -9.9650    -4.1350     1.2470 H     1 <1>   0.0800 
 39 H       -9.9170    -6.5120     0.4620 H     1 <1>   0.0800 
 40 H       -8.6890    -7.0260    -0.6720 H     1 <1>   0.0800 
 41 H      -10.8830    -6.6990    -1.7630 H     1 <1>   0.0800 
 42 H       -9.6700    -5.6650    -2.4340 H     1 <1>   0.0800 
 43 H      -11.7250    -4.3620    -2.1000 H     1 <1>   0.0800 
 44 H      -11.8500    -4.9170    -0.4640 H     1 <1>   0.0800 
 45 H       -9.4440    -3.3150    -2.7590 H     1 <1>   0.0800 
 46 H       -8.6540    -2.3220    -1.5580 H     1 <1>   0.0800 
 47 H      -11.1160    -1.6910    -3.1000 H     1 <1>   0.0800 
 48 H       -9.8850    -0.6010    -2.4690 H     1 <1>   0.0800 
 49 H      -12.2320     0.6330    -1.2530 H     1 <1>   0.1500 
 50 H      -13.5160    -2.4290     2.8680 H     1 <1>   0.0800 
 51 H      -14.3370    -0.9520     2.4230 H     1 <1>   0.0800 
 52 H      -12.8200    -0.8780     3.2890 H     1 <1>   0.0800 
@<TRIPOS>BOND
  1   1   2  1   
  2   2   3  ar  
  3   2   4  ar  
  4   3   5  ar  
  5   3  29  1   
  6   4   6  ar  
  7   4  30  1   
  8   5   7  1   
  9   5   8  ar  
 10   6   8  ar  
 11   6  31  1   
 12   7   9  2   
 13   7  10  1   
 14   8  11  1   
 15  10  12  2   
 16  10  32  1   
 17  11  12  1   
 18  11  33  1   
 19  12  13  1   
 20  13  14  1   
 21  13  34  1   
 22  13  35  1   
 23  14  15  1   
 24  14  16  1   
 25  14  36  1   
 26  15  17  1   
 27  15  37  1   
 28  15  38  1   
 29  16  18  1   
 30  16  39  1   
 31  16  40  1   
 32  17  19  1   
 33  17  20  1   
 34  17  21  1   
 35  18  20  1   
 36  18  41  1   
 37  18  42  1   
 38  19  22  ar  
 39  19  23  ar  
 40  20  43  1   
 41  20  44  1   
 42  21  24  1   
 43  21  45  1   
 44  21  46  1   
 45  22  25  ar  
 46  23  24  1   
 47  23  26  ar  
 48  24  47  1   
 49  24  48  1   
 50  25  27  ar  
 51  25  28  1   
 52  26  27  ar  
 53  26  49  1   
 54  28  50  1   
 55  28  51  1   
 56  28  52  1   
@<TRIPOS>SUBSTRUCTURE
  1 ****  15 GROUP 4 **** **** 0

# MOE 2024.06 (io_trps.svl 2023.06)
