@<TRIPOS>MOLECULE
NONAME
44 46 1 0 0 
SMALL
USER_CHARGES


@<TRIPOS>ATOM
  1 S       -0.2080     0.3230     0.7410 S.3   1 <1>  -0.0800 
  2 C        0.8830    -1.0060     0.3690 C.2   1 <1>   0.4620 
  3 C        1.1460     1.4150     0.7200 C.2   1 <1>  -0.1100 
  4 N        2.1100    -0.6460     0.2500 N.2   1 <1>  -0.5650 
  5 N        0.3760    -2.2750     0.2380 N.pl3 1 <1>  -0.8220 
  6 C        2.2620     0.7170     0.4450 C.2   1 <1>   0.0460 
  7 C       -1.0580    -2.6230     0.2580 C.3   1 <1>   0.2090 
  8 C        1.2120    -3.4160    -0.1790 C.3   1 <1>   0.2090 
  9 C        3.6740     1.2800     0.3260 C.3   1 <1>   0.3900 
 10 C       -1.0840    -4.1330     0.0510 C.3   1 <1>  -0.1600 
 11 C        0.2150    -4.4490    -0.6900 C.3   1 <1>  -0.1600 
 12 N        3.6530     2.7650     0.2410 N.pl3 1 <1>  -0.8690 
 13 C        4.7990     3.5210     0.1460 C.ar  1 <1>   0.4100 
 14 N        5.9310     2.8610     0.3620 N.ar  1 <1>  -0.6200 
 15 C        4.7450     4.8890    -0.1790 C.ar  1 <1>   0.0860 
 16 C        7.0590     3.5280     0.2270 C.ar  1 <1>   0.1670 
 17 C        3.4980     5.5990    -0.3460 C.2   1 <1>   0.5440 
 18 C        5.9500     5.5570    -0.3320 C.ar  1 <1>  -0.1500 
 19 C        7.1280     4.8720    -0.1280 C.ar  1 <1>  -0.1430 
 20 C        8.3200     2.7220     0.4810 C.3   1 <1>  -0.0970 
 21 O        3.3580     6.4440    -1.2040 O.2   1 <1>  -0.5700 
 22 N        2.4290     5.3970     0.4610 N.am  1 <1>  -0.8000 
 23 C        8.4530     5.6060    -0.2960 C.3   1 <1>  -0.0970 
 24 H        0.9570     2.4530     0.9190 H     1 <1>   0.1500 
 25 H       -1.5560    -2.1210    -0.5550 H     1 <1>   0.0800 
 26 H       -1.5090    -2.3440     1.1950 H     1 <1>   0.0800 
 27 H        1.7450    -3.7900     0.6790 H     1 <1>   0.0800 
 28 H        1.9140    -3.1240    -0.9430 H     1 <1>   0.0800 
 29 H        4.1380     0.8830    -0.5610 H     1 <1>   0.0800 
 30 H        4.2540     0.9690     1.1780 H     1 <1>   0.0800 
 31 H       -1.9560    -4.4460    -0.4960 H     1 <1>   0.0800 
 32 H       -1.0810    -4.6140     1.0130 H     1 <1>   0.0800 
 33 H        0.5560    -5.4530    -0.5140 H     1 <1>   0.0800 
 34 H        0.0780    -4.3030    -1.7470 H     1 <1>   0.0800 
 35 H        2.8540     3.1070    -0.2990 H     1 <1>   0.4000 
 36 H        5.9470     6.5990    -0.6050 H     1 <1>   0.1500 
 37 H        8.0740     1.7690     0.9150 H     1 <1>   0.0800 
 38 H        8.9670     3.2430     1.1600 H     1 <1>   0.0800 
 39 H        8.8340     2.5520    -0.4470 H     1 <1>   0.0800 
 40 H        1.6110     6.0000     0.3660 H     1 <1>   0.3700 
 41 H        2.4820     4.7950     1.2870 H     1 <1>   0.3700 
 42 H        9.0850     5.0790    -0.9880 H     1 <1>   0.0800 
 43 H        8.9560     5.6820     0.6520 H     1 <1>   0.0800 
 44 H        8.2970     6.6000    -0.6760 H     1 <1>   0.0800 
@<TRIPOS>BOND
  1   1   2  1   
  2   1   3  1   
  3   2   4  2   
  4   2   5  1   
  5   3   6  2   
  6   3  24  1   
  7   4   6  1   
  8   5   7  1   
  9   5   8  1   
 10   6   9  1   
 11   7  10  1   
 12   7  25  1   
 13   7  26  1   
 14   8  11  1   
 15   8  27  1   
 16   8  28  1   
 17   9  12  1   
 18   9  29  1   
 19   9  30  1   
 20  10  11  1   
 21  10  31  1   
 22  10  32  1   
 23  11  33  1   
 24  11  34  1   
 25  12  13  1   
 26  12  35  1   
 27  13  14  ar  
 28  13  15  ar  
 29  14  16  ar  
 30  15  17  1   
 31  15  18  ar  
 32  16  19  ar  
 33  16  20  1   
 34  17  21  2   
 35  17  22  am  
 36  18  19  ar  
 37  18  36  1   
 38  19  23  1   
 39  20  37  1   
 40  20  38  1   
 41  20  39  1   
 42  22  40  1   
 43  22  41  1   
 44  23  42  1   
 45  23  43  1   
 46  23  44  1   
@<TRIPOS>SUBSTRUCTURE
  1 ****   9 GROUP 4 **** **** 0

# MOE 2024.06 (io_trps.svl 2023.06)
