@<TRIPOS>MOLECULE
NONAME
54 57 1 0 0 
SMALL
USER_CHARGES


@<TRIPOS>ATOM
  1 O       -2.2870     2.3000     1.6560 O.2   1 <1>  -0.5700 
  2 C       -2.5890     1.8740     0.5620 C.2   1 <1>   0.5690 
  3 N       -3.7190     1.1260     0.3650 N.am  1 <1>  -0.6600 
  4 C       -1.6640     2.2270    -0.6040 C.3   1 <1>  -0.0190 
  5 C       -4.5240     0.6190     1.5140 C.3   1 <1>   0.1400 
  6 C       -4.2770     0.6960    -0.9500 C.3   1 <1>   0.1400 
  7 C       -0.2600     2.4960    -0.0830 C.3   1 <1>   0.3430 
  8 C       -2.0520     3.5680    -1.2420 C.3   1 <1>  -0.1600 
  9 C       -4.5150    -0.9120     1.4910 C.3   1 <1>  -0.1600 
 10 C       -4.2540    -0.8320    -1.0270 C.3   1 <1>  -0.1600 
 11 N       -0.3330     3.8940     0.4090 N.4   1 <1>  -0.9590 
 12 C       -1.2200     4.6350    -0.5270 C.3   1 <1>   0.3430 
 13 C       -5.0180    -1.4750     0.1450 C.3   1 <1>   0.4240 
 14 C        0.9880     4.5360     0.6650 C.3   1 <1>   0.2630 
 15 O       -6.3360    -1.0010    -0.0230 O.3   1 <1>  -0.5600 
 16 C       -4.9510    -3.0280     0.0780 C.ar  1 <1>  -0.1430 
 17 C       -7.3670    -1.7190     0.5720 C.3   1 <1>   0.1200 
 18 C       -3.7380    -3.7270     0.1590 C.ar  1 <1>   0.0820 
 19 C       -6.1260    -3.7660    -0.0630 C.ar  1 <1>  -0.1430 
 20 C       -7.4670    -3.0650    -0.1260 C.3   1 <1>  -0.0170 
 21 O       -2.5810    -3.0300     0.3230 O.3   1 <1>  -0.3620 
 22 C       -3.7260    -5.1190     0.0760 C.ar  1 <1>  -0.1500 
 23 C       -6.1000    -5.1480    -0.1440 C.ar  1 <1>  -0.1500 
 24 C       -1.3510    -3.6620     0.6050 C.3   1 <1>   0.0400 
 25 C       -4.9010    -5.8250    -0.0770 C.ar  1 <1>  -0.1500 
 26 H       -1.6360     1.4210    -1.3130 H     1 <1>   0.0800 
 27 H       -5.5340     0.9840     1.4300 H     1 <1>   0.0800 
 28 H       -4.1230     0.9660     2.4500 H     1 <1>   0.0800 
 29 H       -3.7300     1.1130    -1.7740 H     1 <1>   0.0800 
 30 H       -5.2940     1.0470    -1.0290 H     1 <1>   0.0800 
 31 H        0.4520     2.4230    -0.8890 H     1 <1>   0.0800 
 32 H        0.0060     1.8100     0.7060 H     1 <1>   0.0800 
 33 H       -3.1050     3.7710    -1.1470 H     1 <1>   0.0800 
 34 H       -1.7990     3.5710    -2.2880 H     1 <1>   0.0800 
 35 H       -5.1120    -1.2960     2.2950 H     1 <1>   0.0800 
 36 H       -3.5090    -1.2320     1.6760 H     1 <1>   0.0800 
 37 H       -3.2300    -1.1480    -1.0380 H     1 <1>   0.0800 
 38 H       -4.6980    -1.1590    -1.9490 H     1 <1>   0.0800 
 39 H       -0.8640     3.8060     1.3010 H     1 <1>   0.4500 
 40 H       -1.8530     5.3180     0.0170 H     1 <1>   0.0800 
 41 H       -0.6360     5.1860    -1.2470 H     1 <1>   0.0800 
 42 H        1.5540     4.6070    -0.2490 H     1 <1>   0.0800 
 43 H        1.5520     3.9550     1.3770 H     1 <1>   0.0800 
 44 H        0.8480     5.5270     1.0650 H     1 <1>   0.0800 
 45 H       -8.2770    -1.1590     0.4470 H     1 <1>   0.0800 
 46 H       -7.1640    -1.8370     1.6220 H     1 <1>   0.0800 
 47 H       -7.7550    -2.9190    -1.1520 H     1 <1>   0.0800 
 48 H       -8.2220    -3.6580     0.3580 H     1 <1>   0.0800 
 49 H       -2.8120    -5.6770     0.1240 H     1 <1>   0.1500 
 50 H       -7.0140    -5.7030    -0.2610 H     1 <1>   0.1500 
 51 H       -0.6150    -2.8990     0.7790 H     1 <1>   0.0800 
 52 H       -1.0630    -4.2600    -0.2410 H     1 <1>   0.0800 
 53 H       -1.4640    -4.2670     1.4870 H     1 <1>   0.0800 
 54 H       -4.8830    -6.8990    -0.1420 H     1 <1>   0.1500 
@<TRIPOS>BOND
  1   1   2  2   
  2   2   3  am  
  3   2   4  1   
  4   3   5  1   
  5   3   6  1   
  6   4   7  1   
  7   4   8  1   
  8   4  26  1   
  9   5   9  1   
 10   5  27  1   
 11   5  28  1   
 12   6  10  1   
 13   6  29  1   
 14   6  30  1   
 15   7  11  1   
 16   7  31  1   
 17   7  32  1   
 18   8  12  1   
 19   8  33  1   
 20   8  34  1   
 21   9  13  1   
 22   9  35  1   
 23   9  36  1   
 24  10  13  1   
 25  10  37  1   
 26  10  38  1   
 27  11  12  1   
 28  11  14  1   
 29  11  39  1   
 30  12  40  1   
 31  12  41  1   
 32  13  15  1   
 33  13  16  1   
 34  14  42  1   
 35  14  43  1   
 36  14  44  1   
 37  15  17  1   
 38  16  18  ar  
 39  16  19  ar  
 40  17  20  1   
 41  17  45  1   
 42  17  46  1   
 43  18  21  1   
 44  18  22  ar  
 45  19  20  1   
 46  19  23  ar  
 47  20  47  1   
 48  20  48  1   
 49  21  24  1   
 50  22  25  ar  
 51  22  49  1   
 52  23  25  ar  
 53  23  50  1   
 54  24  51  1   
 55  24  52  1   
 56  24  53  1   
 57  25  54  1   
@<TRIPOS>SUBSTRUCTURE
  1 ****  10 GROUP 4 **** **** 0

# MOE 2024.06 (io_trps.svl 2023.06)
