@<TRIPOS>MOLECULE
NONAME
42 44 1 0 0 
SMALL
USER_CHARGES


@<TRIPOS>ATOM
  1 S        0.5090    -0.2840     0.1400 S.3   1 <1>  -0.0800 
  2 C        0.4160     1.3950     0.5890 C.2   1 <1>   0.4620 
  3 C       -1.1880    -0.2220    -0.2020 C.2   1 <1>   0.1980 
  4 N       -0.7830     1.8510     0.4620 N.2   1 <1>  -0.3380 
  5 N        1.5460     2.0710     1.0180 N.pl3 1 <1>  -0.8220 
  6 N       -1.6860     0.9280     0.0130 N.2   1 <1>  -0.3380 
  7 C       -1.8530    -1.5030    -0.6980 C.3   1 <1>   0.1000 
  8 C        2.9100     1.4860     1.1100 C.3   1 <1>   0.2090 
  9 C        1.4720     3.5110     1.3760 C.3   1 <1>   0.2090 
 10 C       -3.1780    -1.2140    -1.4180 C.3   1 <1>  -0.2400 
 11 C       -2.0940    -2.4730     0.4660 C.3   1 <1>  -0.2400 
 12 C        3.8490     2.2590     0.1820 C.3   1 <1>  -0.1600 
 13 C        2.3970     4.3050     0.4510 C.3   1 <1>  -0.1600 
 14 C        3.8470     3.7740     0.4840 C.3   1 <1>  -0.0800 
 15 C        4.7510     4.5530    -0.4960 C.3   1 <1>   0.3800 
 16 O        6.0470     4.0920    -0.3920 O.3   1 <1>  -0.6800 
 17 C        4.7920     6.0500    -0.2280 C.2   1 <1>  -0.1400 
 18 S        5.3940     6.6050     1.3310 S.3   1 <1>  -0.0800 
 19 C        4.4390     7.1020    -0.9920 C.2   1 <1>  -0.1500 
 20 C        5.1390     8.2820     0.8860 C.2   1 <1>  -0.1100 
 21 C        4.6350     8.3710    -0.3590 C.2   1 <1>  -0.1500 
 22 H       -1.1870    -1.9700    -1.4030 H     1 <1>   0.0800 
 23 H        2.9150     0.4460     0.8390 H     1 <1>   0.0800 
 24 H        3.2550     1.5640     2.1270 H     1 <1>   0.0800 
 25 H        1.7770     3.6360     2.4010 H     1 <1>   0.0800 
 26 H        0.4640     3.8780     1.2810 H     1 <1>   0.0800 
 27 H       -3.8790    -0.7560    -0.7430 H     1 <1>   0.0800 
 28 H       -3.6070    -2.1220    -1.8010 H     1 <1>   0.0800 
 29 H       -3.0100    -0.5400    -2.2400 H     1 <1>   0.0800 
 30 H       -2.7430    -2.0220     1.1960 H     1 <1>   0.0800 
 31 H       -1.1630    -2.7200     0.9450 H     1 <1>   0.0800 
 32 H       -2.5470    -3.3810     0.1120 H     1 <1>   0.0800 
 33 H        3.5430     2.0880    -0.8350 H     1 <1>   0.0800 
 34 H        4.8430     1.8640     0.2950 H     1 <1>   0.0800 
 35 H        2.3720     5.3370     0.7540 H     1 <1>   0.0800 
 36 H        2.0060     4.2480    -0.5500 H     1 <1>   0.0800 
 37 H        4.2260     3.9210     1.4810 H     1 <1>   0.0800 
 38 H        4.4270     4.3720    -1.5070 H     1 <1>   0.0800 
 39 H        6.4970     4.6220     0.2930 H     1 <1>   0.4000 
 40 H        4.0430     7.0440    -1.9910 H     1 <1>   0.1500 
 41 H        5.3960     9.0330     1.6120 H     1 <1>   0.1500 
 42 H        4.3900     9.2860    -0.8690 H     1 <1>   0.1500 
@<TRIPOS>BOND
  1   1   2  1   
  2   1   3  1   
  3   2   4  2   
  4   2   5  1   
  5   3   6  2   
  6   3   7  1   
  7   4   6  1   
  8   5   8  1   
  9   5   9  1   
 10   7  10  1   
 11   7  11  1   
 12   7  22  1   
 13   8  12  1   
 14   8  23  1   
 15   8  24  1   
 16   9  13  1   
 17   9  25  1   
 18   9  26  1   
 19  10  27  1   
 20  10  28  1   
 21  10  29  1   
 22  11  30  1   
 23  11  31  1   
 24  11  32  1   
 25  12  14  1   
 26  12  33  1   
 27  12  34  1   
 28  13  14  1   
 29  13  35  1   
 30  13  36  1   
 31  14  15  1   
 32  14  37  1   
 33  15  16  1   
 34  15  17  1   
 35  15  38  1   
 36  16  39  1   
 37  17  18  1   
 38  17  19  2   
 39  18  20  1   
 40  19  21  1   
 41  19  40  1   
 42  20  21  2   
 43  20  41  1   
 44  21  42  1   
@<TRIPOS>SUBSTRUCTURE
  1 ****   5 GROUP 4 **** **** 0

# MOE 2024.06 (io_trps.svl 2023.06)
