@<TRIPOS>MOLECULE
NONAME
50 52 1 0 0 
SMALL
USER_CHARGES


@<TRIPOS>ATOM
  1 O        0.4030     0.2240    -0.1240 O.2   1 <1>  -0.5700 
  2 C        0.3350     1.4330    -0.2070 C.2   1 <1>   0.5690 
  3 N       -0.8660     2.0930    -0.2090 N.am  1 <1>  -0.6600 
  4 C        1.6700     2.2250    -0.2920 C.3   1 <1>   0.2510 
  5 C       -0.8900     3.5760    -0.3280 C.3   1 <1>   0.1400 
  6 C       -2.1230     1.4650     0.3650 C.3   1 <1>   0.0340 
  7 N        1.5890     3.7200    -0.2380 N.3   1 <1>  -0.8100 
  8 C        2.4220     1.8730    -1.5820 C.3   1 <1>  -0.2400 
  9 C        0.3250     4.1780     0.3840 C.3   1 <1>   0.1100 
 10 C       -2.6970     2.0870     1.6490 C.2   1 <1>   0.9060 
 11 C        2.7450     4.2970     0.4670 C.3   1 <1>   0.2540 
 12 O       -1.9710     2.7310     2.4220 O.co2 1 <1>  -0.9000 
 13 O       -3.9080     1.9560     1.8610 O.co2 1 <1>  -0.9000 
 14 C        2.8150     5.8070     0.2780 C.ar  1 <1>  -0.1440 
 15 C        2.8210     6.3500    -0.9970 C.ar  1 <1>  -0.1500 
 16 C        2.8780     6.6550     1.3740 C.ar  1 <1>  -0.1500 
 17 C        2.8970     7.7200    -1.1750 C.ar  1 <1>  -0.1500 
 18 C        2.9550     8.0260     1.2000 C.ar  1 <1>  -0.1500 
 19 C        2.9670     8.5680    -0.0830 C.ar  1 <1>   0.0820 
 20 O        3.0420     9.8970    -0.3490 O.3   1 <1>  -0.3630 
 21 C        3.1440    10.8760     0.6660 C.3   1 <1>   0.2000 
 22 C        2.8980    12.2370     0.0250 C.3   1 <1>  -0.1600 
 23 C        4.5930    10.9660     1.1430 C.3   1 <1>  -0.1600 
 24 C        4.2310    12.6390    -0.6140 C.3   1 <1>  -0.1600 
 25 C        5.3160    11.8170     0.0940 C.3   1 <1>  -0.1600 
 26 H        2.2510     1.8820     0.5460 H     1 <1>   0.0800 
 27 H       -1.7850     3.9740     0.1160 H     1 <1>   0.0800 
 28 H       -0.8770     3.8530    -1.3660 H     1 <1>   0.0800 
 29 H       -1.9410     0.4300     0.5800 H     1 <1>   0.0800 
 30 H       -2.8950     1.5070    -0.3790 H     1 <1>   0.0800 
 31 H        1.8480     2.1930    -2.4320 H     1 <1>   0.0800 
 32 H        2.5560     0.8080    -1.6440 H     1 <1>   0.0800 
 33 H        3.3880     2.3400    -1.6060 H     1 <1>   0.0800 
 34 H        0.2870     3.8980     1.4250 H     1 <1>   0.0800 
 35 H        0.2570     5.2500     0.3220 H     1 <1>   0.0800 
 36 H        3.6530     3.8720     0.0780 H     1 <1>   0.0800 
 37 H        2.6860     4.0530     1.5140 H     1 <1>   0.0800 
 38 H        2.7600     5.6970    -1.8510 H     1 <1>   0.1500 
 39 H        2.8660     6.2480     2.3700 H     1 <1>   0.1500 
 40 H        2.9010     8.1390    -2.1640 H     1 <1>   0.1500 
 41 H        3.0060     8.6520     2.0700 H     1 <1>   0.1500 
 42 H        2.4310    10.6630     1.4430 H     1 <1>   0.0800 
 43 H        2.6540    12.9430     0.7990 H     1 <1>   0.0800 
 44 H        2.0910    12.2050    -0.6860 H     1 <1>   0.0800 
 45 H        5.0490     9.9990     1.2670 H     1 <1>   0.0800 
 46 H        4.6120    11.4820     2.0860 H     1 <1>   0.0800 
 47 H        4.4050    13.6970    -0.5120 H     1 <1>   0.0800 
 48 H        4.2200    12.3870    -1.6610 H     1 <1>   0.0800 
 49 H        5.7960    11.1710    -0.6220 H     1 <1>   0.0800 
 50 H        6.0590    12.4470     0.5500 H     1 <1>   0.0800 
@<TRIPOS>BOND
  1   1   2  2   
  2   2   3  am  
  3   2   4  1   
  4   3   5  1   
  5   3   6  1   
  6   4   7  1   
  7   4   8  1   
  8   4  26  1   
  9   5   9  1   
 10   5  27  1   
 11   5  28  1   
 12   6  10  1   
 13   6  29  1   
 14   6  30  1   
 15   7   9  1   
 16   7  11  1   
 17   8  31  1   
 18   8  32  1   
 19   8  33  1   
 20   9  34  1   
 21   9  35  1   
 22  10  12  ar  
 23  10  13  ar  
 24  11  14  1   
 25  11  36  1   
 26  11  37  1   
 27  14  15  ar  
 28  14  16  ar  
 29  15  17  ar  
 30  15  38  1   
 31  16  18  ar  
 32  16  39  1   
 33  17  19  ar  
 34  17  40  1   
 35  18  19  ar  
 36  18  41  1   
 37  19  20  1   
 38  20  21  1   
 39  21  22  1   
 40  21  23  1   
 41  21  42  1   
 42  22  24  1   
 43  22  43  1   
 44  22  44  1   
 45  23  25  1   
 46  23  45  1   
 47  23  46  1   
 48  24  25  1   
 49  24  47  1   
 50  24  48  1   
 51  25  49  1   
 52  25  50  1   
@<TRIPOS>SUBSTRUCTURE
  1 ****  14 GROUP 4 **** **** 0

# MOE 2024.06 (io_trps.svl 2023.06)
