@<TRIPOS>MOLECULE
NONAME
44 46 1 0 0 
SMALL
USER_CHARGES


@<TRIPOS>ATOM
  1 CL       1.0790     1.9510     3.0010 Cl    1 <1>  -0.1770 
  2 C        2.0180     2.1890     1.5500 C.ar  1 <1>   0.1770 
  3 C        2.5150     3.4450     1.2660 C.ar  1 <1>  -0.1500 
  4 C        2.2490     1.1160     0.7090 C.ar  1 <1>  -0.1500 
  5 C        3.2620     3.6390     0.1150 C.ar  1 <1>   0.0830 
  6 C        2.9940     1.3080    -0.4420 C.ar  1 <1>  -0.1500 
  7 O        3.7220     4.8950    -0.1040 O.3   1 <1>  -0.3630 
  8 C        3.5000     2.5640    -0.7410 C.ar  1 <1>  -0.1500 
  9 C        4.5450     5.1940    -1.2230 C.3   1 <1>   0.1810 
 10 C        4.9460     6.6640    -1.1960 C.2   1 <1>   0.5690 
 11 O        5.9740     7.0160    -1.7230 O.2   1 <1>  -0.5700 
 12 N        4.1580     7.5640    -0.5520 N.am  1 <1>  -0.7300 
 13 C        4.3500     9.0400    -0.6080 C.3   1 <1>   0.2200 
 14 C        5.1230     9.6200     0.5850 C.3   1 <1>   0.4230 
 15 C        3.0370     9.8160    -0.5550 C.3   1 <1>   0.1200 
 16 N        6.6310     9.5070     0.5690 N.4   1 <1>  -0.9590 
 17 C        4.6180    11.0600     0.5910 C.3   1 <1>   0.1200 
 18 O        3.3050    11.0100     0.1220 O.3   1 <1>  -0.5600 
 19 C        7.3000     9.7470    -0.7380 C.3   1 <1>   0.3430 
 20 C        7.1090     8.1690     1.0040 C.3   1 <1>   0.3430 
 21 C        8.6990     9.1890    -0.5390 C.3   1 <1>  -0.1600 
 22 C        8.5490     8.0870     0.5120 C.3   1 <1>  -0.1600 
 23 H        2.3210     4.2610     1.9360 H     1 <1>   0.1500 
 24 H        1.8500     0.1490     0.9550 H     1 <1>   0.1500 
 25 H        3.1800     0.4790    -1.1050 H     1 <1>   0.1500 
 26 H        4.0730     2.6770    -1.6420 H     1 <1>   0.1500 
 27 H        5.4250     4.5780    -1.1750 H     1 <1>   0.0800 
 28 H        3.9940     4.9860    -2.1210 H     1 <1>   0.0800 
 29 H        3.3110     7.2060    -0.0920 H     1 <1>   0.3700 
 30 H        4.8300     9.3030    -1.5340 H     1 <1>   0.0800 
 31 H        4.7470     9.1580     1.4820 H     1 <1>   0.0800 
 32 H        2.2830     9.2890     0.0030 H     1 <1>   0.0800 
 33 H        2.6710    10.0530    -1.5400 H     1 <1>   0.0800 
 34 H        7.0230    10.1810     1.2370 H     1 <1>   0.4500 
 35 H        5.1780    11.6810    -0.0870 H     1 <1>   0.0800 
 36 H        4.6130    11.4880     1.5790 H     1 <1>   0.0800 
 37 H        6.8120     9.1830    -1.5170 H     1 <1>   0.0800 
 38 H        7.3170    10.7920    -1.0030 H     1 <1>   0.0800 
 39 H        7.0470     8.0510     2.0740 H     1 <1>   0.0800 
 40 H        6.5280     7.3960     0.5300 H     1 <1>   0.0800 
 41 H        9.0910     8.8080    -1.4660 H     1 <1>   0.0800 
 42 H        9.3530     9.9660    -0.1810 H     1 <1>   0.0800 
 43 H        9.2350     8.2380     1.3280 H     1 <1>   0.0800 
 44 H        8.7300     7.1150     0.0870 H     1 <1>   0.0800 
@<TRIPOS>BOND
  1   1   2  1   
  2   2   3  ar  
  3   2   4  ar  
  4   3   5  ar  
  5   3  23  1   
  6   4   6  ar  
  7   4  24  1   
  8   5   7  1   
  9   5   8  ar  
 10   6   8  ar  
 11   6  25  1   
 12   7   9  1   
 13   8  26  1   
 14   9  10  1   
 15   9  27  1   
 16   9  28  1   
 17  10  11  2   
 18  10  12  am  
 19  12  13  1   
 20  12  29  1   
 21  13  14  1   
 22  13  15  1   
 23  13  30  1   
 24  14  16  1   
 25  14  17  1   
 26  14  31  1   
 27  15  18  1   
 28  15  32  1   
 29  15  33  1   
 30  16  19  1   
 31  16  20  1   
 32  16  34  1   
 33  17  18  1   
 34  17  35  1   
 35  17  36  1   
 36  19  21  1   
 37  19  37  1   
 38  19  38  1   
 39  20  22  1   
 40  20  39  1   
 41  20  40  1   
 42  21  22  1   
 43  21  41  1   
 44  21  42  1   
 45  22  43  1   
 46  22  44  1   
@<TRIPOS>SUBSTRUCTURE
  1 ****  12 GROUP 4 **** **** 0

# MOE 2024.06 (io_trps.svl 2023.06)
