@<TRIPOS>MOLECULE
NONAME
44 47 1 0 0 
SMALL
USER_CHARGES


@<TRIPOS>ATOM
  1 CL      -2.1960     0.7250    -2.3730 Cl    1 <1>  -0.1770 
  2 C       -1.6700     1.9450    -1.2390 C.ar  1 <1>   0.1770 
  3 C       -2.4250     2.1910    -0.1090 C.ar  1 <1>  -0.1440 
  4 C       -0.5090     2.6630    -1.4870 C.ar  1 <1>   0.1600 
  5 C       -1.9350     3.1820     0.7160 C.ar  1 <1>   0.1770 
  6 C       -3.6880     1.4170     0.2070 C.3   1 <1>   0.4860 
  7 N       -0.0430     3.6170    -0.6900 N.ar  1 <1>  -0.6200 
  8 CL      -2.8100     3.6050     2.1670 Cl    1 <1>  -0.1770 
  9 C       -0.7630     3.8550     0.3990 C.ar  1 <1>   0.1600 
 10 N       -4.7830     1.8190    -0.7220 N.4   1 <1>  -0.9590 
 11 C       -5.1800     3.2760    -0.5980 C.3   1 <1>   0.3430 
 12 C       -5.9680     0.9200    -0.5930 C.3   1 <1>   0.3430 
 13 C       -6.3480     3.5790     0.3760 C.3   1 <1>   0.1430 
 14 C       -6.6190     1.0420     0.7940 C.3   1 <1>  -0.1600 
 15 C       -7.5810     3.8430    -0.4730 C.ar  1 <1>   0.1670 
 16 C       -6.5520     2.4530     1.4160 C.3   1 <1>  -0.1600 
 17 C       -6.1400     4.9440     1.0880 C.3   1 <1>  -0.1600 
 18 N       -8.2560     2.9360    -1.1380 N.ar  1 <1>  -0.6200 
 19 C       -7.8970     5.1700    -0.5060 C.ar  1 <1>  -0.1430 
 20 C       -6.9480     6.0020     0.3160 C.3   1 <1>  -0.0170 
 21 C       -9.2750     3.4200    -1.8340 C.ar  1 <1>   0.7200 
 22 C       -8.9800     5.5550    -1.2590 C.ar  1 <1>   0.1600 
 23 N       -9.6830     4.6750    -1.9340 N.ar  1 <1>  -0.6200 
 24 N       -9.9940     2.5280    -2.5160 N.pl3 1 <1>  -0.9000 
 25 H        0.0560     2.4440    -2.3780 H     1 <1>   0.1500 
 26 H       -3.9840     1.5910     1.2280 H     1 <1>   0.0800 
 27 H       -3.4880     0.3630     0.0960 H     1 <1>   0.0800 
 28 H       -0.4070     4.6210     1.0690 H     1 <1>   0.1500 
 29 H       -4.4160     1.6850    -1.6750 H     1 <1>   0.4500 
 30 H       -5.4720     3.6390    -1.5710 H     1 <1>   0.0800 
 31 H       -4.3210     3.8510    -0.2980 H     1 <1>   0.0800 
 32 H       -5.6870    -0.1060    -0.7730 H     1 <1>   0.0800 
 33 H       -6.6950     1.1910    -1.3420 H     1 <1>   0.0800 
 34 H       -6.1800     0.3290     1.4690 H     1 <1>   0.0800 
 35 H       -7.6530     0.7610     0.6850 H     1 <1>   0.0800 
 36 H       -7.4550     2.6350     1.9750 H     1 <1>   0.0800 
 37 H       -5.7370     2.4840     2.1190 H     1 <1>   0.0800 
 38 H       -5.1050     5.2230     1.1690 H     1 <1>   0.0800 
 39 H       -6.5450     4.8940     2.0860 H     1 <1>   0.0800 
 40 H       -6.3120     6.5800    -0.3320 H     1 <1>   0.0800 
 41 H       -7.4780     6.6600     0.9850 H     1 <1>   0.0800 
 42 H       -9.2720     6.5910    -1.3120 H     1 <1>   0.1500 
 43 H      -10.8780     2.8900    -2.8670 H     1 <1>   0.4000 
 44 H      -10.0280     1.5900    -2.1320 H     1 <1>   0.4000 
@<TRIPOS>BOND
  1   1   2  1   
  2   2   3  ar  
  3   2   4  ar  
  4   3   5  ar  
  5   3   6  1   
  6   4   7  ar  
  7   4  25  1   
  8   5   8  1   
  9   5   9  ar  
 10   6  10  1   
 11   6  26  1   
 12   6  27  1   
 13   7   9  ar  
 14   9  28  1   
 15  10  11  1   
 16  10  12  1   
 17  10  29  1   
 18  11  13  1   
 19  11  30  1   
 20  11  31  1   
 21  12  14  1   
 22  12  32  1   
 23  12  33  1   
 24  13  15  1   
 25  13  16  1   
 26  13  17  1   
 27  14  16  1   
 28  14  34  1   
 29  14  35  1   
 30  15  18  ar  
 31  15  19  ar  
 32  16  36  1   
 33  16  37  1   
 34  17  20  1   
 35  17  38  1   
 36  17  39  1   
 37  18  21  ar  
 38  19  20  1   
 39  19  22  ar  
 40  20  40  1   
 41  20  41  1   
 42  21  23  ar  
 43  21  24  1   
 44  22  23  ar  
 45  22  42  1   
 46  24  43  1   
 47  24  44  1   
@<TRIPOS>SUBSTRUCTURE
  1 ****  11 GROUP 4 **** **** 0

# MOE 2024.06 (io_trps.svl 2023.06)
