@<TRIPOS>MOLECULE
NONAME
40 41 1 0 0 
SMALL
USER_CHARGES


@<TRIPOS>ATOM
  1 O       -1.4610    -1.0990     0.8550 O.3   1 <1>  -0.5600 
  2 C       -2.5230    -1.9740     0.5780 C.3   1 <1>   0.1200 
  3 C       -0.4890    -1.0400    -0.1540 C.3   1 <1>   0.1200 
  4 C       -2.0150    -3.4070     0.2960 C.3   1 <1>   0.3430 
  5 C        0.1180    -2.4350    -0.4330 C.3   1 <1>   0.3430 
  6 N       -0.5180    -3.4940     0.4180 N.4   1 <1>  -0.9590 
  7 C       -0.0100    -4.8680     0.0940 C.3   1 <1>   0.3430 
  8 C       -0.4310    -5.9470     1.1120 C.3   1 <1>   0.2090 
  9 N       -0.8140    -7.1960     0.3940 N.pl3 1 <1>  -0.8380 
 10 C       -2.1200    -7.3590    -0.0490 C.ar  1 <1>   0.4100 
 11 C        0.1910    -8.2970     0.3380 C.3   1 <1>   0.2090 
 12 N       -2.6980    -6.2810    -0.5720 N.ar  1 <1>  -0.6200 
 13 C       -2.7720    -8.5850     0.0600 C.ar  1 <1>  -0.1500 
 14 C        1.4130    -7.8550    -0.4630 C.3   1 <1>  -0.2400 
 15 C       -3.9270    -6.4490    -1.0350 C.ar  1 <1>   0.1600 
 16 C       -4.0540    -8.7530    -0.4160 C.ar  1 <1>   0.0730 
 17 C       -4.6330    -7.6330    -0.9850 C.ar  1 <1>  -0.1500 
 18 C       -4.7460   -10.0080    -0.3300 C.1   1 <1>   0.4840 
 19 N       -5.2950   -11.0040    -0.2610 N.1   1 <1>  -0.5570 
 20 H       -3.0740    -1.5930    -0.2650 H     1 <1>   0.0800 
 21 H       -3.1770    -1.9750     1.4330 H     1 <1>   0.0800 
 22 H        0.2790    -0.3590     0.1710 H     1 <1>   0.0800 
 23 H       -0.9400    -0.6360    -1.0440 H     1 <1>   0.0800 
 24 H       -2.3160    -3.6990    -0.6970 H     1 <1>   0.0800 
 25 H       -2.4880    -4.0910     0.9800 H     1 <1>   0.0800 
 26 H        1.1790    -2.4000    -0.2460 H     1 <1>   0.0800 
 27 H       -0.0190    -2.6710    -1.4750 H     1 <1>   0.0800 
 28 H       -0.3010    -3.2370     1.3920 H     1 <1>   0.4500 
 29 H        1.0650    -4.8560     0.0360 H     1 <1>   0.0800 
 30 H       -0.3920    -5.1620    -0.8710 H     1 <1>   0.0800 
 31 H       -1.2750    -5.6170     1.6900 H     1 <1>   0.0800 
 32 H        0.3800    -6.1490     1.7900 H     1 <1>   0.0800 
 33 H       -0.2280    -9.1610    -0.1480 H     1 <1>   0.0800 
 34 H        0.4800    -8.5810     1.3360 H     1 <1>   0.0800 
 35 H       -2.2740    -9.4120     0.5280 H     1 <1>   0.1500 
 36 H        1.1140    -7.5170    -1.4390 H     1 <1>   0.0800 
 37 H        2.0760    -8.6930    -0.5870 H     1 <1>   0.0800 
 38 H        1.9530    -7.0810     0.0480 H     1 <1>   0.0800 
 39 H       -4.4040    -5.5930    -1.4830 H     1 <1>   0.1500 
 40 H       -5.6310    -7.6850    -1.3860 H     1 <1>   0.1500 
@<TRIPOS>BOND
  1   1   2  1   
  2   1   3  1   
  3   2   4  1   
  4   2  20  1   
  5   2  21  1   
  6   3   5  1   
  7   3  22  1   
  8   3  23  1   
  9   4   6  1   
 10   4  24  1   
 11   4  25  1   
 12   5   6  1   
 13   5  26  1   
 14   5  27  1   
 15   6   7  1   
 16   6  28  1   
 17   7   8  1   
 18   7  29  1   
 19   7  30  1   
 20   8   9  1   
 21   8  31  1   
 22   8  32  1   
 23   9  10  1   
 24   9  11  1   
 25  10  12  ar  
 26  10  13  ar  
 27  11  14  1   
 28  11  33  1   
 29  11  34  1   
 30  12  15  ar  
 31  13  16  ar  
 32  13  35  1   
 33  14  36  1   
 34  14  37  1   
 35  14  38  1   
 36  15  17  ar  
 37  15  39  1   
 38  16  17  ar  
 39  16  18  1   
 40  17  40  1   
 41  18  19  3   
@<TRIPOS>SUBSTRUCTURE
  1 ****  12 GROUP 4 **** **** 0

# MOE 2024.06 (io_trps.svl 2023.06)
