@<TRIPOS>MOLECULE
NONAME
50 52 1 0 0 
SMALL
USER_CHARGES


@<TRIPOS>ATOM
  1 S        0.1900    -0.0080    -1.5840 S.o2  1 <1>   1.4470 
  2 O       -0.0700    -1.1170    -2.4790 O.2   1 <1>  -0.6500 
  3 O        0.5690     1.2550    -2.1850 O.2   1 <1>  -0.6500 
  4 N       -1.2460     0.2560    -0.7190 N.am  1 <1>  -0.8490 
  5 C        1.3730    -0.5760    -0.3300 C.ar  1 <1>  -0.0090 
  6 C       -1.1680     1.4490     0.1310 C.3   1 <1>   0.1960 
  7 C       -2.3940     0.3580    -1.6270 C.3   1 <1>   0.1960 
  8 C        2.1850     0.2940     0.3950 C.ar  1 <1>   0.0820 
  9 C        1.4780    -1.9330    -0.0430 C.ar  1 <1>  -0.1500 
 10 C       -2.4190     1.5500     1.0020 C.3   1 <1>  -0.1600 
 11 C       -3.6940     0.4240    -0.8240 C.3   1 <1>  -0.1600 
 12 O        2.1160     1.6280     0.2050 O.3   1 <1>  -0.3620 
 13 C        3.0660    -0.1760     1.3590 C.ar  1 <1>  -0.1500 
 14 C        2.3550    -2.4180     0.9130 C.ar  1 <1>   0.0820 
 15 C       -3.6860     1.6050     0.1450 C.3   1 <1>   0.4180 
 16 C        3.1290     2.2000    -0.5930 C.3   1 <1>   0.0400 
 17 C        3.1580    -1.5290     1.6190 C.ar  1 <1>  -0.1500 
 18 O        2.3680    -3.7620     1.1010 O.3   1 <1>  -0.3630 
 19 O       -3.6650     2.7640    -0.6510 O.3   1 <1>  -0.5600 
 20 C       -4.9430     1.5760     1.0110 C.2   1 <1>  -0.2880 
 21 C        3.2230    -4.3590     2.0500 C.3   1 <1>   0.0400 
 22 C       -4.0690     3.9650    -0.0550 C.3   1 <1>   0.1200 
 23 C       -5.8030     2.5910     1.1170 C.2   1 <1>  -0.2760 
 24 C       -5.5420     3.8870     0.3720 C.3   1 <1>  -0.0220 
 25 C       -7.0760     2.5590     1.9440 C.3   1 <1>  -0.1020 
 26 H       -1.0650     2.3350    -0.4780 H     1 <1>   0.0800 
 27 H       -0.3120     1.3830     0.7780 H     1 <1>   0.0800 
 28 H       -2.4340    -0.5070    -2.2670 H     1 <1>   0.0800 
 29 H       -2.2950     1.2320    -2.2500 H     1 <1>   0.0800 
 30 H        0.8620    -2.6370    -0.5750 H     1 <1>   0.1500 
 31 H       -2.3600     2.4120     1.6380 H     1 <1>   0.0800 
 32 H       -2.4590     0.6860     1.6400 H     1 <1>   0.0800 
 33 H       -3.8060    -0.4950    -0.2780 H     1 <1>   0.0800 
 34 H       -4.5320     0.5170    -1.4890 H     1 <1>   0.0800 
 35 H        3.6730     0.5230     1.9060 H     1 <1>   0.1500 
 36 H        2.9170     3.2480    -0.7030 H     1 <1>   0.0800 
 37 H        3.1220     1.7250    -1.5590 H     1 <1>   0.0800 
 38 H        4.0800     2.0610    -0.1110 H     1 <1>   0.0800 
 39 H        3.8480    -1.8690     2.3680 H     1 <1>   0.1500 
 40 H       -5.0700     0.6410     1.5260 H     1 <1>   0.1500 
 41 H        3.0610    -5.4220     2.0220 H     1 <1>   0.0800 
 42 H        2.9820    -3.9790     3.0270 H     1 <1>   0.0800 
 43 H        4.2430    -4.1380     1.7900 H     1 <1>   0.0800 
 44 H       -3.9300     4.7530    -0.7740 H     1 <1>   0.0800 
 45 H       -3.4400     4.1570     0.7960 H     1 <1>   0.0800 
 46 H       -6.1740     3.9420    -0.4960 H     1 <1>   0.0800 
 47 H       -5.7600     4.7310     1.0010 H     1 <1>   0.0800 
 48 H       -7.0470     3.3200     2.7030 H     1 <1>   0.0800 
 49 H       -7.1900     1.6030     2.4240 H     1 <1>   0.0800 
 50 H       -7.9310     2.7280     1.3140 H     1 <1>   0.0800 
@<TRIPOS>BOND
  1   1   2  2   
  2   1   3  2   
  3   1   4  am  
  4   1   5  1   
  5   4   6  1   
  6   4   7  1   
  7   5   8  ar  
  8   5   9  ar  
  9   6  10  1   
 10   6  26  1   
 11   6  27  1   
 12   7  11  1   
 13   7  28  1   
 14   7  29  1   
 15   8  12  1   
 16   8  13  ar  
 17   9  14  ar  
 18   9  30  1   
 19  10  15  1   
 20  10  31  1   
 21  10  32  1   
 22  11  15  1   
 23  11  33  1   
 24  11  34  1   
 25  12  16  1   
 26  13  17  ar  
 27  13  35  1   
 28  14  17  ar  
 29  14  18  1   
 30  15  19  1   
 31  15  20  1   
 32  16  36  1   
 33  16  37  1   
 34  16  38  1   
 35  17  39  1   
 36  18  21  1   
 37  19  22  1   
 38  20  23  2   
 39  20  40  1   
 40  21  41  1   
 41  21  42  1   
 42  21  43  1   
 43  22  24  1   
 44  22  44  1   
 45  22  45  1   
 46  23  24  1   
 47  23  25  1   
 48  24  46  1   
 49  24  47  1   
 50  25  48  1   
 51  25  49  1   
 52  25  50  1   
@<TRIPOS>SUBSTRUCTURE
  1 ****   4 GROUP 4 **** **** 0

# MOE 2024.06 (io_trps.svl 2023.06)
