@<TRIPOS>MOLECULE
NONAME
35 37 1 0 0 
SMALL
USER_CHARGES


@<TRIPOS>ATOM
  1 CL      -1.1690    -0.3650     0.8090 Cl    1 <1>  -0.1770 
  2 C       -2.4380    -1.4160     0.2200 C.ar  1 <1>   0.1770 
  3 C       -3.5020    -0.9100    -0.5110 C.ar  1 <1>   0.1900 
  4 C       -2.3720    -2.7700     0.4900 C.ar  1 <1>  -0.1500 
  5 F       -3.5650     0.3720    -0.7710 F     1 <1>  -0.1900 
  6 C       -4.5140    -1.7290    -0.9770 C.ar  1 <1>  -0.1500 
  7 C       -3.3740    -3.6050     0.0180 C.ar  1 <1>   0.0830 
  8 C       -4.4480    -3.0870    -0.7050 C.ar  1 <1>  -0.1500 
  9 O       -3.2860    -4.9210     0.3030 O.3   1 <1>  -0.3630 
 10 C       -3.2850    -5.8460    -0.7780 C.3   1 <1>   0.1810 
 11 C       -3.5860    -7.2680    -0.3130 C.2   1 <1>   0.5690 
 12 O       -2.7220    -8.1020    -0.4800 O.2   1 <1>  -0.5700 
 13 N       -4.8050    -7.5800     0.2180 N.am  1 <1>  -0.6600 
 14 C       -5.9390    -6.6330     0.4080 C.3   1 <1>   0.2350 
 15 C       -5.3400    -8.9710     0.2660 C.3   1 <1>   0.2350 
 16 C       -7.1510    -7.3690    -0.1150 C.3   1 <1>  -0.2420 
 17 C       -6.7920    -8.8350    -0.1740 C.3   1 <1>  -0.2420 
 18 C       -8.4070    -6.5760     0.2360 C.2   1 <1>   0.9470 
 19 C       -7.1300    -8.0900    -1.4410 C.3   1 <1>  -0.2000 
 20 C       -7.6050   -10.0770     0.2060 C.2   1 <1>   0.9470 
 21 O       -9.0020    -5.9770    -0.6720 O.co2 1 <1>  -0.9000 
 22 O       -8.6830    -6.3750     1.4240 O.co2 1 <1>  -0.9000 
 23 O       -8.2880   -10.6500    -0.6550 O.co2 1 <1>  -0.9000 
 24 O       -7.4470   -10.5740     1.3300 O.co2 1 <1>  -0.9000 
 25 H       -1.5560    -3.1740     1.0590 H     1 <1>   0.1500 
 26 H       -5.3370    -1.3140    -1.5320 H     1 <1>   0.1500 
 27 H       -5.2400    -3.7320    -1.0450 H     1 <1>   0.1500 
 28 H       -4.0210    -5.5580    -1.5040 H     1 <1>   0.0800 
 29 H       -2.3130    -5.8160    -1.2340 H     1 <1>   0.0800 
 30 H       -6.0630    -6.4280     1.4590 H     1 <1>   0.0800 
 31 H       -5.8110    -5.7120    -0.1240 H     1 <1>   0.0800 
 32 H       -4.7990    -9.6290    -0.3910 H     1 <1>   0.0800 
 33 H       -5.2850    -9.3400     1.2760 H     1 <1>   0.0800 
 34 H       -6.3580    -7.8720    -2.1540 H     1 <1>   0.1000 
 35 H       -8.0760    -8.3020    -1.9100 H     1 <1>   0.1000 
@<TRIPOS>BOND
  1   1   2  1   
  2   2   3  ar  
  3   2   4  ar  
  4   3   5  1   
  5   3   6  ar  
  6   4   7  ar  
  7   4  25  1   
  8   6   8  ar  
  9   6  26  1   
 10   7   8  ar  
 11   7   9  1   
 12   8  27  1   
 13   9  10  1   
 14  10  11  1   
 15  10  28  1   
 16  10  29  1   
 17  11  12  2   
 18  11  13  am  
 19  13  14  1   
 20  13  15  1   
 21  14  16  1   
 22  14  30  1   
 23  14  31  1   
 24  15  17  1   
 25  15  32  1   
 26  15  33  1   
 27  16  17  1   
 28  16  18  1   
 29  16  19  1   
 30  17  19  1   
 31  17  20  1   
 32  18  21  ar  
 33  18  22  ar  
 34  19  34  1   
 35  19  35  1   
 36  20  23  ar  
 37  20  24  ar  
@<TRIPOS>SUBSTRUCTURE
  1 ****  14 GROUP 4 **** **** 0

# MOE 2024.06 (io_trps.svl 2023.06)
