@<TRIPOS>MOLECULE
NONAME
38 40 1 0 0 
SMALL
USER_CHARGES


@<TRIPOS>ATOM
  1 O        0.4380    -1.4590     1.9870 O.2   1 <1>  -0.5700 
  2 C        1.3480    -1.6870     1.2090 C.2   1 <1>   0.7160 
  3 N        1.0930    -2.3850     0.0740 N.am  1 <1>  -0.4900 
  4 C        2.6950    -1.2870     1.3870 C.2   1 <1>  -0.0860 
  5 C        2.0770    -2.7070    -0.8280 C.2   1 <1>   0.4490 
  6 C        3.6170    -1.6330     0.4470 C.2   1 <1>  -0.0260 
  7 C        3.4190    -0.5740     2.3410 C.2   1 <1>   0.1390 
  8 N        3.3100    -2.3620    -0.6850 N.2   1 <1>  -0.5760 
  9 C        1.6220    -3.5300    -2.0330 C.3   1 <1>   0.1710 
 10 N        4.8040    -1.1330     0.8610 N.pl3 1 <1>   0.3140 
 11 N        4.6770    -0.4760     2.0380 N.2   1 <1>  -0.7070 
 12 N        0.6440    -4.5920    -1.6700 N.3   1 <1>  -0.8100 
 13 C        6.0960    -1.2450     0.1750 C.3   1 <1>   0.0160 
 14 C        1.3300    -5.6840    -0.9280 C.3   1 <1>   0.2900 
 15 C        0.0170    -5.1290    -2.8900 C.3   1 <1>   0.0300 
 16 C        0.3450    -6.6930    -0.3610 C.2   1 <1>   0.0060 
 17 N       -0.8280    -6.3150     0.1880 N.pl3 1 <1>   0.0330 
 18 N        0.5310    -7.9750    -0.3470 N.2   1 <1>  -0.5650 
 19 C       -1.4260    -7.4550     0.5800 C.2   1 <1>  -0.3320 
 20 C       -0.5800    -8.4550     0.2440 C.2   1 <1>   0.0770 
 21 C       -2.7830    -7.5040     1.2550 C.3   1 <1>  -0.0600 
 22 H        0.1520    -2.7410    -0.0740 H     1 <1>   0.3700 
 23 H        2.9820    -0.1520     3.2310 H     1 <1>   0.1500 
 24 H        2.4820    -3.9650    -2.5140 H     1 <1>   0.0800 
 25 H        1.1650    -2.8500    -2.7300 H     1 <1>   0.0800 
 26 H        6.0410    -2.0160    -0.5700 H     1 <1>   0.0800 
 27 H        6.8530    -1.4880     0.8960 H     1 <1>   0.0800 
 28 H        6.3250    -0.3040    -0.2880 H     1 <1>   0.0800 
 29 H        1.8890    -5.2760    -0.1040 H     1 <1>   0.0800 
 30 H        2.0230    -6.1960    -1.5750 H     1 <1>   0.0800 
 31 H       -0.4900    -4.3430    -3.4240 H     1 <1>   0.0800 
 32 H       -0.7100    -5.8850    -2.6400 H     1 <1>   0.0800 
 33 H        0.7580    -5.5690    -3.5360 H     1 <1>   0.0800 
 34 H       -1.1720    -5.3540     0.2510 H     1 <1>   0.2700 
 35 H       -0.7130    -9.5130     0.3990 H     1 <1>   0.1500 
 36 H       -2.7590    -6.9540     2.1780 H     1 <1>   0.0800 
 37 H       -3.0530    -8.5230     1.4690 H     1 <1>   0.0800 
 38 H       -3.5330    -7.0790     0.6120 H     1 <1>   0.0800 
@<TRIPOS>BOND
  1   1   2  2   
  2   2   3  am  
  3   2   4  1   
  4   3   5  1   
  5   3  22  1   
  6   4   6  2   
  7   4   7  1   
  8   5   8  2   
  9   5   9  1   
 10   6   8  1   
 11   6  10  1   
 12   7  11  2   
 13   7  23  1   
 14   9  12  1   
 15   9  24  1   
 16   9  25  1   
 17  10  11  1   
 18  10  13  1   
 19  12  14  1   
 20  12  15  1   
 21  13  26  1   
 22  13  27  1   
 23  13  28  1   
 24  14  16  1   
 25  14  29  1   
 26  14  30  1   
 27  15  31  1   
 28  15  32  1   
 29  15  33  1   
 30  16  17  1   
 31  16  18  2   
 32  17  19  1   
 33  17  34  1   
 34  18  20  1   
 35  19  20  2   
 36  19  21  1   
 37  20  35  1   
 38  21  36  1   
 39  21  37  1   
 40  21  38  1   
@<TRIPOS>SUBSTRUCTURE
  1 ****   3 GROUP 4 **** **** 0

# MOE 2024.06 (io_trps.svl 2023.06)
