@<TRIPOS>MOLECULE
NONAME
62 65 1 0 0 
SMALL
USER_CHARGES


@<TRIPOS>ATOM
  1 O       -1.3800     0.2240     0.3960 O.2   1 <1>  -0.5700 
  2 C       -2.0870     0.9950    -0.2310 C.2   1 <1>   0.5440 
  3 N       -3.1690     0.4530    -0.8950 N.am  1 <1>  -0.6600 
  4 C       -1.8200     2.4190    -0.2270 C.ar  1 <1>   0.0860 
  5 C       -3.1920    -1.0080    -1.1540 C.3   1 <1>   0.1400 
  6 C       -4.5230     1.0480    -0.7330 C.3   1 <1>   0.1400 
  7 C       -1.2660     3.0470     0.8900 C.ar  1 <1>  -0.1500 
  8 C       -2.1040     3.2220    -1.3340 C.ar  1 <1>  -0.1500 
  9 C       -3.8300    -1.7090     0.0660 C.3   1 <1>   0.4230 
 10 C       -5.2020     0.3710     0.4660 C.3   1 <1>  -0.1600 
 11 C       -1.0240     4.4070     0.9230 C.ar  1 <1>  -0.1440 
 12 C       -1.8660     4.5800    -1.3130 C.ar  1 <1>  -0.1500 
 13 N       -3.7140    -3.2260     0.0390 N.4   1 <1>  -0.9590 
 14 C       -5.2690    -1.1820     0.3550 C.3   1 <1>   0.0000 
 15 C       -1.3280     5.1950    -0.1880 C.ar  1 <1>   0.1000 
 16 C       -0.4230     5.0400     2.1700 C.3   1 <1>  -0.0970 
 17 C       -4.6570    -3.9280     0.9690 C.3   1 <1>   0.3430 
 18 C       -3.7650    -3.8570    -1.3200 C.3   1 <1>   0.2630 
 19 C       -5.7630    -1.7590     1.7150 C.3   1 <1>  -0.1600 
 20 C       -6.2320    -1.6000    -0.7930 C.3   1 <1>   0.1200 
 21 N       -1.0940     6.5600    -0.1840 N.pl3 1 <1>  -0.8380 
 22 C       -5.0230    -3.0370     2.1550 C.3   1 <1>  -0.1600 
 23 O       -7.4660    -0.9820    -0.6780 O.3   1 <1>  -0.6800 
 24 C        0.0640     7.0560    -0.9800 C.3   1 <1>   0.2090 
 25 C       -2.2690     7.4750    -0.2580 C.3   1 <1>   0.2090 
 26 C        0.3600     8.5300    -0.6500 C.3   1 <1>   0.1200 
 27 C       -1.8470     8.9260     0.0350 C.3   1 <1>   0.1200 
 28 O       -0.7890     9.3200    -0.7970 O.3   1 <1>  -0.5600 
 29 H       -3.7410    -1.1930    -2.0580 H     1 <1>   0.0800 
 30 H       -2.1830    -1.3580    -1.2910 H     1 <1>   0.0800 
 31 H       -4.4530     2.1080    -0.5530 H     1 <1>   0.0800 
 32 H       -5.0980     0.9020    -1.6320 H     1 <1>   0.0800 
 33 H       -1.0250     2.4410     1.7460 H     1 <1>   0.1500 
 34 H       -2.5120     2.7710    -2.2200 H     1 <1>   0.1500 
 35 H       -3.2380    -1.3810     0.9060 H     1 <1>   0.0800 
 36 H       -4.6440     0.6490     1.3440 H     1 <1>   0.0800 
 37 H       -6.1870     0.7880     0.5870 H     1 <1>   0.0800 
 38 H       -2.0910     5.1810    -2.1740 H     1 <1>   0.1500 
 39 H       -2.7680    -3.4030     0.4120 H     1 <1>   0.4500 
 40 H       -0.2660     4.3110     2.9430 H     1 <1>   0.0800 
 41 H       -1.0820     5.8030     2.5420 H     1 <1>   0.0800 
 42 H        0.5210     5.4930     1.9250 H     1 <1>   0.0800 
 43 H       -5.5630    -4.1840     0.4430 H     1 <1>   0.0800 
 44 H       -4.2100    -4.8430     1.3230 H     1 <1>   0.0800 
 45 H       -4.7160    -3.6660    -1.7900 H     1 <1>   0.0800 
 46 H       -3.6290    -4.9240    -1.2420 H     1 <1>   0.0800 
 47 H       -2.9820    -3.4640    -1.9490 H     1 <1>   0.0800 
 48 H       -5.6400    -1.0330     2.5020 H     1 <1>   0.0800 
 49 H       -6.8180    -1.9670     1.6680 H     1 <1>   0.0800 
 50 H       -6.4050    -2.6610    -0.7970 H     1 <1>   0.0800 
 51 H       -5.8450    -1.3150    -1.7540 H     1 <1>   0.0800 
 52 H       -5.6480    -3.5910     2.8340 H     1 <1>   0.0800 
 53 H       -4.1250    -2.7810     2.6920 H     1 <1>   0.0800 
 54 H       -7.9290    -1.2270     0.1480 H     1 <1>   0.4000 
 55 H        0.9290     6.4560    -0.7600 H     1 <1>   0.0800 
 56 H       -0.1530     6.9640    -2.0290 H     1 <1>   0.0800 
 57 H       -2.7060     7.4250    -1.2390 H     1 <1>   0.0800 
 58 H       -3.0080     7.1620     0.4580 H     1 <1>   0.0800 
 59 H        1.1120     8.9160    -1.3150 H     1 <1>   0.0800 
 60 H        0.7130     8.6210     0.3620 H     1 <1>   0.0800 
 61 H       -1.5330     9.0220     1.0600 H     1 <1>   0.0800 
 62 H       -2.6700     9.5950    -0.1400 H     1 <1>   0.0800 
@<TRIPOS>BOND
  1   1   2  2   
  2   2   3  am  
  3   2   4  1   
  4   3   5  1   
  5   3   6  1   
  6   4   7  ar  
  7   4   8  ar  
  8   5   9  1   
  9   5  29  1   
 10   5  30  1   
 11   6  10  1   
 12   6  31  1   
 13   6  32  1   
 14   7  11  ar  
 15   7  33  1   
 16   8  12  ar  
 17   8  34  1   
 18   9  13  1   
 19   9  14  1   
 20   9  35  1   
 21  10  14  1   
 22  10  36  1   
 23  10  37  1   
 24  11  15  ar  
 25  11  16  1   
 26  12  15  ar  
 27  12  38  1   
 28  13  17  1   
 29  13  18  1   
 30  13  39  1   
 31  14  19  1   
 32  14  20  1   
 33  15  21  1   
 34  16  40  1   
 35  16  41  1   
 36  16  42  1   
 37  17  22  1   
 38  17  43  1   
 39  17  44  1   
 40  18  45  1   
 41  18  46  1   
 42  18  47  1   
 43  19  22  1   
 44  19  48  1   
 45  19  49  1   
 46  20  23  1   
 47  20  50  1   
 48  20  51  1   
 49  21  24  1   
 50  21  25  1   
 51  22  52  1   
 52  22  53  1   
 53  23  54  1   
 54  24  26  1   
 55  24  55  1   
 56  24  56  1   
 57  25  27  1   
 58  25  57  1   
 59  25  58  1   
 60  26  28  1   
 61  26  59  1   
 62  26  60  1   
 63  27  28  1   
 64  27  61  1   
 65  27  62  1   
@<TRIPOS>SUBSTRUCTURE
  1 ****   4 GROUP 4 **** **** 0

# MOE 2024.06 (io_trps.svl 2023.06)
