@<TRIPOS>MOLECULE
NONAME
54 57 1 0 0 
SMALL
USER_CHARGES


@<TRIPOS>ATOM
  1 O        0.0050     1.4040     0.0690 O.2   1 <1>  -0.5700 
  2 C       -0.3260     2.5360     0.3760 C.2   1 <1>   0.5440 
  3 N        0.5820     3.2910     1.0860 N.am  1 <1>  -0.6600 
  4 C       -1.6470     3.0210    -0.0030 C.ar  1 <1>   0.0860 
  5 C        0.9430     4.6930     0.7070 C.3   1 <1>   0.1400 
  6 C        1.6640     2.6240     1.8630 C.3   1 <1>   0.1400 
  7 C       -2.2770     4.0910     0.6300 C.ar  1 <1>  -0.1500 
  8 C       -2.3670     2.3840    -1.0120 C.ar  1 <1>  -0.1500 
  9 C        2.3460     4.7440     0.0530 C.3   1 <1>   0.2000 
 10 C        2.9780     2.7100     1.0800 C.3   1 <1>   0.1200 
 11 C       -3.5590     4.5030     0.3010 C.ar  1 <1>   0.0820 
 12 C       -3.6540     2.7640    -1.3380 C.ar  1 <1>  -0.1500 
 13 O        3.2950     4.0480     0.8210 O.3   1 <1>  -0.5600 
 14 C        2.8780     6.1750    -0.0820 C.3   1 <1>   0.1400 
 15 O       -3.9990     5.5790     1.0050 O.3   1 <1>  -0.3630 
 16 C       -4.2830     3.8070    -0.6770 C.ar  1 <1>  -0.1430 
 17 N        1.9910     7.0610    -0.8860 N.am  1 <1>  -0.7300 
 18 C       -4.9160     6.5170     0.4850 C.3   1 <1>   0.1200 
 19 C       -5.7380     4.0650    -1.0560 C.3   1 <1>  -0.0970 
 20 C        1.1660     7.9910    -0.3440 C.2   1 <1>   0.5690 
 21 C       -4.5810     7.9040     1.0270 C.3   1 <1>   0.0960 
 22 O        0.9030     7.9850     0.8340 O.2   1 <1>  -0.5700 
 23 C        0.6350     9.0800    -1.2580 C.3   1 <1>  -0.0990 
 24 N       -3.4960     8.5130     0.2430 N.pl3 1 <1>   0.3140 
 25 C       -0.3400    10.0530    -0.5780 C.3   1 <1>   0.0210 
 26 N       -3.6700     8.8830    -1.0320 N.2   1 <1>  -0.4180 
 27 C       -2.2720     8.8590     0.6410 C.2   1 <1>  -0.3020 
 28 C       -1.7180     9.4420    -0.4310 C.2   1 <1>   0.0460 
 29 N       -2.5870     9.4400    -1.4460 N.2   1 <1>  -0.2270 
 30 H        0.9340     5.3130     1.5860 H     1 <1>   0.0800 
 31 H        0.2200     5.0920     0.0180 H     1 <1>   0.0800 
 32 H        1.4150     1.5930     2.0440 H     1 <1>   0.0800 
 33 H        1.7770     3.1110     2.8150 H     1 <1>   0.0800 
 34 H       -1.7630     4.6160     1.4140 H     1 <1>   0.1500 
 35 H       -1.9120     1.5620    -1.5380 H     1 <1>   0.1500 
 36 H        2.3090     4.2820    -0.9180 H     1 <1>   0.0800 
 37 H        2.8970     2.1790     0.1470 H     1 <1>   0.0800 
 38 H        3.7820     2.2860     1.6550 H     1 <1>   0.0800 
 39 H       -4.1690     2.2210    -2.1110 H     1 <1>   0.1500 
 40 H        3.8490     6.1440    -0.5440 H     1 <1>   0.0800 
 41 H        2.9920     6.5910     0.9050 H     1 <1>   0.0800 
 42 H        2.1590     7.0630    -1.8940 H     1 <1>   0.3700 
 43 H       -5.8980     6.2240     0.8070 H     1 <1>   0.0800 
 44 H       -4.8590     6.5210    -0.5890 H     1 <1>   0.0800 
 45 H       -6.3270     4.2500    -0.1780 H     1 <1>   0.0800 
 46 H       -6.1610     3.2060    -1.5460 H     1 <1>   0.0800 
 47 H       -5.8100     4.8980    -1.7310 H     1 <1>   0.0800 
 48 H       -4.2990     7.8510     2.0630 H     1 <1>   0.0800 
 49 H       -5.4400     8.5410     0.9320 H     1 <1>   0.0800 
 50 H        0.1530     8.6270    -2.1050 H     1 <1>   0.0800 
 51 H        1.4780     9.6400    -1.6150 H     1 <1>   0.0800 
 52 H       -0.4320    10.9430    -1.1750 H     1 <1>   0.0800 
 53 H        0.0340    10.3470     0.3870 H     1 <1>   0.0800 
 54 H       -1.8760     8.6770     1.6220 H     1 <1>   0.1500 
@<TRIPOS>BOND
  1   1   2  2   
  2   2   3  am  
  3   2   4  1   
  4   3   5  1   
  5   3   6  1   
  6   4   7  ar  
  7   4   8  ar  
  8   5   9  1   
  9   5  30  1   
 10   5  31  1   
 11   6  10  1   
 12   6  32  1   
 13   6  33  1   
 14   7  11  ar  
 15   7  34  1   
 16   8  12  ar  
 17   8  35  1   
 18   9  13  1   
 19   9  14  1   
 20   9  36  1   
 21  10  13  1   
 22  10  37  1   
 23  10  38  1   
 24  11  15  1   
 25  11  16  ar  
 26  12  16  ar  
 27  12  39  1   
 28  14  17  1   
 29  14  40  1   
 30  14  41  1   
 31  15  18  1   
 32  16  19  1   
 33  17  20  am  
 34  17  42  1   
 35  18  21  1   
 36  18  43  1   
 37  18  44  1   
 38  19  45  1   
 39  19  46  1   
 40  19  47  1   
 41  20  22  2   
 42  20  23  1   
 43  21  24  1   
 44  21  48  1   
 45  21  49  1   
 46  23  25  1   
 47  23  50  1   
 48  23  51  1   
 49  24  26  1   
 50  24  27  1   
 51  25  28  1   
 52  25  52  1   
 53  25  53  1   
 54  26  29  2   
 55  27  28  2   
 56  27  54  1   
 57  28  29  1   
@<TRIPOS>SUBSTRUCTURE
  1 ****   7 GROUP 4 **** **** 0

# MOE 2024.06 (io_trps.svl 2023.06)
