@<TRIPOS>MOLECULE
NONAME
42 43 1 0 0 
SMALL
USER_CHARGES


@<TRIPOS>ATOM
  1 S        0.1510    -0.0160    -0.4020 S.o2  1 <1>   1.3330 
  2 O       -0.5070    -0.0770    -1.6880 O.2   1 <1>  -0.6500 
  3 O        1.5940     0.0750    -0.3480 O.2   1 <1>  -0.6500 
  4 N       -0.3160    -1.3780     0.4970 N.am  1 <1>  -0.8490 
  5 C       -0.5700     1.3440     0.5120 C.3   1 <1>  -0.0550 
  6 C       -0.3790    -2.5890    -0.3260 C.3   1 <1>   0.1160 
  7 C        0.5280    -1.6180     1.6730 C.3   1 <1>   0.1160 
  8 C       -0.3640     2.7090    -0.1730 C.3   1 <1>  -0.0800 
  9 C       -1.1160     3.8670     0.4810 C.3   1 <1>   0.2000 
 10 C        1.1030     3.1750    -0.2130 C.3   1 <1>   0.1100 
 11 O       -1.0170     3.7510     1.8550 O.3   1 <1>  -0.6800 
 12 C       -0.2680     5.0630     0.0730 C.3   1 <1>   0.1100 
 13 N        1.1100     4.5770     0.2360 N.3   1 <1>  -0.8100 
 14 C        2.0980     5.4000    -0.4880 C.3   1 <1>   0.2900 
 15 C        2.2480     6.7850     0.1230 C.2   1 <1>  -0.0400 
 16 O        2.8380     7.7230    -0.5940 O.3   1 <1>  -0.2800 
 17 C        1.8820     7.2780     1.3270 C.2   1 <1>  -0.1500 
 18 C        2.8590     8.8260     0.1250 C.2   1 <1>  -0.0400 
 19 C        2.2820     8.6200     1.3270 C.2   1 <1>  -0.1500 
 20 C        3.4850    10.0670    -0.4710 C.3   1 <1>  -0.0600 
 21 H       -1.6240     1.1690     0.6120 H     1 <1>   0.0800 
 22 H       -0.1520     1.3720     1.4990 H     1 <1>   0.0800 
 23 H       -0.6960    -3.4290     0.2690 H     1 <1>   0.0800 
 24 H        0.5860    -2.8010    -0.7560 H     1 <1>   0.0800 
 25 H       -1.0920    -2.4560    -1.1230 H     1 <1>   0.0800 
 26 H        0.1350    -2.4390     2.2480 H     1 <1>   0.0800 
 27 H        0.5480    -0.7440     2.3010 H     1 <1>   0.0800 
 28 H        1.5370    -1.8510     1.3720 H     1 <1>   0.0800 
 29 H       -0.7070     2.6320    -1.1910 H     1 <1>   0.0800 
 30 H       -2.1530     3.9390     0.2000 H     1 <1>   0.0800 
 31 H        1.4870     3.0830    -1.2160 H     1 <1>   0.0800 
 32 H        1.7240     2.5940     0.4490 H     1 <1>   0.0800 
 33 H       -0.0830     3.9660     2.0730 H     1 <1>   0.4000 
 34 H       -0.4690     5.9240     0.6870 H     1 <1>   0.0800 
 35 H       -0.4590     5.3070    -0.9580 H     1 <1>   0.0800 
 36 H        3.0590     4.9160    -0.4600 H     1 <1>   0.0800 
 37 H        1.8030     5.5000    -1.5190 H     1 <1>   0.0800 
 38 H        1.3900     6.7650     2.1330 H     1 <1>   0.1500 
 39 H        2.1420     9.3110     2.1380 H     1 <1>   0.1500 
 40 H        3.4300    10.8820     0.2260 H     1 <1>   0.0800 
 41 H        2.9650    10.3380    -1.3720 H     1 <1>   0.0800 
 42 H        4.5160     9.8740    -0.7060 H     1 <1>   0.0800 
@<TRIPOS>BOND
  1   1   2  2   
  2   1   3  2   
  3   1   4  am  
  4   1   5  1   
  5   4   6  1   
  6   4   7  1   
  7   5   8  1   
  8   5  21  1   
  9   5  22  1   
 10   6  23  1   
 11   6  24  1   
 12   6  25  1   
 13   7  26  1   
 14   7  27  1   
 15   7  28  1   
 16   8   9  1   
 17   8  10  1   
 18   8  29  1   
 19   9  11  1   
 20   9  12  1   
 21   9  30  1   
 22  10  13  1   
 23  10  31  1   
 24  10  32  1   
 25  11  33  1   
 26  12  13  1   
 27  12  34  1   
 28  12  35  1   
 29  13  14  1   
 30  14  15  1   
 31  14  36  1   
 32  14  37  1   
 33  15  16  1   
 34  15  17  2   
 35  16  18  1   
 36  17  19  1   
 37  17  38  1   
 38  18  19  2   
 39  18  20  1   
 40  19  39  1   
 41  20  40  1   
 42  20  41  1   
 43  20  42  1   
@<TRIPOS>SUBSTRUCTURE
  1 ****  10 GROUP 4 **** **** 0

# MOE 2024.06 (io_trps.svl 2023.06)
