@<TRIPOS>MOLECULE
NONAME
44 46 1 0 0 
SMALL
USER_CHARGES


@<TRIPOS>ATOM
  1 F       -1.8020    -1.1430    -0.7940 F     1 <1>  -0.1900 
  2 C       -1.9980    -0.1050    -0.0190 C.ar  1 <1>   0.1900 
  3 C       -1.4360     1.1100    -0.3990 C.ar  1 <1>   0.0820 
  4 C       -2.7490    -0.2840     1.1420 C.ar  1 <1>   0.0860 
  5 O       -0.7360     1.1400    -1.5760 O.3   1 <1>  -0.3630 
  6 C       -1.6480     2.1880     0.4660 C.ar  1 <1>   0.1900 
  7 C       -3.3350    -1.5550     1.5040 C.2   1 <1>   0.5440 
  8 C       -2.9140     0.8270     1.9710 C.ar  1 <1>  -0.1500 
  9 C        0.0390     2.2440    -1.9890 C.3   1 <1>   0.0400 
 10 F       -1.1800     3.3810     0.2120 F     1 <1>  -0.1900 
 11 C       -2.3720     2.0550     1.6390 C.ar  1 <1>  -0.1500 
 12 O       -3.0270    -2.0740     2.5590 O.2   1 <1>  -0.5700 
 13 N       -4.2730    -2.1780     0.7160 N.am  1 <1>  -0.6600 
 14 C       -4.9310    -1.6090    -0.4880 C.3   1 <1>   0.1400 
 15 C       -4.8180    -3.5260     1.0170 C.3   1 <1>   0.1400 
 16 C       -6.1410    -2.5120    -0.7270 C.3   1 <1>   0.2000 
 17 C       -5.7090    -3.8760    -0.1820 C.3   1 <1>  -0.0800 
 18 O       -7.1910    -2.0460     0.0490 O.3   1 <1>  -0.6800 
 19 C       -4.9300    -4.6710    -1.2480 C.3   1 <1>   0.0210 
 20 C       -4.4910    -6.0230    -0.7210 C.2   1 <1>   0.1080 
 21 N       -5.3260    -6.9790    -0.4590 N.2   1 <1>  -0.7070 
 22 C       -3.1750    -6.3860    -0.4570 C.2   1 <1>  -0.1500 
 23 N       -4.5560    -7.9900    -0.0150 N.pl3 1 <1>   0.3000 
 24 C       -3.2480    -7.6540    -0.0030 C.2   1 <1>  -0.3320 
 25 C       -2.1330    -8.5780     0.4490 C.3   1 <1>  -0.0600 
 26 H       -3.4730     0.7120     2.8860 H     1 <1>   0.1500 
 27 H        0.5620     1.9670    -2.8870 H     1 <1>   0.0800 
 28 H        0.7470     2.4870    -1.2170 H     1 <1>   0.0800 
 29 H       -0.6120     3.0750    -2.1920 H     1 <1>   0.0800 
 30 H       -2.5060     2.9080     2.2820 H     1 <1>   0.1500 
 31 H       -5.2220    -0.5830    -0.3410 H     1 <1>   0.0800 
 32 H       -4.2580    -1.6780    -1.3240 H     1 <1>   0.0800 
 33 H       -4.0210    -4.2340     1.1690 H     1 <1>   0.0800 
 34 H       -5.4060    -3.4720     1.9180 H     1 <1>   0.0800 
 35 H       -6.4630    -2.5320    -1.7540 H     1 <1>   0.0800 
 36 H       -6.5580    -4.4630     0.1240 H     1 <1>   0.0800 
 37 H       -6.8930    -1.9850     0.9780 H     1 <1>   0.4000 
 38 H       -4.0630    -4.1230    -1.5710 H     1 <1>   0.0800 
 39 H       -5.5600    -4.8360    -2.1040 H     1 <1>   0.0800 
 40 H       -2.3070    -5.7650    -0.5910 H     1 <1>   0.1500 
 41 H       -4.9520    -8.8930     0.2720 H     1 <1>   0.2700 
 42 H       -1.1840    -8.0780     0.3670 H     1 <1>   0.0800 
 43 H       -2.1080    -9.4610    -0.1650 H     1 <1>   0.0800 
 44 H       -2.2810    -8.8650     1.4750 H     1 <1>   0.0800 
@<TRIPOS>BOND
  1   1   2  1   
  2   2   3  ar  
  3   2   4  ar  
  4   3   5  1   
  5   3   6  ar  
  6   4   7  1   
  7   4   8  ar  
  8   5   9  1   
  9   6  10  1   
 10   6  11  ar  
 11   7  12  2   
 12   7  13  am  
 13   8  11  ar  
 14   8  26  1   
 15   9  27  1   
 16   9  28  1   
 17   9  29  1   
 18  11  30  1   
 19  13  14  1   
 20  13  15  1   
 21  14  16  1   
 22  14  31  1   
 23  14  32  1   
 24  15  17  1   
 25  15  33  1   
 26  15  34  1   
 27  16  17  1   
 28  16  18  1   
 29  16  35  1   
 30  17  19  1   
 31  17  36  1   
 32  18  37  1   
 33  19  20  1   
 34  19  38  1   
 35  19  39  1   
 36  20  21  2   
 37  20  22  1   
 38  21  23  1   
 39  22  24  2   
 40  22  40  1   
 41  23  24  1   
 42  23  41  1   
 43  24  25  1   
 44  25  42  1   
 45  25  43  1   
 46  25  44  1   
@<TRIPOS>SUBSTRUCTURE
  1 ****  13 GROUP 4 **** **** 0

# MOE 2024.06 (io_trps.svl 2023.06)
