@<TRIPOS>MOLECULE
NONAME
48 50 1 0 0 
SMALL
USER_CHARGES


@<TRIPOS>ATOM
  1 O       -0.7250    -1.0520     0.2540 O.2   1 <1>  -0.5700 
  2 C       -0.2450    -2.0670     0.7140 C.2   1 <1>   0.5440 
  3 N       -1.0340    -2.7500     1.5780 N.am  1 <1>  -0.8000 
  4 C        1.0990    -2.4830     0.3880 C.ar  1 <1>   0.0860 
  5 C        1.4610    -3.8330     0.2170 C.ar  1 <1>   0.4100 
  6 C        2.0960    -1.5300     0.2390 C.ar  1 <1>  -0.1500 
  7 N        2.7080    -4.2310    -0.0180 N.ar  1 <1>  -0.6200 
  8 N        0.5190    -4.8410     0.2760 N.pl3 1 <1>  -0.8690 
  9 C        3.3840    -1.9390    -0.0270 C.ar  1 <1>  -0.1430 
 10 C        3.6350    -3.3030    -0.1350 C.ar  1 <1>   0.1670 
 11 C        0.7570    -6.2460    -0.1100 C.3   1 <1>   0.2890 
 12 C        4.4760    -0.8890    -0.1930 C.3   1 <1>  -0.0970 
 13 C        5.0340    -3.8240    -0.4100 C.3   1 <1>  -0.0970 
 14 C       -0.4860    -6.7830    -0.8180 C.3   1 <1>  -0.1600 
 15 C        1.0730    -7.0590     1.1430 C.3   1 <1>  -0.1600 
 16 C       -0.3000    -8.2620    -1.1550 C.3   1 <1>   0.2090 
 17 C        1.2340    -8.5360     0.7900 C.3   1 <1>   0.2090 
 18 N        0.0070    -9.0040     0.0930 N.pl3 1 <1>  -0.8380 
 19 C       -0.3060   -10.3500     0.1400 C.ar  1 <1>   0.4100 
 20 N        0.7080   -11.1780    -0.0990 N.ar  1 <1>  -0.6200 
 21 C       -1.6120   -10.7800     0.4170 C.ar  1 <1>   0.0730 
 22 C        0.4330   -12.4680    -0.0660 C.ar  1 <1>   0.1600 
 23 C       -2.6570    -9.8360     0.6680 C.1   1 <1>   0.4840 
 24 C       -1.8690   -12.1390     0.4450 C.ar  1 <1>  -0.1500 
 25 C       -0.8180   -12.9960     0.1970 C.ar  1 <1>  -0.1500 
 26 N       -3.5230    -9.1140     0.8510 N.1   1 <1>  -0.5570 
 27 H       -1.9350    -2.3530     1.8470 H     1 <1>   0.3700 
 28 H       -0.6900    -3.5470     2.1190 H     1 <1>   0.3700 
 29 H        1.8490    -0.4870     0.3370 H     1 <1>   0.1500 
 30 H       -0.4630    -4.5590     0.2270 H     1 <1>   0.4000 
 31 H        1.5920    -6.3050    -0.7890 H     1 <1>   0.0800 
 32 H        4.0570     0.1010    -0.2170 H     1 <1>   0.0800 
 33 H        5.0090    -1.0470    -1.1130 H     1 <1>   0.0800 
 34 H        5.1680    -0.9440     0.6290 H     1 <1>   0.0800 
 35 H        5.0890    -4.8760    -0.1950 H     1 <1>   0.0800 
 36 H        5.7540    -3.3200     0.2060 H     1 <1>   0.0800 
 37 H        5.2780    -3.6720    -1.4450 H     1 <1>   0.0800 
 38 H       -0.6500    -6.2330    -1.7260 H     1 <1>   0.0800 
 39 H       -1.3500    -6.6810    -0.1860 H     1 <1>   0.0800 
 40 H        0.2810    -6.9560     1.8620 H     1 <1>   0.0800 
 41 H        1.9860    -6.6970     1.5800 H     1 <1>   0.0800 
 42 H        0.5130    -8.3870    -1.8510 H     1 <1>   0.0800 
 43 H       -1.1970    -8.6510    -1.6060 H     1 <1>   0.0800 
 44 H        1.3870    -9.1150     1.6860 H     1 <1>   0.0800 
 45 H        2.0870    -8.6770     0.1470 H     1 <1>   0.0800 
 46 H        1.2500   -13.1440    -0.2580 H     1 <1>   0.1500 
 47 H       -2.8560   -12.5160     0.6540 H     1 <1>   0.1500 
 48 H       -0.9640   -14.0620     0.2070 H     1 <1>   0.1500 
@<TRIPOS>BOND
  1   1   2  2   
  2   2   3  am  
  3   2   4  1   
  4   3  27  1   
  5   3  28  1   
  6   4   5  ar  
  7   4   6  ar  
  8   5   7  ar  
  9   5   8  1   
 10   6   9  ar  
 11   6  29  1   
 12   7  10  ar  
 13   8  11  1   
 14   8  30  1   
 15   9  10  ar  
 16   9  12  1   
 17  10  13  1   
 18  11  14  1   
 19  11  15  1   
 20  11  31  1   
 21  12  32  1   
 22  12  33  1   
 23  12  34  1   
 24  13  35  1   
 25  13  36  1   
 26  13  37  1   
 27  14  16  1   
 28  14  38  1   
 29  14  39  1   
 30  15  17  1   
 31  15  40  1   
 32  15  41  1   
 33  16  18  1   
 34  16  42  1   
 35  16  43  1   
 36  17  18  1   
 37  17  44  1   
 38  17  45  1   
 39  18  19  1   
 40  19  20  ar  
 41  19  21  ar  
 42  20  22  ar  
 43  21  23  1   
 44  21  24  ar  
 45  22  25  ar  
 46  22  46  1   
 47  23  26  3   
 48  24  25  ar  
 49  24  47  1   
 50  25  48  1   
@<TRIPOS>SUBSTRUCTURE
  1 ****  11 GROUP 4 **** **** 0

# MOE 2024.06 (io_trps.svl 2023.06)
