@<TRIPOS>MOLECULE
NONAME
54 57 1 0 0 
SMALL
USER_CHARGES


@<TRIPOS>ATOM
  1 O       -4.3710    -4.0080    -2.8810 O.2   1 <1>  -0.5700 
  2 C       -3.9780    -3.3360    -1.9570 C.2   1 <1>   0.5690 
  3 N       -4.2720    -2.0030    -1.8600 N.am  1 <1>  -0.6600 
  4 C       -3.0700    -3.9970    -0.9340 C.3   1 <1>  -0.0190 
  5 C       -3.5760    -1.1180    -0.8800 C.3   1 <1>   0.2200 
  6 C       -5.3930    -1.3920    -2.6220 C.3   1 <1>   0.0600 
  7 C       -1.6340    -3.4880    -1.1150 C.3   1 <1>   0.1200 
  8 C       -3.5580    -3.9190     0.5320 C.3   1 <1>   0.1400 
  9 C       -2.0480    -1.1520    -1.0980 C.3   1 <1>   0.1200 
 10 C       -3.9590    -1.4240     0.5870 C.3   1 <1>   0.1400 
 11 O       -1.4340    -2.2550    -0.4930 O.3   1 <1>  -0.5600 
 12 N       -4.5180    -2.8010     0.8210 N.am  1 <1>  -0.6600 
 13 C       -5.8310    -2.9430     1.2420 C.2   1 <1>   0.5690 
 14 O       -6.5770    -1.9850     1.1990 O.2   1 <1>  -0.5700 
 15 C       -6.4160    -4.2630     1.8520 C.3   1 <1>   0.3410 
 16 O       -6.2320    -5.4020     1.0210 O.3   1 <1>  -0.3630 
 17 C       -5.6800    -4.5980     3.1610 C.3   1 <1>  -0.2400 
 18 C       -7.9210    -4.1960     2.1950 C.3   1 <1>  -0.2400 
 19 C       -6.5330    -5.5230    -0.3000 C.ar  1 <1>   0.0820 
 20 C       -6.1010    -6.7230    -0.9240 C.ar  1 <1>   0.0000 
 21 C       -7.2060    -4.5660    -1.0250 C.ar  1 <1>  -0.1500 
 22 C       -6.3690    -6.9100    -2.2980 C.ar  1 <1>   0.0000 
 23 C       -5.4050    -7.7460    -0.2420 C.ar  1 <1>  -0.1500 
 24 C       -7.4800    -4.7650    -2.3800 C.ar  1 <1>  -0.1500 
 25 C       -7.0690    -5.9110    -3.0000 C.ar  1 <1>  -0.1500 
 26 C       -5.9240    -8.0890    -2.9300 C.ar  1 <1>  -0.1500 
 27 C       -4.9870    -8.8830    -0.8780 C.ar  1 <1>  -0.1500 
 28 C       -5.2480    -9.0560    -2.2400 C.ar  1 <1>  -0.1500 
 29 H       -3.0430    -5.0410    -1.1900 H     1 <1>   0.0800 
 30 H       -3.8780    -0.1050    -1.0830 H     1 <1>   0.0800 
 31 H       -5.0230    -0.5970    -3.2440 H     1 <1>   0.0800 
 32 H       -6.1240    -1.0030    -1.9340 H     1 <1>   0.0800 
 33 H       -5.8710    -2.1270    -3.2470 H     1 <1>   0.0800 
 34 H       -1.3790    -3.4030    -2.1590 H     1 <1>   0.0800 
 35 H       -0.9500    -4.1800    -0.6560 H     1 <1>   0.0800 
 36 H       -2.7080    -3.8140     1.1840 H     1 <1>   0.0800 
 37 H       -4.0010    -4.8630     0.7710 H     1 <1>   0.0800 
 38 H       -1.6140    -0.2790    -0.6430 H     1 <1>   0.0800 
 39 H       -1.8070    -1.1380    -2.1470 H     1 <1>   0.0800 
 40 H       -4.6700    -0.6800     0.8980 H     1 <1>   0.0800 
 41 H       -3.0980    -1.2890     1.2190 H     1 <1>   0.0800 
 42 H       -5.8080    -3.7950     3.8650 H     1 <1>   0.0800 
 43 H       -4.6280    -4.7230     2.9890 H     1 <1>   0.0800 
 44 H       -6.0720    -5.4990     3.5950 H     1 <1>   0.0800 
 45 H       -8.0940    -3.4310     2.9290 H     1 <1>   0.0800 
 46 H       -8.2590    -5.1360     2.5930 H     1 <1>   0.0800 
 47 H       -8.5110    -3.9540     1.3330 H     1 <1>   0.0800 
 48 H       -7.5370    -3.6410    -0.5980 H     1 <1>   0.1500 
 49 H       -5.2040    -7.6210     0.8070 H     1 <1>   0.1500 
 50 H       -8.0050    -4.0020    -2.9250 H     1 <1>   0.1500 
 51 H       -7.2670    -6.0610    -4.0450 H     1 <1>   0.1500 
 52 H       -6.1280    -8.2130    -3.9780 H     1 <1>   0.1500 
 53 H       -4.4580    -9.6530    -0.3440 H     1 <1>   0.1500 
 54 H       -4.9110    -9.9530    -2.7300 H     1 <1>   0.1500 
@<TRIPOS>BOND
  1   1   2  2   
  2   2   3  am  
  3   2   4  1   
  4   3   5  1   
  5   3   6  1   
  6   4   7  1   
  7   4   8  1   
  8   4  29  1   
  9   5   9  1   
 10   5  10  1   
 11   5  30  1   
 12   6  31  1   
 13   6  32  1   
 14   6  33  1   
 15   7  11  1   
 16   7  34  1   
 17   7  35  1   
 18   8  12  1   
 19   8  36  1   
 20   8  37  1   
 21   9  11  1   
 22   9  38  1   
 23   9  39  1   
 24  10  12  1   
 25  10  40  1   
 26  10  41  1   
 27  12  13  am  
 28  13  14  2   
 29  13  15  1   
 30  15  16  1   
 31  15  17  1   
 32  15  18  1   
 33  16  19  1   
 34  17  42  1   
 35  17  43  1   
 36  17  44  1   
 37  18  45  1   
 38  18  46  1   
 39  18  47  1   
 40  19  20  ar  
 41  19  21  ar  
 42  20  22  ar  
 43  20  23  ar  
 44  21  24  ar  
 45  21  48  1   
 46  22  25  ar  
 47  22  26  ar  
 48  23  27  ar  
 49  23  49  1   
 50  24  25  ar  
 51  24  50  1   
 52  25  51  1   
 53  26  28  ar  
 54  26  52  1   
 55  27  28  ar  
 56  27  53  1   
 57  28  54  1   
@<TRIPOS>SUBSTRUCTURE
  1 ****  19 GROUP 4 **** **** 0

# MOE 2024.06 (io_trps.svl 2023.06)
