@<TRIPOS>MOLECULE
NONAME
41 43 1 0 0 
SMALL
USER_CHARGES


@<TRIPOS>ATOM
  1 O       -1.6510    -1.3220     0.5300 O.3   1 <1>  -0.5600 
  2 C       -1.5190    -0.1880     1.3250 C.3   1 <1>   0.1200 
  3 C       -1.5600    -1.1480    -0.8450 C.3   1 <1>   0.1200 
  4 C       -2.7050     0.7900     1.1850 C.3   1 <1>   0.4230 
  5 C       -2.8240    -0.4840    -1.4150 C.3   1 <1>  -0.0800 
  6 N       -2.5520     1.6880    -0.0280 N.4   1 <1>  -0.9590 
  7 C       -4.0830     0.0720     1.3170 C.3   1 <1>   0.1100 
  8 C       -4.1400    -1.0620    -0.8610 C.3   1 <1>   0.1100 
  9 C       -2.8030     1.0490    -1.3690 C.3   1 <1>   0.3430 
 10 C       -3.4590     2.8680     0.1010 C.3   1 <1>   0.2630 
 11 N       -4.8310    -0.1260     0.0530 N.3   1 <1>  -0.8100 
 12 C       -6.2380    -0.5280     0.2700 C.3   1 <1>   0.2900 
 13 C       -6.3710    -1.9860     0.6820 C.2   1 <1>  -0.3320 
 14 N       -6.1310    -2.4500     1.9240 N.pl3 1 <1>   0.0330 
 15 C       -6.7520    -3.0610    -0.0480 C.2   1 <1>   0.0460 
 16 C       -6.3690    -3.7750     1.8630 C.2   1 <1>   0.0360 
 17 N       -6.7420    -4.1800     0.6950 N.2   1 <1>  -0.5650 
 18 C       -7.1610    -3.1530    -1.5020 C.3   1 <1>  -0.0590 
 19 H       -1.4790    -0.5400     2.3410 H     1 <1>   0.0800 
 20 H       -0.5810     0.2900     1.1040 H     1 <1>   0.0800 
 21 H       -0.6670    -0.5940    -1.0790 H     1 <1>   0.0800 
 22 H       -1.4610    -2.1340    -1.2670 H     1 <1>   0.0800 
 23 H       -2.6260     1.4270     2.0500 H     1 <1>   0.0800 
 24 H       -2.8180    -0.7350    -2.4600 H     1 <1>   0.0800 
 25 H       -1.5820     2.0220    -0.0300 H     1 <1>   0.4500 
 26 H       -4.6880     0.6670     1.9780 H     1 <1>   0.0800 
 27 H       -3.9350    -0.8800     1.8000 H     1 <1>   0.0800 
 28 H       -3.9600    -2.0060    -0.3690 H     1 <1>   0.0800 
 29 H       -4.7920    -1.2620    -1.6950 H     1 <1>   0.0800 
 30 H       -3.7610     1.3810    -1.7370 H     1 <1>   0.0800 
 31 H       -2.0590     1.4030    -2.0640 H     1 <1>   0.0800 
 32 H       -4.4870     2.5420     0.0920 H     1 <1>   0.0800 
 33 H       -3.3070     3.5500    -0.7200 H     1 <1>   0.0800 
 34 H       -3.2690     3.3910     1.0240 H     1 <1>   0.0800 
 35 H       -6.6960     0.1060     1.0090 H     1 <1>   0.0800 
 36 H       -6.7780    -0.3760    -0.6480 H     1 <1>   0.0800 
 37 H       -5.8410    -1.9260     2.7520 H     1 <1>   0.2700 
 38 H       -6.2550    -4.4200     2.7170 H     1 <1>   0.1500 
 39 H       -7.1320    -2.1920    -1.9770 H     1 <1>   0.0800 
 40 H       -8.1610    -3.5440    -1.5650 H     1 <1>   0.0800 
 41 H       -6.4980    -3.8220    -2.0170 H     1 <1>   0.0800 
@<TRIPOS>BOND
  1   1   2  1   
  2   1   3  1   
  3   2   4  1   
  4   2  19  1   
  5   2  20  1   
  6   3   5  1   
  7   3  21  1   
  8   3  22  1   
  9   4   6  1   
 10   4   7  1   
 11   4  23  1   
 12   5   8  1   
 13   5   9  1   
 14   5  24  1   
 15   6   9  1   
 16   6  10  1   
 17   6  25  1   
 18   7  11  1   
 19   7  26  1   
 20   7  27  1   
 21   8  11  1   
 22   8  28  1   
 23   8  29  1   
 24   9  30  1   
 25   9  31  1   
 26  10  32  1   
 27  10  33  1   
 28  10  34  1   
 29  11  12  1   
 30  12  13  1   
 31  12  35  1   
 32  12  36  1   
 33  13  14  1   
 34  13  15  2   
 35  14  16  1   
 36  14  37  1   
 37  15  17  1   
 38  15  18  1   
 39  16  17  2   
 40  16  38  1   
 41  18  39  1   
 42  18  40  1   
 43  18  41  1   
@<TRIPOS>SUBSTRUCTURE
  1 ****  11 GROUP 4 **** **** 0

# MOE 2024.06 (io_trps.svl 2023.06)
