@<TRIPOS>MOLECULE
NONAME
44 46 1 0 0 
SMALL
USER_CHARGES


@<TRIPOS>ATOM
  1 S        0.5060     0.6990     0.8740 S.o2  1 <1>   1.4470 
  2 O        0.4340     0.3620     2.2730 O.2   1 <1>  -0.6500 
  3 O        1.0190     1.9620     0.4060 O.2   1 <1>  -0.6500 
  4 N       -1.0650     0.6260     0.3240 N.am  1 <1>  -0.9780 
  5 C        1.3010    -0.6550    -0.0430 C.ar  1 <1>  -0.0090 
  6 C        1.3170    -1.9520     0.4590 C.ar  1 <1>  -0.1500 
  7 C        1.8930    -0.4230    -1.2820 C.ar  1 <1>  -0.1500 
  8 C        1.8940    -3.0230    -0.2270 C.ar  1 <1>   0.0860 
  9 C        2.4870    -1.4530    -1.9900 C.ar  1 <1>  -0.1500 
 10 C        2.4820    -2.7240    -1.4530 C.ar  1 <1>   0.1900 
 11 C        1.8810    -4.3530     0.3440 C.2   1 <1>   0.5440 
 12 F        3.0650    -3.6670    -2.1390 F     1 <1>  -0.1900 
 13 O        2.3050    -4.5150     1.4700 O.2   1 <1>  -0.5700 
 14 N        1.3580    -5.4400    -0.3160 N.am  1 <1>  -0.6600 
 15 C        0.5540    -5.4170    -1.5640 C.3   1 <1>   0.1400 
 16 C        1.3560    -6.8060     0.2680 C.3   1 <1>   0.1400 
 17 C       -0.3380    -6.6510    -1.4540 C.3   1 <1>   0.2000 
 18 C        0.5410    -7.6630    -0.7110 C.3   1 <1>  -0.0800 
 19 O       -1.4310    -6.3190    -0.6680 O.3   1 <1>  -0.6800 
 20 C       -0.2250    -8.8200    -0.0420 C.3   1 <1>   0.0200 
 21 C        0.6910    -9.8770     0.5540 C.2   1 <1>  -0.0400 
 22 O        0.1580   -10.8450     1.2510 O.3   1 <1>  -0.0190 
 23 C        2.0190   -10.0750     0.5330 C.2   1 <1>  -0.1500 
 24 N        1.0550   -11.6750     1.6990 N.2   1 <1>  -0.4100 
 25 C        2.1870   -11.2350     1.2820 C.2   1 <1>   0.1080 
 26 C        3.5150   -11.8970     1.5720 C.3   1 <1>  -0.0590 
 27 H       -1.4450    -0.2780     0.5800 H     1 <1>   0.4200 
 28 H       -1.0520     0.7470    -0.6830 H     1 <1>   0.4200 
 29 H        0.8780    -2.1490     1.4250 H     1 <1>   0.1500 
 30 H        1.9000     0.5750    -1.6920 H     1 <1>   0.1500 
 31 H        2.9560    -1.2720    -2.9430 H     1 <1>   0.1500 
 32 H       -0.0240    -4.5140    -1.6620 H     1 <1>   0.0800 
 33 H        1.2140    -5.5200    -2.4080 H     1 <1>   0.0800 
 34 H        2.3650    -7.1670     0.3740 H     1 <1>   0.0800 
 35 H        0.8900    -6.7740     1.2380 H     1 <1>   0.0800 
 36 H       -0.6930    -7.0050    -2.4070 H     1 <1>   0.0800 
 37 H        1.2260    -8.0800    -1.4280 H     1 <1>   0.0800 
 38 H       -1.1090    -5.9240     0.1670 H     1 <1>   0.4000 
 39 H       -0.8610    -9.2930    -0.7680 H     1 <1>   0.0800 
 40 H       -0.8560    -8.4390     0.7420 H     1 <1>   0.0800 
 41 H        2.8030    -9.5090     0.0660 H     1 <1>   0.1500 
 42 H        4.1630   -11.2060     2.0790 H     1 <1>   0.0800 
 43 H        3.9760   -12.2090     0.6530 H     1 <1>   0.0800 
 44 H        3.3670   -12.7590     2.1980 H     1 <1>   0.0800 
@<TRIPOS>BOND
  1   1   2  2   
  2   1   3  2   
  3   1   4  am  
  4   1   5  1   
  5   4  27  1   
  6   4  28  1   
  7   5   6  ar  
  8   5   7  ar  
  9   6   8  ar  
 10   6  29  1   
 11   7   9  ar  
 12   7  30  1   
 13   8  10  ar  
 14   8  11  1   
 15   9  10  ar  
 16   9  31  1   
 17  10  12  1   
 18  11  13  2   
 19  11  14  am  
 20  14  15  1   
 21  14  16  1   
 22  15  17  1   
 23  15  32  1   
 24  15  33  1   
 25  16  18  1   
 26  16  34  1   
 27  16  35  1   
 28  17  18  1   
 29  17  19  1   
 30  17  36  1   
 31  18  20  1   
 32  18  37  1   
 33  19  38  1   
 34  20  21  1   
 35  20  39  1   
 36  20  40  1   
 37  21  22  1   
 38  21  23  2   
 39  22  24  1   
 40  23  25  1   
 41  23  41  1   
 42  24  25  2   
 43  25  26  1   
 44  26  42  1   
 45  26  43  1   
 46  26  44  1   
@<TRIPOS>SUBSTRUCTURE
  1 ****  14 GROUP 4 **** **** 0

# MOE 2024.06 (io_trps.svl 2023.06)
