@<TRIPOS>MOLECULE
NONAME
48 50 1 0 0 
SMALL
USER_CHARGES


@<TRIPOS>ATOM
  1 CL      -1.3710    -1.5360     1.0110 Cl    1 <1>  -0.1770 
  2 C       -1.9510    -0.0780     0.2380 C.ar  1 <1>   0.1770 
  3 C       -2.8630    -0.1780    -0.8080 C.ar  1 <1>  -0.1440 
  4 C       -1.4960     1.1450     0.7040 C.ar  1 <1>  -0.1500 
  5 C       -3.3270     0.9910    -1.3990 C.ar  1 <1>  -0.1500 
  6 C       -3.3290    -1.5350    -1.2980 C.3   1 <1>   0.4870 
  7 C       -1.9610     2.3100     0.1160 C.ar  1 <1>  -0.1500 
  8 C       -2.8690     2.2070    -0.9220 C.ar  1 <1>   0.1900 
  9 N       -4.1350    -2.1870    -0.2210 N.4   1 <1>  -0.9590 
 10 F       -3.3160     3.2990    -1.4780 F     1 <1>  -0.1900 
 11 C       -4.3230    -3.6620    -0.4590 C.3   1 <1>   0.3430 
 12 C       -5.4220    -1.4560     0.0310 C.3   1 <1>   0.3430 
 13 C       -5.3380    -4.2190     0.5730 C.3   1 <1>   0.4230 
 14 C       -6.3750    -2.2750     0.9320 C.3   1 <1>  -0.1600 
 15 N       -5.2110    -5.6700     1.0040 N.4   1 <1>  -0.9590 
 16 C       -6.8030    -3.6690     0.2270 C.3   1 <1>   0.0000 
 17 C       -5.3190    -6.6500    -0.0930 C.3   1 <1>   0.3430 
 18 C       -4.0250    -5.9620     1.8730 C.3   1 <1>   0.2630 
 19 C       -7.2440    -5.0160    -0.5530 C.3   1 <1>  -0.1600 
 20 C       -8.2770    -3.0850    -0.0240 C.3   1 <1>   0.1200 
 21 C       -6.2610    -6.0690    -1.1240 C.3   1 <1>  -0.1600 
 22 O       -8.9560    -3.1800     1.1860 O.3   1 <1>  -0.6800 
 23 H       -0.7870     1.1880     1.5130 H     1 <1>   0.1500 
 24 H       -4.0260     0.9880    -2.2180 H     1 <1>   0.1500 
 25 H       -2.4620    -2.1350    -1.5290 H     1 <1>   0.0800 
 26 H       -3.9150    -1.4240    -2.1960 H     1 <1>   0.0800 
 27 H       -1.6290     3.2780     0.4500 H     1 <1>   0.1500 
 28 H       -3.5550    -2.0630     0.6260 H     1 <1>   0.4500 
 29 H       -4.7020    -3.8240    -1.4540 H     1 <1>   0.0800 
 30 H       -3.3780    -4.1680    -0.3550 H     1 <1>   0.0800 
 31 H       -5.2140    -0.5040     0.4960 H     1 <1>   0.0800 
 32 H       -5.9170    -1.2600    -0.9070 H     1 <1>   0.0800 
 33 H       -4.9990    -3.7530     1.4760 H     1 <1>   0.0800 
 34 H       -5.9680    -2.3780     1.9260 H     1 <1>   0.0800 
 35 H       -7.1510    -1.5620     1.1690 H     1 <1>   0.0800 
 36 H       -6.0510    -5.8340     1.5860 H     1 <1>   0.4500 
 37 H       -4.3570    -6.8460    -0.5400 H     1 <1>   0.0800 
 38 H       -5.7160    -7.5790     0.2880 H     1 <1>   0.0800 
 39 H       -3.1060    -5.8300     1.3250 H     1 <1>   0.0800 
 40 H       -4.0650    -6.9800     2.2280 H     1 <1>   0.0800 
 41 H       -4.0150    -5.3090     2.7320 H     1 <1>   0.0800 
 42 H       -7.9530    -5.5490     0.0650 H     1 <1>   0.0800 
 43 H       -7.7420    -4.7850    -1.4820 H     1 <1>   0.0800 
 44 H       -8.9460    -3.5560    -0.7250 H     1 <1>   0.0800 
 45 H       -8.2960    -2.0580    -0.3570 H     1 <1>   0.0800 
 46 H       -5.6870    -5.6470    -1.9300 H     1 <1>   0.0800 
 47 H       -6.8210    -6.8810    -1.5580 H     1 <1>   0.0800 
 48 H       -9.8920    -2.8950     1.1000 H     1 <1>   0.4000 
@<TRIPOS>BOND
  1   1   2  1   
  2   2   3  ar  
  3   2   4  ar  
  4   3   5  ar  
  5   3   6  1   
  6   4   7  ar  
  7   4  23  1   
  8   5   8  ar  
  9   5  24  1   
 10   6   9  1   
 11   6  25  1   
 12   6  26  1   
 13   7   8  ar  
 14   7  27  1   
 15   8  10  1   
 16   9  11  1   
 17   9  12  1   
 18   9  28  1   
 19  11  13  1   
 20  11  29  1   
 21  11  30  1   
 22  12  14  1   
 23  12  31  1   
 24  12  32  1   
 25  13  15  1   
 26  13  16  1   
 27  13  33  1   
 28  14  16  1   
 29  14  34  1   
 30  14  35  1   
 31  15  17  1   
 32  15  18  1   
 33  15  36  1   
 34  16  19  1   
 35  16  20  1   
 36  17  21  1   
 37  17  37  1   
 38  17  38  1   
 39  18  39  1   
 40  18  40  1   
 41  18  41  1   
 42  19  21  1   
 43  19  42  1   
 44  19  43  1   
 45  20  22  1   
 46  20  44  1   
 47  20  45  1   
 48  21  46  1   
 49  21  47  1   
 50  22  48  1   
@<TRIPOS>SUBSTRUCTURE
  1 ****   9 GROUP 4 **** **** 0

# MOE 2024.06 (io_trps.svl 2023.06)
