@<TRIPOS>MOLECULE
NONAME
57 60 1 0 0 
SMALL
USER_CHARGES


@<TRIPOS>ATOM
  1 F        0.4790    -0.6130     1.9370 F     1 <1>  -0.1900 
  2 C        1.4500     0.2380     1.6740 C.ar  1 <1>   0.1900 
  3 C        2.4520    -0.0610     0.7550 C.ar  1 <1>   0.4100 
  4 C        1.4770     1.4400     2.3210 C.ar  1 <1>   0.1600 
  5 N        3.4060     0.8200     0.5240 N.ar  1 <1>  -0.6200 
  6 N        2.5010    -1.2540     0.0420 N.pl3 1 <1>  -0.8380 
  7 N        2.4280     2.3240     2.0930 N.ar  1 <1>  -0.6200 
  8 C        3.3490     1.9670     1.1970 C.ar  1 <1>   0.7200 
  9 C        1.3790    -1.5720    -0.8910 C.3   1 <1>   0.2090 
 10 C        3.8100    -1.7830    -0.4540 C.3   1 <1>   0.2090 
 11 N        4.3500     2.8730     0.9310 N.pl3 1 <1>  -0.8380 
 12 C        1.7460    -1.1970    -2.3400 C.3   1 <1>   0.1200 
 13 C        4.0410    -1.3900    -1.9250 C.3   1 <1>   0.1200 
 14 C        4.4190     4.1850     1.6190 C.3   1 <1>   0.4330 
 15 C        5.7020     2.4200     0.5290 C.3   1 <1>   0.2090 
 16 O        2.9580    -1.7850    -2.7240 O.3   1 <1>  -0.5600 
 17 C        3.4510     5.2130     1.0270 C.ar  1 <1>  -0.1430 
 18 C        5.8700     4.6340     1.4550 C.3   1 <1>  -0.1600 
 19 C        6.6620     3.3450     1.2650 C.3   1 <1>  -0.1600 
 20 C        3.1790     5.2510    -0.3330 C.ar  1 <1>  -0.1500 
 21 C        2.8290     6.1310     1.8590 C.ar  1 <1>  -0.1500 
 22 C        2.3080     6.1910    -0.8540 C.ar  1 <1>  -0.1500 
 23 C        1.9580     7.0740     1.3430 C.ar  1 <1>  -0.1500 
 24 C        1.6970     7.1150    -0.0180 C.ar  1 <1>  -0.1430 
 25 C        0.7540     8.1550    -0.5880 C.3   1 <1>   0.4860 
 26 N        1.5630     9.2000    -1.2790 N.4   1 <1>  -0.9590 
 27 C        2.4150     9.9620    -0.3130 C.3   1 <1>   0.2630 
 28 C        0.7040    10.1120    -2.0910 C.3   1 <1>   0.2630 
 29 H        0.7100     1.6840     3.0340 H     1 <1>   0.1500 
 30 H        0.4910    -1.0370    -0.6040 H     1 <1>   0.0800 
 31 H        1.1630    -2.6240    -0.8400 H     1 <1>   0.0800 
 32 H        3.8110    -2.8550    -0.3710 H     1 <1>   0.0800 
 33 H        4.6160    -1.4070     0.1520 H     1 <1>   0.0800 
 34 H        1.8370    -0.1290    -2.4360 H     1 <1>   0.0800 
 35 H        0.9850    -1.5420    -3.0170 H     1 <1>   0.0800 
 36 H        4.9230    -1.8720    -2.3040 H     1 <1>   0.0800 
 37 H        4.1620    -0.3240    -2.0090 H     1 <1>   0.0800 
 38 H        4.2140     4.0390     2.6670 H     1 <1>   0.0800 
 39 H        5.8040     2.5360    -0.5370 H     1 <1>   0.0800 
 40 H        5.8770     1.3910     0.7960 H     1 <1>   0.0800 
 41 H        6.2050     5.2000     2.3060 H     1 <1>   0.0800 
 42 H        5.9590     5.2430     0.5740 H     1 <1>   0.0800 
 43 H        7.5720     3.4970     0.7130 H     1 <1>   0.0800 
 44 H        6.8970     2.9120     2.2210 H     1 <1>   0.0800 
 45 H        3.6450     4.5320    -0.9860 H     1 <1>   0.1500 
 46 H        3.0190     6.1060     2.9190 H     1 <1>   0.1500 
 47 H        2.1150     6.1810    -1.9120 H     1 <1>   0.1500 
 48 H        1.4870     7.7660     2.0200 H     1 <1>   0.1500 
 49 H        0.1670     8.5950     0.2020 H     1 <1>   0.0800 
 50 H        0.0860     7.6780    -1.2860 H     1 <1>   0.0800 
 51 H        2.1990     8.6830    -1.9050 H     1 <1>   0.4500 
 52 H        1.8000    10.4850     0.4010 H     1 <1>   0.0800 
 53 H        3.0240    10.6810    -0.8380 H     1 <1>   0.0800 
 54 H        3.0680     9.2890     0.2200 H     1 <1>   0.0800 
 55 H        0.0230    10.6530    -1.4540 H     1 <1>   0.0800 
 56 H        0.1320     9.5480    -2.8100 H     1 <1>   0.0800 
 57 H        1.3150    10.8240    -2.6230 H     1 <1>   0.0800 
@<TRIPOS>BOND
  1   1   2  1   
  2   2   3  ar  
  3   2   4  ar  
  4   3   5  ar  
  5   3   6  1   
  6   4   7  ar  
  7   4  29  1   
  8   5   8  ar  
  9   6   9  1   
 10   6  10  1   
 11   7   8  ar  
 12   8  11  1   
 13   9  12  1   
 14   9  30  1   
 15   9  31  1   
 16  10  13  1   
 17  10  32  1   
 18  10  33  1   
 19  11  14  1   
 20  11  15  1   
 21  12  16  1   
 22  12  34  1   
 23  12  35  1   
 24  13  16  1   
 25  13  36  1   
 26  13  37  1   
 27  14  17  1   
 28  14  18  1   
 29  14  38  1   
 30  15  19  1   
 31  15  39  1   
 32  15  40  1   
 33  17  20  ar  
 34  17  21  ar  
 35  18  19  1   
 36  18  41  1   
 37  18  42  1   
 38  19  43  1   
 39  19  44  1   
 40  20  22  ar  
 41  20  45  1   
 42  21  23  ar  
 43  21  46  1   
 44  22  24  ar  
 45  22  47  1   
 46  23  24  ar  
 47  23  48  1   
 48  24  25  1   
 49  25  26  1   
 50  25  49  1   
 51  25  50  1   
 52  26  27  1   
 53  26  28  1   
 54  26  51  1   
 55  27  52  1   
 56  27  53  1   
 57  27  54  1   
 58  28  55  1   
 59  28  56  1   
 60  28  57  1   
@<TRIPOS>SUBSTRUCTURE
  1 ****   8 GROUP 4 **** **** 0

# MOE 2024.06 (io_trps.svl 2023.06)
