@<TRIPOS>MOLECULE
NONAME
53 56 1 0 0 
SMALL
USER_CHARGES


@<TRIPOS>ATOM
  1 O       -5.0800     2.2430    -2.2060 O.2   1 <1>  -0.5700 
  2 C       -4.9660     1.2060    -1.5860 C.2   1 <1>   0.6900 
  3 N       -3.8520     0.9310    -0.8250 N.am  1 <1>  -0.4770 
  4 N       -5.9720     0.3010    -1.6300 N.am  1 <1>  -0.4900 
  5 C       -3.1070     1.9430    -0.2070 C.ar  1 <1>   0.1170 
  6 C       -3.5680    -0.4780    -0.4410 C.3   1 <1>   0.1400 
  7 C       -6.0120    -0.8580    -0.9390 C.2   1 <1>   0.5690 
  8 C       -3.4010     2.3650     1.0990 C.ar  1 <1>   0.0860 
  9 C       -2.0620     2.5390    -0.9030 C.ar  1 <1>  -0.1500 
 10 C       -4.8530    -1.2070    -0.0330 C.3   1 <1>  -0.0990 
 11 O       -6.9550    -1.6000    -1.0140 O.2   1 <1>  -0.5700 
 12 C       -4.4950     1.7820     1.8400 C.2   1 <1>   0.5440 
 13 C       -2.6090     3.3590     1.6710 C.ar  1 <1>  -0.1500 
 14 C       -1.2950     3.5290    -0.3210 C.ar  1 <1>  -0.1500 
 15 O       -4.2630     0.8770     2.6210 O.2   1 <1>  -0.5700 
 16 N       -5.7930     2.2230     1.6790 N.am  1 <1>  -0.6600 
 17 C       -1.5670     3.9380     0.9730 C.ar  1 <1>  -0.1500 
 18 C       -6.9430     1.5140     2.3130 C.3   1 <1>   0.1400 
 19 C       -6.0950     3.4770     0.9260 C.3   1 <1>   0.1400 
 20 C       -8.1180     1.3390     1.3380 C.3   1 <1>  -0.1600 
 21 C       -7.5950     3.7820     0.8970 C.3   1 <1>  -0.1600 
 22 C       -8.4000     2.5590     0.4370 C.3   1 <1>   0.4180 
 23 O       -7.9900     2.1910    -0.8600 O.3   1 <1>  -0.5600 
 24 C       -9.8930     2.8820     0.4270 C.2   1 <1>  -0.2880 
 25 C       -8.4650     2.9540    -1.9340 C.3   1 <1>   0.1200 
 26 C      -10.6320     2.9930    -0.6800 C.2   1 <1>  -0.2760 
 27 C       -9.9900     2.8230    -2.0450 C.3   1 <1>  -0.0220 
 28 C      -12.1240     3.2770    -0.6940 C.3   1 <1>  -0.1020 
 29 H       -6.8570     0.6620    -1.9780 H     1 <1>   0.3700 
 30 H       -2.8620    -0.5040     0.3720 H     1 <1>   0.0800 
 31 H       -3.1270    -0.9730    -1.2880 H     1 <1>   0.0800 
 32 H       -1.8600     2.2220    -1.9100 H     1 <1>   0.1500 
 33 H       -5.1190    -0.9390     0.9710 H     1 <1>   0.0800 
 34 H       -4.6890    -2.2690    -0.0530 H     1 <1>   0.0800 
 35 H       -2.8200     3.6740     2.6790 H     1 <1>   0.1500 
 36 H       -0.4880     3.9820    -0.8720 H     1 <1>   0.1500 
 37 H       -0.9660     4.7060     1.4310 H     1 <1>   0.1500 
 38 H       -7.2650     2.0910     3.1630 H     1 <1>   0.0800 
 39 H       -6.6400     0.5470     2.6750 H     1 <1>   0.0800 
 40 H       -5.7410     3.3760    -0.0840 H     1 <1>   0.0800 
 41 H       -5.5700     4.2990     1.3790 H     1 <1>   0.0800 
 42 H       -8.9870     1.1190     1.9290 H     1 <1>   0.0800 
 43 H       -7.9440     0.4720     0.7280 H     1 <1>   0.0800 
 44 H       -7.7850     4.6200     0.2550 H     1 <1>   0.0800 
 45 H       -7.9140     4.0690     1.8810 H     1 <1>   0.0800 
 46 H      -10.2980     3.0110     1.4150 H     1 <1>   0.1500 
 47 H       -7.9900     2.5960    -2.8310 H     1 <1>   0.0800 
 48 H       -8.1810     3.9800    -1.7860 H     1 <1>   0.0800 
 49 H      -10.2420     1.8580    -2.4480 H     1 <1>   0.0800 
 50 H      -10.3490     3.5750    -2.7240 H     1 <1>   0.0800 
 51 H      -12.6470     2.4750    -1.1830 H     1 <1>   0.0800 
 52 H      -12.3230     4.1940    -1.2180 H     1 <1>   0.0800 
 53 H      -12.5000     3.3680     0.3090 H     1 <1>   0.0800 
@<TRIPOS>BOND
  1   1   2  2   
  2   2   3  am  
  3   2   4  am  
  4   3   5  1   
  5   3   6  1   
  6   4   7  am  
  7   4  29  1   
  8   5   8  ar  
  9   5   9  ar  
 10   6  10  1   
 11   6  30  1   
 12   6  31  1   
 13   7  10  1   
 14   7  11  2   
 15   8  12  1   
 16   8  13  ar  
 17   9  14  ar  
 18   9  32  1   
 19  10  33  1   
 20  10  34  1   
 21  12  15  2   
 22  12  16  am  
 23  13  17  ar  
 24  13  35  1   
 25  14  17  ar  
 26  14  36  1   
 27  16  18  1   
 28  16  19  1   
 29  17  37  1   
 30  18  20  1   
 31  18  38  1   
 32  18  39  1   
 33  19  21  1   
 34  19  40  1   
 35  19  41  1   
 36  20  22  1   
 37  20  42  1   
 38  20  43  1   
 39  21  22  1   
 40  21  44  1   
 41  21  45  1   
 42  22  23  1   
 43  22  24  1   
 44  23  25  1   
 45  24  26  2   
 46  24  46  1   
 47  25  27  1   
 48  25  47  1   
 49  25  48  1   
 50  26  27  1   
 51  26  28  1   
 52  27  49  1   
 53  27  50  1   
 54  28  51  1   
 55  28  52  1   
 56  28  53  1   
@<TRIPOS>SUBSTRUCTURE
  1 ****  16 GROUP 4 **** **** 0

# MOE 2024.06 (io_trps.svl 2023.06)
