@<TRIPOS>MOLECULE
NONAME
26 27 1 0 0 
SMALL
USER_CHARGES


@<TRIPOS>ATOM
  1 O       -0.0440    -0.4710     0.8440 O.2   1 <1>  -0.5700 
  2 C       -0.1280    -1.5090     0.2210 C.2   1 <1>   0.6340 
  3 O       -1.3170    -1.8680    -0.2730 O.3   1 <1>  -0.4300 
  4 C        1.0050    -2.3880    -0.0150 C.ar  1 <1>   0.0860 
  5 C       -2.4730    -1.0730    -0.0880 C.3   1 <1>   0.0400 
  6 C        0.8860    -3.5790    -0.7350 C.ar  1 <1>  -0.1500 
  7 C        2.2730    -2.0720     0.4760 C.ar  1 <1>  -0.1500 
  8 C        1.9720    -4.4090    -0.9500 C.ar  1 <1>  -0.1500 
  9 C        3.3620    -2.8980     0.2640 C.ar  1 <1>  -0.1500 
 10 C        3.2200    -4.0770    -0.4490 C.ar  1 <1>  -0.0320 
 11 C        4.4160    -4.9890    -0.6840 C.3   1 <1>   0.1370 
 12 C        5.1590    -4.6600    -1.9430 C.1   1 <1>   0.4520 
 13 C        5.1890    -5.4770     0.5080 C.3   1 <1>  -0.2000 
 14 C        4.3180    -6.4250    -0.2530 C.3   1 <1>  -0.2000 
 15 N        5.7350    -4.4240    -2.8960 N.1   1 <1>  -0.5570 
 16 H       -3.3020    -1.5590    -0.5690 H     1 <1>   0.0800 
 17 H       -2.3030    -0.1050    -0.5270 H     1 <1>   0.0800 
 18 H       -2.6610    -0.9740     0.9670 H     1 <1>   0.0800 
 19 H       -0.0730    -3.8620    -1.1350 H     1 <1>   0.1500 
 20 H        2.4040    -1.1590     1.0340 H     1 <1>   0.1500 
 21 H        1.8420    -5.3180    -1.5120 H     1 <1>   0.1500 
 22 H        4.3250    -2.6180     0.6570 H     1 <1>   0.1500 
 23 H        4.8770    -5.1750     1.4920 H     1 <1>   0.1000 
 24 H        6.2580    -5.5810     0.4280 H     1 <1>   0.1000 
 25 H        4.7850    -7.1830    -0.8590 H     1 <1>   0.1000 
 26 H        3.4110    -6.7700     0.2120 H     1 <1>   0.1000 
@<TRIPOS>BOND
  1   1   2  2   
  2   2   3  1   
  3   2   4  1   
  4   3   5  1   
  5   4   6  ar  
  6   4   7  ar  
  7   5  16  1   
  8   5  17  1   
  9   5  18  1   
 10   6   8  ar  
 11   6  19  1   
 12   7   9  ar  
 13   7  20  1   
 14   8  10  ar  
 15   8  21  1   
 16   9  10  ar  
 17   9  22  1   
 18  10  11  1   
 19  11  12  1   
 20  11  13  1   
 21  11  14  1   
 22  12  15  3   
 23  13  14  1   
 24  13  23  1   
 25  13  24  1   
 26  14  25  1   
 27  14  26  1   
@<TRIPOS>SUBSTRUCTURE
  1 ****   8 GROUP 4 **** **** 0

# MOE 2024.06 (io_trps.svl 2023.06)
