@<TRIPOS>MOLECULE
NONAME
53 55 1 0 0 
SMALL
USER_CHARGES


@<TRIPOS>ATOM
  1 O       -2.4640     0.8760    -3.8200 O.2   1 <1>  -0.5700 
  2 C       -2.3710     1.1020    -2.6390 C.2   1 <1>   0.5690 
  3 N       -2.5130     0.1330    -1.7050 N.am  1 <1>  -0.7300 
  4 C       -2.0160     2.5140    -2.1570 C.3   1 <1>   0.1710 
  5 C       -2.5560    -1.3220    -1.9680 C.3   1 <1>   0.2200 
  6 N       -1.1450     2.5430    -0.9350 N.3   1 <1>  -0.8100 
  7 C       -3.4000    -2.0390    -0.9220 C.3   1 <1>  -0.0800 
  8 C       -1.1860    -1.9010    -1.6480 C.3   1 <1>   0.1200 
  9 C       -1.0170     3.9120    -0.3980 C.3   1 <1>   0.1100 
 10 C        0.1870     1.9540    -1.2050 C.3   1 <1>   0.1100 
 11 C       -2.4160    -2.2430     0.2400 C.3   1 <1>   0.1200 
 12 C       -4.7170    -1.3450    -0.5300 C.3   1 <1>  -0.0160 
 13 O       -1.1410    -1.9350    -0.2530 O.3   1 <1>  -0.5600 
 14 C       -0.1480     3.9370     0.8780 C.3   1 <1>   0.3430 
 15 C        1.0630     1.9420     0.0640 C.3   1 <1>   0.3430 
 16 C       -5.5210    -2.2120     0.4270 C.ar  1 <1>  -0.1440 
 17 N        1.2090     3.3190     0.6530 N.4   1 <1>  -0.9590 
 18 C       -5.5400    -1.9830     1.7880 C.ar  1 <1>  -0.1500 
 19 C       -6.2750    -3.2770    -0.0220 C.ar  1 <1>  -0.1500 
 20 C        2.0230     3.2690     1.8940 C.3   1 <1>   0.3430 
 21 C       -6.2860    -2.8110     2.6110 C.ar  1 <1>   0.1600 
 22 C       -6.9870    -4.0440     0.8850 C.ar  1 <1>   0.1600 
 23 C        2.4720     4.6760     2.2720 C.3   1 <1>  -0.2400 
 24 N       -7.0080    -3.8380     2.1920 N.ar  1 <1>  -0.6200 
 25 H       -2.2620     0.3790    -0.7440 H     1 <1>   0.3700 
 26 H       -2.9430     3.0170    -1.9470 H     1 <1>   0.0800 
 27 H       -1.5330     3.0370    -2.9650 H     1 <1>   0.0800 
 28 H       -2.8670    -1.5230    -2.9800 H     1 <1>   0.0800 
 29 H       -3.6400    -3.0140    -1.3110 H     1 <1>   0.0800 
 30 H       -0.3790    -1.3030    -2.0300 H     1 <1>   0.0800 
 31 H       -1.0990    -2.9100    -2.0120 H     1 <1>   0.0800 
 32 H       -0.5870     4.5620    -1.1410 H     1 <1>   0.0800 
 33 H       -1.9960     4.2900    -0.1550 H     1 <1>   0.0800 
 34 H        0.0750     0.9390    -1.5430 H     1 <1>   0.0800 
 35 H        0.6850     2.5050    -1.9850 H     1 <1>   0.0800 
 36 H       -2.4190    -3.2640     0.5850 H     1 <1>   0.0800 
 37 H       -2.6200    -1.5810     1.0630 H     1 <1>   0.0800 
 38 H       -5.3010    -1.1620    -1.4160 H     1 <1>   0.0800 
 39 H       -4.5220    -0.3920    -0.0710 H     1 <1>   0.0800 
 40 H       -0.6680     3.3950     1.6510 H     1 <1>   0.0800 
 41 H       -0.0380     4.9570     1.2060 H     1 <1>   0.0800 
 42 H        2.0320     1.5410    -0.1810 H     1 <1>   0.0800 
 43 H        0.6040     1.2830     0.7840 H     1 <1>   0.0800 
 44 H        1.7050     3.8970    -0.0350 H     1 <1>   0.4500 
 45 H       -4.9860    -1.1710     2.2190 H     1 <1>   0.1500 
 46 H       -6.3180    -3.5180    -1.0690 H     1 <1>   0.1500 
 47 H        1.4530     2.8310     2.6980 H     1 <1>   0.0800 
 48 H        2.8970     2.6590     1.7300 H     1 <1>   0.0800 
 49 H       -6.2890    -2.6190     3.6700 H     1 <1>   0.1500 
 50 H       -7.5690    -4.8710     0.5170 H     1 <1>   0.1500 
 51 H        1.6370     5.2980     2.5400 H     1 <1>   0.0800 
 52 H        3.0250     5.1320     1.4700 H     1 <1>   0.0800 
 53 H        3.1200     4.6180     3.1290 H     1 <1>   0.0800 
@<TRIPOS>BOND
  1   1   2  2   
  2   2   3  am  
  3   2   4  1   
  4   3   5  1   
  5   3  25  1   
  6   4   6  1   
  7   4  26  1   
  8   4  27  1   
  9   5   7  1   
 10   5   8  1   
 11   5  28  1   
 12   6   9  1   
 13   6  10  1   
 14   7  11  1   
 15   7  12  1   
 16   7  29  1   
 17   8  13  1   
 18   8  30  1   
 19   8  31  1   
 20   9  14  1   
 21   9  32  1   
 22   9  33  1   
 23  10  15  1   
 24  10  34  1   
 25  10  35  1   
 26  11  13  1   
 27  11  36  1   
 28  11  37  1   
 29  12  16  1   
 30  12  38  1   
 31  12  39  1   
 32  14  17  1   
 33  14  40  1   
 34  14  41  1   
 35  15  17  1   
 36  15  42  1   
 37  15  43  1   
 38  16  18  ar  
 39  16  19  ar  
 40  17  20  1   
 41  17  44  1   
 42  18  21  ar  
 43  18  45  1   
 44  19  22  ar  
 45  19  46  1   
 46  20  23  1   
 47  20  47  1   
 48  20  48  1   
 49  21  24  ar  
 50  21  49  1   
 51  22  24  ar  
 52  22  50  1   
 53  23  51  1   
 54  23  52  1   
 55  23  53  1   
@<TRIPOS>SUBSTRUCTURE
  1 ****   3 GROUP 4 **** **** 0

# MOE 2024.06 (io_trps.svl 2023.06)
