@<TRIPOS>MOLECULE
NONAME
48 50 1 0 0 
SMALL
USER_CHARGES


@<TRIPOS>ATOM
  1 O       -0.4290     0.5310     0.7590 O.2   1 <1>  -0.5700 
  2 C       -1.3940     0.9680     0.1790 C.2   1 <1>   0.5690 
  3 N       -2.4710     0.1710    -0.0900 N.am  1 <1>  -0.6600 
  4 C       -1.4170     2.4310    -0.2520 C.3   1 <1>  -0.0990 
  5 C       -3.7510     0.5730    -0.7250 C.3   1 <1>   0.1400 
  6 C       -2.5190    -1.2570     0.3100 C.3   1 <1>   0.1400 
  7 C       -0.0730     3.1660    -0.0860 C.3   1 <1>  -0.1600 
  8 C       -4.7410    -0.5040    -0.2840 C.3   1 <1>   0.2000 
  9 C       -3.8790    -1.7680    -0.1840 C.3   1 <1>  -0.0800 
 10 C       -0.1660     4.6270    -0.5440 C.3   1 <1>  -0.0160 
 11 O       -5.2130    -0.1620     0.9740 O.3   1 <1>  -0.6800 
 12 C       -4.4760    -2.8940     0.6830 C.3   1 <1>   0.0200 
 13 C        1.1670     5.3340    -0.3620 C.ar  1 <1>  -0.1440 
 14 C       -3.6650    -4.1790     0.6370 C.2   1 <1>  -0.0400 
 15 C        1.4750     5.9450     0.8440 C.ar  1 <1>  -0.1500 
 16 C        2.0880     5.3740    -1.3970 C.ar  1 <1>  -0.1500 
 17 O       -4.0080    -5.1620     1.4260 O.3   1 <1>  -0.0190 
 18 C       -2.6000    -4.5810    -0.0760 C.2   1 <1>  -0.1500 
 19 C        2.6870     6.5930     1.0120 C.ar  1 <1>  -0.1500 
 20 C        3.3010     6.0210    -1.2320 C.ar  1 <1>  -0.1500 
 21 N       -3.2310    -6.1970     1.2830 N.2   1 <1>  -0.4100 
 22 C       -2.3720    -5.8750     0.3840 C.2   1 <1>   0.1080 
 23 C        3.6010     6.6320    -0.0270 C.ar  1 <1>  -0.1500 
 24 C       -1.2670    -6.7860    -0.1010 C.3   1 <1>  -0.0590 
 25 H       -1.7070     2.4710    -1.2850 H     1 <1>   0.0800 
 26 H       -2.1660     2.9340     0.3310 H     1 <1>   0.0800 
 27 H       -4.0710     1.5530    -0.4160 H     1 <1>   0.0800 
 28 H       -3.6340     0.5470    -1.7940 H     1 <1>   0.0800 
 29 H       -1.7000    -1.7980    -0.1330 H     1 <1>   0.0800 
 30 H       -2.4440    -1.3230     1.3830 H     1 <1>   0.0800 
 31 H        0.2260     3.1370     0.9480 H     1 <1>   0.0800 
 32 H        0.6860     2.6610    -0.6590 H     1 <1>   0.0800 
 33 H       -5.5810    -0.6080    -0.9490 H     1 <1>   0.0800 
 34 H       -3.7430    -2.1450    -1.1820 H     1 <1>   0.0800 
 35 H       -0.9210     5.1410     0.0250 H     1 <1>   0.0800 
 36 H       -0.4540     4.6680    -1.5800 H     1 <1>   0.0800 
 37 H       -4.4510     0.0520     1.5510 H     1 <1>   0.4000 
 38 H       -5.4740    -3.1110     0.3460 H     1 <1>   0.0800 
 39 H       -4.5430    -2.5730     1.7080 H     1 <1>   0.0800 
 40 H        0.7720     5.9180     1.6580 H     1 <1>   0.1500 
 41 H        1.8660     4.9000    -2.3370 H     1 <1>   0.1500 
 42 H       -2.0290    -4.0720    -0.8290 H     1 <1>   0.1500 
 43 H        2.9180     7.0650     1.9500 H     1 <1>   0.1500 
 44 H        4.0100     6.0480    -2.0400 H     1 <1>   0.1500 
 45 H        4.5430     7.1350     0.1030 H     1 <1>   0.1500 
 46 H       -0.3120    -6.3260     0.0740 H     1 <1>   0.0800 
 47 H       -1.3840    -6.9750    -1.1520 H     1 <1>   0.0800 
 48 H       -1.3050    -7.7220     0.4280 H     1 <1>   0.0800 
@<TRIPOS>BOND
  1   1   2  2   
  2   2   3  am  
  3   2   4  1   
  4   3   5  1   
  5   3   6  1   
  6   4   7  1   
  7   4  25  1   
  8   4  26  1   
  9   5   8  1   
 10   5  27  1   
 11   5  28  1   
 12   6   9  1   
 13   6  29  1   
 14   6  30  1   
 15   7  10  1   
 16   7  31  1   
 17   7  32  1   
 18   8   9  1   
 19   8  11  1   
 20   8  33  1   
 21   9  12  1   
 22   9  34  1   
 23  10  13  1   
 24  10  35  1   
 25  10  36  1   
 26  11  37  1   
 27  12  14  1   
 28  12  38  1   
 29  12  39  1   
 30  13  15  ar  
 31  13  16  ar  
 32  14  17  1   
 33  14  18  2   
 34  15  19  ar  
 35  15  40  1   
 36  16  20  ar  
 37  16  41  1   
 38  17  21  1   
 39  18  22  1   
 40  18  42  1   
 41  19  23  ar  
 42  19  43  1   
 43  20  23  ar  
 44  20  44  1   
 45  21  22  2   
 46  22  24  1   
 47  23  45  1   
 48  24  46  1   
 49  24  47  1   
 50  24  48  1   
@<TRIPOS>SUBSTRUCTURE
  1 ****   2 GROUP 4 **** **** 0

# MOE 2024.06 (io_trps.svl 2023.06)
