@<TRIPOS>MOLECULE
NONAME
48 50 1 0 0 
SMALL
USER_CHARGES


@<TRIPOS>ATOM
  1 O        1.5520     0.7510     2.3830 O.co2 1 <1>  -0.9000 
  2 C        1.4290     0.1830     1.2920 C.2   1 <1>   0.9060 
  3 O        1.0200    -0.9850     1.2080 O.co2 1 <1>  -0.9000 
  4 C        1.8900     0.8700     0.0040 C.3   1 <1>  -0.1060 
  5 C        3.1590     0.0670    -0.3770 C.3   1 <1>   0.2000 
  6 C        2.2610     2.3720     0.2120 C.3   1 <1>  -0.1600 
  7 C        0.7770     0.7830    -1.0840 C.3   1 <1>  -0.0160 
  8 O        2.8070    -1.1080    -1.0220 O.3   1 <1>  -0.6800 
  9 C        4.1600     0.8780    -1.2090 C.3   1 <1>   0.1400 
 10 C        3.7140     2.5620     0.6470 C.3   1 <1>   0.1400 
 11 C       -0.3900     1.7470    -0.8790 C.ar  1 <1>  -0.1440 
 12 N        4.6290     2.0880    -0.4460 N.am  1 <1>  -0.6600 
 13 C       -1.2890     1.5490     0.1570 C.ar  1 <1>  -0.1500 
 14 C       -0.5670     2.8290    -1.7300 C.ar  1 <1>  -0.1500 
 15 C        5.8390     2.6590    -0.7570 C.2   1 <1>   0.5690 
 16 C       -2.3460     2.4220     0.3460 C.ar  1 <1>  -0.1500 
 17 C       -1.6260     3.7020    -1.5450 C.ar  1 <1>  -0.1500 
 18 O        6.4870     2.2660    -1.7020 O.2   1 <1>  -0.5700 
 19 C        6.4080     3.8140     0.0850 C.3   1 <1>  -0.0190 
 20 C       -2.5160     3.5000    -0.5050 C.ar  1 <1>  -0.1500 
 21 C        7.6700     4.4840    -0.4710 C.3   1 <1>  -0.1600 
 22 C        6.8400     3.3970     1.4960 C.3   1 <1>  -0.1600 
 23 C        8.2570     5.2470     0.7150 C.3   1 <1>  -0.1600 
 24 C        7.8360     4.4640     1.9640 C.3   1 <1>  -0.1600 
 25 H        3.6730    -0.2320     0.5230 H     1 <1>   0.0800 
 26 H        1.6050     2.8100     0.9440 H     1 <1>   0.0800 
 27 H        2.1260     2.9240    -0.7000 H     1 <1>   0.0800 
 28 H        1.2190     0.9720    -2.0450 H     1 <1>   0.0800 
 29 H        0.3770    -0.2160    -1.1240 H     1 <1>   0.0800 
 30 H        2.1340    -1.5400    -0.4340 H     1 <1>   0.4000 
 31 H        3.6950     1.1990    -2.1230 H     1 <1>   0.0800 
 32 H        5.0040     0.2540    -1.4470 H     1 <1>   0.0800 
 33 H        3.8970     1.9970     1.5460 H     1 <1>   0.0800 
 34 H        3.8740     3.6020     0.8600 H     1 <1>   0.0800 
 35 H       -1.1630     0.7130     0.8260 H     1 <1>   0.1500 
 36 H        0.1210     2.9940    -2.5390 H     1 <1>   0.1500 
 37 H       -3.0300     2.2570     1.1590 H     1 <1>   0.1500 
 38 H       -1.7540     4.5380    -2.2080 H     1 <1>   0.1500 
 39 H        5.6590     4.5800     0.1610 H     1 <1>   0.0800 
 40 H       -3.3370     4.1770    -0.3570 H     1 <1>   0.1500 
 41 H        8.3730     3.7300    -0.7860 H     1 <1>   0.0800 
 42 H        7.4500     5.1270    -1.3050 H     1 <1>   0.0800 
 43 H        6.0050     3.3110     2.1680 H     1 <1>   0.0800 
 44 H        7.3400     2.4440     1.4410 H     1 <1>   0.0800 
 45 H        9.3270     5.3300     0.6360 H     1 <1>   0.0800 
 46 H        7.8310     6.2350     0.7510 H     1 <1>   0.0800 
 47 H        7.3720     5.1270     2.6730 H     1 <1>   0.0800 
 48 H        8.6880     3.9990     2.4300 H     1 <1>   0.0800 
@<TRIPOS>BOND
  1   1   2  ar  
  2   2   3  ar  
  3   2   4  1   
  4   4   5  1   
  5   4   6  1   
  6   4   7  1   
  7   5   8  1   
  8   5   9  1   
  9   5  25  1   
 10   6  10  1   
 11   6  26  1   
 12   6  27  1   
 13   7  11  1   
 14   7  28  1   
 15   7  29  1   
 16   8  30  1   
 17   9  12  1   
 18   9  31  1   
 19   9  32  1   
 20  10  12  1   
 21  10  33  1   
 22  10  34  1   
 23  11  13  ar  
 24  11  14  ar  
 25  12  15  am  
 26  13  16  ar  
 27  13  35  1   
 28  14  17  ar  
 29  14  36  1   
 30  15  18  2   
 31  15  19  1   
 32  16  20  ar  
 33  16  37  1   
 34  17  20  ar  
 35  17  38  1   
 36  19  21  1   
 37  19  22  1   
 38  19  39  1   
 39  20  40  1   
 40  21  23  1   
 41  21  41  1   
 42  21  42  1   
 43  22  24  1   
 44  22  43  1   
 45  22  44  1   
 46  23  24  1   
 47  23  45  1   
 48  23  46  1   
 49  24  47  1   
 50  24  48  1   
@<TRIPOS>SUBSTRUCTURE
  1 ****   6 GROUP 4 **** **** 0

# MOE 2024.06 (io_trps.svl 2023.06)
