@<TRIPOS>MOLECULE
NONAME
51 53 1 0 0 
SMALL
USER_CHARGES


@<TRIPOS>ATOM
  1 O        0.9360     1.4660    -0.7220 O.2   1 <1>  -0.5700 
  2 C        0.6510     2.6360    -0.7180 C.2   1 <1>   0.5690 
  3 N       -0.2430     3.1250     0.1710 N.am  1 <1>  -0.7300 
  4 C        1.2920     3.5960    -1.7210 C.3   1 <1>   0.1810 
  5 C       -0.6410     4.5560     0.2400 C.3   1 <1>   0.3640 
  6 O        1.3100     4.9140    -1.2290 O.3   1 <1>  -0.5600 
  7 C       -2.1600     4.6560     0.1680 C.ar  1 <1>  -0.1440 
  8 C        0.0390     5.4210    -0.8550 C.3   1 <1>   0.2610 
  9 C       -2.9040     3.8400    -0.6760 C.ar  1 <1>   0.1600 
 10 C       -2.8310     5.5840     0.9430 C.ar  1 <1>  -0.1500 
 11 C        0.0890     6.8840    -0.3870 C.2   1 <1>   0.5690 
 12 N       -4.2210     3.8690    -0.7970 N.ar  1 <1>  -0.6200 
 13 C       -4.2030     5.6300     0.8270 C.ar  1 <1>  -0.1500 
 14 O       -0.8660     7.5510    -0.7160 O.2   1 <1>  -0.5700 
 15 N        1.0960     7.4060     0.4060 N.am  1 <1>  -0.6600 
 16 C       -4.8390     4.7630    -0.0440 C.ar  1 <1>   0.1600 
 17 C        1.2050     8.8580     0.7420 C.3   1 <1>   0.2200 
 18 C        2.1980     6.5790     1.0200 C.3   1 <1>   0.2840 
 19 C        0.1240     9.2460     1.7500 C.3   1 <1>  -0.2400 
 20 C        1.1720     9.7450    -0.5060 C.3   1 <1>  -0.2400 
 21 C        3.5350     6.5560     0.2550 C.ar  1 <1>   0.1670 
 22 N        3.9060     7.6880    -0.3370 N.ar  1 <1>  -0.6200 
 23 C        4.3140     5.3940     0.2370 C.ar  1 <1>  -0.1430 
 24 C        5.0460     7.6640    -1.0020 C.ar  1 <1>   0.1600 
 25 C        5.5050     5.3960    -0.4640 C.ar  1 <1>  -0.1500 
 26 C        3.9270     4.1160     0.9730 C.3   1 <1>  -0.0970 
 27 C        5.8700     6.5600    -1.0990 C.ar  1 <1>  -0.1500 
 28 H       -0.6920     2.4740     0.8190 H     1 <1>   0.3700 
 29 H        0.7470     3.5800    -2.6480 H     1 <1>   0.0800 
 30 H        2.3080     3.3000    -1.9070 H     1 <1>   0.0800 
 31 H       -0.3300     4.9280     1.2010 H     1 <1>   0.0800 
 32 H       -0.5730     5.3960    -1.7400 H     1 <1>   0.0800 
 33 H       -2.3940     3.1170    -1.2900 H     1 <1>   0.1500 
 34 H       -2.3140     6.2580     1.6060 H     1 <1>   0.1500 
 35 H       -4.7770     6.3340     1.4010 H     1 <1>   0.1500 
 36 H       -5.9120     4.8090    -0.1280 H     1 <1>   0.1500 
 37 H        2.1610     9.0290     1.2080 H     1 <1>   0.0800 
 38 H        2.3980     6.9600     2.0060 H     1 <1>   0.0800 
 39 H        1.8430     5.5780     1.1520 H     1 <1>   0.0800 
 40 H       -0.8540     9.1520     1.3150 H     1 <1>   0.0800 
 41 H        0.2610    10.2690     2.0510 H     1 <1>   0.0800 
 42 H        0.1890     8.6230     2.6230 H     1 <1>   0.0800 
 43 H        0.1930     9.7750    -0.9460 H     1 <1>   0.0800 
 44 H        1.8780     9.3840    -1.2310 H     1 <1>   0.0800 
 45 H        1.4450    10.7500    -0.2400 H     1 <1>   0.0800 
 46 H        5.3400     8.5740    -1.4950 H     1 <1>   0.1500 
 47 H        6.1350     4.5250    -0.5170 H     1 <1>   0.1500 
 48 H        4.7110     3.3820     0.9100 H     1 <1>   0.0800 
 49 H        3.0400     3.6880     0.5460 H     1 <1>   0.0800 
 50 H        3.7530     4.3230     2.0130 H     1 <1>   0.0800 
 51 H        6.7840     6.6160    -1.6610 H     1 <1>   0.1500 
@<TRIPOS>BOND
  1   1   2  2   
  2   2   3  am  
  3   2   4  1   
  4   3   5  1   
  5   3  28  1   
  6   4   6  1   
  7   4  29  1   
  8   4  30  1   
  9   5   7  1   
 10   5   8  1   
 11   5  31  1   
 12   6   8  1   
 13   7   9  ar  
 14   7  10  ar  
 15   8  11  1   
 16   8  32  1   
 17   9  12  ar  
 18   9  33  1   
 19  10  13  ar  
 20  10  34  1   
 21  11  14  2   
 22  11  15  am  
 23  12  16  ar  
 24  13  16  ar  
 25  13  35  1   
 26  15  17  1   
 27  15  18  1   
 28  16  36  1   
 29  17  19  1   
 30  17  20  1   
 31  17  37  1   
 32  18  21  1   
 33  18  38  1   
 34  18  39  1   
 35  19  40  1   
 36  19  41  1   
 37  19  42  1   
 38  20  43  1   
 39  20  44  1   
 40  20  45  1   
 41  21  22  ar  
 42  21  23  ar  
 43  22  24  ar  
 44  23  25  ar  
 45  23  26  1   
 46  24  27  ar  
 47  24  46  1   
 48  25  27  ar  
 49  25  47  1   
 50  26  48  1   
 51  26  49  1   
 52  26  50  1   
 53  27  51  1   
@<TRIPOS>SUBSTRUCTURE
  1 ****   8 GROUP 4 **** **** 0

# MOE 2024.06 (io_trps.svl 2023.06)
