@<TRIPOS>MOLECULE
NONAME
49 52 1 0 0 
SMALL
USER_CHARGES


@<TRIPOS>ATOM
  1 S       -1.4400     1.4980     1.6120 S.3   1 <1>  -0.0800 
  2 C       -0.5000     2.8610     1.0450 C.2   1 <1>  -0.1400 
  3 C        0.0210     0.5390     1.7880 C.2   1 <1>  -0.1100 
  4 C        0.8080     2.5790     0.9890 C.2   1 <1>  -0.1810 
  5 C       -1.1300     4.1780     0.6850 C.3   1 <1>   0.0200 
  6 C        1.1100     1.2440     1.4250 C.2   1 <1>  -0.1500 
  7 C        1.8110     3.6230     0.5020 C.3   1 <1>   0.4610 
  8 C       -0.0090     5.2290     0.6850 C.3   1 <1>   0.1200 
  9 O        1.1310     4.7630    -0.0060 O.3   1 <1>  -0.5600 
 10 C        2.7560     4.0760     1.6210 C.3   1 <1>  -0.1600 
 11 C        2.6440     3.0800    -0.6700 C.3   1 <1>  -0.1600 
 12 C        3.7490     5.1490     1.1580 C.3   1 <1>   0.3430 
 13 C        3.8800     3.9270    -1.0010 C.3   1 <1>   0.3430 
 14 N        3.7810     5.2470    -0.3330 N.4   1 <1>  -0.9590 
 15 C        4.7180     6.2710    -0.8370 C.3   1 <1>   0.5230 
 16 C        4.2590     7.5960    -0.2820 C.2   1 <1>  -0.3320 
 17 N        5.0470     8.5180     0.3280 N.pl3 1 <1>   0.0480 
 18 C        3.0040     8.1020    -0.2820 C.2   1 <1>   0.0770 
 19 C        4.1910     9.5090     0.6670 C.2   1 <1>   0.0360 
 20 C        6.5090     8.5520     0.6120 C.3   1 <1>   0.1760 
 21 N        2.9640     9.2940     0.3260 N.2   1 <1>  -0.5650 
 22 C        7.3310     8.4480    -0.6780 C.3   1 <1>  -0.2400 
 23 C        6.9000     7.4660     1.6220 C.3   1 <1>  -0.2400 
 24 H       -0.0950    -0.4670     2.1520 H     1 <1>   0.1500 
 25 H       -1.8820     4.4450     1.4060 H     1 <1>   0.0800 
 26 H       -1.5890     4.1160    -0.2860 H     1 <1>   0.0800 
 27 H        2.1160     0.8660     1.4510 H     1 <1>   0.1500 
 28 H        0.2750     5.4680     1.6950 H     1 <1>   0.0800 
 29 H       -0.3480     6.1300     0.2030 H     1 <1>   0.0800 
 30 H        3.3110     3.2250     1.9710 H     1 <1>   0.0800 
 31 H        2.1930     4.4360     2.4620 H     1 <1>   0.0800 
 32 H        2.0110     2.9980    -1.5370 H     1 <1>   0.0800 
 33 H        2.9830     2.0860    -0.4460 H     1 <1>   0.0800 
 34 H        4.7310     4.9230     1.5400 H     1 <1>   0.0800 
 35 H        3.4450     6.1010     1.5660 H     1 <1>   0.0800 
 36 H        3.9470     4.0520    -2.0700 H     1 <1>   0.0800 
 37 H        4.7680     3.4180    -0.6620 H     1 <1>   0.0800 
 38 H        2.8290     5.5860    -0.5690 H     1 <1>   0.4500 
 39 H        4.6950     6.3050    -1.9150 H     1 <1>   0.0800 
 40 H        5.7200     6.0450    -0.5170 H     1 <1>   0.0800 
 41 H        2.1010     7.6740    -0.6880 H     1 <1>   0.1500 
 42 H        4.5190    10.3990     1.1780 H     1 <1>   0.1500 
 43 H        6.7240     9.5090     1.0590 H     1 <1>   0.0800 
 44 H        7.2340     7.4840    -1.1400 H     1 <1>   0.0800 
 45 H        8.3720     8.6050    -0.4560 H     1 <1>   0.0800 
 46 H        7.0250     9.2100    -1.3740 H     1 <1>   0.0800 
 47 H        6.7760     6.4800     1.2170 H     1 <1>   0.0800 
 48 H        6.3100     7.5630     2.5170 H     1 <1>   0.0800 
 49 H        7.9340     7.5850     1.8950 H     1 <1>   0.0800 
@<TRIPOS>BOND
  1   1   2  1   
  2   1   3  1   
  3   2   4  2   
  4   2   5  1   
  5   3   6  2   
  6   3  24  1   
  7   4   6  1   
  8   4   7  1   
  9   5   8  1   
 10   5  25  1   
 11   5  26  1   
 12   6  27  1   
 13   7   9  1   
 14   7  10  1   
 15   7  11  1   
 16   8   9  1   
 17   8  28  1   
 18   8  29  1   
 19  10  12  1   
 20  10  30  1   
 21  10  31  1   
 22  11  13  1   
 23  11  32  1   
 24  11  33  1   
 25  12  14  1   
 26  12  34  1   
 27  12  35  1   
 28  13  14  1   
 29  13  36  1   
 30  13  37  1   
 31  14  15  1   
 32  14  38  1   
 33  15  16  1   
 34  15  39  1   
 35  15  40  1   
 36  16  17  1   
 37  16  18  2   
 38  17  19  1   
 39  17  20  1   
 40  18  21  1   
 41  18  41  1   
 42  19  21  2   
 43  19  42  1   
 44  20  22  1   
 45  20  23  1   
 46  20  43  1   
 47  22  44  1   
 48  22  45  1   
 49  22  46  1   
 50  23  47  1   
 51  23  48  1   
 52  23  49  1   
@<TRIPOS>SUBSTRUCTURE
  1 ****  12 GROUP 4 **** **** 0

# MOE 2024.06 (io_trps.svl 2023.06)
