@<TRIPOS>MOLECULE
NONAME
51 53 1 0 0 
SMALL
USER_CHARGES


@<TRIPOS>ATOM
  1 O       -3.7710     1.4090    -2.6480 O.2   1 <1>  -0.5700 
  2 C       -3.2200     1.1220    -1.6010 C.2   1 <1>   0.5440 
  3 N       -3.4800    -0.1090    -1.0330 N.am  1 <1>  -0.6600 
  4 C       -2.3270     2.0850    -0.9890 C.ar  1 <1>   0.0860 
  5 C       -2.7240    -0.6070     0.1730 C.3   1 <1>   0.3640 
  6 C       -4.6050    -0.9380    -1.5660 C.3   1 <1>   0.1400 
  7 C       -2.6570     2.7280     0.2050 C.ar  1 <1>  -0.1500 
  8 C       -1.1000     2.3960    -1.5710 C.ar  1 <1>  -0.1500 
  9 C       -1.2280    -0.6540    -0.1570 C.ar  1 <1>  -0.1430 
 10 C       -3.1550    -2.0010     0.7310 C.3   1 <1>   0.2000 
 11 C       -4.5370    -2.3960    -1.1150 C.3   1 <1>   0.1200 
 12 C       -1.7920     3.6230     0.8070 C.ar  1 <1>  -0.1500 
 13 C       -0.2290     3.2890    -0.9750 C.ar  1 <1>  -0.1500 
 14 C       -0.3090    -0.0450     0.6870 C.ar  1 <1>  -0.1500 
 15 C       -0.7680    -1.2940    -1.3000 C.ar  1 <1>  -0.1500 
 16 O       -4.4040    -2.4380     0.2680 O.3   1 <1>  -0.5600 
 17 C       -3.2360    -2.0200     2.2650 C.3   1 <1>   0.1200 
 18 C       -0.5610     3.9070     0.2200 C.ar  1 <1>   0.0830 
 19 C        1.0430    -0.0760     0.3960 C.ar  1 <1>  -0.1500 
 20 C        0.5850    -1.3290    -1.5920 C.ar  1 <1>  -0.1500 
 21 O       -2.0520    -1.5750     2.8460 O.3   1 <1>  -0.6800 
 22 O        0.3550     4.7590     0.7370 O.3   1 <1>  -0.3630 
 23 C        1.4910    -0.7200    -0.7430 C.ar  1 <1>  -0.1500 
 24 C        0.2140     5.4000     1.9850 C.3   1 <1>   0.2000 
 25 C        1.1680     6.5920     1.9860 C.3   1 <1>  -0.2400 
 26 C        0.5710     4.4080     3.0950 C.3   1 <1>  -0.2400 
 27 H       -2.8720     0.1110     0.9590 H     1 <1>   0.0800 
 28 H       -5.5350    -0.5110    -1.2350 H     1 <1>   0.0800 
 29 H       -4.5970    -0.9070    -2.6430 H     1 <1>   0.0800 
 30 H       -3.6090     2.5170     0.6600 H     1 <1>   0.1500 
 31 H       -0.8300     1.9170    -2.4960 H     1 <1>   0.1500 
 32 H       -2.4400    -2.7430     0.4240 H     1 <1>   0.0800 
 33 H       -3.7080    -2.9090    -1.5720 H     1 <1>   0.0800 
 34 H       -5.4480    -2.9050    -1.3760 H     1 <1>   0.0800 
 35 H       -2.0900     4.0870     1.7270 H     1 <1>   0.1500 
 36 H        0.7180     3.5110    -1.4320 H     1 <1>   0.1500 
 37 H       -0.6420     0.4650     1.5750 H     1 <1>   0.1500 
 38 H       -1.4640    -1.7610    -1.9750 H     1 <1>   0.1500 
 39 H       -3.4270    -3.0180     2.6170 H     1 <1>   0.0800 
 40 H       -4.0250    -1.3680     2.5990 H     1 <1>   0.0800 
 41 H        1.7440     0.4050     1.0550 H     1 <1>   0.1500 
 42 H        0.9310    -1.8270    -2.4810 H     1 <1>   0.1500 
 43 H       -1.3040    -2.1640     2.6170 H     1 <1>   0.4000 
 44 H        2.5430    -0.7440    -0.9700 H     1 <1>   0.1500 
 45 H       -0.7960     5.7580     2.0820 H     1 <1>   0.0800 
 46 H        2.1830     6.2600     1.8540 H     1 <1>   0.0800 
 47 H        1.0970     7.1220     2.9180 H     1 <1>   0.0800 
 48 H        0.9090     7.2670     1.1900 H     1 <1>   0.0800 
 49 H        1.5790     4.0550     2.9660 H     1 <1>   0.0800 
 50 H       -0.0990     3.5690     3.0850 H     1 <1>   0.0800 
 51 H        0.4970     4.8880     4.0530 H     1 <1>   0.0800 
@<TRIPOS>BOND
  1   1   2  2   
  2   2   3  am  
  3   2   4  1   
  4   3   5  1   
  5   3   6  1   
  6   4   7  ar  
  7   4   8  ar  
  8   5   9  1   
  9   5  10  1   
 10   5  27  1   
 11   6  11  1   
 12   6  28  1   
 13   6  29  1   
 14   7  12  ar  
 15   7  30  1   
 16   8  13  ar  
 17   8  31  1   
 18   9  14  ar  
 19   9  15  ar  
 20  10  16  1   
 21  10  17  1   
 22  10  32  1   
 23  11  16  1   
 24  11  33  1   
 25  11  34  1   
 26  12  18  ar  
 27  12  35  1   
 28  13  18  ar  
 29  13  36  1   
 30  14  19  ar  
 31  14  37  1   
 32  15  20  ar  
 33  15  38  1   
 34  17  21  1   
 35  17  39  1   
 36  17  40  1   
 37  18  22  1   
 38  19  23  ar  
 39  19  41  1   
 40  20  23  ar  
 41  20  42  1   
 42  21  43  1   
 43  22  24  1   
 44  23  44  1   
 45  24  25  1   
 46  24  26  1   
 47  24  45  1   
 48  25  46  1   
 49  25  47  1   
 50  25  48  1   
 51  26  49  1   
 52  26  50  1   
 53  26  51  1   
@<TRIPOS>SUBSTRUCTURE
  1 ****   9 GROUP 4 **** **** 0

# MOE 2024.06 (io_trps.svl 2023.06)
