@<TRIPOS>MOLECULE
NONAME
39 40 1 0 0 
SMALL
USER_CHARGES


@<TRIPOS>ATOM
  1 CL       0.2750     0.6780     2.0860 Cl    1 <1>  -0.1230 
  2 C       -0.7070     1.7610     1.1180 C.2   1 <1>   0.1230 
  3 C       -1.6760     1.4100     0.2410 C.2   1 <1>  -0.3020 
  4 C       -0.6060     3.1430     1.1370 C.2   1 <1>  -0.1500 
  5 N       -2.1950     2.5420    -0.2990 N.pl3 1 <1>   0.0480 
  6 C       -1.5370     3.6290     0.2460 C.2   1 <1>  -0.2370 
  7 C       -3.2760     2.5540    -1.3070 C.3   1 <1>   0.0160 
  8 C       -1.8070     5.0060    -0.0860 C.2   1 <1>   0.7150 
  9 O       -2.8210     5.3300    -0.6750 O.2   1 <1>  -0.5700 
 10 N       -0.8830     5.9450     0.2650 N.am  1 <1>  -0.4930 
 11 C       -0.8790     7.3480     0.0630 C.2   1 <1>   0.0630 
 12 C       -1.9040     8.2810     0.2520 C.2   1 <1>   0.1080 
 13 C        0.1820     8.0800    -0.3420 C.2   1 <1>  -0.3320 
 14 N       -1.5190     9.4900    -0.0130 N.2   1 <1>  -0.7070 
 15 C       -3.3110     7.9880     0.7230 C.3   1 <1>  -0.0590 
 16 N       -0.2330     9.3720    -0.3830 N.pl3 1 <1>   0.3140 
 17 C        1.5870     7.6200    -0.7090 C.3   1 <1>  -0.0600 
 18 C        0.5510    10.5620    -0.7750 C.3   1 <1>   0.0960 
 19 C        1.2960    11.1530     0.4320 C.3   1 <1>  -0.1600 
 20 C        2.1210    12.3810     0.0340 C.3   1 <1>  -0.2400 
 21 H       -2.0110     0.4220    -0.0150 H     1 <1>   0.1500 
 22 H        0.0840     3.6850     1.7590 H     1 <1>   0.1500 
 23 H       -3.5240     1.5470    -1.5890 H     1 <1>   0.0800 
 24 H       -2.9490     3.0990    -2.1740 H     1 <1>   0.0800 
 25 H       -4.1430     3.0340    -0.8920 H     1 <1>   0.0800 
 26 H       -0.0060     5.5670     0.6080 H     1 <1>   0.3700 
 27 H       -3.3120     7.1570     1.4030 H     1 <1>   0.0800 
 28 H       -3.9290     7.7540    -0.1240 H     1 <1>   0.0800 
 29 H       -3.7140     8.8500     1.2230 H     1 <1>   0.0800 
 30 H        1.6720     6.5520    -0.6260 H     1 <1>   0.0800 
 31 H        2.3100     8.0720    -0.0530 H     1 <1>   0.0800 
 32 H        1.8120     7.8970    -1.7230 H     1 <1>   0.0800 
 33 H       -0.1300    11.2900    -1.1760 H     1 <1>   0.0800 
 34 H        1.2430    10.2830    -1.5460 H     1 <1>   0.0800 
 35 H        1.9480    10.4090     0.8540 H     1 <1>   0.0800 
 36 H        0.5750    11.4370     1.1810 H     1 <1>   0.0800 
 37 H        2.8600    12.1200    -0.7040 H     1 <1>   0.0800 
 38 H        2.6260    12.7790     0.8960 H     1 <1>   0.0800 
 39 H        1.4830    13.1480    -0.3700 H     1 <1>   0.0800 
@<TRIPOS>BOND
  1   1   2  1   
  2   2   3  2   
  3   2   4  1   
  4   3   5  1   
  5   3  21  1   
  6   4   6  2   
  7   4  22  1   
  8   5   6  1   
  9   5   7  1   
 10   6   8  1   
 11   7  23  1   
 12   7  24  1   
 13   7  25  1   
 14   8   9  2   
 15   8  10  am  
 16  10  11  1   
 17  10  26  1   
 18  11  12  1   
 19  11  13  2   
 20  12  14  2   
 21  12  15  1   
 22  13  16  1   
 23  13  17  1   
 24  14  16  1   
 25  15  27  1   
 26  15  28  1   
 27  15  29  1   
 28  16  18  1   
 29  17  30  1   
 30  17  31  1   
 31  17  32  1   
 32  18  19  1   
 33  18  33  1   
 34  18  34  1   
 35  19  20  1   
 36  19  35  1   
 37  19  36  1   
 38  20  37  1   
 39  20  38  1   
 40  20  39  1   
@<TRIPOS>SUBSTRUCTURE
  1 ****  10 GROUP 4 **** **** 0

# MOE 2024.06 (io_trps.svl 2023.06)
