@<TRIPOS>MOLECULE
NONAME
45 47 1 0 0 
SMALL
USER_CHARGES


@<TRIPOS>ATOM
  1 O        1.2320     1.5170    -1.3560 O.3   1 <1>  -0.0190 
  2 N        2.0870     0.5390    -1.3270 N.2   1 <1>  -0.4100 
  3 C        0.8430     1.8580    -0.1570 C.2   1 <1>  -0.0400 
  4 C        2.2350     0.2280    -0.0890 C.2   1 <1>   0.1080 
  5 C        1.4570     1.0520     0.7210 C.2   1 <1>  -0.1500 
  6 C       -0.1240     3.0120     0.0230 C.3   1 <1>   0.0200 
  7 C        3.1340    -0.8830     0.4070 C.3   1 <1>  -0.0590 
  8 C        0.3270     4.2230    -0.8160 C.3   1 <1>  -0.0800 
  9 C       -0.4290     5.5280    -0.5780 C.3   1 <1>   0.2000 
 10 C        1.7980     4.5890    -0.5930 C.3   1 <1>   0.3430 
 11 O       -0.5370     5.7560     0.8000 O.3   1 <1>  -0.5600 
 12 C        0.5460     6.5600    -1.1460 C.3   1 <1>   0.3430 
 13 N        1.9140     6.0710    -0.7720 N.4   1 <1>  -0.9590 
 14 C       -1.8410     5.7400     1.3020 C.3   1 <1>   0.0400 
 15 C        2.3780     6.7080     0.4930 C.3   1 <1>   0.4860 
 16 C        2.5920     8.1930     0.2550 C.ar  1 <1>  -0.1440 
 17 C        3.6880     8.6460    -0.4640 C.ar  1 <1>  -0.1500 
 18 C        1.6910     9.1160     0.7660 C.ar  1 <1>  -0.1500 
 19 C        3.8710    10.0020    -0.6760 C.ar  1 <1>  -0.1500 
 20 C        1.8800    10.4700     0.5510 C.ar  1 <1>  -0.1500 
 21 C        2.9710    10.9350    -0.1730 C.ar  1 <1>   0.0730 
 22 C        3.1660    12.3410    -0.3940 C.1   1 <1>   0.4840 
 23 N        3.3200    13.4560    -0.5740 N.1   1 <1>  -0.5570 
 24 H        1.3960     1.0140     1.7930 H     1 <1>   0.1500 
 25 H       -1.1060     2.7010    -0.2900 H     1 <1>   0.0800 
 26 H       -0.1680     3.2590     1.0690 H     1 <1>   0.0800 
 27 H        3.8420    -0.4960     1.1160 H     1 <1>   0.0800 
 28 H        3.6690    -1.3180    -0.4180 H     1 <1>   0.0800 
 29 H        2.5420    -1.6470     0.8770 H     1 <1>   0.0800 
 30 H        0.2200     3.9630    -1.8550 H     1 <1>   0.0800 
 31 H       -1.3960     5.5660    -1.0540 H     1 <1>   0.0800 
 32 H        2.4260     4.0570    -1.2910 H     1 <1>   0.0800 
 33 H        2.0850     4.3130     0.4090 H     1 <1>   0.0800 
 34 H        0.3380     7.5450    -0.7640 H     1 <1>   0.0800 
 35 H        0.4520     6.5730    -2.2190 H     1 <1>   0.0800 
 36 H        2.5840     6.3090    -1.5130 H     1 <1>   0.4500 
 37 H       -1.7960     5.8870     2.3670 H     1 <1>   0.0800 
 38 H       -2.2980     4.7880     1.0910 H     1 <1>   0.0800 
 39 H       -2.4090     6.5370     0.8530 H     1 <1>   0.0800 
 40 H        1.6460     6.5620     1.2710 H     1 <1>   0.0800 
 41 H        3.3060     6.2630     0.8120 H     1 <1>   0.0800 
 42 H        4.4130     7.9560    -0.8620 H     1 <1>   0.1500 
 43 H        0.8360     8.7910     1.3390 H     1 <1>   0.1500 
 44 H        4.7270    10.3430    -1.2350 H     1 <1>   0.1500 
 45 H        1.1730    11.1770     0.9550 H     1 <1>   0.1500 
@<TRIPOS>BOND
  1   1   2  1   
  2   1   3  1   
  3   2   4  2   
  4   3   5  2   
  5   3   6  1   
  6   4   5  1   
  7   4   7  1   
  8   5  24  1   
  9   6   8  1   
 10   6  25  1   
 11   6  26  1   
 12   7  27  1   
 13   7  28  1   
 14   7  29  1   
 15   8   9  1   
 16   8  10  1   
 17   8  30  1   
 18   9  11  1   
 19   9  12  1   
 20   9  31  1   
 21  10  13  1   
 22  10  32  1   
 23  10  33  1   
 24  11  14  1   
 25  12  13  1   
 26  12  34  1   
 27  12  35  1   
 28  13  15  1   
 29  13  36  1   
 30  14  37  1   
 31  14  38  1   
 32  14  39  1   
 33  15  16  1   
 34  15  40  1   
 35  15  41  1   
 36  16  17  ar  
 37  16  18  ar  
 38  17  19  ar  
 39  17  42  1   
 40  18  20  ar  
 41  18  43  1   
 42  19  21  ar  
 43  19  44  1   
 44  20  21  ar  
 45  20  45  1   
 46  21  22  1   
 47  22  23  3   
@<TRIPOS>SUBSTRUCTURE
  1 ****  13 GROUP 4 **** **** 0

# MOE 2024.06 (io_trps.svl 2023.06)
