@<TRIPOS>MOLECULE
NONAME
50 52 1 0 0 
SMALL
USER_CHARGES


@<TRIPOS>ATOM
  1 S       -0.4180    -0.1260    -0.1940 S.o2  1 <1>   1.2040 
  2 O       -0.7850    -1.5100     0.0070 O.2   1 <1>  -0.6500 
  3 O        0.4460     0.2410    -1.2950 O.2   1 <1>  -0.6500 
  4 C       -1.8950     0.9170    -0.1920 C.ar  1 <1>  -0.0090 
  5 C        0.3970     0.4100     1.2970 C.3   1 <1>  -0.1350 
  6 C       -1.8950     2.1630    -0.8060 C.ar  1 <1>  -0.1500 
  7 C       -3.0570     0.5150     0.4550 C.ar  1 <1>  -0.1500 
  8 C       -3.0090     2.9840    -0.7700 C.ar  1 <1>  -0.1500 
  9 C       -4.1750     1.3300     0.4950 C.ar  1 <1>  -0.1500 
 10 C       -4.1570     2.5740    -0.1130 C.ar  1 <1>  -0.1430 
 11 C       -5.3890     3.4770    -0.0560 C.3   1 <1>   0.0440 
 12 C       -6.5320     3.0900    -0.9930 C.2   1 <1>   0.5690 
 13 O       -6.3990     2.1240    -1.7080 O.2   1 <1>  -0.5700 
 14 N       -7.6910     3.8310    -1.0060 N.am  1 <1>  -0.6600 
 15 C       -8.8260     3.4750    -1.9060 C.3   1 <1>   0.1400 
 16 C       -7.9800     5.0210    -0.1560 C.3   1 <1>   0.1400 
 17 C      -10.0650     3.1710    -1.0610 C.3   1 <1>  -0.1600 
 18 C       -9.1980     4.7220     0.7200 C.3   1 <1>  -0.1600 
 19 C      -10.4180     4.3340    -0.1290 C.3   1 <1>   0.4180 
 20 O      -10.7650     5.4140    -0.9620 O.3   1 <1>  -0.5600 
 21 C      -11.5980     3.9420     0.7560 C.2   1 <1>  -0.2880 
 22 C      -11.5360     6.4420    -0.4050 C.3   1 <1>   0.1200 
 23 C      -12.7370     4.6330     0.8370 C.2   1 <1>  -0.2760 
 24 C      -12.9060     5.9120     0.0390 C.3   1 <1>  -0.0220 
 25 C      -13.9310     4.2290     1.6830 C.3   1 <1>  -0.1020 
 26 H        1.3110    -0.1340     1.4300 H     1 <1>   0.0800 
 27 H       -0.2320     0.2370     2.1490 H     1 <1>   0.0800 
 28 H        0.6270     1.4560     1.2420 H     1 <1>   0.0800 
 29 H       -1.0120     2.4970    -1.3270 H     1 <1>   0.1500 
 30 H       -3.0930    -0.4530     0.9270 H     1 <1>   0.1500 
 31 H       -2.9760     3.9400    -1.2630 H     1 <1>   0.1500 
 32 H       -5.0660     0.9860     0.9930 H     1 <1>   0.1500 
 33 H       -5.0940     4.4830    -0.2890 H     1 <1>   0.0800 
 34 H       -5.7640     3.4690     0.9500 H     1 <1>   0.0800 
 35 H       -8.5850     2.6190    -2.5130 H     1 <1>   0.0800 
 36 H       -9.0260     4.3020    -2.5660 H     1 <1>   0.0800 
 37 H       -8.1900     5.8640    -0.7950 H     1 <1>   0.0800 
 38 H       -7.1440     5.2790     0.4660 H     1 <1>   0.0800 
 39 H       -9.8730     2.2870    -0.4820 H     1 <1>   0.0800 
 40 H      -10.9030     2.9660    -1.7020 H     1 <1>   0.0800 
 41 H       -9.4310     5.5700     1.3350 H     1 <1>   0.0800 
 42 H       -8.9560     3.9090     1.3790 H     1 <1>   0.0800 
 43 H      -11.4200     3.0370     1.3080 H     1 <1>   0.1500 
 44 H      -11.6560     7.2060    -1.1520 H     1 <1>   0.0800 
 45 H      -11.0050     6.8570     0.4320 H     1 <1>   0.0800 
 46 H      -13.5210     5.7250    -0.8240 H     1 <1>   0.0800 
 47 H      -13.3860     6.6650     0.6370 H     1 <1>   0.0800 
 48 H      -14.1460     4.9890     2.4130 H     1 <1>   0.0800 
 49 H      -13.7320     3.3070     2.2000 H     1 <1>   0.0800 
 50 H      -14.7960     4.0890     1.0590 H     1 <1>   0.0800 
@<TRIPOS>BOND
  1   1   2  2   
  2   1   3  2   
  3   1   4  1   
  4   1   5  1   
  5   4   6  ar  
  6   4   7  ar  
  7   5  26  1   
  8   5  27  1   
  9   5  28  1   
 10   6   8  ar  
 11   6  29  1   
 12   7   9  ar  
 13   7  30  1   
 14   8  10  ar  
 15   8  31  1   
 16   9  10  ar  
 17   9  32  1   
 18  10  11  1   
 19  11  12  1   
 20  11  33  1   
 21  11  34  1   
 22  12  13  2   
 23  12  14  am  
 24  14  15  1   
 25  14  16  1   
 26  15  17  1   
 27  15  35  1   
 28  15  36  1   
 29  16  18  1   
 30  16  37  1   
 31  16  38  1   
 32  17  19  1   
 33  17  39  1   
 34  17  40  1   
 35  18  19  1   
 36  18  41  1   
 37  18  42  1   
 38  19  20  1   
 39  19  21  1   
 40  20  22  1   
 41  21  23  2   
 42  21  43  1   
 43  22  24  1   
 44  22  44  1   
 45  22  45  1   
 46  23  24  1   
 47  23  25  1   
 48  24  46  1   
 49  24  47  1   
 50  25  48  1   
 51  25  49  1   
 52  25  50  1   
@<TRIPOS>SUBSTRUCTURE
  1 ****  12 GROUP 4 **** **** 0

# MOE 2024.06 (io_trps.svl 2023.06)
