@<TRIPOS>MOLECULE
NONAME
36 37 1 0 0 
SMALL
USER_CHARGES


@<TRIPOS>ATOM
  1 S       -0.3160     0.1990    -0.5070 S.3   1 <1>  -0.0800 
  2 C        1.3540    -0.3520    -0.3480 C.2   1 <1>  -0.0450 
  3 C       -0.9240    -1.4290    -0.6680 C.2   1 <1>  -0.1100 
  4 C        2.3840     0.6390    -0.1880 C.2   1 <1>   0.5940 
  5 C        1.3640    -1.7120    -0.4160 C.2   1 <1>  -0.1500 
  6 C        0.0820    -2.3210    -0.5890 C.2   1 <1>  -0.1810 
  7 O        2.1760     1.8190    -0.0820 O.2   1 <1>  -0.5700 
  8 C        3.8270     0.1840    -0.1410 C.3   1 <1>  -0.1790 
  9 C       -0.1030    -3.8230    -0.6740 C.3   1 <1>   0.5240 
 10 N        0.1250    -4.4100     0.6780 N.4   1 <1>  -0.9590 
 11 C        0.1690    -5.9030     0.6310 C.3   1 <1>   0.5240 
 12 C       -0.9150    -3.9290     1.6440 C.3   1 <1>   0.2630 
 13 C       -1.0900    -6.4430    -0.0160 C.2   1 <1>  -0.1810 
 14 C       -1.2100    -6.8190    -1.3500 C.2   1 <1>   0.1390 
 15 C       -2.3140    -6.6740     0.5120 C.2   1 <1>  -0.3020 
 16 N       -2.4060    -7.2180    -1.6340 N.2   1 <1>  -0.7070 
 17 N       -3.0920    -7.1450    -0.4830 N.pl3 1 <1>   0.3140 
 18 C       -4.4980    -7.5610    -0.4040 C.3   1 <1>   0.0160 
 19 H       -1.9880    -1.5350    -0.8060 H     1 <1>   0.1500 
 20 H        2.2630    -2.3010    -0.3570 H     1 <1>   0.1500 
 21 H        4.0480    -0.4300    -0.9930 H     1 <1>   0.0800 
 22 H        4.0050    -0.3670     0.7630 H     1 <1>   0.0800 
 23 H        4.4770     1.0400    -0.1580 H     1 <1>   0.0800 
 24 H        0.5940    -4.2310    -1.3870 H     1 <1>   0.0800 
 25 H       -1.1040    -4.0490    -1.0100 H     1 <1>   0.0800 
 26 H        1.0350    -4.0640     1.0020 H     1 <1>   0.4500 
 27 H        0.2540    -6.3000     1.6300 H     1 <1>   0.0800 
 28 H        1.0270    -6.2330     0.0670 H     1 <1>   0.0800 
 29 H       -1.8990    -4.2170     1.3090 H     1 <1>   0.0800 
 30 H       -0.8830    -2.8540     1.7270 H     1 <1>   0.0800 
 31 H       -0.7470    -4.3520     2.6210 H     1 <1>   0.0800 
 32 H       -0.4230    -6.7930    -2.0860 H     1 <1>   0.1500 
 33 H       -2.6820    -6.5460     1.5150 H     1 <1>   0.1500 
 34 H       -4.8680    -7.4150     0.5930 H     1 <1>   0.0800 
 35 H       -4.5690    -8.6000    -0.6690 H     1 <1>   0.0800 
 36 H       -5.0750    -6.9780    -1.0980 H     1 <1>   0.0800 
@<TRIPOS>BOND
  1   1   2  1   
  2   1   3  1   
  3   2   4  1   
  4   2   5  2   
  5   3   6  2   
  6   3  19  1   
  7   4   7  2   
  8   4   8  1   
  9   5   6  1   
 10   5  20  1   
 11   6   9  1   
 12   8  21  1   
 13   8  22  1   
 14   8  23  1   
 15   9  10  1   
 16   9  24  1   
 17   9  25  1   
 18  10  11  1   
 19  10  12  1   
 20  10  26  1   
 21  11  13  1   
 22  11  27  1   
 23  11  28  1   
 24  12  29  1   
 25  12  30  1   
 26  12  31  1   
 27  13  14  1   
 28  13  15  2   
 29  14  16  2   
 30  14  32  1   
 31  15  17  1   
 32  15  33  1   
 33  16  17  1   
 34  17  18  1   
 35  18  34  1   
 36  18  35  1   
 37  18  36  1   
@<TRIPOS>SUBSTRUCTURE
  1 ****   9 GROUP 4 **** **** 0

# MOE 2024.06 (io_trps.svl 2023.06)
