@<TRIPOS>MOLECULE
NONAME
49 51 1 0 0 
SMALL
USER_CHARGES


@<TRIPOS>ATOM
  1 O        1.0770    -1.6130    -1.9360 O.3   1 <1>  -0.6800 
  2 C        0.3940    -2.1000    -0.8300 C.3   1 <1>   0.1200 
  3 C        1.2650    -2.0380     0.4590 C.3   1 <1>   0.0000 
  4 C        2.6970    -2.6210     0.2800 C.3   1 <1>   0.4230 
  5 C        1.3800    -0.5620     0.9290 C.3   1 <1>  -0.1600 
  6 C        0.5410    -2.8460     1.5740 C.3   1 <1>  -0.1600 
  7 N        2.7030    -4.0900    -0.1470 N.4   1 <1>  -0.9590 
  8 C        3.6280    -1.6750    -0.5470 C.3   1 <1>   0.3430 
  9 C        2.2380     0.3190     0.0150 C.3   1 <1>   0.3430 
 10 C        1.0590    -4.2910     1.7320 C.3   1 <1>  -0.1600 
 11 C        1.5610    -4.8910     0.4180 C.3   1 <1>   0.3430 
 12 C        2.7670    -4.3230    -1.6310 C.3   1 <1>   0.2630 
 13 N        3.6240    -0.2380    -0.0790 N.4   1 <1>  -0.9590 
 14 C        4.4600     0.6180    -0.9750 C.3   1 <1>   0.4860 
 15 C        4.5980     1.9970    -0.3550 C.ar  1 <1>  -0.1430 
 16 C        5.4340     2.2030     0.7330 C.ar  1 <1>  -0.1500 
 17 C        3.8900     3.0710    -0.8750 C.ar  1 <1>  -0.1500 
 18 C        5.5480     3.4630     1.2960 C.ar  1 <1>  -0.1500 
 19 C        4.0090     4.3270    -0.3060 C.ar  1 <1>  -0.1500 
 20 C        4.8380     4.5440     0.7880 C.ar  1 <1>   0.0730 
 21 C        4.9590     5.8500     1.3740 C.1   1 <1>   0.4840 
 22 N        5.0500     6.8850     1.8430 N.1   1 <1>  -0.5570 
 23 H        0.4580    -1.5140    -2.6980 H     1 <1>   0.4000 
 24 H       -0.5010    -1.5110    -0.7060 H     1 <1>   0.0800 
 25 H        0.0920    -3.1090    -1.0540 H     1 <1>   0.0800 
 26 H        3.1160    -2.6110     1.2730 H     1 <1>   0.0800 
 27 H        1.7970    -0.5110     1.9200 H     1 <1>   0.0800 
 28 H        0.3960    -0.1270     0.9890 H     1 <1>   0.0800 
 29 H        0.6490    -2.3660     2.5330 H     1 <1>   0.0800 
 30 H       -0.5190    -2.8700     1.3760 H     1 <1>   0.0800 
 31 H        3.5510    -4.5160     0.2590 H     1 <1>   0.4500 
 32 H        3.3120    -1.6990    -1.5760 H     1 <1>   0.0800 
 33 H        4.6350    -2.0560    -0.5010 H     1 <1>   0.0800 
 34 H        2.2700     1.3210     0.4170 H     1 <1>   0.0800 
 35 H        1.7930     0.3710    -0.9650 H     1 <1>   0.0800 
 36 H        0.2650    -4.9070     2.1180 H     1 <1>   0.0800 
 37 H        1.8540    -4.3230     2.4570 H     1 <1>   0.0800 
 38 H        0.7430    -4.9060    -0.2840 H     1 <1>   0.0800 
 39 H        1.8720    -5.9120     0.5780 H     1 <1>   0.0800 
 40 H        1.9060    -3.8960    -2.1190 H     1 <1>   0.0800 
 41 H        2.7850    -5.3810    -1.8420 H     1 <1>   0.0800 
 42 H        3.6550    -3.8820    -2.0520 H     1 <1>   0.0800 
 43 H        4.0460    -0.1520     0.8560 H     1 <1>   0.4500 
 44 H        5.4410     0.1880    -1.0940 H     1 <1>   0.0800 
 45 H        4.0030     0.6980    -1.9490 H     1 <1>   0.0800 
 46 H        6.0140     1.3980     1.1530 H     1 <1>   0.1500 
 47 H        3.2420     2.9500    -1.7280 H     1 <1>   0.1500 
 48 H        6.2010     3.6130     2.1410 H     1 <1>   0.1500 
 49 H        3.4550     5.1550    -0.7200 H     1 <1>   0.1500 
@<TRIPOS>BOND
  1   1   2  1   
  2   1  23  1   
  3   2   3  1   
  4   2  24  1   
  5   2  25  1   
  6   3   4  1   
  7   3   5  1   
  8   3   6  1   
  9   4   7  1   
 10   4   8  1   
 11   4  26  1   
 12   5   9  1   
 13   5  27  1   
 14   5  28  1   
 15   6  10  1   
 16   6  29  1   
 17   6  30  1   
 18   7  11  1   
 19   7  12  1   
 20   7  31  1   
 21   8  13  1   
 22   8  32  1   
 23   8  33  1   
 24   9  13  1   
 25   9  34  1   
 26   9  35  1   
 27  10  11  1   
 28  10  36  1   
 29  10  37  1   
 30  11  38  1   
 31  11  39  1   
 32  12  40  1   
 33  12  41  1   
 34  12  42  1   
 35  13  14  1   
 36  13  43  1   
 37  14  15  1   
 38  14  44  1   
 39  14  45  1   
 40  15  16  ar  
 41  15  17  ar  
 42  16  18  ar  
 43  16  46  1   
 44  17  19  ar  
 45  17  47  1   
 46  18  20  ar  
 47  18  48  1   
 48  19  20  ar  
 49  19  49  1   
 50  20  21  1   
 51  21  22  3   
@<TRIPOS>SUBSTRUCTURE
  1 ****  13 GROUP 4 **** **** 0

# MOE 2024.06 (io_trps.svl 2023.06)
