@<TRIPOS>MOLECULE
NONAME
49 52 1 0 0 
SMALL
USER_CHARGES


@<TRIPOS>ATOM
  1 O        3.0660     2.5170    -1.9290 O.2   1 <1>  -0.5700 
  2 C        2.1790     2.4500    -1.1140 C.2   1 <1>   0.5690 
  3 N        2.4210     1.8720     0.0880 N.am  1 <1>  -0.7300 
  4 C        0.8000     3.0200    -1.4430 C.3   1 <1>   0.2010 
  5 C        1.4720     1.6240     1.1920 C.3   1 <1>   0.1400 
  6 N        0.3770     4.0610    -0.4480 N.am  1 <1>  -0.6600 
  7 C        0.8740     2.9290     1.7290 C.3   1 <1>  -0.1600 
  8 C        0.7130     5.3810    -0.6470 C.2   1 <1>   0.7160 
  9 C       -0.1960     3.5590     0.8270 C.3   1 <1>   0.1400 
 10 O        0.9370     5.7700    -1.7790 O.2   1 <1>  -0.5700 
 11 C        0.8660     6.2770     0.4510 C.2   1 <1>  -0.0860 
 12 C       -0.1140     7.1260     0.9650 C.2   1 <1>   0.3720 
 13 C        1.9300     6.4750     1.2710 C.2   1 <1>   0.0870 
 14 N        0.3250     7.7640     1.9940 N.2   1 <1>  -0.4100 
 15 N       -1.4140     7.2450     0.4600 N.pl3 1 <1>  -0.8210 
 16 O        1.5590     7.3640     2.1580 O.3   1 <1>  -0.0190 
 17 C        3.2440     5.8780     1.3240 C.ar  1 <1>   0.0530 
 18 C       -1.4930     7.9440    -0.8600 C.3   1 <1>   0.2090 
 19 C       -2.4250     7.8160     1.4020 C.3   1 <1>   0.2090 
 20 C        3.8350     5.2820     0.2080 C.ar  1 <1>  -0.1500 
 21 C        3.9700     5.8570     2.5160 C.ar  1 <1>  -0.1500 
 22 C       -2.9350     7.9350    -1.3990 C.3   1 <1>   0.1200 
 23 C       -3.8280     7.8110     0.7670 C.3   1 <1>   0.1200 
 24 C        5.0730     4.6730     0.2830 C.ar  1 <1>  -0.1500 
 25 C        5.2130     5.2550     2.5970 C.ar  1 <1>  -0.1500 
 26 O       -3.8240     8.4810    -0.4630 O.3   1 <1>  -0.5600 
 27 C        5.7660     4.6580     1.4790 C.ar  1 <1>  -0.1500 
 28 H        3.3920     1.5940     0.2500 H     1 <1>   0.3700 
 29 H        0.0840     2.2200    -1.4580 H     1 <1>   0.0800 
 30 H        0.8350     3.4440    -2.4310 H     1 <1>   0.0800 
 31 H        2.0020     1.1280     1.9880 H     1 <1>   0.0800 
 32 H        0.6900     0.9650     0.8550 H     1 <1>   0.0800 
 33 H        1.6580     3.6350     1.9380 H     1 <1>   0.0800 
 34 H        0.4020     2.7040     2.6680 H     1 <1>   0.0800 
 35 H       -0.9640     2.8370     0.6080 H     1 <1>   0.0800 
 36 H       -0.6690     4.3730     1.3520 H     1 <1>   0.0800 
 37 H       -0.8530     7.4640    -1.5760 H     1 <1>   0.0800 
 38 H       -1.1610     8.9630    -0.7500 H     1 <1>   0.0800 
 39 H       -2.1560     8.8270     1.6580 H     1 <1>   0.0800 
 40 H       -2.4390     7.2340     2.3070 H     1 <1>   0.0800 
 41 H        3.3320     5.2880    -0.7420 H     1 <1>   0.1500 
 42 H        3.5530     6.3140     3.3960 H     1 <1>   0.1500 
 43 H       -3.2430     6.9290    -1.6220 H     1 <1>   0.0800 
 44 H       -2.9980     8.5250    -2.2950 H     1 <1>   0.0800 
 45 H       -4.5280     8.3120     1.4120 H     1 <1>   0.0800 
 46 H       -4.1630     6.8010     0.6080 H     1 <1>   0.0800 
 47 H        5.4930     4.2120    -0.5950 H     1 <1>   0.1500 
 48 H        5.7510     5.2520     3.5290 H     1 <1>   0.1500 
 49 H        6.7320     4.1860     1.5370 H     1 <1>   0.1500 
@<TRIPOS>BOND
  1   1   2  2   
  2   2   3  am  
  3   2   4  1   
  4   3   5  1   
  5   3  28  1   
  6   4   6  1   
  7   4  29  1   
  8   4  30  1   
  9   5   7  1   
 10   5  31  1   
 11   5  32  1   
 12   6   8  am  
 13   6   9  1   
 14   7   9  1   
 15   7  33  1   
 16   7  34  1   
 17   8  10  2   
 18   8  11  1   
 19   9  35  1   
 20   9  36  1   
 21  11  12  1   
 22  11  13  2   
 23  12  14  2   
 24  12  15  1   
 25  13  16  1   
 26  13  17  1   
 27  14  16  1   
 28  15  18  1   
 29  15  19  1   
 30  17  20  ar  
 31  17  21  ar  
 32  18  22  1   
 33  18  37  1   
 34  18  38  1   
 35  19  23  1   
 36  19  39  1   
 37  19  40  1   
 38  20  24  ar  
 39  20  41  1   
 40  21  25  ar  
 41  21  42  1   
 42  22  26  1   
 43  22  43  1   
 44  22  44  1   
 45  23  26  1   
 46  23  45  1   
 47  23  46  1   
 48  24  27  ar  
 49  24  47  1   
 50  25  27  ar  
 51  25  48  1   
 52  27  49  1   
@<TRIPOS>SUBSTRUCTURE
  1 ****  11 GROUP 4 **** **** 0

# MOE 2024.06 (io_trps.svl 2023.06)
