@<TRIPOS>MOLECULE
NONAME
48 51 1 0 0 
SMALL
USER_CHARGES


@<TRIPOS>ATOM
  1 F       -0.4770    -2.3660    -2.8110 F     1 <1>  -0.2320 
  2 C        0.2920    -2.3300    -1.7330 C.3   1 <1>   0.4630 
  3 F        1.0040    -1.2150    -1.7670 F     1 <1>  -0.2320 
  4 C       -0.2030    -2.8570    -0.4280 C.3   1 <1>  -0.1950 
  5 C        0.8630    -3.5960    -1.1730 C.3   1 <1>  -0.2000 
  6 C       -1.6240    -3.4340    -0.2820 C.3   1 <1>  -0.0040 
  7 C       -1.7960    -4.4130     0.8770 C.2   1 <1>   0.5690 
  8 O       -0.8570    -4.6040     1.6140 O.2   1 <1>  -0.5700 
  9 N       -2.9950    -5.0600     1.0610 N.am  1 <1>  -0.6600 
 10 C       -4.2110    -4.9010     0.2150 C.3   1 <1>   0.1400 
 11 C       -3.1800    -6.0520     2.1580 C.3   1 <1>   0.1400 
 12 C       -4.5380    -6.2480    -0.4330 C.3   1 <1>  -0.1600 
 13 C       -3.5090    -7.4160     1.5490 C.3   1 <1>  -0.1600 
 14 C       -4.7320    -7.3530     0.6200 C.3   1 <1>   0.4240 
 15 O       -5.8060    -6.9760     1.4500 O.3   1 <1>  -0.5600 
 16 C       -4.9730    -8.7250    -0.0470 C.ar  1 <1>  -0.1430 
 17 C       -7.0950    -7.2800     1.0160 C.3   1 <1>   0.1200 
 18 C       -6.1710    -9.4100     0.1270 C.ar  1 <1>  -0.1430 
 19 C       -3.9900    -9.3020    -0.8450 C.ar  1 <1>  -0.1500 
 20 C       -7.2600    -8.7960     0.9830 C.3   1 <1>  -0.0170 
 21 C       -6.3770   -10.6430    -0.4730 C.ar  1 <1>  -0.1500 
 22 C       -4.1950   -10.5300    -1.4470 C.ar  1 <1>  -0.1500 
 23 C       -5.3850   -11.2110    -1.2660 C.ar  1 <1>   0.0830 
 24 O       -5.5060   -12.4100    -1.8890 O.3   1 <1>  -0.3630 
 25 C       -6.6700   -13.1930    -1.7530 C.3   1 <1>   0.0400 
 26 H        0.1190    -2.3380     0.4580 H     1 <1>   0.1000 
 27 H        1.8570    -3.5840    -0.7650 H     1 <1>   0.1000 
 28 H        0.6090    -4.5300    -1.6400 H     1 <1>   0.1000 
 29 H       -1.8910    -3.9420    -1.1900 H     1 <1>   0.0800 
 30 H       -2.3080    -2.6190    -0.1360 H     1 <1>   0.0800 
 31 H       -4.0710    -4.1570    -0.5470 H     1 <1>   0.0800 
 32 H       -5.0310    -4.5860     0.8380 H     1 <1>   0.0800 
 33 H       -3.9840    -5.7280     2.7970 H     1 <1>   0.0800 
 34 H       -2.2910    -6.1310     2.7610 H     1 <1>   0.0800 
 35 H       -3.7290    -6.5120    -1.0880 H     1 <1>   0.0800 
 36 H       -5.4190    -6.1610    -1.0410 H     1 <1>   0.0800 
 37 H       -3.6980    -8.1290     2.3300 H     1 <1>   0.0800 
 38 H       -2.6460    -7.7540     1.0080 H     1 <1>   0.0800 
 39 H       -7.2540    -6.8520     0.0430 H     1 <1>   0.0800 
 40 H       -7.7890    -6.8410     1.7120 H     1 <1>   0.0800 
 41 H       -3.0520    -8.8020    -1.0070 H     1 <1>   0.1500 
 42 H       -8.2290    -9.0370     0.5840 H     1 <1>   0.0800 
 43 H       -7.1980    -9.1850     1.9830 H     1 <1>   0.0800 
 44 H       -7.3100   -11.1480    -0.3160 H     1 <1>   0.1500 
 45 H       -3.4300   -10.9710    -2.0610 H     1 <1>   0.1500 
 46 H       -6.5340   -14.0940    -2.3220 H     1 <1>   0.0800 
 47 H       -7.5090   -12.6400    -2.1370 H     1 <1>   0.0800 
 48 H       -6.8090   -13.4340    -0.7140 H     1 <1>   0.0800 
@<TRIPOS>BOND
  1   1   2  1   
  2   2   3  1   
  3   2   4  1   
  4   2   5  1   
  5   4   5  1   
  6   4   6  1   
  7   4  26  1   
  8   5  27  1   
  9   5  28  1   
 10   6   7  1   
 11   6  29  1   
 12   6  30  1   
 13   7   8  2   
 14   7   9  am  
 15   9  10  1   
 16   9  11  1   
 17  10  12  1   
 18  10  31  1   
 19  10  32  1   
 20  11  13  1   
 21  11  33  1   
 22  11  34  1   
 23  12  14  1   
 24  12  35  1   
 25  12  36  1   
 26  13  14  1   
 27  13  37  1   
 28  13  38  1   
 29  14  15  1   
 30  14  16  1   
 31  15  17  1   
 32  16  18  ar  
 33  16  19  ar  
 34  17  20  1   
 35  17  39  1   
 36  17  40  1   
 37  18  20  1   
 38  18  21  ar  
 39  19  22  ar  
 40  19  41  1   
 41  20  42  1   
 42  20  43  1   
 43  21  23  ar  
 44  21  44  1   
 45  22  23  ar  
 46  22  45  1   
 47  23  24  1   
 48  24  25  1   
 49  25  46  1   
 50  25  47  1   
 51  25  48  1   
@<TRIPOS>SUBSTRUCTURE
  1 ****  12 GROUP 4 **** **** 0

# MOE 2024.06 (io_trps.svl 2023.06)
