@<TRIPOS>MOLECULE
NONAME
42 43 1 0 0 
SMALL
USER_CHARGES


@<TRIPOS>ATOM
  1 S        0.7220     0.3180    -0.4560 S.3   1 <1>  -0.3320 
  2 C        0.3270    -1.3670    -0.0180 C.ar  1 <1>   0.7220 
  3 C        2.5630     0.4720    -0.2290 C.3   1 <1>   0.2110 
  4 N       -0.9520    -1.6730    -0.1370 N.ar  1 <1>  -0.6200 
  5 N        1.3390    -2.1230     0.3740 N.ar  1 <1>  -0.6200 
  6 C        2.9360     1.9250     0.0780 C.2   1 <1>   0.5690 
  7 C        3.2260    -0.0480    -1.5120 C.3   1 <1>  -0.2400 
  8 C       -1.2510    -2.9100     0.1830 C.ar  1 <1>   0.1660 
  9 C        1.0110    -3.3540     0.6880 C.ar  1 <1>   0.1660 
 10 O        3.9600     2.1310     0.6820 O.2   1 <1>  -0.5700 
 11 N        2.1010     2.9200    -0.3460 N.am  1 <1>  -0.4940 
 12 C       -0.2890    -3.8000     0.6070 C.ar  1 <1>  -0.1500 
 13 C       -2.7040    -3.3160     0.0640 C.3   1 <1>  -0.0970 
 14 C        2.1290    -4.2670     1.1450 C.3   1 <1>  -0.0970 
 15 C        2.1860     4.3150    -0.2690 C.2   1 <1>   0.2040 
 16 O        1.0640     4.9900    -0.3450 O.3   1 <1>  -0.0190 
 17 C        3.1870     5.2160    -0.1480 C.2   1 <1>  -0.1810 
 18 N        1.2530     6.2790    -0.2720 N.2   1 <1>  -0.4100 
 19 C        2.5200     6.4420    -0.1510 C.2   1 <1>   0.1080 
 20 C        4.6950     5.0330    -0.0560 C.3   1 <1>   0.0210 
 21 C        3.1640     7.8080    -0.0390 C.3   1 <1>  -0.0590 
 22 C        5.1710     5.1190     1.3960 C.3   1 <1>  -0.2400 
 23 H        2.8370    -0.1330     0.6170 H     1 <1>   0.0800 
 24 H        2.9200     0.5400    -2.3580 H     1 <1>   0.0800 
 25 H        2.9570    -1.0760    -1.6810 H     1 <1>   0.0800 
 26 H        4.2950     0.0130    -1.4170 H     1 <1>   0.0800 
 27 H        1.1980     2.5850    -0.6880 H     1 <1>   0.3700 
 28 H       -0.5460    -4.8090     0.8660 H     1 <1>   0.1500 
 29 H       -3.3040    -2.6940     0.7030 H     1 <1>   0.0800 
 30 H       -2.8450    -4.3430     0.3460 H     1 <1>   0.0800 
 31 H       -3.0320    -3.1850    -0.9510 H     1 <1>   0.0800 
 32 H        2.5950    -3.8550     2.0210 H     1 <1>   0.0800 
 33 H        2.8670    -4.3500     0.3680 H     1 <1>   0.0800 
 34 H        1.7570    -5.2480     1.3780 H     1 <1>   0.0800 
 35 H        5.1870     5.7880    -0.6430 H     1 <1>   0.0800 
 36 H        4.9720     4.0820    -0.4730 H     1 <1>   0.0800 
 37 H        3.6090     7.9240     0.9310 H     1 <1>   0.0800 
 38 H        2.4220     8.5750    -0.1710 H     1 <1>   0.0800 
 39 H        3.9180     7.9240    -0.7950 H     1 <1>   0.0800 
 40 H        4.9450     6.0810     1.8150 H     1 <1>   0.0800 
 41 H        6.2330     4.9570     1.4450 H     1 <1>   0.0800 
 42 H        4.6830     4.3630     1.9860 H     1 <1>   0.0800 
@<TRIPOS>BOND
  1   1   2  1   
  2   1   3  1   
  3   2   4  ar  
  4   2   5  ar  
  5   3   6  1   
  6   3   7  1   
  7   3  23  1   
  8   4   8  ar  
  9   5   9  ar  
 10   6  10  2   
 11   6  11  am  
 12   7  24  1   
 13   7  25  1   
 14   7  26  1   
 15   8  12  ar  
 16   8  13  1   
 17   9  12  ar  
 18   9  14  1   
 19  11  15  1   
 20  11  27  1   
 21  12  28  1   
 22  13  29  1   
 23  13  30  1   
 24  13  31  1   
 25  14  32  1   
 26  14  33  1   
 27  14  34  1   
 28  15  16  1   
 29  15  17  2   
 30  16  18  1   
 31  17  19  1   
 32  17  20  1   
 33  18  19  2   
 34  19  21  1   
 35  20  22  1   
 36  20  35  1   
 37  20  36  1   
 38  21  37  1   
 39  21  38  1   
 40  21  39  1   
 41  22  40  1   
 42  22  41  1   
 43  22  42  1   
@<TRIPOS>SUBSTRUCTURE
  1 ****   3 GROUP 4 **** **** 0

# MOE 2024.06 (io_trps.svl 2023.06)
