@<TRIPOS>MOLECULE
NONAME
49 51 1 0 0 
SMALL
USER_CHARGES


@<TRIPOS>ATOM
  1 O        0.2460     1.0170     0.5830 O.2   1 <1>  -0.5700 
  2 C        0.1670     2.1620     0.2180 C.2   1 <1>   0.5690 
  3 N       -0.5570     3.0610     0.9200 N.am  1 <1>  -0.7300 
  4 C        0.8680     2.6090    -1.0690 C.3   1 <1>   0.1810 
  5 C       -0.7190     4.4800     0.5200 C.3   1 <1>   0.3640 
  6 O        1.0370     4.0080    -1.1380 O.3   1 <1>  -0.5600 
  7 C       -2.1920     4.8610     0.6120 C.ar  1 <1>  -0.1440 
  8 C       -0.1520     4.7500    -0.8960 C.3   1 <1>   0.2610 
  9 C       -3.1890     4.0200     0.1320 C.ar  1 <1>  -0.1500 
 10 C       -2.5520     6.0770     1.1760 C.ar  1 <1>  -0.1500 
 11 C        0.0530     6.2580    -1.0970 C.2   1 <1>   0.5690 
 12 C       -4.5200     4.3860     0.2210 C.ar  1 <1>  -0.1500 
 13 C       -3.8840     6.4440     1.2640 C.ar  1 <1>  -0.1500 
 14 O       -0.7100     6.8090    -1.8560 O.2   1 <1>  -0.5700 
 15 N        1.0380     6.9780    -0.4490 N.am  1 <1>  -0.6600 
 16 C       -4.8690     5.5990     0.7880 C.ar  1 <1>  -0.1500 
 17 C        1.2500     8.4290    -0.7530 C.3   1 <1>   0.1400 
 18 C        2.1750     6.3990     0.3360 C.3   1 <1>   0.1400 
 19 C        2.5610     8.6280    -1.5300 C.3   1 <1>   0.1400 
 20 C        3.4910     6.5600    -0.4400 C.3   1 <1>   0.1400 
 21 N        3.7080     7.9920    -0.8120 N.am  1 <1>  -0.6600 
 22 C        4.8350     8.6960    -0.4870 C.2   1 <1>   0.7800 
 23 O        4.9770     9.8720    -0.7660 O.2   1 <1>  -0.5700 
 24 O        5.8020     8.0530     0.1700 O.3   1 <1>  -0.4300 
 25 C        6.9930     8.7130     0.5310 C.3   1 <1>   0.1200 
 26 C        7.8840     7.7160     1.2640 C.3   1 <1>  -0.2400 
 27 H       -1.0680     2.7470     1.7470 H     1 <1>   0.3700 
 28 H        0.2930     2.2930    -1.9200 H     1 <1>   0.0800 
 29 H        1.8410     2.1570    -1.1210 H     1 <1>   0.0800 
 30 H       -0.1730     5.0790     1.2270 H     1 <1>   0.0800 
 31 H       -0.8760     4.4280    -1.6230 H     1 <1>   0.0800 
 32 H       -2.9380     3.0730    -0.3140 H     1 <1>   0.1500 
 33 H       -1.8010     6.7530     1.5470 H     1 <1>   0.1500 
 34 H       -5.2860     3.7280    -0.1520 H     1 <1>   0.1500 
 35 H       -4.1540     7.3900     1.7010 H     1 <1>   0.1500 
 36 H       -5.9040     5.8850     0.8560 H     1 <1>   0.1500 
 37 H        0.4330     8.8260    -1.3310 H     1 <1>   0.0800 
 38 H        1.2960     8.9840     0.1680 H     1 <1>   0.0800 
 39 H        2.2570     6.9210     1.2730 H     1 <1>   0.0800 
 40 H        2.0190     5.3610     0.5590 H     1 <1>   0.0800 
 41 H        2.7350     9.6810    -1.6660 H     1 <1>   0.0800 
 42 H        2.4640     8.1820    -2.5050 H     1 <1>   0.0800 
 43 H        3.4480     5.9640    -1.3360 H     1 <1>   0.0800 
 44 H        4.3030     6.1920     0.1620 H     1 <1>   0.0800 
 45 H        7.4680     9.0710    -0.3670 H     1 <1>   0.0800 
 46 H        6.7410     9.5470     1.1640 H     1 <1>   0.0800 
 47 H        8.1180     6.8860     0.6210 H     1 <1>   0.0800 
 48 H        7.3910     7.3600     2.1500 H     1 <1>   0.0800 
 49 H        8.8020     8.1950     1.5510 H     1 <1>   0.0800 
@<TRIPOS>BOND
  1   1   2  2   
  2   2   3  am  
  3   2   4  1   
  4   3   5  1   
  5   3  27  1   
  6   4   6  1   
  7   4  28  1   
  8   4  29  1   
  9   5   7  1   
 10   5   8  1   
 11   5  30  1   
 12   6   8  1   
 13   7   9  ar  
 14   7  10  ar  
 15   8  11  1   
 16   8  31  1   
 17   9  12  ar  
 18   9  32  1   
 19  10  13  ar  
 20  10  33  1   
 21  11  14  2   
 22  11  15  am  
 23  12  16  ar  
 24  12  34  1   
 25  13  16  ar  
 26  13  35  1   
 27  15  17  1   
 28  15  18  1   
 29  16  36  1   
 30  17  19  1   
 31  17  37  1   
 32  17  38  1   
 33  18  20  1   
 34  18  39  1   
 35  18  40  1   
 36  19  21  1   
 37  19  41  1   
 38  19  42  1   
 39  20  21  1   
 40  20  43  1   
 41  20  44  1   
 42  21  22  am  
 43  22  23  2   
 44  22  24  1   
 45  24  25  1   
 46  25  26  1   
 47  25  45  1   
 48  25  46  1   
 49  26  47  1   
 50  26  48  1   
 51  26  49  1   
@<TRIPOS>SUBSTRUCTURE
  1 ****  15 GROUP 4 **** **** 0

# MOE 2024.06 (io_trps.svl 2023.06)
