@<TRIPOS>MOLECULE
NONAME
50 51 1 0 0 
SMALL
USER_CHARGES


@<TRIPOS>ATOM
  1 S        2.0790     1.4540     0.9100 S.o2  1 <1>   1.3330 
  2 O        2.4720     2.6670     1.5930 O.2   1 <1>  -0.6500 
  3 O        2.1390     0.1880     1.6060 O.2   1 <1>  -0.6500 
  4 N        0.4920     1.6570     0.3440 N.am  1 <1>  -0.8490 
  5 C        3.0370     1.3390    -0.5980 C.3   1 <1>  -0.0550 
  6 C       -0.1580     0.3990    -0.0390 C.3   1 <1>   0.1160 
  7 C       -0.3500     2.3830     1.2980 C.3   1 <1>   0.1160 
  8 C        4.5490     1.2270    -0.3430 C.3   1 <1>  -0.0800 
  9 C        5.3580     1.2480    -1.6270 C.3   1 <1>   0.2200 
 10 C        4.9980    -0.0780     0.3000 C.3   1 <1>   0.1200 
 11 N        5.7010     2.6420    -1.9680 N.am  1 <1>  -0.7300 
 12 C        6.5780     0.3860    -1.3030 C.3   1 <1>   0.1200 
 13 O        6.3340    -0.2180    -0.0660 O.3   1 <1>  -0.5600 
 14 C        4.9880     3.4200    -2.8210 C.2   1 <1>   0.5690 
 15 O        4.1230     2.9600    -3.5260 O.2   1 <1>  -0.5700 
 16 C        5.2580     4.9160    -2.8510 C.3   1 <1>   0.0440 
 17 C        5.8320     5.4190    -1.5280 C.ar  1 <1>  -0.1440 
 18 C        5.0900     5.2950    -0.3640 C.ar  1 <1>  -0.1500 
 19 C        7.0980     5.9740    -1.4660 C.ar  1 <1>  -0.1500 
 20 C        5.6040     5.7010     0.8570 C.ar  1 <1>  -0.1440 
 21 C        7.6140     6.3910    -0.2530 C.ar  1 <1>  -0.1500 
 22 C        6.8780     6.2550     0.9140 C.ar  1 <1>  -0.1440 
 23 C        4.7520     5.5190     2.1060 C.3   1 <1>  -0.0970 
 24 C        7.4830     6.7180     2.2310 C.3   1 <1>  -0.0970 
 25 H        2.7080     0.4960    -1.1720 H     1 <1>   0.0800 
 26 H        2.8540     2.2200    -1.1830 H     1 <1>   0.0800 
 27 H       -1.1240     0.5990    -0.4700 H     1 <1>   0.0800 
 28 H       -0.2830    -0.2380     0.8220 H     1 <1>   0.0800 
 29 H        0.4370    -0.1210    -0.7700 H     1 <1>   0.0800 
 30 H       -1.3420     2.5100     0.9010 H     1 <1>   0.0800 
 31 H        0.0630     3.3610     1.4850 H     1 <1>   0.0800 
 32 H       -0.4060     1.8470     2.2320 H     1 <1>   0.0800 
 33 H        4.8680     2.0310     0.3010 H     1 <1>   0.0800 
 34 H        4.8130     0.7900    -2.4370 H     1 <1>   0.0800 
 35 H        4.4560    -0.9230    -0.0900 H     1 <1>   0.0800 
 36 H        4.9250    -0.0580     1.3740 H     1 <1>   0.0800 
 37 H        6.3210     3.1200    -1.3040 H     1 <1>   0.3700 
 38 H        7.4760     0.9730    -1.2150 H     1 <1>   0.0800 
 39 H        6.7100    -0.3890    -2.0360 H     1 <1>   0.0800 
 40 H        5.9330     5.1220    -3.6600 H     1 <1>   0.0800 
 41 H        4.3350     5.4280    -3.0520 H     1 <1>   0.0800 
 42 H        4.1020     4.8700    -0.4050 H     1 <1>   0.1500 
 43 H        7.6920     6.0860    -2.3570 H     1 <1>   0.1500 
 44 H        8.5990     6.8220    -0.2230 H     1 <1>   0.1500 
 45 H        3.7990     5.0820     1.8670 H     1 <1>   0.0800 
 46 H        4.5760     6.4700     2.5760 H     1 <1>   0.0800 
 47 H        5.2510     4.8690     2.8010 H     1 <1>   0.0800 
 48 H        8.4680     7.1200     2.0850 H     1 <1>   0.0800 
 49 H        7.5530     5.8900     2.9140 H     1 <1>   0.0800 
 50 H        6.8670     7.4820     2.6690 H     1 <1>   0.0800 
@<TRIPOS>BOND
  1   1   2  2   
  2   1   3  2   
  3   1   4  am  
  4   1   5  1   
  5   4   6  1   
  6   4   7  1   
  7   5   8  1   
  8   5  25  1   
  9   5  26  1   
 10   6  27  1   
 11   6  28  1   
 12   6  29  1   
 13   7  30  1   
 14   7  31  1   
 15   7  32  1   
 16   8   9  1   
 17   8  10  1   
 18   8  33  1   
 19   9  11  1   
 20   9  12  1   
 21   9  34  1   
 22  10  13  1   
 23  10  35  1   
 24  10  36  1   
 25  11  14  am  
 26  11  37  1   
 27  12  13  1   
 28  12  38  1   
 29  12  39  1   
 30  14  15  2   
 31  14  16  1   
 32  16  17  1   
 33  16  40  1   
 34  16  41  1   
 35  17  18  ar  
 36  17  19  ar  
 37  18  20  ar  
 38  18  42  1   
 39  19  21  ar  
 40  19  43  1   
 41  20  22  ar  
 42  20  23  1   
 43  21  22  ar  
 44  21  44  1   
 45  22  24  1   
 46  23  45  1   
 47  23  46  1   
 48  23  47  1   
 49  24  48  1   
 50  24  49  1   
 51  24  50  1   
@<TRIPOS>SUBSTRUCTURE
  1 ****   8 GROUP 4 **** **** 0

# MOE 2024.06 (io_trps.svl 2023.06)
