@<TRIPOS>MOLECULE
NONAME
53 56 1 0 0 
SMALL
USER_CHARGES


@<TRIPOS>ATOM
  1 O       -0.0150     1.0510    -1.3320 O.2   1 <1>  -0.5700 
  2 C       -0.0690     2.2070    -0.9820 C.2   1 <1>   0.5690 
  3 N       -1.1150     2.7210    -0.2610 N.am  1 <1>  -0.5090 
  4 C        1.0770     3.1260    -1.4060 C.3   1 <1>   0.1810 
  5 C       -1.2390     4.1920    -0.0010 C.3   1 <1>   0.3640 
  6 C       -2.1900     1.8680     0.3060 C.3   1 <1>   0.0490 
  7 O        1.1030     4.3390    -0.6970 O.3   1 <1>  -0.5600 
  8 C       -2.6090     4.6880    -0.4650 C.ar  1 <1>  -0.1440 
  9 C       -0.1300     5.0300    -0.6890 C.3   1 <1>   0.2610 
 10 C       -2.4320     1.9000     1.7830 C.3   1 <1>  -0.2000 
 11 C       -1.8260     0.6890     1.1520 C.3   1 <1>  -0.2000 
 12 C       -3.3620     5.5120     0.3610 C.ar  1 <1>   0.1600 
 13 C       -3.1270     4.3430    -1.7010 C.ar  1 <1>  -0.1500 
 14 C        0.0280     6.4200    -0.0430 C.2   1 <1>   0.5690 
 15 N       -4.5550     6.0010     0.0620 N.ar  1 <1>  -0.6200 
 16 C       -4.3680     4.8450    -2.0280 C.ar  1 <1>  -0.1500 
 17 O       -0.4960     6.6180     1.0320 O.2   1 <1>  -0.5700 
 18 N        0.7400     7.4150    -0.6710 N.am  1 <1>  -0.6600 
 19 C       -5.0300     5.6560    -1.1230 C.ar  1 <1>   0.1600 
 20 C        0.9450     8.7380    -0.0090 C.3   1 <1>   0.2840 
 21 C        1.5540     7.2160    -1.9070 C.3   1 <1>   0.0600 
 22 C        2.4110     8.9170     0.3600 C.ar  1 <1>  -0.1440 
 23 C        3.1830     9.8960    -0.2470 C.ar  1 <1>  -0.1500 
 24 C        2.9890     8.0910     1.3110 C.ar  1 <1>  -0.1500 
 25 C        4.5170    10.0430     0.0920 C.ar  1 <1>  -0.1500 
 26 C        4.3230     8.2390     1.6490 C.ar  1 <1>  -0.1500 
 27 C        5.0950     9.2140     1.0400 C.ar  1 <1>  -0.1440 
 28 C        6.5570     9.3750     1.4120 C.3   1 <1>  -0.0970 
 29 H        0.9930     3.3440    -2.4550 H     1 <1>   0.0800 
 30 H        2.0120     2.6270    -1.2310 H     1 <1>   0.0800 
 31 H       -1.1570     4.3260     1.0630 H     1 <1>   0.0800 
 32 H       -3.0370     1.7740    -0.3540 H     1 <1>   0.1000 
 33 H       -0.4170     5.1840    -1.7120 H     1 <1>   0.0800 
 34 H       -1.8040     2.4950     2.4230 H     1 <1>   0.1000 
 35 H       -3.4440     1.8340     2.1410 H     1 <1>   0.1000 
 36 H       -2.4210    -0.2020     1.0690 H     1 <1>   0.1000 
 37 H       -0.7830     0.4750     1.3110 H     1 <1>   0.1000 
 38 H       -2.9620     5.7910     1.3230 H     1 <1>   0.1500 
 39 H       -2.5950     3.7030    -2.3840 H     1 <1>   0.1500 
 40 H       -4.8240     4.6090    -2.9720 H     1 <1>   0.1500 
 41 H       -6.0000     6.0410    -1.3870 H     1 <1>   0.1500 
 42 H        0.6320     9.5170    -0.6810 H     1 <1>   0.0800 
 43 H        0.3470     8.8210     0.8820 H     1 <1>   0.0800 
 44 H        1.5820     8.1270    -2.4790 H     1 <1>   0.0800 
 45 H        1.1460     6.4400    -2.5270 H     1 <1>   0.0800 
 46 H        2.5610     6.9490    -1.6310 H     1 <1>   0.0800 
 47 H        2.7520    10.5480    -0.9850 H     1 <1>   0.1500 
 48 H        2.3970     7.3280     1.7860 H     1 <1>   0.1500 
 49 H        5.1050    10.8070    -0.3850 H     1 <1>   0.1500 
 50 H        4.7550     7.5900     2.3900 H     1 <1>   0.1500 
 51 H        7.1170     9.7580     0.5790 H     1 <1>   0.0800 
 52 H        6.9780     8.4280     1.6980 H     1 <1>   0.0800 
 53 H        6.6480    10.0590     2.2370 H     1 <1>   0.0800 
@<TRIPOS>BOND
  1   1   2  2   
  2   2   3  am  
  3   2   4  1   
  4   3   5  1   
  5   3   6  1   
  6   4   7  1   
  7   4  29  1   
  8   4  30  1   
  9   5   8  1   
 10   5   9  1   
 11   5  31  1   
 12   6  10  1   
 13   6  11  1   
 14   6  32  1   
 15   7   9  1   
 16   8  12  ar  
 17   8  13  ar  
 18   9  14  1   
 19   9  33  1   
 20  10  11  1   
 21  10  34  1   
 22  10  35  1   
 23  11  36  1   
 24  11  37  1   
 25  12  15  ar  
 26  12  38  1   
 27  13  16  ar  
 28  13  39  1   
 29  14  17  2   
 30  14  18  am  
 31  15  19  ar  
 32  16  19  ar  
 33  16  40  1   
 34  18  20  1   
 35  18  21  1   
 36  19  41  1   
 37  20  22  1   
 38  20  42  1   
 39  20  43  1   
 40  21  44  1   
 41  21  45  1   
 42  21  46  1   
 43  22  23  ar  
 44  22  24  ar  
 45  23  25  ar  
 46  23  47  1   
 47  24  26  ar  
 48  24  48  1   
 49  25  27  ar  
 50  25  49  1   
 51  26  27  ar  
 52  26  50  1   
 53  27  28  1   
 54  28  51  1   
 55  28  52  1   
 56  28  53  1   
@<TRIPOS>SUBSTRUCTURE
  1 ****  14 GROUP 4 **** **** 0

# MOE 2024.06 (io_trps.svl 2023.06)
