@<TRIPOS>MOLECULE
NONAME
50 53 1 0 0 
SMALL
USER_CHARGES


@<TRIPOS>ATOM
  1 F        0.3910     2.3060     1.9350 F     1 <1>  -0.3400 
  2 C       -0.2550     2.4210     0.7780 C.3   1 <1>   1.1640 
  3 F        0.6610     2.2800    -0.1760 F     1 <1>  -0.3400 
  4 F       -1.0290     1.3410     0.6920 F     1 <1>  -0.3400 
  5 C       -1.0510     3.7470     0.6620 C.ar  1 <1>   0.1660 
  6 N       -0.4070     4.9070     0.6950 N.ar  1 <1>  -0.6200 
  7 C       -2.4180     3.7300     0.5280 C.ar  1 <1>  -0.1500 
  8 C       -1.1390     6.0120     0.5960 C.ar  1 <1>   0.7200 
  9 C       -3.0890     4.9300     0.4310 C.ar  1 <1>   0.4100 
 10 N       -2.4540     6.0740     0.4620 N.ar  1 <1>  -0.6200 
 11 N       -0.4540     7.2130     0.6340 N.pl3 1 <1>  -0.8380 
 12 N       -4.4580     4.9440     0.2910 N.pl3 1 <1>  -0.8380 
 13 C        0.9560     7.3090     1.1070 C.3   1 <1>   0.1290 
 14 C       -1.1090     8.5020     0.2780 C.3   1 <1>   0.1290 
 15 C       -5.2680     5.9680     1.0430 C.3   1 <1>   0.2090 
 16 C       -5.0330     4.4330    -0.9840 C.3   1 <1>   0.2090 
 17 C       -6.1080     6.8520     0.0990 C.3   1 <1>   0.1430 
 18 C       -6.5620     4.5460    -0.9790 C.3   1 <1>  -0.1600 
 19 C       -6.8950     7.8840     0.8870 C.ar  1 <1>   0.1670 
 20 C       -7.0720     5.9840    -0.7500 C.3   1 <1>  -0.1600 
 21 C       -5.2170     7.7530    -0.8000 C.3   1 <1>  -0.1600 
 22 N       -7.6070     7.6370     1.9620 N.ar  1 <1>  -0.6200 
 23 C       -6.7810     9.1290     0.3430 C.ar  1 <1>  -0.1440 
 24 C       -5.9050     9.1260    -0.8830 C.3   1 <1>  -0.0160 
 25 C       -8.1910     8.7080     2.4770 C.ar  1 <1>   0.7200 
 26 C       -7.4470    10.1610     0.9580 C.ar  1 <1>   0.1600 
 27 N       -8.1690     9.9590     2.0380 N.ar  1 <1>  -0.6200 
 28 N       -8.9250     8.4950     3.5700 N.pl3 1 <1>  -0.9000 
 29 H       -2.9890     2.8230     0.5050 H     1 <1>   0.1500 
 30 H        1.1730     6.5250     1.8120 H     1 <1>   0.0800 
 31 H        1.1210     8.2540     1.5940 H     1 <1>   0.0800 
 32 H        1.6230     7.2200     0.2680 H     1 <1>   0.0800 
 33 H       -1.8210     8.3510    -0.5150 H     1 <1>   0.0800 
 34 H       -0.3740     9.2130    -0.0570 H     1 <1>   0.0800 
 35 H       -1.6200     8.8950     1.1390 H     1 <1>   0.0800 
 36 H       -4.6270     6.5890     1.6460 H     1 <1>   0.0800 
 37 H       -5.9300     5.4510     1.7150 H     1 <1>   0.0800 
 38 H       -4.7520     3.4020    -1.1150 H     1 <1>   0.0800 
 39 H       -4.6260     4.9970    -1.8060 H     1 <1>   0.0800 
 40 H       -6.9340     3.9100    -0.1940 H     1 <1>   0.0800 
 41 H       -6.9540     4.1690    -1.9070 H     1 <1>   0.0800 
 42 H       -7.2510     6.4640    -1.6960 H     1 <1>   0.0800 
 43 H       -8.0230     5.9170    -0.2500 H     1 <1>   0.0800 
 44 H       -5.0390     7.3300    -1.7720 H     1 <1>   0.0800 
 45 H       -4.2650     7.8920    -0.3210 H     1 <1>   0.0800 
 46 H       -6.5160     9.1940    -1.7670 H     1 <1>   0.0800 
 47 H       -5.1880     9.9290    -0.8680 H     1 <1>   0.0800 
 48 H       -7.3880    11.1610     0.5630 H     1 <1>   0.1500 
 49 H       -9.6020     9.2210     3.7790 H     1 <1>   0.4000 
 50 H       -9.2190     7.5340     3.7140 H     1 <1>   0.4000 
@<TRIPOS>BOND
  1   1   2  1   
  2   2   3  1   
  3   2   4  1   
  4   2   5  1   
  5   5   6  ar  
  6   5   7  ar  
  7   6   8  ar  
  8   7   9  ar  
  9   7  29  1   
 10   8  10  ar  
 11   8  11  1   
 12   9  10  ar  
 13   9  12  1   
 14  11  13  1   
 15  11  14  1   
 16  12  15  1   
 17  12  16  1   
 18  13  30  1   
 19  13  31  1   
 20  13  32  1   
 21  14  33  1   
 22  14  34  1   
 23  14  35  1   
 24  15  17  1   
 25  15  36  1   
 26  15  37  1   
 27  16  18  1   
 28  16  38  1   
 29  16  39  1   
 30  17  19  1   
 31  17  20  1   
 32  17  21  1   
 33  18  20  1   
 34  18  40  1   
 35  18  41  1   
 36  19  22  ar  
 37  19  23  ar  
 38  20  42  1   
 39  20  43  1   
 40  21  24  1   
 41  21  44  1   
 42  21  45  1   
 43  22  25  ar  
 44  23  24  1   
 45  23  26  ar  
 46  24  46  1   
 47  24  47  1   
 48  25  27  ar  
 49  25  28  1   
 50  26  27  ar  
 51  26  48  1   
 52  28  49  1   
 53  28  50  1   
@<TRIPOS>SUBSTRUCTURE
  1 ****  12 GROUP 4 **** **** 0

# MOE 2024.06 (io_trps.svl 2023.06)
