@<TRIPOS>MOLECULE
NONAME
57 60 1 0 0 
SMALL
USER_CHARGES


@<TRIPOS>ATOM
  1 O       -2.4450     0.4230    -1.7680 O.2   1 <1>  -0.5700 
  2 C       -2.3430     0.4430    -0.5660 C.2   1 <1>   0.5690 
  3 N       -2.1990    -0.7010     0.1530 N.am  1 <1>  -0.7300 
  4 C       -2.3490     1.8090     0.1420 C.3   1 <1>   0.4040 
  5 C       -2.1020    -2.0690    -0.4220 C.3   1 <1>   0.2200 
  6 N       -1.0500     2.5860     0.0320 N.4   1 <1>  -0.9590 
  7 C       -3.3830    -2.8640    -0.1820 C.3   1 <1>  -0.0800 
  8 C       -1.1350    -2.8610     0.4440 C.3   1 <1>   0.1200 
  9 C       -1.0500     3.7670     0.9520 C.3   1 <1>   0.4230 
 10 C       -0.7500     2.9000    -1.4090 C.3   1 <1>   0.2630 
 11 C       -3.2020    -3.3650     1.2610 C.3   1 <1>   0.1200 
 12 C       -4.6960    -2.0980    -0.4430 C.3   1 <1>  -0.0170 
 13 O       -1.8660    -3.1250     1.5990 O.3   1 <1>  -0.5600 
 14 C       -1.9550     4.9070     0.4750 C.3   1 <1>  -0.1600 
 15 C        0.3390     4.3970     1.0370 C.3   1 <1>  -0.1600 
 16 C       -5.9970    -2.8980    -0.3060 C.ar  1 <1>  -0.1440 
 17 C       -1.0790     5.8810    -0.3230 C.3   1 <1>  -0.1600 
 18 C        0.3740     5.5740     0.0530 C.3   1 <1>  -0.1600 
 19 C       -7.2420    -2.2220    -0.3600 C.ar  1 <1>   0.0000 
 20 C       -6.0380    -4.2540    -0.1370 C.ar  1 <1>  -0.1500 
 21 C       -8.4230    -2.9880    -0.1910 C.ar  1 <1>   0.3100 
 22 C       -7.3880    -0.8310    -0.5790 C.ar  1 <1>  -0.1500 
 23 C       -7.2620    -4.9170     0.0070 C.ar  1 <1>   0.1600 
 24 N       -8.4150    -4.3310    -0.0090 N.ar  1 <1>  -0.6200 
 25 C       -9.6670    -2.3390    -0.2190 C.ar  1 <1>  -0.1500 
 26 C       -8.6170    -0.2300    -0.6060 C.ar  1 <1>  -0.1500 
 27 C       -9.7730    -0.9900    -0.4200 C.ar  1 <1>  -0.1500 
 28 H       -2.1620    -0.7280     1.1780 H     1 <1>   0.3700 
 29 H       -2.5810     1.6430     1.1790 H     1 <1>   0.0800 
 30 H       -3.1490     2.3900    -0.2840 H     1 <1>   0.0800 
 31 H       -1.8100    -2.0410    -1.4590 H     1 <1>   0.0800 
 32 H       -0.2990     1.9630     0.3570 H     1 <1>   0.4500 
 33 H       -3.3520    -3.7160    -0.8380 H     1 <1>   0.0800 
 34 H       -0.2410    -2.3160     0.6910 H     1 <1>   0.0800 
 35 H       -0.8780    -3.8010    -0.0150 H     1 <1>   0.0800 
 36 H       -1.3560     3.4450     1.9350 H     1 <1>   0.0800 
 37 H       -1.5210     3.5260    -1.8260 H     1 <1>   0.0800 
 38 H       -0.6970     1.9930    -1.9910 H     1 <1>   0.0800 
 39 H        0.1940     3.4110    -1.4940 H     1 <1>   0.0800 
 40 H       -3.3930    -4.4210     1.3470 H     1 <1>   0.0800 
 41 H       -3.8230    -2.8270     1.9570 H     1 <1>   0.0800 
 42 H       -4.6580    -1.6900    -1.4390 H     1 <1>   0.0800 
 43 H       -4.7490    -1.2750     0.2460 H     1 <1>   0.0800 
 44 H       -2.8110     4.5770    -0.0850 H     1 <1>   0.0800 
 45 H       -2.3110     5.4270     1.3480 H     1 <1>   0.0800 
 46 H        0.4580     4.7940     2.0300 H     1 <1>   0.0800 
 47 H        1.1340     3.6940     0.8630 H     1 <1>   0.0800 
 48 H       -1.2230     5.7410    -1.3810 H     1 <1>   0.0800 
 49 H       -1.3310     6.9010    -0.0850 H     1 <1>   0.0800 
 50 H        0.8390     6.4320     0.5110 H     1 <1>   0.0800 
 51 H        0.9390     5.3200    -0.8270 H     1 <1>   0.0800 
 52 H       -5.1580    -4.8660    -0.1060 H     1 <1>   0.1500 
 53 H       -6.5170    -0.2250    -0.7370 H     1 <1>   0.1500 
 54 H       -7.2430    -5.9850     0.1420 H     1 <1>   0.1500 
 55 H      -10.5430    -2.9460    -0.0780 H     1 <1>   0.1500 
 56 H       -8.7140     0.8290    -0.7730 H     1 <1>   0.1500 
 57 H      -10.7350    -0.5070    -0.4400 H     1 <1>   0.1500 
@<TRIPOS>BOND
  1   1   2  2   
  2   2   3  am  
  3   2   4  1   
  4   3   5  1   
  5   3  28  1   
  6   4   6  1   
  7   4  29  1   
  8   4  30  1   
  9   5   7  1   
 10   5   8  1   
 11   5  31  1   
 12   6   9  1   
 13   6  10  1   
 14   6  32  1   
 15   7  11  1   
 16   7  12  1   
 17   7  33  1   
 18   8  13  1   
 19   8  34  1   
 20   8  35  1   
 21   9  14  1   
 22   9  15  1   
 23   9  36  1   
 24  10  37  1   
 25  10  38  1   
 26  10  39  1   
 27  11  13  1   
 28  11  40  1   
 29  11  41  1   
 30  12  16  1   
 31  12  42  1   
 32  12  43  1   
 33  14  17  1   
 34  14  44  1   
 35  14  45  1   
 36  15  18  1   
 37  15  46  1   
 38  15  47  1   
 39  16  19  ar  
 40  16  20  ar  
 41  17  18  1   
 42  17  48  1   
 43  17  49  1   
 44  18  50  1   
 45  18  51  1   
 46  19  21  ar  
 47  19  22  ar  
 48  20  23  ar  
 49  20  52  1   
 50  21  24  ar  
 51  21  25  ar  
 52  22  26  ar  
 53  22  53  1   
 54  23  24  ar  
 55  23  54  1   
 56  25  27  ar  
 57  25  55  1   
 58  26  27  ar  
 59  26  56  1   
 60  27  57  1   
@<TRIPOS>SUBSTRUCTURE
  1 ****  12 GROUP 4 **** **** 0

# MOE 2024.06 (io_trps.svl 2023.06)
