@<TRIPOS>MOLECULE
NONAME
46 49 1 0 0 
SMALL
USER_CHARGES


@<TRIPOS>ATOM
  1 F       -1.9610    -0.8890     1.8240 F     1 <1>  -0.3400 
  2 C       -2.8150    -0.8960     0.8050 C.3   1 <1>   1.1640 
  3 F       -2.0910    -0.5950    -0.2710 F     1 <1>  -0.3400 
  4 F       -3.6260     0.1430     0.9900 F     1 <1>  -0.3400 
  5 C       -3.5910    -2.2390     0.6620 C.ar  1 <1>   0.1660 
  6 N       -4.2480    -2.7220     1.7250 N.ar  1 <1>  -0.6200 
  7 C       -3.5960    -2.9060    -0.5620 C.ar  1 <1>  -0.1500 
  8 C       -4.9060    -3.8570     1.5600 C.ar  1 <1>   0.1600 
  9 C       -4.2980    -4.0820    -0.7160 C.ar  1 <1>  -0.1500 
 10 C       -4.9980    -4.5740     0.3730 C.ar  1 <1>   0.0860 
 11 C       -5.8080    -5.7670     0.2870 C.2   1 <1>   0.5440 
 12 O       -5.2770    -6.8230     0.0070 O.2   1 <1>  -0.5700 
 13 N       -7.1710    -5.7290     0.4920 N.am  1 <1>  -0.6600 
 14 C       -7.9620    -4.4640     0.6230 C.3   1 <1>   0.1400 
 15 C       -7.9820    -6.9860     0.4310 C.3   1 <1>   0.1400 
 16 C       -8.9610    -4.3100    -0.5430 C.3   1 <1>   0.1430 
 17 C       -9.4830    -6.7030     0.2420 C.3   1 <1>  -0.1600 
 18 C       -9.8780    -3.1560    -0.1770 C.ar  1 <1>   0.1670 
 19 C       -9.7190    -5.6340    -0.8380 C.3   1 <1>  -0.1600 
 20 C       -8.2550    -3.7650    -1.8150 C.3   1 <1>  -0.1600 
 21 N      -10.8570    -3.2070     0.6990 N.ar  1 <1>  -0.6200 
 22 C       -9.5460    -2.0180    -0.8500 C.ar  1 <1>  -0.1430 
 23 C       -8.3720    -2.2320    -1.7710 C.3   1 <1>  -0.0170 
 24 C      -11.5050    -2.0620     0.8630 C.ar  1 <1>   0.4770 
 25 C      -10.2820    -0.8870    -0.6000 C.ar  1 <1>   0.1600 
 26 N      -11.2750    -0.9000     0.2650 N.ar  1 <1>  -0.6200 
 27 C      -12.6460    -2.0750     1.8510 C.3   1 <1>  -0.0970 
 28 H       -3.0540    -2.5150    -1.4080 H     1 <1>   0.1500 
 29 H       -5.4240    -4.2490     2.4200 H     1 <1>   0.1500 
 30 H       -4.3120    -4.6150    -1.6520 H     1 <1>   0.1500 
 31 H       -7.3300    -3.5960     0.6580 H     1 <1>   0.0800 
 32 H       -8.5060    -4.4980     1.5520 H     1 <1>   0.0800 
 33 H       -7.8250    -7.5530     1.3320 H     1 <1>   0.0800 
 34 H       -7.6330    -7.5810    -0.3970 H     1 <1>   0.0800 
 35 H       -9.9080    -6.3770     1.1760 H     1 <1>   0.0800 
 36 H       -9.9810    -7.6160    -0.0330 H     1 <1>   0.0800 
 37 H       -9.3850    -6.0480    -1.7730 H     1 <1>   0.0800 
 38 H      -10.7740    -5.4420    -0.9330 H     1 <1>   0.0800 
 39 H       -8.7830    -4.1020    -2.6900 H     1 <1>   0.0800 
 40 H       -7.2340    -4.0930    -1.8900 H     1 <1>   0.0800 
 41 H       -8.5510    -1.8190    -2.7490 H     1 <1>   0.0800 
 42 H       -7.4880    -1.7920    -1.3420 H     1 <1>   0.0800 
 43 H      -10.0580     0.0360    -1.1060 H     1 <1>   0.1500 
 44 H      -12.6280    -2.9760     2.4350 H     1 <1>   0.0800 
 45 H      -13.5760    -2.0180     1.3190 H     1 <1>   0.0800 
 46 H      -12.5620    -1.2300     2.5090 H     1 <1>   0.0800 
@<TRIPOS>BOND
  1   1   2  1   
  2   2   3  1   
  3   2   4  1   
  4   2   5  1   
  5   5   6  ar  
  6   5   7  ar  
  7   6   8  ar  
  8   7   9  ar  
  9   7  28  1   
 10   8  10  ar  
 11   8  29  1   
 12   9  10  ar  
 13   9  30  1   
 14  10  11  1   
 15  11  12  2   
 16  11  13  am  
 17  13  14  1   
 18  13  15  1   
 19  14  16  1   
 20  14  31  1   
 21  14  32  1   
 22  15  17  1   
 23  15  33  1   
 24  15  34  1   
 25  16  18  1   
 26  16  19  1   
 27  16  20  1   
 28  17  19  1   
 29  17  35  1   
 30  17  36  1   
 31  18  21  ar  
 32  18  22  ar  
 33  19  37  1   
 34  19  38  1   
 35  20  23  1   
 36  20  39  1   
 37  20  40  1   
 38  21  24  ar  
 39  22  23  1   
 40  22  25  ar  
 41  23  41  1   
 42  23  42  1   
 43  24  26  ar  
 44  24  27  1   
 45  25  26  ar  
 46  25  43  1   
 47  27  44  1   
 48  27  45  1   
 49  27  46  1   
@<TRIPOS>SUBSTRUCTURE
  1 ****  14 GROUP 4 **** **** 0

# MOE 2024.06 (io_trps.svl 2023.06)
