@<TRIPOS>MOLECULE
NONAME
45 47 1 0 0 
SMALL
USER_CHARGES


@<TRIPOS>ATOM
  1 S       -1.5440    -1.1670    -2.0060 S.3   1 <1>  -0.4600 
  2 C       -1.9030    -0.1800    -0.5060 C.3   1 <1>   0.1310 
  3 C       -0.2470    -2.3060    -1.4480 C.3   1 <1>  -0.0100 
  4 C       -2.2370    -1.0720     0.6870 C.2   1 <1>   0.5690 
  5 O       -1.3980    -1.1550     1.5550 O.2   1 <1>  -0.5700 
  6 N       -3.4290    -1.7520     0.7690 N.am  1 <1>  -0.6600 
  7 C       -4.4740    -1.7860    -0.2920 C.3   1 <1>   0.1400 
  8 C       -3.7330    -2.6560     1.9120 C.3   1 <1>   0.1400 
  9 C       -4.5710    -3.2100    -0.8440 C.3   1 <1>  -0.1600 
 10 C       -3.8260    -4.0940     1.3970 C.3   1 <1>  -0.1600 
 11 C       -4.8590    -4.2350     0.2680 C.3   1 <1>   0.4240 
 12 O       -6.0950    -3.9020     0.8550 O.3   1 <1>  -0.5600 
 13 C       -4.8550    -5.6770    -0.2860 C.ar  1 <1>  -0.1430 
 14 C       -7.2510    -4.3730     0.2370 C.3   1 <1>   0.1200 
 15 C       -6.0000    -6.4660    -0.2490 C.ar  1 <1>  -0.1430 
 16 C       -3.6980    -6.2140    -0.8410 C.ar  1 <1>  -0.1500 
 17 C       -7.2760    -5.8950     0.3360 C.3   1 <1>  -0.0170 
 18 C       -5.9840    -7.7620    -0.7420 C.ar  1 <1>  -0.1500 
 19 C       -3.6810    -7.5050    -1.3360 C.ar  1 <1>  -0.1500 
 20 C       -4.8190    -8.2890    -1.2890 C.ar  1 <1>   0.0830 
 21 O       -4.7190    -9.5450    -1.7920 O.3   1 <1>  -0.3630 
 22 C       -5.8140   -10.4330    -1.7720 C.3   1 <1>   0.0400 
 23 H       -2.7180     0.4780    -0.7360 H     1 <1>   0.0800 
 24 H       -1.0230     0.3990    -0.2970 H     1 <1>   0.0800 
 25 H        0.0780    -2.8770    -2.2990 H     1 <1>   0.0800 
 26 H       -0.6660    -2.9480    -0.6930 H     1 <1>   0.0800 
 27 H        0.5610    -1.7210    -1.0460 H     1 <1>   0.0800 
 28 H       -4.2470    -1.1050    -1.0920 H     1 <1>   0.0800 
 29 H       -5.4180    -1.4930     0.1350 H     1 <1>   0.0800 
 30 H       -4.6670    -2.3610     2.3590 H     1 <1>   0.0800 
 31 H       -2.9680    -2.5900     2.6680 H     1 <1>   0.0800 
 32 H       -3.6380    -3.4460    -1.3210 H     1 <1>   0.0800 
 33 H       -5.3300    -3.2620    -1.6000 H     1 <1>   0.0800 
 34 H       -4.0940    -4.7540     2.2020 H     1 <1>   0.0800 
 35 H       -2.8530    -4.3860     1.0510 H     1 <1>   0.0800 
 36 H       -7.2620    -4.0510    -0.7890 H     1 <1>   0.0800 
 37 H       -8.0960    -3.9490     0.7500 H     1 <1>   0.0800 
 38 H       -2.7950    -5.6320    -0.8940 H     1 <1>   0.1500 
 39 H       -8.1310    -6.2700    -0.1980 H     1 <1>   0.0800 
 40 H       -7.3640    -6.1860     1.3670 H     1 <1>   0.0800 
 41 H       -6.8820    -8.3460    -0.6940 H     1 <1>   0.1500 
 42 H       -2.7830    -7.9140    -1.7620 H     1 <1>   0.1500 
 43 H       -5.4980   -11.3620    -2.2110 H     1 <1>   0.0800 
 44 H       -6.6160   -10.0100    -2.3500 H     1 <1>   0.0800 
 45 H       -6.1150   -10.5930    -0.7520 H     1 <1>   0.0800 
@<TRIPOS>BOND
  1   1   2  1   
  2   1   3  1   
  3   2   4  1   
  4   2  23  1   
  5   2  24  1   
  6   3  25  1   
  7   3  26  1   
  8   3  27  1   
  9   4   5  2   
 10   4   6  am  
 11   6   7  1   
 12   6   8  1   
 13   7   9  1   
 14   7  28  1   
 15   7  29  1   
 16   8  10  1   
 17   8  30  1   
 18   8  31  1   
 19   9  11  1   
 20   9  32  1   
 21   9  33  1   
 22  10  11  1   
 23  10  34  1   
 24  10  35  1   
 25  11  12  1   
 26  11  13  1   
 27  12  14  1   
 28  13  15  ar  
 29  13  16  ar  
 30  14  17  1   
 31  14  36  1   
 32  14  37  1   
 33  15  17  1   
 34  15  18  ar  
 35  16  19  ar  
 36  16  38  1   
 37  17  39  1   
 38  17  40  1   
 39  18  20  ar  
 40  18  41  1   
 41  19  20  ar  
 42  19  42  1   
 43  20  21  1   
 44  21  22  1   
 45  22  43  1   
 46  22  44  1   
 47  22  45  1   
@<TRIPOS>SUBSTRUCTURE
  1 ****  11 GROUP 4 **** **** 0

# MOE 2024.06 (io_trps.svl 2023.06)
