@<TRIPOS>MOLECULE
NONAME
40 41 1 0 0 
SMALL
USER_CHARGES


@<TRIPOS>ATOM
  1 S        1.0340     0.6780     0.1660 S.3   1 <1>  -0.0800 
  2 C       -0.5800     1.3220     0.3000 C.2   1 <1>  -0.1400 
  3 C        0.3570    -0.9320     0.0970 C.2   1 <1>   0.2280 
  4 C       -1.4520     0.2980     0.2800 C.2   1 <1>   0.0460 
  5 C       -0.7210     2.8290     0.4150 C.3   1 <1>   0.0200 
  6 N       -0.9130    -0.9720     0.1640 N.2   1 <1>  -0.5650 
  7 C       -2.9610     0.3720     0.3660 C.3   1 <1>  -0.0590 
  8 C       -0.4480     3.5030    -0.9340 C.3   1 <1>  -0.0990 
  9 C       -0.5340     5.0070    -0.8040 C.2   1 <1>   0.5690 
 10 O       -1.6290     5.5100    -0.7500 O.2   1 <1>  -0.5700 
 11 N        0.6380     5.7100    -0.7400 N.am  1 <1>  -0.4940 
 12 C        0.8360     7.1060    -0.5860 C.2   1 <1>  -0.0880 
 13 N        2.0480     7.7240    -0.5350 N.pl3 1 <1>   0.3140 
 14 C       -0.0860     8.0880    -0.4560 C.2   1 <1>  -0.1500 
 15 N        1.9200     9.0600    -0.3780 N.2   1 <1>  -0.7070 
 16 C        3.3810     7.1000    -0.6460 C.3   1 <1>   0.0960 
 17 C        0.6430     9.2640    -0.3320 C.2   1 <1>   0.1080 
 18 C        3.7950     6.4420     0.6790 C.3   1 <1>  -0.1600 
 19 C        0.0490    10.6420    -0.1620 C.3   1 <1>  -0.0590 
 20 C        5.1520     5.7400     0.5540 C.3   1 <1>  -0.2400 
 21 H        1.0460    -1.7520     0.0040 H     1 <1>   0.1500 
 22 H       -0.0340     3.1930     1.1590 H     1 <1>   0.0800 
 23 H       -1.7150     3.0790     0.7400 H     1 <1>   0.0800 
 24 H       -3.2980     1.3890     0.4310 H     1 <1>   0.0800 
 25 H       -3.2980    -0.1640     1.2350 H     1 <1>   0.0800 
 26 H       -3.3930    -0.0810    -0.5080 H     1 <1>   0.0800 
 27 H       -1.1820     3.1780    -1.6490 H     1 <1>   0.0800 
 28 H        0.5210     3.2210    -1.3020 H     1 <1>   0.0800 
 29 H        1.4830     5.1450    -0.7960 H     1 <1>   0.3700 
 30 H       -1.1570     7.9980    -0.4480 H     1 <1>   0.1500 
 31 H        4.0870     7.8660    -0.9100 H     1 <1>   0.0800 
 32 H        3.3540     6.3760    -1.4390 H     1 <1>   0.0800 
 33 H        3.0530     5.7230     0.9810 H     1 <1>   0.0800 
 34 H        3.8580     7.2010     1.4400 H     1 <1>   0.0800 
 35 H       -1.0240    10.5890    -0.1490 H     1 <1>   0.0800 
 36 H        0.3630    11.2690    -0.9750 H     1 <1>   0.0800 
 37 H        0.3930    11.0680     0.7620 H     1 <1>   0.0800 
 38 H        5.1130     4.9620    -0.1880 H     1 <1>   0.0800 
 39 H        5.4250     5.2990     1.4970 H     1 <1>   0.0800 
 40 H        5.9160     6.4460     0.2770 H     1 <1>   0.0800 
@<TRIPOS>BOND
  1   1   2  1   
  2   1   3  1   
  3   2   4  2   
  4   2   5  1   
  5   3   6  2   
  6   3  21  1   
  7   4   6  1   
  8   4   7  1   
  9   5   8  1   
 10   5  22  1   
 11   5  23  1   
 12   7  24  1   
 13   7  25  1   
 14   7  26  1   
 15   8   9  1   
 16   8  27  1   
 17   8  28  1   
 18   9  10  2   
 19   9  11  am  
 20  11  12  1   
 21  11  29  1   
 22  12  13  1   
 23  12  14  2   
 24  13  15  1   
 25  13  16  1   
 26  14  17  1   
 27  14  30  1   
 28  15  17  2   
 29  16  18  1   
 30  16  31  1   
 31  16  32  1   
 32  17  19  1   
 33  18  20  1   
 34  18  33  1   
 35  18  34  1   
 36  19  35  1   
 37  19  36  1   
 38  19  37  1   
 39  20  38  1   
 40  20  39  1   
 41  20  40  1   
@<TRIPOS>SUBSTRUCTURE
  1 ****  11 GROUP 4 **** **** 0

# MOE 2024.06 (io_trps.svl 2023.06)
