@<TRIPOS>MOLECULE
S3861 Sodium Demethylcantharidate.cdx
21 22 1 0 0 
SMALL
USER_CHARGES


@<TRIPOS>ATOM
  1 O       -2.2830    -3.5580    -1.9660 O.co2 1 <1>  -0.9000 
  2 C       -2.6530    -2.9790    -0.9320 C.2   1 <1>   0.9060 
  3 O       -2.1610    -3.2820     0.1630 O.co2 1 <1>  -0.9000 
  4 C       -3.9000    -2.1040    -1.0380 C.3   1 <1>  -0.1860 
  5 C       -3.8640    -0.5510    -0.9390 C.3   1 <1>  -0.1860 
  6 C       -4.9050    -2.4410     0.0690 C.3   1 <1>   0.2000 
  7 C       -2.5580     0.2200    -0.7680 C.2   1 <1>   0.9060 
  8 C       -4.8630    -0.3160     0.2040 C.3   1 <1>   0.2000 
  9 O       -4.6970    -1.4360     0.9890 O.3   1 <1>  -0.5600 
 10 C       -6.3300    -2.0880    -0.3770 C.3   1 <1>  -0.1600 
 11 O       -2.3620     0.9150     0.2410 O.co2 1 <1>  -0.9000 
 12 O       -1.8210     0.3330    -1.7560 O.co2 1 <1>  -0.9000 
 13 C       -6.2990    -0.5550    -0.2820 C.3   1 <1>  -0.1600 
 14 H       -4.3290    -2.3680    -1.9840 H     1 <1>   0.0800 
 15 H       -4.2760    -0.1470    -1.8420 H     1 <1>   0.0800 
 16 H       -4.7810    -3.4130     0.5150 H     1 <1>   0.0800 
 17 H       -4.7150     0.5870     0.7720 H     1 <1>   0.0800 
 18 H       -7.0380    -2.5040     0.3160 H     1 <1>   0.0800 
 19 H       -6.5390    -2.4440    -1.3690 H     1 <1>   0.0800 
 20 H       -6.4880    -0.0720    -1.2230 H     1 <1>   0.0800 
 21 H       -6.9930    -0.1990     0.4560 H     1 <1>   0.0800 
@<TRIPOS>BOND
  1   1   2  ar  
  2   2   3  ar  
  3   2   4  1   
  4   4   5  1   
  5   4   6  1   
  6   4  14  1   
  7   5   7  1   
  8   5   8  1   
  9   5  15  1   
 10   6   9  1   
 11   6  10  1   
 12   6  16  1   
 13   7  11  ar  
 14   7  12  ar  
 15   8   9  1   
 16   8  13  1   
 17   8  17  1   
 18  10  13  1   
 19  10  18  1   
 20  10  19  1   
 21  13  20  1   
 22  13  21  1   
@<TRIPOS>SUBSTRUCTURE
  1 ****   4 GROUP 4 **** **** 0

# MOE 2024.06 (io_trps.svl 2023.06)
