@<TRIPOS>MOLECULE
NONAME
55 57 1 0 0 
SMALL
USER_CHARGES


@<TRIPOS>ATOM
  1 CL      -0.9190    -1.1710    -1.6740 Cl    1 <1>  -0.1770 
  2 C       -2.5030    -1.6500    -1.1200 C.ar  1 <1>   0.1770 
  3 C       -3.5730    -1.5890    -1.9920 C.ar  1 <1>  -0.1500 
  4 C       -2.6630    -2.0830     0.1820 C.ar  1 <1>  -0.1500 
  5 C       -4.8290    -1.9700    -1.5490 C.ar  1 <1>  -0.1500 
  6 C       -3.9210    -2.4620     0.6200 C.ar  1 <1>  -0.1500 
  7 C       -5.0080    -2.4070    -0.2430 C.ar  1 <1>  -0.1430 
  8 C       -6.3900    -2.8180     0.2370 C.3   1 <1>  -0.0160 
  9 C       -7.1680    -1.5880     0.7070 C.3   1 <1>   0.1400 
 10 N       -8.5080    -1.9880     1.2140 N.am  1 <1>  -0.7300 
 11 C       -9.6540    -1.9140     0.4790 C.2   1 <1>   0.5690 
 12 O       -9.6500    -1.5370    -0.6690 O.2   1 <1>  -0.5700 
 13 C      -11.0150    -2.3010     1.0880 C.3   1 <1>   0.4040 
 14 N      -12.1850    -1.6720     0.3670 N.4   1 <1>  -0.9590 
 15 C      -13.4900    -2.3460     0.6540 C.3   1 <1>   0.3430 
 16 C      -12.2420    -0.1970     0.5760 C.3   1 <1>   0.3430 
 17 C      -14.6200    -1.7990    -0.2430 C.3   1 <1>   0.0000 
 18 C      -13.3270     0.4050    -0.3160 C.3   1 <1>  -0.1600 
 19 C      -15.9310    -2.5170     0.1370 C.3   1 <1>   0.2000 
 20 C      -14.6940    -0.2610    -0.0910 C.3   1 <1>  -0.1600 
 21 C      -14.4070    -2.2370    -1.7040 C.3   1 <1>  -0.1600 
 22 O      -17.0060    -1.7930    -0.3790 O.3   1 <1>  -0.5600 
 23 C      -15.8570    -3.8700    -0.5830 C.3   1 <1>  -0.1600 
 24 C      -14.9230    -3.6770    -1.7860 C.3   1 <1>  -0.1600 
 25 C      -18.2390    -2.0270     0.2310 C.3   1 <1>   0.0400 
 26 H       -3.4220    -1.2490    -3.0000 H     1 <1>   0.1500 
 27 H       -1.8140    -2.1220     0.8400 H     1 <1>   0.1500 
 28 H       -5.6650    -1.9230    -2.2260 H     1 <1>   0.1500 
 29 H       -4.0460    -2.8010     1.6340 H     1 <1>   0.1500 
 30 H       -6.2960    -3.5230     1.0440 H     1 <1>   0.0800 
 31 H       -6.9200    -3.2920    -0.5690 H     1 <1>   0.0800 
 32 H       -7.2760    -0.9000    -0.1160 H     1 <1>   0.0800 
 33 H       -6.6220    -1.0870     1.4880 H     1 <1>   0.0800 
 34 H       -8.5000    -2.3450     2.1740 H     1 <1>   0.3700 
 35 H      -11.0300    -2.0140     2.1250 H     1 <1>   0.0800 
 36 H      -11.0990    -3.3720     1.0330 H     1 <1>   0.0800 
 37 H      -11.9760    -1.7900    -0.6390 H     1 <1>   0.4500 
 38 H      -13.3970    -3.4070     0.4880 H     1 <1>   0.0800 
 39 H      -13.7570    -2.1880     1.6860 H     1 <1>   0.0800 
 40 H      -12.4640     0.0200     1.6080 H     1 <1>   0.0800 
 41 H      -11.2910     0.2490     0.3280 H     1 <1>   0.0800 
 42 H      -13.4080     1.4580    -0.1060 H     1 <1>   0.0800 
 43 H      -13.0340     0.3110    -1.3470 H     1 <1>   0.0800 
 44 H      -16.0530    -2.6120     1.2040 H     1 <1>   0.0800 
 45 H      -15.4050     0.1480    -0.7910 H     1 <1>   0.0800 
 46 H      -15.0480    -0.0190     0.8960 H     1 <1>   0.0800 
 47 H      -15.0240    -1.6280    -2.3440 H     1 <1>   0.0800 
 48 H      -13.3910    -2.1550    -2.0460 H     1 <1>   0.0800 
 49 H      -15.4370    -4.6070     0.0780 H     1 <1>   0.0800 
 50 H      -16.8280    -4.2130    -0.8950 H     1 <1>   0.0800 
 51 H      -14.1090    -4.3800    -1.7410 H     1 <1>   0.0800 
 52 H      -15.4560    -3.8290    -2.7100 H     1 <1>   0.0800 
 53 H      -18.9780    -1.4310    -0.2750 H     1 <1>   0.0800 
 54 H      -18.1860    -1.7340     1.2650 H     1 <1>   0.0800 
 55 H      -18.4970    -3.0670     0.1440 H     1 <1>   0.0800 
@<TRIPOS>BOND
  1   1   2  1   
  2   2   3  ar  
  3   2   4  ar  
  4   3   5  ar  
  5   3  26  1   
  6   4   6  ar  
  7   4  27  1   
  8   5   7  ar  
  9   5  28  1   
 10   6   7  ar  
 11   6  29  1   
 12   7   8  1   
 13   8   9  1   
 14   8  30  1   
 15   8  31  1   
 16   9  10  1   
 17   9  32  1   
 18   9  33  1   
 19  10  11  am  
 20  10  34  1   
 21  11  12  2   
 22  11  13  1   
 23  13  14  1   
 24  13  35  1   
 25  13  36  1   
 26  14  15  1   
 27  14  16  1   
 28  14  37  1   
 29  15  17  1   
 30  15  38  1   
 31  15  39  1   
 32  16  18  1   
 33  16  40  1   
 34  16  41  1   
 35  17  19  1   
 36  17  20  1   
 37  17  21  1   
 38  18  20  1   
 39  18  42  1   
 40  18  43  1   
 41  19  22  1   
 42  19  23  1   
 43  19  44  1   
 44  20  45  1   
 45  20  46  1   
 46  21  24  1   
 47  21  47  1   
 48  21  48  1   
 49  22  25  1   
 50  23  24  1   
 51  23  49  1   
 52  23  50  1   
 53  24  51  1   
 54  24  52  1   
 55  25  53  1   
 56  25  54  1   
 57  25  55  1   
@<TRIPOS>SUBSTRUCTURE
  1 ****  12 GROUP 4 **** **** 0

# MOE 2024.06 (io_trps.svl 2023.06)
