@<TRIPOS>MOLECULE
NONAME
47 50 1 0 0 
SMALL
USER_CHARGES


@<TRIPOS>ATOM
  1 S       -1.2110    -0.6200    -1.4140 S.3   1 <1>  -0.0880 
  2 C       -2.0780    -0.8660     0.0990 C.2   1 <1>  -0.1480 
  3 C       -1.4900     1.1100    -1.3450 C.2   1 <1>  -0.1180 
  4 C       -2.5220     0.3110     0.5790 C.2   1 <1>  -0.1580 
  5 C       -2.2070    -2.2820     0.6370 C.3   1 <1>   0.3740 
  6 C       -2.1890     1.4350    -0.2430 C.2   1 <1>  -0.1580 
  7 O       -0.9300    -2.7450     0.8620 O.3   1 <1>  -0.6840 
  8 C       -2.9330    -3.2460    -0.3290 C.3   1 <1>  -0.0880 
  9 C       -4.3470    -2.7400    -0.6790 C.3   1 <1>  -0.1680 
 10 C       -3.0270    -4.6740     0.2460 C.3   1 <1>  -0.1680 
 11 C       -5.0700    -3.7160    -1.6100 C.3   1 <1>   0.1600 
 12 C       -3.7930    -5.6270    -0.6770 C.3   1 <1>   0.1600 
 13 N       -5.1410    -5.0640    -0.9760 N.pl3 1 <1>  -0.5970 
 14 C       -6.3040    -5.6280    -0.5920 C.cat 1 <1>   1.0690 
 15 N       -7.3950    -4.9160    -0.3300 N.pl3 1 <1>  -0.7040 
 16 N       -6.5660    -6.9380    -0.4030 N.pl3 1 <1>  -0.7680 
 17 C       -8.4010    -5.7610     0.0800 C.ar  1 <1>   0.3020 
 18 C       -7.8820    -7.0390     0.0420 C.ar  1 <1>   0.3020 
 19 C       -5.7820    -8.1330    -0.8060 C.3   1 <1>   0.2670 
 20 C       -9.7020    -5.5190     0.4790 C.ar  1 <1>  -0.1170 
 21 C       -8.6730    -8.1200     0.4120 C.ar  1 <1>  -0.1170 
 22 C      -10.5170    -6.5830     0.8530 C.ar  1 <1>  -0.1870 
 23 C       -9.9730    -7.8810     0.8100 C.ar  1 <1>  -0.1580 
 24 C      -11.8890    -6.3460     1.2740 C.2   1 <1>   0.9770 
 25 O      -12.3290    -5.1850     1.3030 O.co2 1 <1>  -0.9030 
 26 O      -12.6220    -7.2910     1.6030 O.co2 1 <1>  -0.9030 
 27 H       -1.0950     1.7090    -2.1470 H     1 <1>   0.1420 
 28 H       -3.0770     0.4480     1.4910 H     1 <1>   0.1420 
 29 H       -2.7130    -2.2670     1.5870 H     1 <1>   0.0720 
 30 H       -2.4890     2.4300     0.0350 H     1 <1>   0.1420 
 31 H       -0.3250    -2.2280     0.2940 H     1 <1>   0.3940 
 32 H       -2.3640    -3.2870    -1.2430 H     1 <1>   0.0720 
 33 H       -4.2780    -1.7870    -1.1740 H     1 <1>   0.0720 
 34 H       -4.9240    -2.6000     0.2180 H     1 <1>   0.0720 
 35 H       -3.5070    -4.6500     1.2090 H     1 <1>   0.0720 
 36 H       -2.0360    -5.0680     0.3930 H     1 <1>   0.0720 
 37 H       -4.5240    -3.7940    -2.5360 H     1 <1>   0.0720 
 38 H       -6.0510    -3.3410    -1.8450 H     1 <1>   0.0720 
 39 H       -3.8670    -6.5760    -0.1800 H     1 <1>   0.0720 
 40 H       -3.2480    -5.7620    -1.5960 H     1 <1>   0.0720 
 41 H       -7.4610    -3.9040    -0.3480 H     1 <1>   0.4440 
 42 H       -5.0860    -7.8830    -1.5880 H     1 <1>   0.0720 
 43 H       -6.4420    -8.8970    -1.1820 H     1 <1>   0.0720 
 44 H       -5.2470    -8.5230     0.0420 H     1 <1>   0.0720 
 45 H      -10.0910    -4.5150     0.5020 H     1 <1>   0.1420 
 46 H       -8.2850    -9.1210     0.3940 H     1 <1>   0.1420 
 47 H      -10.6100    -8.7030     1.1040 H     1 <1>   0.1420 
@<TRIPOS>BOND
  1   1   2  1   
  2   1   3  1   
  3   2   4  2   
  4   2   5  1   
  5   3   6  2   
  6   3  27  1   
  7   4   6  1   
  8   4  28  1   
  9   5   7  1   
 10   5   8  1   
 11   5  29  1   
 12   6  30  1   
 13   7  31  1   
 14   8   9  1   
 15   8  10  1   
 16   8  32  1   
 17   9  11  1   
 18   9  33  1   
 19   9  34  1   
 20  10  12  1   
 21  10  35  1   
 22  10  36  1   
 23  11  13  1   
 24  11  37  1   
 25  11  38  1   
 26  12  13  1   
 27  12  39  1   
 28  12  40  1   
 29  13  14  ar  
 30  14  15  ar  
 31  14  16  ar  
 32  15  17  1   
 33  15  41  1   
 34  16  18  1   
 35  16  19  1   
 36  17  18  ar  
 37  17  20  ar  
 38  18  21  ar  
 39  19  42  1   
 40  19  43  1   
 41  19  44  1   
 42  20  22  ar  
 43  20  45  1   
 44  21  23  ar  
 45  21  46  1   
 46  22  23  ar  
 47  22  24  1   
 48  23  47  1   
 49  24  25  ar  
 50  24  26  ar  
@<TRIPOS>SUBSTRUCTURE
  1 ****  14 GROUP 4 **** **** 0

# MOE 2024.06 (io_trps.svl 2023.06)
