@<TRIPOS>MOLECULE
NONAME
51 53 1 0 0 
SMALL
USER_CHARGES


@<TRIPOS>ATOM
  1 F       -0.2040     0.9020     0.4750 F     1 <1>  -0.1900 
  2 C       -1.4860     1.0630     0.2660 C.ar  1 <1>   0.1900 
  3 C       -2.1630     2.2200     0.6650 C.ar  1 <1>   0.0830 
  4 C       -2.1390     0.0270    -0.3730 C.ar  1 <1>  -0.1500 
  5 O       -1.6320     3.3070     1.2970 O.3   1 <1>  -0.3630 
  6 C       -3.5210     2.2930     0.3990 C.ar  1 <1>  -0.1500 
  7 C       -3.4940     0.1340    -0.6260 C.ar  1 <1>  -0.1500 
  8 C       -0.2680     3.4080     1.6400 C.3   1 <1>   0.0400 
  9 C       -4.2170     1.2660    -0.2430 C.ar  1 <1>   0.0530 
 10 C       -5.6290     1.3950    -0.5090 C.2   1 <1>   0.0870 
 11 O       -6.1190     2.5690    -0.8180 O.3   1 <1>  -0.0190 
 12 C       -6.6690     0.5160    -0.5360 C.2   1 <1>  -0.0860 
 13 N       -7.4020     2.5440    -1.0550 N.2   1 <1>  -0.4100 
 14 C       -7.7600     1.3200    -0.8910 C.2   1 <1>   0.3720 
 15 C       -6.7290    -0.8880    -0.2680 C.2   1 <1>   0.7160 
 16 N       -9.0880     0.8790    -1.0260 N.pl3 1 <1>  -0.8210 
 17 O       -5.8970    -1.4520     0.4180 O.2   1 <1>  -0.5700 
 18 N       -7.7560    -1.6290    -0.7570 N.am  1 <1>  -0.7300 
 19 C       -9.8600     1.5770    -2.0950 C.3   1 <1>   0.1290 
 20 C       -9.8230     0.8920     0.2700 C.3   1 <1>   0.1290 
 21 C       -8.0170    -3.0650    -0.5080 C.3   1 <1>   0.2200 
 22 C       -8.6650    -3.2880     0.8770 C.3   1 <1>   0.2000 
 23 C       -8.9210    -3.5910    -1.6290 C.3   1 <1>  -0.1600 
 24 O       -7.7920    -2.9120     1.8850 O.3   1 <1>  -0.6800 
 25 C       -9.0380    -4.7560     1.1040 C.3   1 <1>  -0.1600 
 26 C       -9.2890    -5.0660    -1.4020 C.3   1 <1>  -0.1600 
 27 C       -9.9370    -5.2790    -0.0270 C.3   1 <1>  -0.1600 
 28 H       -1.5930    -0.8510    -0.6670 H     1 <1>   0.1500 
 29 H       -4.0520     3.1780     0.7020 H     1 <1>   0.1500 
 30 H       -3.9970    -0.6730    -1.1280 H     1 <1>   0.1500 
 31 H       -0.1140     4.3560     2.1220 H     1 <1>   0.0800 
 32 H        0.3240     3.3540     0.7430 H     1 <1>   0.0800 
 33 H       -0.0160     2.6110     2.3170 H     1 <1>   0.0800 
 34 H       -8.5350    -1.0730    -1.1370 H     1 <1>   0.3700 
 35 H      -10.7760     1.0490    -2.2930 H     1 <1>   0.0800 
 36 H       -9.2790     1.6140    -3.0000 H     1 <1>   0.0800 
 37 H      -10.0890     2.5850    -1.7920 H     1 <1>   0.0800 
 38 H      -10.7920     0.4380     0.1500 H     1 <1>   0.0800 
 39 H       -9.9460     1.9050     0.6140 H     1 <1>   0.0800 
 40 H       -9.2730     0.3380     1.0120 H     1 <1>   0.0800 
 41 H       -7.0850    -3.6050    -0.5400 H     1 <1>   0.0800 
 42 H       -9.5470    -2.6770     0.9620 H     1 <1>   0.0800 
 43 H       -9.8250    -3.0080    -1.6650 H     1 <1>   0.0800 
 44 H       -8.4140    -3.4940    -2.5730 H     1 <1>   0.0800 
 45 H       -7.0450    -2.3940     1.4950 H     1 <1>   0.4000 
 46 H       -8.1400    -5.3480     1.1440 H     1 <1>   0.0800 
 47 H       -9.5510    -4.8520     2.0450 H     1 <1>   0.0800 
 48 H       -9.9660    -5.3910    -2.1730 H     1 <1>   0.0800 
 49 H       -8.3990    -5.6700    -1.4730 H     1 <1>   0.0800 
 50 H      -10.1260    -6.3290     0.1230 H     1 <1>   0.0800 
 51 H      -10.8840    -4.7680     0.0050 H     1 <1>   0.0800 
@<TRIPOS>BOND
  1   1   2  1   
  2   2   3  ar  
  3   2   4  ar  
  4   3   5  1   
  5   3   6  ar  
  6   4   7  ar  
  7   4  28  1   
  8   5   8  1   
  9   6   9  ar  
 10   6  29  1   
 11   7   9  ar  
 12   7  30  1   
 13   8  31  1   
 14   8  32  1   
 15   8  33  1   
 16   9  10  1   
 17  10  11  1   
 18  10  12  2   
 19  11  13  1   
 20  12  14  1   
 21  12  15  1   
 22  13  14  2   
 23  14  16  1   
 24  15  17  2   
 25  15  18  am  
 26  16  19  1   
 27  16  20  1   
 28  18  21  1   
 29  18  34  1   
 30  19  35  1   
 31  19  36  1   
 32  19  37  1   
 33  20  38  1   
 34  20  39  1   
 35  20  40  1   
 36  21  22  1   
 37  21  23  1   
 38  21  41  1   
 39  22  24  1   
 40  22  25  1   
 41  22  42  1   
 42  23  26  1   
 43  23  43  1   
 44  23  44  1   
 45  24  45  1   
 46  25  27  1   
 47  25  46  1   
 48  25  47  1   
 49  26  27  1   
 50  26  48  1   
 51  26  49  1   
 52  27  50  1   
 53  27  51  1   
@<TRIPOS>SUBSTRUCTURE
  1 ****  15 GROUP 4 **** **** 0

# MOE 2024.06 (io_trps.svl 2023.06)
