@<TRIPOS>MOLECULE
NONAME
49 51 1 0 0 
SMALL
USER_CHARGES


@<TRIPOS>ATOM
  1 N        2.5690    -1.7830     0.5430 N.ar  1 <1>  -0.6200 
  2 C        1.6590    -0.9880     0.0090 C.ar  1 <1>   0.1600 
  3 C        2.1110    -2.8970     1.0860 C.ar  1 <1>   0.1600 
  4 C        0.3020    -1.2620    -0.0230 C.ar  1 <1>  -0.1500 
  5 C        0.7760    -3.2660     1.1080 C.ar  1 <1>  -0.1500 
  6 C       -0.1690    -2.4370     0.5320 C.ar  1 <1>  -0.1430 
  7 C       -1.6420    -2.7980     0.5120 C.3   1 <1>   0.4870 
  8 N       -2.0110    -3.2220    -0.8740 N.4   1 <1>  -0.9590 
  9 C       -3.4710    -3.3050    -1.1680 C.3   1 <1>   0.4230 
 10 C       -1.3210    -4.5010    -1.2400 C.3   1 <1>   0.2630 
 11 C       -4.1800    -1.9540    -1.1010 C.3   1 <1>  -0.1600 
 12 C       -4.2690    -4.1960    -0.2140 C.3   1 <1>  -0.1600 
 13 C       -5.6680    -2.3150    -0.9670 C.3   1 <1>  -0.0800 
 14 C       -5.7250    -3.7380    -0.4020 C.3   1 <1>  -0.0800 
 15 C       -6.4840    -1.4440     0.0030 C.3   1 <1>  -0.1600 
 16 C       -6.5700    -3.6480     0.8790 C.3   1 <1>  -0.1600 
 17 C       -7.4500    -2.4020     0.7120 C.3   1 <1>   0.4230 
 18 N       -8.6470    -2.6950    -0.1440 N.4   1 <1>  -0.9590 
 19 C       -9.4670    -1.4710    -0.4270 C.3   1 <1>   0.2630 
 20 C       -9.5540    -3.7240     0.4660 C.3   1 <1>   0.2630 
 21 H        2.0170    -0.0690    -0.4260 H     1 <1>   0.1500 
 22 H        2.8410    -3.5490     1.5370 H     1 <1>   0.1500 
 23 H       -0.3590    -0.5450    -0.4770 H     1 <1>   0.1500 
 24 H        0.5040    -4.1940     1.5780 H     1 <1>   0.1500 
 25 H       -2.2140    -1.9360     0.8100 H     1 <1>   0.0800 
 26 H       -1.8350    -3.5940     1.2110 H     1 <1>   0.0800 
 27 H       -1.6190    -2.4980    -1.4910 H     1 <1>   0.4500 
 28 H       -3.6050    -3.6890    -2.1680 H     1 <1>   0.0800 
 29 H       -1.6490    -5.3040    -0.6000 H     1 <1>   0.0800 
 30 H       -0.2520    -4.3950    -1.1380 H     1 <1>   0.0800 
 31 H       -1.5370    -4.7660    -2.2630 H     1 <1>   0.0800 
 32 H       -3.8600    -1.3920    -0.2440 H     1 <1>   0.0800 
 33 H       -4.0050    -1.3750    -1.9920 H     1 <1>   0.0800 
 34 H       -4.1610    -5.2370    -0.4630 H     1 <1>   0.0800 
 35 H       -3.9660    -4.0390     0.8040 H     1 <1>   0.0800 
 36 H       -6.1310    -2.3100    -1.9420 H     1 <1>   0.0800 
 37 H       -6.2160    -4.3770    -1.1200 H     1 <1>   0.0800 
 38 H       -6.9550    -0.6150    -0.4900 H     1 <1>   0.0800 
 39 H       -5.8350    -1.0360     0.7580 H     1 <1>   0.0800 
 40 H       -5.9290    -3.4680     1.7250 H     1 <1>   0.0800 
 41 H       -7.1080    -4.5550     1.0780 H     1 <1>   0.0800 
 42 H       -7.7630    -2.0100     1.6670 H     1 <1>   0.0800 
 43 H       -8.2980    -3.0640    -1.0390 H     1 <1>   0.4500 
 44 H       -9.7890    -1.0130     0.4940 H     1 <1>   0.0800 
 45 H      -10.3400    -1.7330    -1.0030 H     1 <1>   0.0800 
 46 H       -8.9000    -0.7510    -0.9920 H     1 <1>   0.0800 
 47 H       -9.8810    -3.4050     1.4420 H     1 <1>   0.0800 
 48 H       -9.0510    -4.6720     0.5620 H     1 <1>   0.0800 
 49 H      -10.4230    -3.8700    -0.1560 H     1 <1>   0.0800 
@<TRIPOS>BOND
  1   1   2  ar  
  2   1   3  ar  
  3   2   4  ar  
  4   2  21  1   
  5   3   5  ar  
  6   3  22  1   
  7   4   6  ar  
  8   4  23  1   
  9   5   6  ar  
 10   5  24  1   
 11   6   7  1   
 12   7   8  1   
 13   7  25  1   
 14   7  26  1   
 15   8   9  1   
 16   8  10  1   
 17   8  27  1   
 18   9  11  1   
 19   9  12  1   
 20   9  28  1   
 21  10  29  1   
 22  10  30  1   
 23  10  31  1   
 24  11  13  1   
 25  11  32  1   
 26  11  33  1   
 27  12  14  1   
 28  12  34  1   
 29  12  35  1   
 30  13  14  1   
 31  13  15  1   
 32  13  36  1   
 33  14  16  1   
 34  14  37  1   
 35  15  17  1   
 36  15  38  1   
 37  15  39  1   
 38  16  17  1   
 39  16  40  1   
 40  16  41  1   
 41  17  18  1   
 42  17  42  1   
 43  18  19  1   
 44  18  20  1   
 45  18  43  1   
 46  19  44  1   
 47  19  45  1   
 48  19  46  1   
 49  20  47  1   
 50  20  48  1   
 51  20  49  1   
@<TRIPOS>SUBSTRUCTURE
  1 ****   9 GROUP 4 **** **** 0

# MOE 2024.06 (io_trps.svl 2023.06)
