@<TRIPOS>MOLECULE
NONAME
27 28 1 0 0 
SMALL
USER_CHARGES


@<TRIPOS>ATOM
  1 F       -2.2350    -0.8780    -2.6930 F     1 <1>  -0.3400 
  2 C       -2.1150    -0.3150    -1.4960 C.3   1 <1>   1.1640 
  3 F       -0.8340    -0.3850    -1.1670 F     1 <1>  -0.3400 
  4 F       -2.3430     0.9810    -1.6990 F     1 <1>  -0.3400 
  5 C       -3.0880    -0.9190    -0.4630 C.ar  1 <1>  -0.1440 
  6 C       -2.8350    -2.1080     0.2310 C.ar  1 <1>  -0.0320 
  7 C       -4.2880    -0.2500    -0.2130 C.ar  1 <1>  -0.1500 
  8 C       -3.7610    -2.5660     1.1590 C.ar  1 <1>  -0.1500 
  9 C       -1.5840    -2.9730     0.0650 C.3   1 <1>  -0.0630 
 10 C       -5.2040    -0.7250     0.7070 C.ar  1 <1>  -0.1500 
 11 C       -4.9380    -1.8870     1.4000 C.ar  1 <1>  -0.1500 
 12 C       -1.1930    -3.5090    -1.2810 C.3   1 <1>  -0.2000 
 13 C       -1.8250    -4.4170    -0.2720 C.3   1 <1>  -0.2000 
 14 C       -0.5140    -2.6280     1.1270 C.3   1 <1>  -0.1710 
 15 C        0.6810    -3.5550     1.2100 C.2   1 <1>   0.9060 
 16 O        1.6740    -3.3210     0.5120 O.co2 1 <1>  -0.9000 
 17 O        0.6400    -4.5030     2.0040 O.co2 1 <1>  -0.9000 
 18 H       -4.5300     0.6610    -0.7350 H     1 <1>   0.1500 
 19 H       -3.5530    -3.4710     1.7040 H     1 <1>   0.1500 
 20 H       -6.1210    -0.1900     0.8850 H     1 <1>   0.1500 
 21 H       -5.6400    -2.2640     2.1230 H     1 <1>   0.1500 
 22 H       -0.1440    -3.6260    -1.4970 H     1 <1>   0.1000 
 23 H       -1.7700    -3.2920    -2.1590 H     1 <1>   0.1000 
 24 H       -2.8280    -4.7560    -0.4550 H     1 <1>   0.1000 
 25 H       -1.2140    -5.1780     0.1830 H     1 <1>   0.1000 
 26 H       -0.9710    -2.6300     2.0970 H     1 <1>   0.0800 
 27 H       -0.1350    -1.6420     0.9500 H     1 <1>   0.0800 
@<TRIPOS>BOND
  1   1   2  1   
  2   2   3  1   
  3   2   4  1   
  4   2   5  1   
  5   5   6  ar  
  6   5   7  ar  
  7   6   8  ar  
  8   6   9  1   
  9   7  10  ar  
 10   7  18  1   
 11   8  11  ar  
 12   8  19  1   
 13   9  12  1   
 14   9  13  1   
 15   9  14  1   
 16  10  11  ar  
 17  10  20  1   
 18  11  21  1   
 19  12  13  1   
 20  12  22  1   
 21  12  23  1   
 22  13  24  1   
 23  13  25  1   
 24  14  15  1   
 25  14  26  1   
 26  14  27  1   
 27  15  16  ar  
 28  15  17  ar  
@<TRIPOS>SUBSTRUCTURE
  1 ****   6 GROUP 4 **** **** 0

# MOE 2024.06 (io_trps.svl 2023.06)
