@<TRIPOS>MOLECULE
NONAME
48 50 1 0 0 
SMALL
USER_CHARGES


@<TRIPOS>ATOM
  1 O       -0.7550     0.0730     2.2900 O.2   1 <1>  -0.5700 
  2 C       -1.6260     0.7140     1.7240 C.2   1 <1>   0.5440 
  3 N       -2.8320     0.0730     1.4880 N.am  1 <1>  -0.6600 
  4 C       -1.3500     2.1050     1.3500 C.ar  1 <1>   0.3960 
  5 C       -2.9450    -1.4190     1.4600 C.3   1 <1>   0.1400 
  6 C       -4.0600     0.7250     0.9490 C.3   1 <1>   0.1400 
  7 N       -1.7300     2.5790     0.1470 N.ar  1 <1>  -0.6200 
  8 C       -0.6720     2.9160     2.2610 C.ar  1 <1>  -0.1500 
  9 C       -3.3470    -1.9030     0.0530 C.3   1 <1>   0.3440 
 10 C       -4.3630     0.1730    -0.4600 C.3   1 <1>   0.2000 
 11 C       -1.4420     3.8350    -0.1310 C.ar  1 <1>   0.1660 
 12 C       -0.3770     4.2280     1.9660 C.ar  1 <1>  -0.1500 
 13 O       -4.4940    -1.2230    -0.3960 O.3   1 <1>  -0.5600 
 14 C       -3.6140    -3.4060     0.0570 C.ar  1 <1>  -0.1440 
 15 C       -5.6440     0.7450    -1.1100 C.3   1 <1>  -0.0800 
 16 C       -0.7780     4.6900     0.7330 C.ar  1 <1>  -0.1500 
 17 C       -1.8850     4.3300    -1.4920 C.3   1 <1>  -0.0970 
 18 C       -4.8670    -3.9170     0.3650 C.ar  1 <1>  -0.1500 
 19 C       -2.5830    -4.2870    -0.2390 C.ar  1 <1>  -0.1500 
 20 C       -5.5160     2.2500    -1.3910 C.3   1 <1>  -0.2400 
 21 C       -6.9220     0.4750    -0.2970 C.3   1 <1>  -0.2400 
 22 C       -5.0870    -5.2840     0.3790 C.ar  1 <1>  -0.1500 
 23 C       -2.8000    -5.6540    -0.2270 C.ar  1 <1>  -0.1500 
 24 C       -4.0520    -6.1530     0.0830 C.ar  1 <1>  -0.1500 
 25 H       -2.0140    -1.8800     1.7350 H     1 <1>   0.0800 
 26 H       -3.6890    -1.7340     2.1700 H     1 <1>   0.0800 
 27 H       -4.8840     0.5050     1.6040 H     1 <1>   0.0800 
 28 H       -3.9500     1.7920     0.9200 H     1 <1>   0.0800 
 29 H       -0.3760     2.4980     3.2070 H     1 <1>   0.1500 
 30 H       -2.5500    -1.6870    -0.6380 H     1 <1>   0.0800 
 31 H       -3.5290     0.3950    -1.1050 H     1 <1>   0.0800 
 32 H        0.1440     4.8600     2.6640 H     1 <1>   0.1500 
 33 H       -5.7500     0.2530    -2.0620 H     1 <1>   0.0800 
 34 H       -0.5730     5.7060     0.4480 H     1 <1>   0.1500 
 35 H       -1.5260     5.3250    -1.6790 H     1 <1>   0.0800 
 36 H       -2.9580     4.3320    -1.5420 H     1 <1>   0.0800 
 37 H       -1.5030     3.6760    -2.2540 H     1 <1>   0.0800 
 38 H       -5.6780    -3.2470     0.5930 H     1 <1>   0.1500 
 39 H       -1.6030    -3.9120    -0.4810 H     1 <1>   0.1500 
 40 H       -5.4640     2.8150    -0.4770 H     1 <1>   0.0800 
 41 H       -6.3670     2.5940    -1.9520 H     1 <1>   0.0800 
 42 H       -4.6300     2.4450    -1.9690 H     1 <1>   0.0800 
 43 H       -6.9090     1.0030     0.6390 H     1 <1>   0.0800 
 44 H       -7.0200    -0.5780    -0.0980 H     1 <1>   0.0800 
 45 H       -7.7860     0.7920    -0.8520 H     1 <1>   0.0800 
 46 H       -6.0630    -5.6680     0.6170 H     1 <1>   0.1500 
 47 H       -1.9950    -6.3290    -0.4580 H     1 <1>   0.1500 
 48 H       -4.2220    -7.2160     0.0930 H     1 <1>   0.1500 
@<TRIPOS>BOND
  1   1   2  2   
  2   2   3  am  
  3   2   4  1   
  4   3   5  1   
  5   3   6  1   
  6   4   7  ar  
  7   4   8  ar  
  8   5   9  1   
  9   5  25  1   
 10   5  26  1   
 11   6  10  1   
 12   6  27  1   
 13   6  28  1   
 14   7  11  ar  
 15   8  12  ar  
 16   8  29  1   
 17   9  13  1   
 18   9  14  1   
 19   9  30  1   
 20  10  13  1   
 21  10  15  1   
 22  10  31  1   
 23  11  16  ar  
 24  11  17  1   
 25  12  16  ar  
 26  12  32  1   
 27  14  18  ar  
 28  14  19  ar  
 29  15  20  1   
 30  15  21  1   
 31  15  33  1   
 32  16  34  1   
 33  17  35  1   
 34  17  36  1   
 35  17  37  1   
 36  18  22  ar  
 37  18  38  1   
 38  19  23  ar  
 39  19  39  1   
 40  20  40  1   
 41  20  41  1   
 42  20  42  1   
 43  21  43  1   
 44  21  44  1   
 45  21  45  1   
 46  22  24  ar  
 47  22  46  1   
 48  23  24  ar  
 49  23  47  1   
 50  24  48  1   
@<TRIPOS>SUBSTRUCTURE
  1 ****   3 GROUP 4 **** **** 0

# MOE 2024.06 (io_trps.svl 2023.06)
