@<TRIPOS>MOLECULE
NONAME
46 48 1 0 0 
SMALL
USER_CHARGES


@<TRIPOS>ATOM
  1 O       -0.8010     0.5080     1.4550 O.2   1 <1>  -0.5700 
  2 C       -1.7500     1.0790     0.9550 C.2   1 <1>   0.5440 
  3 N       -2.8200     0.3260     0.5300 N.am  1 <1>  -0.6600 
  4 C       -1.7220     2.5210     0.7990 C.ar  1 <1>   0.0860 
  5 C       -3.9180     0.8020    -0.3500 C.3   1 <1>   0.1400 
  6 C       -2.8300    -1.1580     0.6030 C.3   1 <1>   0.1400 
  7 C       -0.6860     3.1350     0.1010 C.ar  1 <1>  -0.1500 
  8 C       -2.7150     3.3370     1.3380 C.ar  1 <1>  -0.1500 
  9 C       -4.8810    -0.3820    -0.4240 C.3   1 <1>   0.2000 
 10 C       -3.9580    -1.6020    -0.3360 C.3   1 <1>  -0.0800 
 11 C       -0.6480     4.5130    -0.0790 C.ar  1 <1>   0.0830 
 12 C       -2.6890     4.7080     1.1650 C.ar  1 <1>  -0.1500 
 13 O       -5.6990    -0.3390     0.6940 O.3   1 <1>  -0.6800 
 14 C       -4.6400    -2.9170     0.0860 C.3   1 <1>  -0.0170 
 15 O        0.3500     5.1380    -0.7590 O.3   1 <1>  -0.3630 
 16 C       -1.6610     5.3050     0.4540 C.ar  1 <1>  -0.1430 
 17 C       -3.6570    -4.0760     0.0490 C.ar  1 <1>  -0.1430 
 18 C        1.4860     4.4390    -1.2160 C.3   1 <1>   0.0400 
 19 C       -1.6440     6.8160     0.2690 C.3   1 <1>  -0.0970 
 20 C       -2.9910    -4.5100     1.1770 C.ar  1 <1>  -0.1500 
 21 C       -3.3770    -4.7530    -1.1210 C.ar  1 <1>  -0.1500 
 22 C       -2.1010    -5.5670     1.0830 C.ar  1 <1>   0.1600 
 23 C       -2.4690    -5.7990    -1.1070 C.ar  1 <1>   0.1600 
 24 N       -1.8230    -6.2220    -0.0330 N.ar  1 <1>  -0.6200 
 25 H       -4.4050     1.6790     0.0370 H     1 <1>   0.0800 
 26 H       -3.5170     1.0120    -1.3260 H     1 <1>   0.0800 
 27 H       -1.8810    -1.5660     0.2970 H     1 <1>   0.0800 
 28 H       -3.0310    -1.4540     1.6180 H     1 <1>   0.0800 
 29 H        0.0830     2.5000    -0.2950 H     1 <1>   0.1500 
 30 H       -3.5120     2.8880     1.9030 H     1 <1>   0.1500 
 31 H       -5.5000    -0.3730    -1.3050 H     1 <1>   0.0800 
 32 H       -3.5210    -1.7480    -1.3080 H     1 <1>   0.0800 
 33 H       -3.4730     5.3110     1.5900 H     1 <1>   0.1500 
 34 H       -5.1360    -0.2110     1.4850 H     1 <1>   0.4000 
 35 H       -5.4600    -3.1240    -0.5800 H     1 <1>   0.0800 
 36 H       -5.0500    -2.8270     1.0770 H     1 <1>   0.0800 
 37 H        2.1550     5.1480    -1.6690 H     1 <1>   0.0800 
 38 H        1.1780     3.7100    -1.9440 H     1 <1>   0.0800 
 39 H        1.9670     3.9680    -0.3770 H     1 <1>   0.0800 
 40 H       -2.4970     7.2760     0.7320 H     1 <1>   0.0800 
 41 H       -1.6510     7.0530    -0.7800 H     1 <1>   0.0800 
 42 H       -0.7510     7.2250     0.7070 H     1 <1>   0.0800 
 43 H       -3.1540    -4.0390     2.1290 H     1 <1>   0.1500 
 44 H       -3.8560    -4.4780    -2.0430 H     1 <1>   0.1500 
 45 H       -1.5890    -5.8910     1.9740 H     1 <1>   0.1500 
 46 H       -2.2640    -6.3150    -2.0290 H     1 <1>   0.1500 
@<TRIPOS>BOND
  1   1   2  2   
  2   2   3  am  
  3   2   4  1   
  4   3   5  1   
  5   3   6  1   
  6   4   7  ar  
  7   4   8  ar  
  8   5   9  1   
  9   5  25  1   
 10   5  26  1   
 11   6  10  1   
 12   6  27  1   
 13   6  28  1   
 14   7  11  ar  
 15   7  29  1   
 16   8  12  ar  
 17   8  30  1   
 18   9  10  1   
 19   9  13  1   
 20   9  31  1   
 21  10  14  1   
 22  10  32  1   
 23  11  15  1   
 24  11  16  ar  
 25  12  16  ar  
 26  12  33  1   
 27  13  34  1   
 28  14  17  1   
 29  14  35  1   
 30  14  36  1   
 31  15  18  1   
 32  16  19  1   
 33  17  20  ar  
 34  17  21  ar  
 35  18  37  1   
 36  18  38  1   
 37  18  39  1   
 38  19  40  1   
 39  19  41  1   
 40  19  42  1   
 41  20  22  ar  
 42  20  43  1   
 43  21  23  ar  
 44  21  44  1   
 45  22  24  ar  
 46  22  45  1   
 47  23  24  ar  
 48  23  46  1   
@<TRIPOS>SUBSTRUCTURE
  1 ****   3 GROUP 4 **** **** 0

# MOE 2024.06 (io_trps.svl 2023.06)
