@<TRIPOS>MOLECULE
NONAME
50 52 1 0 0 
SMALL
USER_CHARGES


@<TRIPOS>ATOM
  1 S        0.6180     0.4460    -1.5670 S.o2  1 <1>   1.3330 
  2 O       -0.2210     1.2670    -2.4100 O.2   1 <1>  -0.6500 
  3 O        0.9060    -0.9180    -1.9510 O.2   1 <1>  -0.6500 
  4 N       -0.0990     0.4130    -0.0270 N.am  1 <1>  -0.8490 
  5 C        2.1820     1.2840    -1.2960 C.3   1 <1>  -0.0550 
  6 C       -1.0320    -0.7080     0.1220 C.3   1 <1>   0.1160 
  7 C       -0.7720     1.6670     0.3280 C.3   1 <1>   0.1160 
  8 C        3.1930     0.4830    -0.4460 C.3   1 <1>  -0.0800 
  9 C        4.5840     1.0940    -0.3680 C.3   1 <1>   0.2200 
 10 C        2.8140     0.3100     1.0310 C.3   1 <1>   0.1200 
 11 N        4.5010     2.5610    -0.1760 N.am  1 <1>  -0.7300 
 12 C        5.0960     0.4600     0.9170 C.3   1 <1>   0.1200 
 13 O        3.9930     0.4470     1.7700 O.3   1 <1>  -0.5600 
 14 C        4.7190     3.4860    -1.1380 C.2   1 <1>   0.5690 
 15 O        4.9840     3.1790    -2.2730 O.2   1 <1>  -0.5700 
 16 C        4.6210     4.9460    -0.7740 C.3   1 <1>  -0.0990 
 17 C        5.9780     5.4800    -0.3120 C.3   1 <1>   0.0200 
 18 C        5.8420     6.9210     0.1330 C.2   1 <1>   0.0060 
 19 N        5.4210     7.2640     1.2990 N.2   1 <1>  -0.5650 
 20 N        6.1470     7.9700    -0.6730 N.pl3 1 <1>   0.0330 
 21 C        5.4450     8.6260     1.2800 C.ar  1 <1>   0.2270 
 22 C        5.8950     9.0850     0.0560 C.ar  1 <1>  -0.1520 
 23 C        5.0960     9.5360     2.2770 C.ar  1 <1>  -0.1500 
 24 C        6.0080    10.4510    -0.2110 C.ar  1 <1>  -0.1500 
 25 C        5.2040    10.8870     2.0240 C.ar  1 <1>  -0.1500 
 26 C        5.6600    11.3430     0.7800 C.ar  1 <1>  -0.1500 
 27 H        2.6300     1.4700    -2.2530 H     1 <1>   0.0800 
 28 H        1.9970     2.2360    -0.8410 H     1 <1>   0.0800 
 29 H       -1.4610    -0.7090     1.1100 H     1 <1>   0.0800 
 30 H       -0.5140    -1.6420    -0.0190 H     1 <1>   0.0800 
 31 H       -1.8210    -0.6370    -0.6080 H     1 <1>   0.0800 
 32 H       -1.1270     1.6220     1.3430 H     1 <1>   0.0800 
 33 H       -1.6090     1.8450    -0.3280 H     1 <1>   0.0800 
 34 H       -0.0880     2.4940     0.2450 H     1 <1>   0.0800 
 35 H        3.2910    -0.5010    -0.8730 H     1 <1>   0.0800 
 36 H        5.1970     0.8530    -1.2210 H     1 <1>   0.0800 
 37 H        2.3890    -0.6610     1.2220 H     1 <1>   0.0800 
 38 H        2.1340     1.0750     1.3640 H     1 <1>   0.0800 
 39 H        4.2780     2.8410     0.7840 H     1 <1>   0.3700 
 40 H        5.9000     1.0140     1.3670 H     1 <1>   0.0800 
 41 H        5.3980    -0.5590     0.7480 H     1 <1>   0.0800 
 42 H        4.2840     5.4990    -1.6320 H     1 <1>   0.0800 
 43 H        3.8960     5.0730     0.0100 H     1 <1>   0.0800 
 44 H        6.6990     5.3970    -1.1050 H     1 <1>   0.0800 
 45 H        6.3300     4.8960     0.5210 H     1 <1>   0.0800 
 46 H        6.4940     7.9360    -1.6340 H     1 <1>   0.2700 
 47 H        4.7500     9.1570     3.2200 H     1 <1>   0.1500 
 48 H        6.3590    10.7920    -1.1690 H     1 <1>   0.1500 
 49 H        4.9390    11.6030     2.7820 H     1 <1>   0.1500 
 50 H        5.7350    12.4030     0.6080 H     1 <1>   0.1500 
@<TRIPOS>BOND
  1   1   2  2   
  2   1   3  2   
  3   1   4  am  
  4   1   5  1   
  5   4   6  1   
  6   4   7  1   
  7   5   8  1   
  8   5  27  1   
  9   5  28  1   
 10   6  29  1   
 11   6  30  1   
 12   6  31  1   
 13   7  32  1   
 14   7  33  1   
 15   7  34  1   
 16   8   9  1   
 17   8  10  1   
 18   8  35  1   
 19   9  11  1   
 20   9  12  1   
 21   9  36  1   
 22  10  13  1   
 23  10  37  1   
 24  10  38  1   
 25  11  14  am  
 26  11  39  1   
 27  12  13  1   
 28  12  40  1   
 29  12  41  1   
 30  14  15  2   
 31  14  16  1   
 32  16  17  1   
 33  16  42  1   
 34  16  43  1   
 35  17  18  1   
 36  17  44  1   
 37  17  45  1   
 38  18  19  2   
 39  18  20  1   
 40  19  21  1   
 41  20  22  1   
 42  20  46  1   
 43  21  22  ar  
 44  21  23  ar  
 45  22  24  ar  
 46  23  25  ar  
 47  23  47  1   
 48  24  26  ar  
 49  24  48  1   
 50  25  26  ar  
 51  25  49  1   
 52  26  50  1   
@<TRIPOS>SUBSTRUCTURE
  1 ****  16 GROUP 4 **** **** 0

# MOE 2024.06 (io_trps.svl 2023.06)
