@<TRIPOS>MOLECULE
NONAME
49 52 1 0 0 
SMALL
USER_CHARGES


@<TRIPOS>ATOM
  1 F       -4.3420     2.2070    -4.0950 F     1 <1>  -0.1900 
  2 C       -4.4860     2.5610    -2.8460 C.ar  1 <1>   0.1900 
  3 C       -3.4260     3.1560    -2.1970 C.ar  1 <1>  -0.1500 
  4 C       -5.6960     2.3230    -2.2240 C.ar  1 <1>  -0.1500 
  5 C       -3.5820     3.5300    -0.8700 C.ar  1 <1>   0.1170 
  6 C       -5.8480     2.7060    -0.9020 C.ar  1 <1>  -0.1500 
  7 N       -2.5230     4.1080    -0.1690 N.am  1 <1>  -0.5470 
  8 C       -4.8010     3.3180    -0.2190 C.ar  1 <1>  -0.1430 
  9 C       -2.4730     4.2260     1.1790 C.2   1 <1>   0.5690 
 10 C       -4.9390     3.8030     1.2370 C.3   1 <1>   0.1250 
 11 O       -1.5590     4.7860     1.7250 O.2   1 <1>  -0.5700 
 12 C       -3.6030     3.6290     1.9850 C.3   1 <1>  -0.0990 
 13 C       -6.1080     3.1620     2.0030 C.2   1 <1>   0.5690 
 14 O       -5.8840     2.1510     2.6310 O.2   1 <1>  -0.5700 
 15 N       -7.3690     3.7200     1.9780 N.am  1 <1>  -0.6600 
 16 C       -8.5180     3.0200     2.6210 C.3   1 <1>   0.1400 
 17 C       -7.7120     4.9620     1.2130 C.3   1 <1>   0.1400 
 18 C       -9.6000     2.6840     1.5850 C.3   1 <1>  -0.1600 
 19 C       -9.2220     5.1160     0.9970 C.3   1 <1>  -0.1600 
 20 C       -9.8490     3.7930     0.5430 C.3   1 <1>   0.4180 
 21 O       -9.2100     3.3740    -0.6400 O.3   1 <1>  -0.5600 
 22 C      -11.3480     3.9620     0.2990 C.2   1 <1>  -0.2880 
 23 C       -9.6170     3.9590    -1.8450 C.3   1 <1>   0.1200 
 24 C      -11.9300     3.8770    -0.9000 C.2   1 <1>  -0.2760 
 25 C      -11.0860     3.6270    -2.1360 C.3   1 <1>  -0.0220 
 26 C      -13.4230     4.0050    -1.1440 C.3   1 <1>  -0.1020 
 27 H       -2.5000     3.3150    -2.7150 H     1 <1>   0.1500 
 28 H       -6.5000     1.8500    -2.7580 H     1 <1>   0.1500 
 29 H       -6.7950     2.5170    -0.4250 H     1 <1>   0.1500 
 30 H       -1.7040     4.4540    -0.6690 H     1 <1>   0.3700 
 31 H       -5.1120     4.8610     1.1970 H     1 <1>   0.0800 
 32 H       -3.6520     4.1040     2.9480 H     1 <1>   0.0800 
 33 H       -3.3930     2.5850     2.1310 H     1 <1>   0.0800 
 34 H       -8.9280     3.6650     3.3790 H     1 <1>   0.0800 
 35 H       -8.2000     2.1140     3.1080 H     1 <1>   0.0800 
 36 H       -7.2380     4.9200     0.2460 H     1 <1>   0.0800 
 37 H       -7.3340     5.8220     1.7390 H     1 <1>   0.0800 
 38 H      -10.5060     2.4840     2.1270 H     1 <1>   0.0800 
 39 H       -9.3360     1.7720     1.0800 H     1 <1>   0.0800 
 40 H       -9.4130     5.8870     0.2750 H     1 <1>   0.0800 
 41 H       -9.6820     5.4320     1.9150 H     1 <1>   0.0800 
 42 H      -11.8990     4.1540     1.2020 H     1 <1>   0.1500 
 43 H       -8.9850     3.5740    -2.6270 H     1 <1>   0.0800 
 44 H       -9.4760     5.0220    -1.7780 H     1 <1>   0.0800 
 45 H      -11.1740     2.5980    -2.4360 H     1 <1>   0.0800 
 46 H      -11.4210     4.2460    -2.9490 H     1 <1>   0.0800 
 47 H      -13.8010     3.1060    -1.5980 H     1 <1>   0.0800 
 48 H      -13.6240     4.8360    -1.7960 H     1 <1>   0.0800 
 49 H      -13.9440     4.1640    -0.2170 H     1 <1>   0.0800 
@<TRIPOS>BOND
  1   1   2  1   
  2   2   3  ar  
  3   2   4  ar  
  4   3   5  ar  
  5   3  27  1   
  6   4   6  ar  
  7   4  28  1   
  8   5   7  1   
  9   5   8  ar  
 10   6   8  ar  
 11   6  29  1   
 12   7   9  am  
 13   7  30  1   
 14   8  10  1   
 15   9  11  2   
 16   9  12  1   
 17  10  12  1   
 18  10  13  1   
 19  10  31  1   
 20  12  32  1   
 21  12  33  1   
 22  13  14  2   
 23  13  15  am  
 24  15  16  1   
 25  15  17  1   
 26  16  18  1   
 27  16  34  1   
 28  16  35  1   
 29  17  19  1   
 30  17  36  1   
 31  17  37  1   
 32  18  20  1   
 33  18  38  1   
 34  18  39  1   
 35  19  20  1   
 36  19  40  1   
 37  19  41  1   
 38  20  21  1   
 39  20  22  1   
 40  21  23  1   
 41  22  24  2   
 42  22  42  1   
 43  23  25  1   
 44  23  43  1   
 45  23  44  1   
 46  24  25  1   
 47  24  26  1   
 48  25  45  1   
 49  25  46  1   
 50  26  47  1   
 51  26  48  1   
 52  26  49  1   
@<TRIPOS>SUBSTRUCTURE
  1 ****   6 GROUP 4 **** **** 0

# MOE 2024.06 (io_trps.svl 2023.06)
