@<TRIPOS>MOLECULE
NONAME
48 50 1 0 0 
SMALL
USER_CHARGES


@<TRIPOS>ATOM
  1 O       -0.1610    -2.6840    -1.3120 O.3   1 <1>  -0.6800 
  2 C        0.2580    -1.6120    -0.5360 C.3   1 <1>   0.1200 
  3 C        1.4470    -1.9820     0.3990 C.3   1 <1>   0.0000 
  4 C        2.7630    -2.3530    -0.3520 C.3   1 <1>   0.4230 
  5 C        1.7640    -0.7190     1.2460 C.3   1 <1>  -0.1600 
  6 C        1.0370    -3.1230     1.3790 C.3   1 <1>  -0.1600 
  7 N        2.7900    -3.7150    -1.0340 N.4   1 <1>  -0.9590 
  8 C        3.2680    -1.1810    -1.2220 C.3   1 <1>   0.2090 
  9 C        2.3250     0.4630     0.4380 C.3   1 <1>   0.2090 
 10 C        1.7610    -4.4540     1.1130 C.3   1 <1>  -0.1600 
 11 C        1.8910    -4.7200    -0.3850 C.3   1 <1>   0.3430 
 12 C        2.5140    -3.6850    -2.5040 C.3   1 <1>   0.2630 
 13 N        3.4910     0.0220    -0.3720 N.pl3 1 <1>  -0.8380 
 14 C        4.7450     0.1990     0.1750 C.ar  1 <1>   0.4100 
 15 N        5.3040    -0.8670     0.7160 N.ar  1 <1>  -0.6200 
 16 C        5.3860     1.4310     0.1680 C.ar  1 <1>  -0.1430 
 17 C        6.4890    -0.6760     1.2620 C.ar  1 <1>   0.4770 
 18 C        6.6180     1.4900     0.7650 C.ar  1 <1>   0.1600 
 19 C        4.7720     2.6680    -0.4790 C.3   1 <1>  -0.0970 
 20 N        7.1860     0.4410     1.3220 N.ar  1 <1>  -0.6200 
 21 C        7.1340    -1.8870     1.8950 C.3   1 <1>  -0.0970 
 22 H       -1.0350    -2.4890    -1.7160 H     1 <1>   0.4000 
 23 H        0.5080    -0.8070    -1.2040 H     1 <1>   0.0800 
 24 H       -0.5840    -1.3010     0.0590 H     1 <1>   0.0800 
 25 H        3.4950    -2.4270     0.4340 H     1 <1>   0.0800 
 26 H        2.4980    -0.9620     1.9960 H     1 <1>   0.0800 
 27 H        0.8820    -0.3910     1.7680 H     1 <1>   0.0800 
 28 H        1.2290    -2.8460     2.4020 H     1 <1>   0.0800 
 29 H       -0.0250    -3.2920     1.3110 H     1 <1>   0.0800 
 30 H        3.7520    -4.0520    -0.9040 H     1 <1>   0.4500 
 31 H        2.5610    -0.9380    -1.9950 H     1 <1>   0.0800 
 32 H        4.2020    -1.4520    -1.6830 H     1 <1>   0.0800 
 33 H        2.6320     1.2410     1.1180 H     1 <1>   0.0800 
 34 H        1.5760     0.8780    -0.2140 H     1 <1>   0.0800 
 35 H        1.2010    -5.2530     1.5660 H     1 <1>   0.0800 
 36 H        2.7380    -4.4510     1.5650 H     1 <1>   0.0800 
 37 H        0.9090    -4.6680    -0.8250 H     1 <1>   0.0800 
 38 H        2.2760    -5.7140    -0.5490 H     1 <1>   0.0800 
 39 H        1.5330    -3.2850    -2.6960 H     1 <1>   0.0800 
 40 H        2.5610    -4.6810    -2.9130 H     1 <1>   0.0800 
 41 H        3.2410    -3.0740    -3.0140 H     1 <1>   0.0800 
 42 H        7.1640     2.4180     0.7930 H     1 <1>   0.1500 
 43 H        5.5080     3.4410    -0.6040 H     1 <1>   0.0800 
 44 H        3.9760     3.0480     0.1350 H     1 <1>   0.0800 
 45 H        4.3750     2.4190    -1.4470 H     1 <1>   0.0800 
 46 H        7.8100    -1.5810     2.6720 H     1 <1>   0.0800 
 47 H        7.6820    -2.4280     1.1470 H     1 <1>   0.0800 
 48 H        6.3840    -2.5260     2.3210 H     1 <1>   0.0800 
@<TRIPOS>BOND
  1   1   2  1   
  2   1  22  1   
  3   2   3  1   
  4   2  23  1   
  5   2  24  1   
  6   3   4  1   
  7   3   5  1   
  8   3   6  1   
  9   4   7  1   
 10   4   8  1   
 11   4  25  1   
 12   5   9  1   
 13   5  26  1   
 14   5  27  1   
 15   6  10  1   
 16   6  28  1   
 17   6  29  1   
 18   7  11  1   
 19   7  12  1   
 20   7  30  1   
 21   8  13  1   
 22   8  31  1   
 23   8  32  1   
 24   9  13  1   
 25   9  33  1   
 26   9  34  1   
 27  10  11  1   
 28  10  35  1   
 29  10  36  1   
 30  11  37  1   
 31  11  38  1   
 32  12  39  1   
 33  12  40  1   
 34  12  41  1   
 35  13  14  1   
 36  14  15  ar  
 37  14  16  ar  
 38  15  17  ar  
 39  16  18  ar  
 40  16  19  1   
 41  17  20  ar  
 42  17  21  1   
 43  18  20  ar  
 44  18  42  1   
 45  19  43  1   
 46  19  44  1   
 47  19  45  1   
 48  21  46  1   
 49  21  47  1   
 50  21  48  1   
@<TRIPOS>SUBSTRUCTURE
  1 ****   4 GROUP 4 **** **** 0

# MOE 2024.06 (io_trps.svl 2023.06)
