@<TRIPOS>MOLECULE
NONAME
40 42 1 0 0 
SMALL
USER_CHARGES


@<TRIPOS>ATOM
  1 O       -1.8220    -0.4970    -2.6460 O.2   1 <1>  -0.5700 
  2 C       -1.9860    -0.8890    -1.5240 C.2   1 <1>   0.5690 
  3 N       -2.4320    -0.0460    -0.5670 N.am  1 <1>  -0.7300 
  4 C       -1.7620    -2.3490    -1.2050 C.3   1 <1>  -0.0190 
  5 C       -2.7460    -0.4350     0.8410 C.3   1 <1>   0.2200 
  6 C       -0.7160    -2.5300    -0.0970 C.3   1 <1>   0.1200 
  7 C       -3.0830    -3.0660    -0.8840 C.3   1 <1>   0.3430 
  8 C       -1.5020    -1.0110     1.5400 C.3   1 <1>   0.1200 
  9 C       -3.9130    -1.4590     0.9060 C.3   1 <1>   0.3430 
 10 O       -1.2880    -2.3390     1.1600 O.3   1 <1>  -0.5600 
 11 N       -4.1990    -2.1700    -0.4000 N.4   1 <1>  -0.9590 
 12 C       -5.5210    -2.8800    -0.3830 C.3   1 <1>   0.3430 
 13 C       -5.5840    -4.0380     0.6210 C.3   1 <1>  -0.0170 
 14 C       -6.9660    -4.6570     0.5470 C.ar  1 <1>  -0.1440 
 15 C       -7.2230    -5.6920    -0.3410 C.ar  1 <1>  -0.1500 
 16 C       -7.9880    -4.1860     1.3570 C.ar  1 <1>  -0.1500 
 17 C       -8.4890    -6.2440    -0.4210 C.ar  1 <1>  -0.1500 
 18 C       -9.2540    -4.7390     1.2760 C.ar  1 <1>  -0.1500 
 19 C       -9.5060    -5.7670     0.3860 C.ar  1 <1>  -0.1500 
 20 H       -2.4690     0.9500    -0.8160 H     1 <1>   0.3700 
 21 H       -1.3480    -2.8070    -2.0850 H     1 <1>   0.0800 
 22 H       -3.0340     0.4520     1.3790 H     1 <1>   0.0800 
 23 H        0.1190    -1.8590    -0.2220 H     1 <1>   0.0800 
 24 H       -0.3390    -3.5390    -0.1160 H     1 <1>   0.0800 
 25 H       -2.8900    -3.8330    -0.1510 H     1 <1>   0.0800 
 26 H       -3.4120    -3.5560    -1.7860 H     1 <1>   0.0800 
 27 H       -1.6610    -1.0170     2.6050 H     1 <1>   0.0800 
 28 H       -0.6210    -0.4240     1.3380 H     1 <1>   0.0800 
 29 H       -4.7980    -0.9260     1.2130 H     1 <1>   0.0800 
 30 H       -3.6960    -2.1830     1.6760 H     1 <1>   0.0800 
 31 H       -4.2700    -1.4120    -1.1010 H     1 <1>   0.4500 
 32 H       -6.3030    -2.1780    -0.1430 H     1 <1>   0.0800 
 33 H       -5.7320    -3.2690    -1.3660 H     1 <1>   0.0800 
 34 H       -4.8520    -4.7900     0.3870 H     1 <1>   0.0800 
 35 H       -5.4110    -3.6890     1.6220 H     1 <1>   0.0800 
 36 H       -6.4460    -6.0820    -0.9750 H     1 <1>   0.1500 
 37 H       -7.8150    -3.3900     2.0610 H     1 <1>   0.1500 
 38 H       -8.6860    -7.0480    -1.1100 H     1 <1>   0.1500 
 39 H      -10.0460    -4.3720     1.9070 H     1 <1>   0.1500 
 40 H      -10.4910    -6.1980     0.3240 H     1 <1>   0.1500 
@<TRIPOS>BOND
  1   1   2  2   
  2   2   3  am  
  3   2   4  1   
  4   3   5  1   
  5   3  20  1   
  6   4   6  1   
  7   4   7  1   
  8   4  21  1   
  9   5   8  1   
 10   5   9  1   
 11   5  22  1   
 12   6  10  1   
 13   6  23  1   
 14   6  24  1   
 15   7  11  1   
 16   7  25  1   
 17   7  26  1   
 18   8  10  1   
 19   8  27  1   
 20   8  28  1   
 21   9  11  1   
 22   9  29  1   
 23   9  30  1   
 24  11  12  1   
 25  11  31  1   
 26  12  13  1   
 27  12  32  1   
 28  12  33  1   
 29  13  14  1   
 30  13  34  1   
 31  13  35  1   
 32  14  15  ar  
 33  14  16  ar  
 34  15  17  ar  
 35  15  36  1   
 36  16  18  ar  
 37  16  37  1   
 38  17  19  ar  
 39  17  38  1   
 40  18  19  ar  
 41  18  39  1   
 42  19  40  1   
@<TRIPOS>SUBSTRUCTURE
  1 ****  11 GROUP 4 **** **** 0

# MOE 2024.06 (io_trps.svl 2023.06)
