@<TRIPOS>MOLECULE
NONAME
54 57 1 0 0 
SMALL
USER_CHARGES


@<TRIPOS>ATOM
  1 O        1.4400     3.1390    -1.6430 O.2   1 <1>  -0.5700 
  2 C        0.9980     3.2200    -0.5120 C.2   1 <1>   0.7160 
  3 N       -0.2970     3.6600    -0.3210 N.am  1 <1>  -0.6600 
  4 C        1.8290     2.8530     0.6060 C.2   1 <1>  -0.0860 
  5 C       -0.9770     3.6940     1.0050 C.3   1 <1>   0.1400 
  6 C       -1.1640     4.0890    -1.4530 C.3   1 <1>   0.1400 
  7 C        2.2470     1.6450     1.0890 C.2   1 <1>  -0.3320 
  8 C        2.4050     3.7720     1.4850 C.2   1 <1>   0.1390 
  9 C       -2.2180     2.7980     0.9640 C.3   1 <1>  -0.1600 
 10 C       -2.3930     3.1810    -1.5140 C.3   1 <1>  -0.1600 
 11 N        3.0070     1.8950     2.1680 N.pl3 1 <1>   0.3000 
 12 C        1.9760     0.2340     0.5850 C.3   1 <1>   0.1000 
 13 N        3.0990     3.2120     2.4240 N.2   1 <1>  -0.7070 
 14 C       -3.1580     3.1770    -0.1830 C.3   1 <1>   0.4180 
 15 C        2.7460    -0.0290    -0.7170 C.3   1 <1>  -0.1600 
 16 C        0.4720    -0.0150     0.3890 C.3   1 <1>  -0.1600 
 17 O       -3.6130     4.4780     0.1000 O.3   1 <1>  -0.5600 
 18 C       -4.3300     2.2000    -0.2280 C.2   1 <1>  -0.2880 
 19 C        2.4800    -1.4430    -1.2520 C.3   1 <1>  -0.1600 
 20 C        0.2030    -1.4330    -0.1340 C.3   1 <1>  -0.1600 
 21 C       -4.7880     4.9020    -0.5320 C.3   1 <1>   0.1200 
 22 C       -5.6130     2.5660    -0.1750 C.2   1 <1>  -0.2760 
 23 C        0.9760    -1.6930    -1.4340 C.3   1 <1>  -0.1600 
 24 C       -5.9780     4.0370    -0.0950 C.3   1 <1>  -0.0220 
 25 C       -6.7850     1.6010    -0.1780 C.3   1 <1>  -0.1020 
 26 H       -1.2680     4.7080     1.2230 H     1 <1>   0.0800 
 27 H       -0.3240     3.3580     1.7910 H     1 <1>   0.0800 
 28 H       -0.6320     4.0400    -2.3880 H     1 <1>   0.0800 
 29 H       -1.4690     5.1090    -1.2960 H     1 <1>   0.0800 
 30 H        2.2830     4.8380     1.3940 H     1 <1>   0.1500 
 31 H       -2.7510     2.8720     1.8940 H     1 <1>   0.0800 
 32 H       -1.9050     1.7780     0.8500 H     1 <1>   0.0800 
 33 H       -2.0660     2.1810    -1.7370 H     1 <1>   0.0800 
 34 H       -3.0390     3.4870    -2.3140 H     1 <1>   0.0800 
 35 H        3.4800     1.1960     2.7540 H     1 <1>   0.2700 
 36 H        2.3270    -0.4670     1.3240 H     1 <1>   0.0800 
 37 H        3.8000     0.1010    -0.5450 H     1 <1>   0.0800 
 38 H        2.4460     0.6900    -1.4600 H     1 <1>   0.0800 
 39 H        0.0790     0.6900    -0.3200 H     1 <1>   0.0800 
 40 H       -0.0390     0.1300     1.3240 H     1 <1>   0.0800 
 41 H       -4.0150     1.1750    -0.2990 H     1 <1>   0.1500 
 42 H        2.8820    -2.1690    -0.5660 H     1 <1>   0.0800 
 43 H        2.9810    -1.5690    -2.1960 H     1 <1>   0.0800 
 44 H       -0.8510    -1.5570    -0.3110 H     1 <1>   0.0800 
 45 H        0.5010    -2.1540     0.6090 H     1 <1>   0.0800 
 46 H       -4.6490     4.8420    -1.5960 H     1 <1>   0.0800 
 47 H       -4.9550     5.9300    -0.2620 H     1 <1>   0.0800 
 48 H        0.8140    -2.7070    -1.7550 H     1 <1>   0.0800 
 49 H        0.6010    -1.0400    -2.2050 H     1 <1>   0.0800 
 50 H       -6.8110     4.2500    -0.7420 H     1 <1>   0.0800 
 51 H       -6.2610     4.2890     0.9110 H     1 <1>   0.0800 
 52 H       -7.3680     1.7250     0.7180 H     1 <1>   0.0800 
 53 H       -6.4350     0.5850    -0.2200 H     1 <1>   0.0800 
 54 H       -7.4140     1.7810    -1.0310 H     1 <1>   0.0800 
@<TRIPOS>BOND
  1   1   2  2   
  2   2   3  am  
  3   2   4  1   
  4   3   5  1   
  5   3   6  1   
  6   4   7  2   
  7   4   8  1   
  8   5   9  1   
  9   5  26  1   
 10   5  27  1   
 11   6  10  1   
 12   6  28  1   
 13   6  29  1   
 14   7  11  1   
 15   7  12  1   
 16   8  13  2   
 17   8  30  1   
 18   9  14  1   
 19   9  31  1   
 20   9  32  1   
 21  10  14  1   
 22  10  33  1   
 23  10  34  1   
 24  11  13  1   
 25  11  35  1   
 26  12  15  1   
 27  12  16  1   
 28  12  36  1   
 29  14  17  1   
 30  14  18  1   
 31  15  19  1   
 32  15  37  1   
 33  15  38  1   
 34  16  20  1   
 35  16  39  1   
 36  16  40  1   
 37  17  21  1   
 38  18  22  2   
 39  18  41  1   
 40  19  23  1   
 41  19  42  1   
 42  19  43  1   
 43  20  23  1   
 44  20  44  1   
 45  20  45  1   
 46  21  24  1   
 47  21  46  1   
 48  21  47  1   
 49  22  24  1   
 50  22  25  1   
 51  23  48  1   
 52  23  49  1   
 53  24  50  1   
 54  24  51  1   
 55  25  52  1   
 56  25  53  1   
 57  25  54  1   
@<TRIPOS>SUBSTRUCTURE
  1 ****   3 GROUP 4 **** **** 0

# MOE 2024.06 (io_trps.svl 2023.06)
