@<TRIPOS>MOLECULE
NONAME
55 58 1 0 0 
SMALL
USER_CHARGES


@<TRIPOS>ATOM
  1 O        0.8040     0.2550    -2.5340 O.2   1 <1>  -0.5700 
  2 C        1.3190     0.5470    -1.4700 C.2   1 <1>   0.5440 
  3 N        0.7580     1.5610    -0.7250 N.am  1 <1>  -0.6600 
  4 C        2.5020    -0.1340    -1.0110 C.ar  1 <1>   0.0860 
  5 C       -0.5220     2.2070    -1.0830 C.3   1 <1>   0.1400 
  6 C        1.2190     1.9910     0.6150 C.3   1 <1>   0.1400 
  7 C        2.4750    -1.4530    -0.5100 C.ar  1 <1>   0.4100 
  8 C        3.7250     0.5210    -1.0630 C.ar  1 <1>  -0.1500 
  9 C       -1.0360     2.7840     0.2300 C.3   1 <1>  -0.1600 
 10 C        0.2240     3.0640     1.0460 C.3   1 <1>  -0.1600 
 11 N        3.5670    -2.0890    -0.0830 N.ar  1 <1>  -0.6200 
 12 N        1.3180    -2.2110    -0.4230 N.pl3 1 <1>  -0.8380 
 13 C        4.8430    -0.1430    -0.6190 C.ar  1 <1>  -0.1500 
 14 C        4.7080    -1.4340    -0.1430 C.ar  1 <1>   0.1600 
 15 C        1.2600    -3.5410    -1.0850 C.3   1 <1>   0.2090 
 16 C        0.0280    -1.6880     0.1000 C.3   1 <1>   0.2090 
 17 C        0.6360    -4.5630    -0.1360 C.3   1 <1>  -0.1600 
 18 C       -0.6010    -2.7110     1.0430 C.3   1 <1>  -0.1600 
 19 C       -0.7260    -4.0670     0.3520 C.3   1 <1>   0.2000 
 20 O       -1.2430    -4.9880     1.2890 O.3   1 <1>  -0.3630 
 21 C       -2.0170    -5.9950     0.8130 C.ar  1 <1>   0.0820 
 22 C       -3.2730    -5.7660     0.2390 C.ar  1 <1>   0.0820 
 23 C       -1.5280    -7.2850     0.9350 C.ar  1 <1>  -0.1500 
 24 O       -3.7370    -4.4840     0.1690 O.3   1 <1>  -0.3630 
 25 C       -4.0050    -6.8540    -0.2300 C.ar  1 <1>  -0.1500 
 26 C       -2.2670    -8.3580     0.4680 C.ar  1 <1>  -0.1500 
 27 C       -5.0560    -4.1990    -0.2390 C.3   1 <1>   0.0400 
 28 C       -3.5020    -8.1400    -0.1160 C.ar  1 <1>  -0.1500 
 29 H       -1.2120     1.4950    -1.5050 H     1 <1>   0.0800 
 30 H       -0.3300     2.9900    -1.7960 H     1 <1>   0.0800 
 31 H        2.2200     2.3840     0.5680 H     1 <1>   0.0800 
 32 H        1.1900     1.1540     1.2910 H     1 <1>   0.0800 
 33 H        3.7850     1.5240    -1.4490 H     1 <1>   0.1500 
 34 H       -1.6360     2.0410     0.7260 H     1 <1>   0.0800 
 35 H       -1.6290     3.6670     0.0730 H     1 <1>   0.0800 
 36 H        0.6190     4.0300     0.7860 H     1 <1>   0.0800 
 37 H        0.0410     3.0350     2.1060 H     1 <1>   0.0800 
 38 H        5.8100     0.3260    -0.6410 H     1 <1>   0.1500 
 39 H        5.5850    -1.9520     0.2040 H     1 <1>   0.1500 
 40 H        2.2480    -3.8620    -1.3680 H     1 <1>   0.0800 
 41 H        0.6660    -3.4580    -1.9790 H     1 <1>   0.0800 
 42 H       -0.6330    -1.4880    -0.7270 H     1 <1>   0.0800 
 43 H        0.1920    -0.7720     0.6370 H     1 <1>   0.0800 
 44 H        1.2980    -4.7030     0.7000 H     1 <1>   0.0800 
 45 H        0.5220    -5.4980    -0.6510 H     1 <1>   0.0800 
 46 H       -1.5750    -2.3700     1.3400 H     1 <1>   0.0800 
 47 H        0.0190    -2.8030     1.9170 H     1 <1>   0.0800 
 48 H       -1.4040    -3.9860    -0.4790 H     1 <1>   0.0800 
 49 H       -0.5690    -7.4400     1.3940 H     1 <1>   0.1500 
 50 H       -4.9680    -6.7250    -0.6860 H     1 <1>   0.1500 
 51 H       -1.8810    -9.3580     0.5620 H     1 <1>   0.1500 
 52 H       -5.2110    -3.1390    -0.1480 H     1 <1>   0.0800 
 53 H       -5.7410    -4.7250     0.4010 H     1 <1>   0.0800 
 54 H       -5.1760    -4.4980    -1.2650 H     1 <1>   0.0800 
 55 H       -4.0760    -8.9750    -0.4810 H     1 <1>   0.1500 
@<TRIPOS>BOND
  1   1   2  2   
  2   2   3  am  
  3   2   4  1   
  4   3   5  1   
  5   3   6  1   
  6   4   7  ar  
  7   4   8  ar  
  8   5   9  1   
  9   5  29  1   
 10   5  30  1   
 11   6  10  1   
 12   6  31  1   
 13   6  32  1   
 14   7  11  ar  
 15   7  12  1   
 16   8  13  ar  
 17   8  33  1   
 18   9  10  1   
 19   9  34  1   
 20   9  35  1   
 21  10  36  1   
 22  10  37  1   
 23  11  14  ar  
 24  12  15  1   
 25  12  16  1   
 26  13  14  ar  
 27  13  38  1   
 28  14  39  1   
 29  15  17  1   
 30  15  40  1   
 31  15  41  1   
 32  16  18  1   
 33  16  42  1   
 34  16  43  1   
 35  17  19  1   
 36  17  44  1   
 37  17  45  1   
 38  18  19  1   
 39  18  46  1   
 40  18  47  1   
 41  19  20  1   
 42  19  48  1   
 43  20  21  1   
 44  21  22  ar  
 45  21  23  ar  
 46  22  24  1   
 47  22  25  ar  
 48  23  26  ar  
 49  23  49  1   
 50  24  27  1   
 51  25  28  ar  
 52  25  50  1   
 53  26  28  ar  
 54  26  51  1   
 55  27  52  1   
 56  27  53  1   
 57  27  54  1   
 58  28  55  1   
@<TRIPOS>SUBSTRUCTURE
  1 ****  16 GROUP 4 **** **** 0

# MOE 2024.06 (io_trps.svl 2023.06)
