@<TRIPOS>MOLECULE
NONAME
46 49 1 0 0 
SMALL
USER_CHARGES


@<TRIPOS>ATOM
  1 S       -0.2310    -0.7260    -1.2140 S.o2  1 <1>   1.4470 
  2 O       -0.5560    -0.1700    -2.5100 O.2   1 <1>  -0.6500 
  3 O       -0.3480    -2.1730    -1.1340 O.2   1 <1>  -0.6500 
  4 N       -1.3060    -0.1290    -0.0340 N.am  1 <1>  -0.8490 
  5 C        1.4730    -0.3200    -0.6700 C.ar  1 <1>  -0.0090 
  6 C       -2.3000     0.8110    -0.5960 C.3   1 <1>   0.1960 
  7 C       -1.9350    -1.1660     0.7850 C.3   1 <1>   0.1960 
  8 C        1.9010     0.9440    -0.2210 C.ar  1 <1>  -0.1790 
  9 C        2.4150    -1.3470    -0.6970 C.ar  1 <1>  -0.1500 
 10 C       -3.1310     1.5060     0.5020 C.3   1 <1>   0.1430 
 11 C       -2.7590    -0.5500     1.9230 C.3   1 <1>  -0.1600 
 12 C        1.0480     2.1150    -0.1930 C.2   1 <1>   0.9790 
 13 C        3.2200     1.0970     0.2130 C.ar  1 <1>  -0.1500 
 14 C        3.7200    -1.1750    -0.2780 C.ar  1 <1>  -0.1500 
 15 C       -4.1170     2.4590    -0.1540 C.ar  1 <1>   0.1660 
 16 C       -3.8050     0.4440     1.3930 C.3   1 <1>  -0.1600 
 17 C       -2.2600     2.4820     1.3300 C.3   1 <1>  -0.1600 
 18 O        0.3650     2.4300    -1.1760 O.co2 1 <1>  -0.9000 
 19 O        1.0410     2.8630     0.7990 O.co2 1 <1>  -0.9000 
 20 C        4.1240     0.0570     0.1880 C.ar  1 <1>  -0.1500 
 21 N       -5.2630     2.1320    -0.7090 N.ar  1 <1>  -0.6200 
 22 C       -3.6590     3.7440    -0.1010 C.ar  1 <1>  -0.1440 
 23 C       -2.3240     3.8320     0.6000 C.3   1 <1>  -0.0170 
 24 C       -5.9330     3.1640    -1.2000 C.ar  1 <1>   0.7200 
 25 C       -4.4360     4.7260    -0.6630 C.ar  1 <1>   0.1600 
 26 N       -5.5940     4.4460    -1.2230 N.ar  1 <1>  -0.6200 
 27 N       -7.1010     2.8710    -1.7760 N.pl3 1 <1>  -0.9000 
 28 H       -2.9610     0.2760    -1.2570 H     1 <1>   0.0800 
 29 H       -1.8090     1.5650    -1.1840 H     1 <1>   0.0800 
 30 H       -1.1720    -1.7960     1.2110 H     1 <1>   0.0800 
 31 H       -2.5700    -1.7780     0.1630 H     1 <1>   0.0800 
 32 H        2.1200    -2.3190    -1.0540 H     1 <1>   0.1500 
 33 H       -2.0880    -0.0530     2.6010 H     1 <1>   0.0800 
 34 H       -3.2520    -1.3350     2.4670 H     1 <1>   0.0800 
 35 H        3.5270     2.0650     0.5750 H     1 <1>   0.1500 
 36 H        4.4140    -1.9960    -0.3120 H     1 <1>   0.1500 
 37 H       -4.5320    -0.0900     0.8060 H     1 <1>   0.0800 
 38 H       -4.3240     0.9160     2.2080 H     1 <1>   0.0800 
 39 H       -1.2500     2.1370     1.4470 H     1 <1>   0.0800 
 40 H       -2.6870     2.6100     2.3080 H     1 <1>   0.0800 
 41 H        5.1330     0.2110     0.5270 H     1 <1>   0.1500 
 42 H       -1.5270     3.9030    -0.1230 H     1 <1>   0.0800 
 43 H       -2.2660     4.6570     1.2870 H     1 <1>   0.0800 
 44 H       -4.1030     5.7490    -0.6510 H     1 <1>   0.1500 
 45 H       -7.4480     3.5820    -2.4130 H     1 <1>   0.4000 
 46 H       -7.1940     1.9040    -2.0720 H     1 <1>   0.4000 
@<TRIPOS>BOND
  1   1   2  2   
  2   1   3  2   
  3   1   4  am  
  4   1   5  1   
  5   4   6  1   
  6   4   7  1   
  7   5   8  ar  
  8   5   9  ar  
  9   6  10  1   
 10   6  28  1   
 11   6  29  1   
 12   7  11  1   
 13   7  30  1   
 14   7  31  1   
 15   8  12  1   
 16   8  13  ar  
 17   9  14  ar  
 18   9  32  1   
 19  10  15  1   
 20  10  16  1   
 21  10  17  1   
 22  11  16  1   
 23  11  33  1   
 24  11  34  1   
 25  12  18  ar  
 26  12  19  ar  
 27  13  20  ar  
 28  13  35  1   
 29  14  20  ar  
 30  14  36  1   
 31  15  21  ar  
 32  15  22  ar  
 33  16  37  1   
 34  16  38  1   
 35  17  23  1   
 36  17  39  1   
 37  17  40  1   
 38  20  41  1   
 39  21  24  ar  
 40  22  23  1   
 41  22  25  ar  
 42  23  42  1   
 43  23  43  1   
 44  24  26  ar  
 45  24  27  1   
 46  25  26  ar  
 47  25  44  1   
 48  27  45  1   
 49  27  46  1   
@<TRIPOS>SUBSTRUCTURE
  1 ****   6 GROUP 4 **** **** 0

# MOE 2024.06 (io_trps.svl 2023.06)
