@<TRIPOS>MOLECULE
NONAME
47 48 1 0 0 
SMALL
USER_CHARGES


@<TRIPOS>ATOM
  1 O       -0.2910     2.9930     1.6020 O.3   1 <1>  -0.5600 
  2 C        0.2240     3.5700     0.4560 C.3   1 <1>   0.1200 
  3 C       -1.5750     2.4750     1.4580 C.3   1 <1>   0.0400 
  4 C        1.6150     4.0850     0.8170 C.3   1 <1>  -0.1600 
  5 C        2.2950     4.7110    -0.3960 C.3   1 <1>   0.3430 
  6 N        3.5930     5.3190     0.0010 N.4   1 <1>  -0.9590 
  7 C        4.0990     6.2580    -1.0420 C.3   1 <1>   0.4380 
  8 C        4.6300     4.3070     0.3750 C.3   1 <1>   0.2630 
  9 C        5.0620     7.2720    -0.4080 C.3   1 <1>  -0.0630 
 10 C        4.4260     7.9120     0.8230 C.ar  1 <1>  -0.0320 
 11 C        5.9850     8.0910    -1.2630 C.3   1 <1>  -0.1900 
 12 C        6.5490     6.9980    -0.4140 C.3   1 <1>  -0.2000 
 13 C        4.8040     7.5310     2.1020 C.ar  1 <1>  -0.1500 
 14 C        3.4280     8.8610     0.6640 C.ar  1 <1>  -0.1500 
 15 C        6.3320     9.5360    -0.8710 C.3   1 <1>  -0.1450 
 16 C        6.0250     7.9120    -2.7880 C.3   1 <1>  -0.1450 
 17 C        4.1810     8.0820     3.2080 C.ar  1 <1>  -0.1500 
 18 C        2.8040     9.4130     1.7690 C.ar  1 <1>  -0.1500 
 19 C        3.1780     9.0210     3.0410 C.ar  1 <1>  -0.1500 
 20 H       -0.4260     4.3750     0.1530 H     1 <1>   0.0800 
 21 H        0.2710     2.8180    -0.3140 H     1 <1>   0.0800 
 22 H       -1.8740     2.0540     2.4020 H     1 <1>   0.0800 
 23 H       -1.5690     1.7050     0.7060 H     1 <1>   0.0800 
 24 H       -2.2520     3.2670     1.1860 H     1 <1>   0.0800 
 25 H        2.1920     3.2540     1.1810 H     1 <1>   0.0800 
 26 H        1.5110     4.8200     1.5960 H     1 <1>   0.0800 
 27 H        1.6480     5.4760    -0.7970 H     1 <1>   0.0800 
 28 H        2.4510     3.9650    -1.1590 H     1 <1>   0.0800 
 29 H        3.4210     5.9200     0.8270 H     1 <1>   0.4500 
 30 H        3.2730     6.8040    -1.4680 H     1 <1>   0.0800 
 31 H        4.5910     5.7150    -1.8320 H     1 <1>   0.0800 
 32 H        4.8460     3.6630    -0.4610 H     1 <1>   0.0800 
 33 H        4.2860     3.7030     1.1990 H     1 <1>   0.0800 
 34 H        5.5400     4.8000     0.6760 H     1 <1>   0.0800 
 35 H        6.9410     6.1270    -0.9110 H     1 <1>   0.1000 
 36 H        7.1540     7.2850     0.4290 H     1 <1>   0.1000 
 37 H        5.5870     6.8090     2.2500 H     1 <1>   0.1500 
 38 H        3.1350     9.1810    -0.3210 H     1 <1>   0.1500 
 39 H        6.3930     9.6520     0.1970 H     1 <1>   0.0800 
 40 H        5.5840    10.2140    -1.2420 H     1 <1>   0.0800 
 41 H        7.2840     9.8170    -1.2860 H     1 <1>   0.0800 
 42 H        5.9090     6.8850    -3.0780 H     1 <1>   0.0800 
 43 H        6.9710     8.2530    -3.1710 H     1 <1>   0.0800 
 44 H        5.2470     8.4950    -3.2510 H     1 <1>   0.0800 
 45 H        4.4770     7.7870     4.2010 H     1 <1>   0.1500 
 46 H        2.0310    10.1520     1.6420 H     1 <1>   0.1500 
 47 H        2.6950     9.4520     3.9020 H     1 <1>   0.1500 
@<TRIPOS>BOND
  1   1   2  1   
  2   1   3  1   
  3   2   4  1   
  4   2  20  1   
  5   2  21  1   
  6   3  22  1   
  7   3  23  1   
  8   3  24  1   
  9   4   5  1   
 10   4  25  1   
 11   4  26  1   
 12   5   6  1   
 13   5  27  1   
 14   5  28  1   
 15   6   7  1   
 16   6   8  1   
 17   6  29  1   
 18   7   9  1   
 19   7  30  1   
 20   7  31  1   
 21   8  32  1   
 22   8  33  1   
 23   8  34  1   
 24   9  10  1   
 25   9  11  1   
 26   9  12  1   
 27  10  13  ar  
 28  10  14  ar  
 29  11  12  1   
 30  11  15  1   
 31  11  16  1   
 32  12  35  1   
 33  12  36  1   
 34  13  17  ar  
 35  13  37  1   
 36  14  18  ar  
 37  14  38  1   
 38  15  39  1   
 39  15  40  1   
 40  15  41  1   
 41  16  42  1   
 42  16  43  1   
 43  16  44  1   
 44  17  19  ar  
 45  17  45  1   
 46  18  19  ar  
 47  18  46  1   
 48  19  47  1   
@<TRIPOS>SUBSTRUCTURE
  1 ****   6 GROUP 4 **** **** 0

# MOE 2024.06 (io_trps.svl 2023.06)
