@<TRIPOS>MOLECULE
NONAME
54 56 1 0 0 
SMALL
USER_CHARGES


@<TRIPOS>ATOM
  1 O       -2.2660     0.4190    -2.0620 O.2   1 <1>  -0.5700 
  2 C       -2.1530     0.7180    -0.8880 C.2   1 <1>   0.5440 
  3 N       -2.7740    -0.0680     0.0500 N.am  1 <1>  -0.6600 
  4 C       -1.5270     1.9710    -0.5190 C.ar  1 <1>   0.0860 
  5 C       -2.7340    -1.5680    -0.0060 C.3   1 <1>   0.3640 
  6 C       -4.1080     0.4030     0.4960 C.3   1 <1>   0.1400 
  7 C       -0.4710     2.0760     0.3960 C.ar  1 <1>   0.1660 
  8 C       -1.9880     3.1520    -1.0860 C.ar  1 <1>  -0.1500 
  9 C       -1.3230    -2.0740    -0.3450 C.ar  1 <1>  -0.1440 
 10 C       -3.8890    -2.1150    -0.8970 C.3   1 <1>   0.2000 
 11 C       -5.1740    -0.1520    -0.4630 C.3   1 <1>   0.1200 
 12 N        0.0840     3.2150     0.7810 N.ar  1 <1>  -0.6200 
 13 C        0.1440     0.8350     1.0160 C.3   1 <1>  -0.0960 
 14 C       -1.4090     4.3380    -0.6980 C.ar  1 <1>  -0.1500 
 15 C       -0.4960    -2.4760     0.6960 C.ar  1 <1>  -0.1500 
 16 C       -0.8460    -2.1670    -1.6480 C.ar  1 <1>  -0.1500 
 17 O       -5.1210    -1.5500    -0.4980 O.3   1 <1>  -0.5600 
 18 C       -4.1150    -3.6410    -0.8340 C.3   1 <1>   0.1200 
 19 C       -0.3880     4.3200     0.2350 C.ar  1 <1>   0.1670 
 20 C        0.7800    -2.9520     0.4530 C.ar  1 <1>   0.0830 
 21 C        0.4350    -2.6280    -1.9020 C.ar  1 <1>  -0.1500 
 22 O       -2.9460    -4.3950    -0.7910 O.3   1 <1>  -0.6800 
 23 C        0.2640     5.6100     0.6850 C.3   1 <1>  -0.0970 
 24 O        1.5120    -3.3520     1.5210 O.3   1 <1>  -0.3620 
 25 C        1.2610    -3.0060    -0.8590 C.ar  1 <1>   0.0830 
 26 C        1.7940    -4.7320     1.5950 C.3   1 <1>   0.0400 
 27 O        2.5180    -3.4090    -1.1670 O.3   1 <1>  -0.3630 
 28 C        3.5640    -2.5730    -0.7260 C.3   1 <1>   0.0400 
 29 H       -2.9480    -1.9240     0.9860 H     1 <1>   0.0800 
 30 H       -4.3030     0.0640     1.4990 H     1 <1>   0.0800 
 31 H       -4.1420     1.4790     0.4920 H     1 <1>   0.0800 
 32 H       -2.7800     3.1290    -1.8140 H     1 <1>   0.1500 
 33 H       -3.7170    -1.8270    -1.9190 H     1 <1>   0.0800 
 34 H       -5.0220     0.2230    -1.4610 H     1 <1>   0.0800 
 35 H       -6.1580     0.1300    -0.1320 H     1 <1>   0.0800 
 36 H        0.4250     0.1430     0.2450 H     1 <1>   0.0800 
 37 H       -0.5570     0.3670     1.6820 H     1 <1>   0.0800 
 38 H        1.0260     1.0880     1.5760 H     1 <1>   0.0800 
 39 H       -1.7470     5.2680    -1.1190 H     1 <1>   0.1500 
 40 H       -0.8360    -2.4300     1.7150 H     1 <1>   0.1500 
 41 H       -1.4590    -1.8700    -2.4820 H     1 <1>   0.1500 
 42 H       -4.6760    -3.9560    -1.6950 H     1 <1>   0.0800 
 43 H       -4.6730    -3.8880     0.0530 H     1 <1>   0.0800 
 44 H        0.8010    -2.6870    -2.9100 H     1 <1>   0.1500 
 45 H       -2.2470    -4.0160    -1.3650 H     1 <1>   0.4000 
 46 H       -0.1750     6.4600     0.1960 H     1 <1>   0.0800 
 47 H        1.3140     5.5790     0.4550 H     1 <1>   0.0800 
 48 H        0.1470     5.7190     1.7470 H     1 <1>   0.0800 
 49 H        2.2840    -4.9250     2.5320 H     1 <1>   0.0800 
 50 H        2.4380    -5.0080     0.7800 H     1 <1>   0.0800 
 51 H        0.8690    -5.2790     1.5420 H     1 <1>   0.0800 
 52 H        4.4880    -2.9520    -1.1230 H     1 <1>   0.0800 
 53 H        3.5970    -2.5780     0.3480 H     1 <1>   0.0800 
 54 H        3.3880    -1.5760    -1.0900 H     1 <1>   0.0800 
@<TRIPOS>BOND
  1   1   2  2   
  2   2   3  am  
  3   2   4  1   
  4   3   5  1   
  5   3   6  1   
  6   4   7  ar  
  7   4   8  ar  
  8   5   9  1   
  9   5  10  1   
 10   5  29  1   
 11   6  11  1   
 12   6  30  1   
 13   6  31  1   
 14   7  12  ar  
 15   7  13  1   
 16   8  14  ar  
 17   8  32  1   
 18   9  15  ar  
 19   9  16  ar  
 20  10  17  1   
 21  10  18  1   
 22  10  33  1   
 23  11  17  1   
 24  11  34  1   
 25  11  35  1   
 26  12  19  ar  
 27  13  36  1   
 28  13  37  1   
 29  13  38  1   
 30  14  19  ar  
 31  14  39  1   
 32  15  20  ar  
 33  15  40  1   
 34  16  21  ar  
 35  16  41  1   
 36  18  22  1   
 37  18  42  1   
 38  18  43  1   
 39  19  23  1   
 40  20  24  1   
 41  20  25  ar  
 42  21  25  ar  
 43  21  44  1   
 44  22  45  1   
 45  23  46  1   
 46  23  47  1   
 47  23  48  1   
 48  24  26  1   
 49  25  27  1   
 50  26  49  1   
 51  26  50  1   
 52  26  51  1   
 53  27  28  1   
 54  28  52  1   
 55  28  53  1   
 56  28  54  1   
@<TRIPOS>SUBSTRUCTURE
  1 ****   9 GROUP 4 **** **** 0

# MOE 2024.06 (io_trps.svl 2023.06)
