@<TRIPOS>MOLECULE
NONAME
49 52 1 0 0 
SMALL
USER_CHARGES


@<TRIPOS>ATOM
  1 S       -0.8420    -2.2610     0.3520 S.3   1 <1>  -0.4600 
  2 C       -2.0360    -1.1630     1.1640 C.3   1 <1>   0.0700 
  3 C        0.6340    -1.2640    -0.0740 C.3   1 <1>   0.0700 
  4 C       -2.9330    -0.5700     0.0570 C.3   1 <1>   0.4230 
  5 C        0.3810     0.2480    -0.1580 C.3   1 <1>   0.0700 
  6 N       -4.3910    -0.5640     0.4320 N.4   1 <1>  -0.9590 
  7 C       -2.4270     0.8260    -0.3490 C.3   1 <1>   0.0700 
  8 S       -0.9340     0.6230    -1.3570 S.3   1 <1>  -0.4600 
  9 C       -5.2850    -0.0550    -0.6640 C.3   1 <1>   0.3430 
 10 C       -4.9200    -1.9250     0.7960 C.3   1 <1>   0.3430 
 11 C       -6.5730    -0.8740    -0.5760 C.3   1 <1>   0.2000 
 12 C       -6.0700    -2.2510    -0.1640 C.3   1 <1>  -0.0800 
 13 O       -7.3330    -0.3620     0.4670 O.3   1 <1>  -0.6800 
 14 C       -5.5920    -3.0870    -1.3730 C.3   1 <1>  -0.0170 
 15 C       -4.8060    -4.3100    -0.9130 C.ar  1 <1>  -0.1440 
 16 C       -5.4260    -5.4290    -0.3070 C.ar  1 <1>   0.0000 
 17 C       -3.4480    -4.3410    -1.0530 C.ar  1 <1>  -0.1500 
 18 C       -4.5870    -6.4670     0.1700 C.ar  1 <1>   0.3100 
 19 C       -6.8240    -5.5850    -0.1490 C.ar  1 <1>  -0.1500 
 20 C       -2.7120    -5.4260    -0.5630 C.ar  1 <1>   0.1600 
 21 N       -3.2380    -6.4440     0.0380 N.ar  1 <1>  -0.6200 
 22 C       -5.1680    -7.5730     0.8090 C.ar  1 <1>  -0.1500 
 23 C       -7.3580    -6.6790     0.4760 C.ar  1 <1>  -0.1500 
 24 C       -6.5220    -7.6840     0.9670 C.ar  1 <1>  -0.1500 
 25 H       -2.5780    -1.7890     1.8470 H     1 <1>   0.0800 
 26 H       -1.4940    -0.4220     1.7210 H     1 <1>   0.0800 
 27 H        1.3730    -1.4760     0.6780 H     1 <1>   0.0800 
 28 H        0.9880    -1.6350    -1.0200 H     1 <1>   0.0800 
 29 H       -2.8320    -1.2060    -0.8080 H     1 <1>   0.0800 
 30 H        1.2660     0.7430    -0.5190 H     1 <1>   0.0800 
 31 H        0.1150     0.6740     0.7920 H     1 <1>   0.0800 
 32 H       -4.5520     0.0420     1.2490 H     1 <1>   0.4500 
 33 H       -2.1720     1.4390     0.4970 H     1 <1>   0.0800 
 34 H       -3.1230     1.3450    -0.9810 H     1 <1>   0.0800 
 35 H       -5.4920     0.9980    -0.5600 H     1 <1>   0.0800 
 36 H       -4.8240    -0.2330    -1.6210 H     1 <1>   0.0800 
 37 H       -4.1510    -2.6800     0.7520 H     1 <1>   0.0800 
 38 H       -5.3080    -1.8960     1.8010 H     1 <1>   0.0800 
 39 H       -7.1550    -0.8550    -1.4830 H     1 <1>   0.0800 
 40 H       -6.8320    -2.8010     0.3590 H     1 <1>   0.0800 
 41 H       -8.2420    -0.7330     0.4670 H     1 <1>   0.4000 
 42 H       -4.9630    -2.4940    -2.0140 H     1 <1>   0.0800 
 43 H       -6.4330    -3.3990    -1.9690 H     1 <1>   0.0800 
 44 H       -2.8980    -3.5490    -1.5270 H     1 <1>   0.1500 
 45 H       -7.4910    -4.8380    -0.5320 H     1 <1>   0.1500 
 46 H       -1.6410    -5.4070    -0.6850 H     1 <1>   0.1500 
 47 H       -4.5060    -8.3380     1.1710 H     1 <1>   0.1500 
 48 H       -8.4240    -6.7860     0.5940 H     1 <1>   0.1500 
 49 H       -6.9540    -8.5390     1.4590 H     1 <1>   0.1500 
@<TRIPOS>BOND
  1   1   2  1   
  2   1   3  1   
  3   2   4  1   
  4   2  25  1   
  5   2  26  1   
  6   3   5  1   
  7   3  27  1   
  8   3  28  1   
  9   4   6  1   
 10   4   7  1   
 11   4  29  1   
 12   5   8  1   
 13   5  30  1   
 14   5  31  1   
 15   6   9  1   
 16   6  10  1   
 17   6  32  1   
 18   7   8  1   
 19   7  33  1   
 20   7  34  1   
 21   9  11  1   
 22   9  35  1   
 23   9  36  1   
 24  10  12  1   
 25  10  37  1   
 26  10  38  1   
 27  11  12  1   
 28  11  13  1   
 29  11  39  1   
 30  12  14  1   
 31  12  40  1   
 32  13  41  1   
 33  14  15  1   
 34  14  42  1   
 35  14  43  1   
 36  15  16  ar  
 37  15  17  ar  
 38  16  18  ar  
 39  16  19  ar  
 40  17  20  ar  
 41  17  44  1   
 42  18  21  ar  
 43  18  22  ar  
 44  19  23  ar  
 45  19  45  1   
 46  20  21  ar  
 47  20  46  1   
 48  22  24  ar  
 49  22  47  1   
 50  23  24  ar  
 51  23  48  1   
 52  24  49  1   
@<TRIPOS>SUBSTRUCTURE
  1 ****  10 GROUP 4 **** **** 0

# MOE 2024.06 (io_trps.svl 2023.06)
