@<TRIPOS>MOLECULE
NONAME
43 45 1 0 0 
SMALL
USER_CHARGES


@<TRIPOS>ATOM
  1 O        2.0320    -0.9420     2.5100 O.2   1 <1>  -0.5700 
  2 C        1.7340    -1.5740     1.5090 C.2   1 <1>   0.5440 
  3 N        1.4240    -0.8360     0.3790 N.am  1 <1>  -0.6600 
  4 C        1.7470    -3.0410     1.5680 C.ar  1 <1>   0.3960 
  5 C        1.3790     0.6430     0.3800 C.3   1 <1>   0.1400 
  6 C        1.1380    -1.3690    -0.9730 C.3   1 <1>   0.1400 
  7 N        1.0160    -3.7840     0.7180 N.ar  1 <1>  -0.6200 
  8 C        2.5430    -3.6450     2.5500 C.ar  1 <1>   0.1600 
  9 C        0.8190     1.0220    -0.9860 C.3   1 <1>  -0.1600 
 10 C        1.1820    -0.1530    -1.8900 C.3   1 <1>  -0.1600 
 11 C        1.1360    -5.0800     0.9020 C.ar  1 <1>   0.4100 
 12 N        2.6810    -4.9500     2.7460 N.ar  1 <1>  -0.6200 
 13 N        0.3860    -5.8270     0.0340 N.pl3 1 <1>  -0.8690 
 14 C        1.9590    -5.6420     1.8890 C.ar  1 <1>   0.1600 
 15 C       -0.5400    -6.8690     0.5420 C.3   1 <1>   0.2090 
 16 C       -1.4030    -7.4380    -0.5950 C.3   1 <1>   0.2000 
 17 O       -2.1390    -6.3900    -1.2020 O.3   1 <1>  -0.2170 
 18 C       -2.4790    -8.4240    -0.1360 C.3   1 <1>  -0.0990 
 19 N       -3.4350    -6.6370    -1.2210 N.2   1 <1>  -0.5130 
 20 C       -3.6960    -7.7290    -0.6630 C.2   1 <1>   0.3280 
 21 C       -5.0590    -8.3820    -0.4730 C.3   1 <1>  -0.0990 
 22 C       -6.2200    -7.5640    -1.0590 C.3   1 <1>  -0.2400 
 23 H        2.3790     1.0230     0.5000 H     1 <1>   0.0800 
 24 H        0.7570     1.0060     1.1810 H     1 <1>   0.0800 
 25 H        0.1540    -1.8060    -0.9760 H     1 <1>   0.0800 
 26 H        1.8660    -2.1090    -1.2620 H     1 <1>   0.0800 
 27 H        3.1000    -3.0040     3.2120 H     1 <1>   0.1500 
 28 H        1.2220     1.9540    -1.3390 H     1 <1>   0.0800 
 29 H       -0.2520     1.1080    -0.9110 H     1 <1>   0.0800 
 30 H        0.5070    -0.2560    -2.7210 H     1 <1>   0.0800 
 31 H        2.1840    -0.0320    -2.2620 H     1 <1>   0.0800 
 32 H       -0.1090    -5.2060    -0.6220 H     1 <1>   0.4000 
 33 H        2.0080    -6.7120     1.9490 H     1 <1>   0.1500 
 34 H       -1.1800    -6.4420     1.2960 H     1 <1>   0.0800 
 35 H        0.0290    -7.6670     0.9870 H     1 <1>   0.0800 
 36 H       -0.7820    -7.8790    -1.3540 H     1 <1>   0.0800 
 37 H       -2.5200    -8.5200     0.9330 H     1 <1>   0.0800 
 38 H       -2.3450    -9.3850    -0.5960 H     1 <1>   0.0800 
 39 H       -5.2290    -8.5240     0.5790 H     1 <1>   0.0800 
 40 H       -5.0430    -9.3490    -0.9430 H     1 <1>   0.0800 
 41 H       -6.2680    -6.5970    -0.5890 H     1 <1>   0.0800 
 42 H       -7.1540    -8.0730    -0.9000 H     1 <1>   0.0800 
 43 H       -6.0780    -7.4220    -2.1160 H     1 <1>   0.0800 
@<TRIPOS>BOND
  1   1   2  2   
  2   2   3  am  
  3   2   4  1   
  4   3   5  1   
  5   3   6  1   
  6   4   7  ar  
  7   4   8  ar  
  8   5   9  1   
  9   5  23  1   
 10   5  24  1   
 11   6  10  1   
 12   6  25  1   
 13   6  26  1   
 14   7  11  ar  
 15   8  12  ar  
 16   8  27  1   
 17   9  10  1   
 18   9  28  1   
 19   9  29  1   
 20  10  30  1   
 21  10  31  1   
 22  11  13  1   
 23  11  14  ar  
 24  12  14  ar  
 25  13  15  1   
 26  13  32  1   
 27  14  33  1   
 28  15  16  1   
 29  15  34  1   
 30  15  35  1   
 31  16  17  1   
 32  16  18  1   
 33  16  36  1   
 34  17  19  1   
 35  18  20  1   
 36  18  37  1   
 37  18  38  1   
 38  19  20  2   
 39  20  21  1   
 40  21  22  1   
 41  21  39  1   
 42  21  40  1   
 43  22  41  1   
 44  22  42  1   
 45  22  43  1   
@<TRIPOS>SUBSTRUCTURE
  1 ****   7 GROUP 4 **** **** 0

# MOE 2024.06 (io_trps.svl 2023.06)
