@<TRIPOS>MOLECULE
NONAME
41 42 1 0 0 
SMALL
USER_CHARGES


@<TRIPOS>ATOM
  1 O        1.0350     1.7070    -1.1980 O.3   1 <1>  -0.3630 
  2 C        2.2420     1.7780    -0.5660 C.ar  1 <1>   0.0830 
  3 C        0.4840     0.4560    -1.5490 C.3   1 <1>   0.0400 
  4 C        3.0540     0.6970    -0.2740 C.ar  1 <1>   0.1600 
  5 C        2.7110     3.0150    -0.1830 C.ar  1 <1>   0.1600 
  6 N        4.2090     0.8330     0.3400 N.ar  1 <1>  -0.6200 
  7 N        3.8640     3.1830     0.4300 N.ar  1 <1>  -0.6200 
  8 C        4.5450     2.0680     0.6840 C.ar  1 <1>   0.7200 
  9 N        5.7490     2.2400     1.3270 N.pl3 1 <1>  -0.8380 
 10 C        5.9770     3.3910     2.2610 C.3   1 <1>   0.2090 
 11 C        6.9380     1.4150     0.9950 C.3   1 <1>   0.2090 
 12 C        6.4080     4.6680     1.5060 C.3   1 <1>   0.3430 
 13 C        7.6960     2.0560    -0.1730 C.3   1 <1>  -0.1600 
 14 N        6.8350     4.3630     0.0970 N.4   1 <1>  -0.9590 
 15 C        8.0660     3.5280     0.0360 C.3   1 <1>   0.3430 
 16 C        6.8590     5.5070    -0.8410 C.3   1 <1>   0.4230 
 17 C        7.7540     6.6300    -0.3150 C.3   1 <1>  -0.2400 
 18 C        5.4350     5.9980    -1.0820 C.3   1 <1>  -0.2400 
 19 H       -0.4720     0.6300    -2.0100 H     1 <1>   0.0800 
 20 H        0.3550    -0.1350    -0.6590 H     1 <1>   0.0800 
 21 H        1.1390    -0.0350    -2.2480 H     1 <1>   0.0800 
 22 H        2.7590    -0.2990    -0.5470 H     1 <1>   0.1500 
 23 H        2.1080     3.8820    -0.3950 H     1 <1>   0.1500 
 24 H        6.7290     3.1280     2.9830 H     1 <1>   0.0800 
 25 H        5.0720     3.5950     2.8100 H     1 <1>   0.0800 
 26 H        6.6390     0.4140     0.7270 H     1 <1>   0.0800 
 27 H        7.5760     1.3360     1.8590 H     1 <1>   0.0800 
 28 H        7.1950     5.1680     2.0440 H     1 <1>   0.0800 
 29 H        5.5570     5.3280     1.4820 H     1 <1>   0.0800 
 30 H        7.1170     1.9500    -1.0740 H     1 <1>   0.0800 
 31 H        8.6030     1.4980    -0.3200 H     1 <1>   0.0800 
 32 H        6.0690     3.7300    -0.2060 H     1 <1>   0.4500 
 33 H        8.6790     3.8500    -0.7900 H     1 <1>   0.0800 
 34 H        8.6380     3.6420     0.9410 H     1 <1>   0.0800 
 35 H        7.2550     5.1680    -1.7860 H     1 <1>   0.0800 
 36 H        7.3560     7.0660     0.5830 H     1 <1>   0.0800 
 37 H        7.8150     7.4080    -1.0550 H     1 <1>   0.0800 
 38 H        8.7510     6.2740    -0.1330 H     1 <1>   0.0800 
 39 H        4.9990     6.4150    -0.1930 H     1 <1>   0.0800 
 40 H        4.8170     5.1940    -1.4400 H     1 <1>   0.0800 
 41 H        5.4440     6.7650    -1.8350 H     1 <1>   0.0800 
@<TRIPOS>BOND
  1   1   2  1   
  2   1   3  1   
  3   2   4  ar  
  4   2   5  ar  
  5   3  19  1   
  6   3  20  1   
  7   3  21  1   
  8   4   6  ar  
  9   4  22  1   
 10   5   7  ar  
 11   5  23  1   
 12   6   8  ar  
 13   7   8  ar  
 14   8   9  1   
 15   9  10  1   
 16   9  11  1   
 17  10  12  1   
 18  10  24  1   
 19  10  25  1   
 20  11  13  1   
 21  11  26  1   
 22  11  27  1   
 23  12  14  1   
 24  12  28  1   
 25  12  29  1   
 26  13  15  1   
 27  13  30  1   
 28  13  31  1   
 29  14  15  1   
 30  14  16  1   
 31  14  32  1   
 32  15  33  1   
 33  15  34  1   
 34  16  17  1   
 35  16  18  1   
 36  16  35  1   
 37  17  36  1   
 38  17  37  1   
 39  17  38  1   
 40  18  39  1   
 41  18  40  1   
 42  18  41  1   
@<TRIPOS>SUBSTRUCTURE
  1 ****   8 GROUP 4 **** **** 0

# MOE 2024.06 (io_trps.svl 2023.06)
