@<TRIPOS>MOLECULE
NONAME
51 53 1 0 0 
SMALL
USER_CHARGES


@<TRIPOS>ATOM
  1 O       -0.6610     2.5520     1.2920 O.3   1 <1>  -0.3630 
  2 C        0.3560     3.2690     0.7520 C.ar  1 <1>   0.0830 
  3 C       -1.9530     2.5800     0.7290 C.3   1 <1>   0.0400 
  4 C        0.2220     4.0890    -0.3640 C.ar  1 <1>  -0.1500 
  5 C        1.5930     3.1600     1.3670 C.ar  1 <1>  -0.1500 
  6 C        1.3150     4.7870    -0.8450 C.ar  1 <1>  -0.1500 
  7 C        2.6840     3.8580     0.8830 C.ar  1 <1>  -0.1500 
  8 C        2.5600     4.6890    -0.2280 C.ar  1 <1>  -0.0230 
  9 N        3.6750     5.4280    -0.7250 N.pl3 1 <1>   0.5930 
 10 N        3.8560     5.7260    -2.0370 N.2   1 <1>  -0.7070 
 11 C        4.6870     5.9650     0.0020 C.2   1 <1>  -0.3020 
 12 C        4.9490     6.4160    -2.0980 C.2   1 <1>   0.1390 
 13 C        5.5220     6.6040    -0.8450 C.2   1 <1>  -0.1810 
 14 C        6.7870     7.3740    -0.5320 C.3   1 <1>   0.4700 
 15 N        6.4860     8.7930    -0.7240 N.pl3 1 <1>  -0.8690 
 16 C        7.9350     6.9840    -1.4560 C.3   1 <1>  -0.2400 
 17 C        6.9260     9.9170    -0.1580 C.ar  1 <1>   0.7710 
 18 N        6.2930    11.0130    -0.5060 N.ar  1 <1>  -0.6200 
 19 N        7.9550     9.9110     0.7050 N.ar  1 <1>  -0.1790 
 20 C        6.6940    12.1570     0.0150 C.ar  1 <1>   0.4100 
 21 C        8.3750    11.0580     1.2900 C.ar  1 <1>   0.2110 
 22 N        6.0400    13.2690    -0.4080 N.pl3 1 <1>  -0.8380 
 23 C        7.7470    12.2160     0.9660 C.ar  1 <1>  -0.1430 
 24 C        6.7370    14.4250    -1.0380 C.3   1 <1>   0.1290 
 25 C        4.5650    13.2640    -0.6300 C.3   1 <1>   0.1290 
 26 C        8.1510    13.5240     1.6440 C.3   1 <1>  -0.0970 
 27 H       -2.5870     1.9380     1.3130 H     1 <1>   0.0800 
 28 H       -1.9000     2.2190    -0.2830 H     1 <1>   0.0800 
 29 H       -2.3250     3.5890     0.7610 H     1 <1>   0.0800 
 30 H       -0.7190     4.1950    -0.8690 H     1 <1>   0.1500 
 31 H        1.6910     2.5200     2.2260 H     1 <1>   0.1500 
 32 H        1.2030     5.4160    -1.7130 H     1 <1>   0.1500 
 33 H        3.6330     3.7460     1.3750 H     1 <1>   0.1500 
 34 H        4.7310     5.8600     1.0700 H     1 <1>   0.1500 
 35 H        5.3480     6.7930    -3.0250 H     1 <1>   0.1500 
 36 H        7.0610     7.1870     0.4930 H     1 <1>   0.0800 
 37 H        5.6880     8.9340    -1.3520 H     1 <1>   0.4000 
 38 H        7.6920     7.2070    -2.4800 H     1 <1>   0.0800 
 39 H        8.1150     5.9270    -1.3780 H     1 <1>   0.0800 
 40 H        8.8370     7.5010    -1.1900 H     1 <1>   0.0800 
 41 H        8.3930     9.0170     0.8920 H     1 <1>   0.4570 
 42 H        9.1870    11.0150     1.9990 H     1 <1>   0.1500 
 43 H        7.7850    14.2150    -1.1560 H     1 <1>   0.0800 
 44 H        6.6150    15.3020    -0.4260 H     1 <1>   0.0800 
 45 H        6.3210    14.6170    -2.0120 H     1 <1>   0.0800 
 46 H        4.1060    12.4580    -0.0830 H     1 <1>   0.0800 
 47 H        4.3530    13.1360    -1.6770 H     1 <1>   0.0800 
 48 H        4.1390    14.1930    -0.2920 H     1 <1>   0.0800 
 49 H        7.2720    14.0720     1.9410 H     1 <1>   0.0800 
 50 H        8.7260    14.1360     0.9730 H     1 <1>   0.0800 
 51 H        8.7410    13.3440     2.5250 H     1 <1>   0.0800 
@<TRIPOS>BOND
  1   1   2  1   
  2   1   3  1   
  3   2   4  ar  
  4   2   5  ar  
  5   3  27  1   
  6   3  28  1   
  7   3  29  1   
  8   4   6  ar  
  9   4  30  1   
 10   5   7  ar  
 11   5  31  1   
 12   6   8  ar  
 13   6  32  1   
 14   7   8  ar  
 15   7  33  1   
 16   8   9  1   
 17   9  10  1   
 18   9  11  1   
 19  10  12  2   
 20  11  13  2   
 21  11  34  1   
 22  12  13  1   
 23  12  35  1   
 24  13  14  1   
 25  14  15  1   
 26  14  16  1   
 27  14  36  1   
 28  15  17  1   
 29  15  37  1   
 30  16  38  1   
 31  16  39  1   
 32  16  40  1   
 33  17  18  ar  
 34  17  19  ar  
 35  18  20  ar  
 36  19  21  ar  
 37  19  41  1   
 38  20  22  1   
 39  20  23  ar  
 40  21  23  ar  
 41  21  42  1   
 42  22  24  1   
 43  22  25  1   
 44  23  26  1   
 45  24  43  1   
 46  24  44  1   
 47  24  45  1   
 48  25  46  1   
 49  25  47  1   
 50  25  48  1   
 51  26  49  1   
 52  26  50  1   
 53  26  51  1   
@<TRIPOS>SUBSTRUCTURE
  1 ****  13 GROUP 4 **** **** 0

# MOE 2024.06 (io_trps.svl 2023.06)
