@<TRIPOS>MOLECULE
NONAME
43 45 1 0 0 
SMALL
USER_CHARGES


@<TRIPOS>ATOM
  1 CL      -0.1250    -0.2660    -0.3790 Cl    1 <1>  -0.1230 
  2 C       -1.6990     0.4230    -0.0060 C.2   1 <1>   0.1230 
  3 C       -2.8550    -0.2760     0.3630 C.2   1 <1>   0.2030 
  4 C       -2.0040     1.7320    -0.0460 C.2   1 <1>  -0.3320 
  5 N       -3.8400     0.5980     0.5310 N.2   1 <1>  -0.7070 
  6 C       -2.9190    -1.7250     0.5280 C.2   1 <1>   0.7160 
  7 N       -3.3100     1.8070     0.2880 N.pl3 1 <1>   0.3140 
  8 C       -1.1200     2.9220    -0.3890 C.3   1 <1>  -0.0600 
  9 O       -1.9280    -2.3530     0.8660 O.2   1 <1>  -0.5700 
 10 N       -4.0740    -2.4600     0.3190 N.am  1 <1>  -0.6600 
 11 C       -4.1200     3.0290     0.3950 C.3   1 <1>   0.0160 
 12 C       -5.4000    -1.9240    -0.0850 C.3   1 <1>   0.1400 
 13 C       -4.0900    -3.9460     0.2900 C.3   1 <1>   0.1400 
 14 C       -6.3510    -3.1120     0.0550 C.3   1 <1>   0.2000 
 15 C       -5.4680    -4.3200    -0.2650 C.3   1 <1>  -0.0800 
 16 O       -6.7620    -3.1760     1.3790 O.3   1 <1>  -0.6800 
 17 C       -5.9920    -5.6770     0.2380 C.3   1 <1>   0.0210 
 18 C       -5.0450    -6.7970    -0.1440 C.2   1 <1>   0.1080 
 19 N       -4.8280    -7.1470    -1.3740 N.2   1 <1>  -0.7070 
 20 C       -4.3060    -7.5570     0.7570 C.2   1 <1>  -0.1500 
 21 N       -3.9370    -8.1530    -1.2890 N.pl3 1 <1>   0.3000 
 22 C       -3.6040    -8.4180    -0.0090 C.2   1 <1>  -0.3320 
 23 C       -2.6200    -9.4950     0.4110 C.3   1 <1>  -0.0600 
 24 H       -0.1220     2.5930    -0.6190 H     1 <1>   0.0800 
 25 H       -1.0680     3.6000     0.4440 H     1 <1>   0.0800 
 26 H       -1.5100     3.4440    -1.2440 H     1 <1>   0.0800 
 27 H       -3.6850     3.6770     1.1320 H     1 <1>   0.0800 
 28 H       -5.1180     2.7660     0.6910 H     1 <1>   0.0800 
 29 H       -4.1450     3.5200    -0.5590 H     1 <1>   0.0800 
 30 H       -5.7130    -1.1030     0.5360 H     1 <1>   0.0800 
 31 H       -5.3510    -1.6040    -1.1110 H     1 <1>   0.0800 
 32 H       -3.3000    -4.3300    -0.3340 H     1 <1>   0.0800 
 33 H       -3.9620    -4.3170     1.2930 H     1 <1>   0.0800 
 34 H       -7.2220    -3.0380    -0.5730 H     1 <1>   0.0800 
 35 H       -5.3720    -4.3800    -1.3360 H     1 <1>   0.0800 
 36 H       -5.9830    -3.0230     1.9510 H     1 <1>   0.4000 
 37 H       -6.9540    -5.8750    -0.2000 H     1 <1>   0.0800 
 38 H       -6.1100    -5.6670     1.3060 H     1 <1>   0.0800 
 39 H       -4.3120    -7.4560     1.8270 H     1 <1>   0.1500 
 40 H       -3.5780    -8.6360    -2.1210 H     1 <1>   0.2700 
 41 H       -2.5240    -9.5100     1.4820 H     1 <1>   0.0800 
 42 H       -1.6520    -9.3020    -0.0160 H     1 <1>   0.0800 
 43 H       -2.9630   -10.4600     0.0840 H     1 <1>   0.0800 
@<TRIPOS>BOND
  1   1   2  1   
  2   2   3  1   
  3   2   4  2   
  4   3   5  2   
  5   3   6  1   
  6   4   7  1   
  7   4   8  1   
  8   5   7  1   
  9   6   9  2   
 10   6  10  am  
 11   7  11  1   
 12   8  24  1   
 13   8  25  1   
 14   8  26  1   
 15  10  12  1   
 16  10  13  1   
 17  11  27  1   
 18  11  28  1   
 19  11  29  1   
 20  12  14  1   
 21  12  30  1   
 22  12  31  1   
 23  13  15  1   
 24  13  32  1   
 25  13  33  1   
 26  14  15  1   
 27  14  16  1   
 28  14  34  1   
 29  15  17  1   
 30  15  35  1   
 31  16  36  1   
 32  17  18  1   
 33  17  37  1   
 34  17  38  1   
 35  18  19  2   
 36  18  20  1   
 37  19  21  1   
 38  20  22  2   
 39  20  39  1   
 40  21  22  1   
 41  21  40  1   
 42  22  23  1   
 43  23  41  1   
 44  23  42  1   
 45  23  43  1   
@<TRIPOS>SUBSTRUCTURE
  1 ****  10 GROUP 4 **** **** 0

# MOE 2024.06 (io_trps.svl 2023.06)
