@<TRIPOS>MOLECULE
NONAME
46 48 1 0 0 
SMALL
USER_CHARGES


@<TRIPOS>ATOM
  1 CL       0.7940    -0.1630     0.2680 Cl    1 <1>  -0.1770 
  2 C        0.3370    -1.8230     0.0100 C.ar  1 <1>   0.1770 
  3 C        0.6370    -2.7690     0.9680 C.ar  1 <1>  -0.1500 
  4 C       -0.3210    -2.1750    -1.1550 C.ar  1 <1>  -0.1500 
  5 C        0.2580    -4.0770     0.7350 C.ar  1 <1>   0.1900 
  6 C       -0.6900    -3.4940    -1.3630 C.ar  1 <1>  -0.1500 
  7 F        0.5620    -4.9480     1.6570 F     1 <1>  -0.1900 
  8 C       -0.4190    -4.4900    -0.4170 C.ar  1 <1>   0.0860 
  9 C       -0.8270    -5.8620    -0.6620 C.2   1 <1>   0.5440 
 10 O       -0.8760    -6.2880    -1.8000 O.2   1 <1>  -0.5700 
 11 N       -1.2570    -6.7160     0.3280 N.am  1 <1>  -0.6600 
 12 C       -2.2850    -6.3010     1.3250 C.3   1 <1>   0.1400 
 13 C       -1.1790    -8.1910     0.1260 C.3   1 <1>   0.1400 
 14 C       -3.6770    -6.8660     0.9510 C.3   1 <1>   0.4230 
 15 C       -2.5540    -8.7340    -0.2960 C.3   1 <1>   0.3430 
 16 N       -3.6430    -8.3660     0.6930 N.4   1 <1>  -0.9590 
 17 C       -4.2610    -6.1140    -0.2690 C.3   1 <1>   0.1200 
 18 C       -5.0120    -8.8250     0.2660 C.3   1 <1>   0.4230 
 19 O       -5.5270    -6.6170    -0.5850 O.3   1 <1>  -0.5600 
 20 C       -5.5530    -7.9780    -0.9120 C.3   1 <1>   0.1200 
 21 C       -5.0100   -10.3340    -0.0330 C.3   1 <1>  -0.1600 
 22 C       -6.4300   -10.9200    -0.0950 C.3   1 <1>  -0.1600 
 23 C       -6.3840   -12.4350    -0.3100 C.3   1 <1>  -0.2400 
 24 H        1.1550    -2.4920     1.8690 H     1 <1>   0.1500 
 25 H       -0.5370    -1.4190    -1.8910 H     1 <1>   0.1500 
 26 H       -1.1930    -3.7630    -2.2780 H     1 <1>   0.1500 
 27 H       -1.9960    -6.6610     2.2980 H     1 <1>   0.0800 
 28 H       -2.3370    -5.2280     1.3830 H     1 <1>   0.0800 
 29 H       -0.4530    -8.4210    -0.6370 H     1 <1>   0.0800 
 30 H       -0.8530    -8.6640     1.0360 H     1 <1>   0.0800 
 31 H       -4.3390    -6.6700     1.7790 H     1 <1>   0.0800 
 32 H       -2.4880    -9.8050    -0.3930 H     1 <1>   0.0800 
 33 H       -2.7870    -8.3280    -1.2670 H     1 <1>   0.0800 
 34 H       -3.4240    -8.8280     1.5820 H     1 <1>   0.4500 
 35 H       -3.6260    -6.2040    -1.1340 H     1 <1>   0.0800 
 36 H       -4.3780    -5.0690    -0.0410 H     1 <1>   0.0800 
 37 H       -5.6880    -8.6680     1.0920 H     1 <1>   0.0800 
 38 H       -6.5770    -8.2340    -1.1190 H     1 <1>   0.0800 
 39 H       -4.9780    -8.1320    -1.8080 H     1 <1>   0.0800 
 40 H       -4.5200   -10.5280    -0.9710 H     1 <1>   0.0800 
 41 H       -4.4760   -10.8460     0.7480 H     1 <1>   0.0800 
 42 H       -6.9550   -10.7160     0.8240 H     1 <1>   0.0800 
 43 H       -6.9890   -10.4790    -0.9030 H     1 <1>   0.0800 
 44 H       -5.8650   -12.9220     0.4970 H     1 <1>   0.0800 
 45 H       -5.8900   -12.6750    -1.2350 H     1 <1>   0.0800 
 46 H       -7.3850   -12.8300    -0.3520 H     1 <1>   0.0800 
@<TRIPOS>BOND
  1   1   2  1   
  2   2   3  ar  
  3   2   4  ar  
  4   3   5  ar  
  5   3  24  1   
  6   4   6  ar  
  7   4  25  1   
  8   5   7  1   
  9   5   8  ar  
 10   6   8  ar  
 11   6  26  1   
 12   8   9  1   
 13   9  10  2   
 14   9  11  am  
 15  11  12  1   
 16  11  13  1   
 17  12  14  1   
 18  12  27  1   
 19  12  28  1   
 20  13  15  1   
 21  13  29  1   
 22  13  30  1   
 23  14  16  1   
 24  14  17  1   
 25  14  31  1   
 26  15  16  1   
 27  15  32  1   
 28  15  33  1   
 29  16  18  1   
 30  16  34  1   
 31  17  19  1   
 32  17  35  1   
 33  17  36  1   
 34  18  20  1   
 35  18  21  1   
 36  18  37  1   
 37  19  20  1   
 38  20  38  1   
 39  20  39  1   
 40  21  22  1   
 41  21  40  1   
 42  21  41  1   
 43  22  23  1   
 44  22  42  1   
 45  22  43  1   
 46  23  44  1   
 47  23  45  1   
 48  23  46  1   
@<TRIPOS>SUBSTRUCTURE
  1 ****  11 GROUP 4 **** **** 0

# MOE 2024.06 (io_trps.svl 2023.06)
