@<TRIPOS>MOLECULE
NONAME
52 54 1 0 0 
SMALL
USER_CHARGES


@<TRIPOS>ATOM
  1 O        0.0800     1.1290     1.5660 O.2   1 <1>  -0.5700 
  2 C        0.0730     2.2610     1.1400 C.2   1 <1>   0.5690 
  3 N       -1.0900     2.9860     1.0490 N.am  1 <1>  -0.6600 
  4 C        1.3920     2.8780     0.6930 C.3   1 <1>  -0.0990 
  5 C       -2.4060     2.3840     1.4200 C.3   1 <1>   0.1400 
  6 C       -1.2180     4.3610     0.4950 C.3   1 <1>   0.1400 
  7 C        2.5960     1.9260     0.8050 C.3   1 <1>  -0.0160 
  8 C       -3.3010     2.2520     0.1730 C.3   1 <1>   0.0000 
  9 C       -2.0840     4.3210    -0.7690 C.3   1 <1>  -0.1600 
 10 C        3.9400     2.4810     0.3140 C.ar  1 <1>  -0.1440 
 11 C       -4.6510     1.6120     0.5480 C.3   1 <1>   0.2000 
 12 C       -3.4440     3.6440    -0.5100 C.3   1 <1>  -0.1600 
 13 C       -2.7490     1.2100    -0.8190 C.3   1 <1>  -0.1600 
 14 C        5.0470     1.6360     0.2460 C.ar  1 <1>  -0.1440 
 15 C        4.0950     3.8100    -0.0660 C.ar  1 <1>  -0.1500 
 16 O       -5.5670     2.5250     1.0370 O.3   1 <1>  -0.6800 
 17 C       -5.1860     0.9540    -0.7230 C.3   1 <1>  -0.1600 
 18 C       -3.9600     0.7050    -1.6120 C.3   1 <1>  -0.1600 
 19 C        6.2660     2.1260    -0.1990 C.ar  1 <1>  -0.1500 
 20 C        4.9640     0.1700     0.6520 C.3   1 <1>  -0.0970 
 21 C        5.3150     4.2890    -0.5080 C.ar  1 <1>  -0.1500 
 22 C        6.4090     3.4480    -0.5800 C.ar  1 <1>  -0.1440 
 23 C        7.7520     3.9650    -1.0630 C.3   1 <1>  -0.0970 
 24 H        1.2890     3.1800    -0.3320 H     1 <1>   0.0800 
 25 H        1.5730     3.7430     1.3030 H     1 <1>   0.0800 
 26 H       -2.2670     1.4190     1.8760 H     1 <1>   0.0800 
 27 H       -2.8890     3.0170     2.1440 H     1 <1>   0.0800 
 28 H       -1.6860     4.9890     1.2350 H     1 <1>   0.0800 
 29 H       -0.2590     4.7860     0.2640 H     1 <1>   0.0800 
 30 H        2.3670     1.0400     0.2390 H     1 <1>   0.0800 
 31 H        2.7040     1.6350     1.8350 H     1 <1>   0.0800 
 32 H       -2.2480     5.3270    -1.1140 H     1 <1>   0.0800 
 33 H       -1.5480     3.8030    -1.5430 H     1 <1>   0.0800 
 34 H       -4.5020     0.8570     1.3030 H     1 <1>   0.0800 
 35 H       -3.9840     3.5580    -1.4370 H     1 <1>   0.0800 
 36 H       -4.0040     4.2980     0.1340 H     1 <1>   0.0800 
 37 H       -1.9800     1.5960    -1.4620 H     1 <1>   0.0800 
 38 H       -2.3310     0.3850    -0.2670 H     1 <1>   0.0800 
 39 H        3.2780     4.5030    -0.0270 H     1 <1>   0.1500 
 40 H       -5.7790     3.1760     0.3430 H     1 <1>   0.4000 
 41 H       -5.6760     0.0270    -0.4810 H     1 <1>   0.0800 
 42 H       -5.8770     1.6000    -1.2360 H     1 <1>   0.0800 
 43 H       -3.8510    -0.3380    -1.8530 H     1 <1>   0.0800 
 44 H       -4.0560     1.2640    -2.5270 H     1 <1>   0.0800 
 45 H        7.1170     1.4720    -0.2510 H     1 <1>   0.1500 
 46 H        5.9320    -0.2970     0.6160 H     1 <1>   0.0800 
 47 H        4.3100    -0.3610    -0.0150 H     1 <1>   0.0800 
 48 H        4.5900     0.0820     1.6560 H     1 <1>   0.0800 
 49 H        5.4080     5.3210    -0.7950 H     1 <1>   0.1500 
 50 H        7.6220     4.8260    -1.6940 H     1 <1>   0.0800 
 51 H        8.2630     3.2060    -1.6270 H     1 <1>   0.0800 
 52 H        8.3590     4.2410    -0.2200 H     1 <1>   0.0800 
@<TRIPOS>BOND
  1   1   2  2   
  2   2   3  am  
  3   2   4  1   
  4   3   5  1   
  5   3   6  1   
  6   4   7  1   
  7   4  24  1   
  8   4  25  1   
  9   5   8  1   
 10   5  26  1   
 11   5  27  1   
 12   6   9  1   
 13   6  28  1   
 14   6  29  1   
 15   7  10  1   
 16   7  30  1   
 17   7  31  1   
 18   8  11  1   
 19   8  12  1   
 20   8  13  1   
 21   9  12  1   
 22   9  32  1   
 23   9  33  1   
 24  10  14  ar  
 25  10  15  ar  
 26  11  16  1   
 27  11  17  1   
 28  11  34  1   
 29  12  35  1   
 30  12  36  1   
 31  13  18  1   
 32  13  37  1   
 33  13  38  1   
 34  14  19  ar  
 35  14  20  1   
 36  15  21  ar  
 37  15  39  1   
 38  16  40  1   
 39  17  18  1   
 40  17  41  1   
 41  17  42  1   
 42  18  43  1   
 43  18  44  1   
 44  19  22  ar  
 45  19  45  1   
 46  20  46  1   
 47  20  47  1   
 48  20  48  1   
 49  21  22  ar  
 50  21  49  1   
 51  22  23  1   
 52  23  50  1   
 53  23  51  1   
 54  23  52  1   
@<TRIPOS>SUBSTRUCTURE
  1 ****   4 GROUP 4 **** **** 0

# MOE 2024.06 (io_trps.svl 2023.06)
