@<TRIPOS>MOLECULE
NONAME
59 61 1 0 0 
SMALL
USER_CHARGES


@<TRIPOS>ATOM
  1 O       -3.5020    -0.6450    -2.1070 O.2   1 <1>  -0.5700 
  2 C       -3.0660    -0.8280    -0.9960 C.2   1 <1>   0.5690 
  3 N       -3.2260    -1.9480    -0.2640 N.am  1 <1>  -0.6600 
  4 C       -2.2980     0.2080    -0.2250 C.3   1 <1>  -0.0990 
  5 C       -2.6700    -1.8370     1.0930 C.3   1 <1>   0.1400 
  6 C       -4.0430    -3.1380    -0.6630 C.3   1 <1>   0.2010 
  7 C       -1.8560    -0.5360     1.0490 C.3   1 <1>  -0.1600 
  8 C       -5.2570    -3.3830     0.2410 C.2   1 <1>   0.5690 
  9 O       -5.2130    -4.3540     0.9650 O.2   1 <1>  -0.5700 
 10 N       -6.3380    -2.5320     0.2350 N.am  1 <1>  -0.6600 
 11 C       -7.4870    -2.7440     1.1640 C.3   1 <1>   0.1400 
 12 C       -6.3950    -1.3070    -0.6210 C.3   1 <1>   0.1400 
 13 C       -7.9480    -1.4020     1.7360 C.3   1 <1>  -0.1600 
 14 C       -7.8280    -0.7870    -0.7370 C.3   1 <1>  -0.1600 
 15 C       -8.4120    -0.4040     0.6440 C.3   1 <1>   0.2800 
 16 O       -7.8030     0.8250     0.9810 O.3   1 <1>  -0.5600 
 17 C       -9.9720    -0.2930     0.6300 C.3   1 <1>   0.2000 
 18 C       -8.5720     1.9860     1.0780 C.3   1 <1>   0.1200 
 19 O      -10.5470    -1.4960     0.2050 O.3   1 <1>  -0.6800 
 20 C      -10.5330     0.9470    -0.1470 C.3   1 <1>   0.3000 
 21 C       -9.4940     2.0870    -0.1380 C.3   1 <1>  -0.1600 
 22 N      -11.7070     1.4960     0.5860 N.am  1 <1>  -0.7300 
 23 C      -10.9230     0.6790    -1.6130 C.3   1 <1>  -0.2400 
 24 C      -13.0300     1.1990     0.6820 C.2   1 <1>   0.5690 
 25 O      -13.7050     1.9060     1.3870 O.2   1 <1>  -0.5700 
 26 C      -13.7400     0.0560    -0.0510 C.3   1 <1>   0.1810 
 27 O      -13.1570    -1.1970     0.2090 O.3   1 <1>  -0.5600 
 28 C      -13.8330    -2.2660    -0.3720 C.3   1 <1>   0.0400 
 29 H       -1.4590     0.5600    -0.7970 H     1 <1>   0.0800 
 30 H       -2.9550     1.0250     0.0100 H     1 <1>   0.0800 
 31 H       -3.4750    -1.7650     1.8060 H     1 <1>   0.0800 
 32 H       -2.0500    -2.6870     1.3230 H     1 <1>   0.0800 
 33 H       -4.3800    -3.0230    -1.6760 H     1 <1>   0.0800 
 34 H       -3.4140    -4.0090    -0.6300 H     1 <1>   0.0800 
 35 H       -2.0150     0.0530     1.9350 H     1 <1>   0.0800 
 36 H       -0.8110    -0.7820     0.9810 H     1 <1>   0.0800 
 37 H       -8.2950    -3.2130     0.6280 H     1 <1>   0.0800 
 38 H       -7.1980    -3.3960     1.9710 H     1 <1>   0.0800 
 39 H       -5.7750    -0.5430    -0.1820 H     1 <1>   0.0800 
 40 H       -6.0190    -1.5250    -1.6050 H     1 <1>   0.0800 
 41 H       -7.1260    -0.9870     2.2930 H     1 <1>   0.0800 
 42 H       -8.7430    -1.5910     2.4330 H     1 <1>   0.0800 
 43 H       -8.4200    -1.5560    -1.1990 H     1 <1>   0.0800 
 44 H       -7.8370     0.0590    -1.3950 H     1 <1>   0.0800 
 45 H      -10.2750    -0.1790     1.6560 H     1 <1>   0.0800 
 46 H       -9.1280     1.9550     2.0000 H     1 <1>   0.0800 
 47 H       -7.8930     2.8210     1.1090 H     1 <1>   0.0800 
 48 H      -11.5390    -1.4200     0.2590 H     1 <1>   0.4000 
 49 H       -9.9800     3.0460    -0.1540 H     1 <1>   0.0800 
 50 H       -8.8720     2.0490    -1.0130 H     1 <1>   0.0800 
 51 H      -11.4580     2.2870     1.1800 H     1 <1>   0.3700 
 52 H      -10.0540     0.4220    -2.1880 H     1 <1>   0.0800 
 53 H      -11.3680     1.5560    -2.0500 H     1 <1>   0.0800 
 54 H      -11.6030    -0.1440    -1.7020 H     1 <1>   0.0800 
 55 H      -13.7240     0.2390    -1.1090 H     1 <1>   0.0800 
 56 H      -14.7620     0.0230     0.2800 H     1 <1>   0.0800 
 57 H      -13.3050    -3.1710    -0.1270 H     1 <1>   0.0800 
 58 H      -13.8560    -2.1380    -1.4400 H     1 <1>   0.0800 
 59 H      -14.8330    -2.3140     0.0260 H     1 <1>   0.0800 
@<TRIPOS>BOND
  1   1   2  2   
  2   2   3  am  
  3   2   4  1   
  4   3   5  1   
  5   3   6  1   
  6   4   7  1   
  7   4  29  1   
  8   4  30  1   
  9   5   7  1   
 10   5  31  1   
 11   5  32  1   
 12   6   8  1   
 13   6  33  1   
 14   6  34  1   
 15   7  35  1   
 16   7  36  1   
 17   8   9  2   
 18   8  10  am  
 19  10  11  1   
 20  10  12  1   
 21  11  13  1   
 22  11  37  1   
 23  11  38  1   
 24  12  14  1   
 25  12  39  1   
 26  12  40  1   
 27  13  15  1   
 28  13  41  1   
 29  13  42  1   
 30  14  15  1   
 31  14  43  1   
 32  14  44  1   
 33  15  16  1   
 34  15  17  1   
 35  16  18  1   
 36  17  19  1   
 37  17  20  1   
 38  17  45  1   
 39  18  21  1   
 40  18  46  1   
 41  18  47  1   
 42  19  48  1   
 43  20  21  1   
 44  20  22  1   
 45  20  23  1   
 46  21  49  1   
 47  21  50  1   
 48  22  24  am  
 49  22  51  1   
 50  23  52  1   
 51  23  53  1   
 52  23  54  1   
 53  24  25  2   
 54  24  26  1   
 55  26  27  1   
 56  26  55  1   
 57  26  56  1   
 58  27  28  1   
 59  28  57  1   
 60  28  58  1   
 61  28  59  1   
@<TRIPOS>SUBSTRUCTURE
  1 ****  15 GROUP 4 **** **** 0

# MOE 2024.06 (io_trps.svl 2023.06)
