@<TRIPOS>MOLECULE
NONAME
46 49 1 0 0 
SMALL
USER_CHARGES


@<TRIPOS>ATOM
  1 F       -0.3930    -0.3590     0.2020 F     1 <1>  -0.1900 
  2 C       -0.0120    -1.5500     0.6160 C.ar  1 <1>   0.1900 
  3 C       -0.8510    -2.6560     0.4690 C.ar  1 <1>   0.4100 
  4 C        1.2340    -1.7120     1.1740 C.ar  1 <1>   0.1660 
  5 N       -0.4240    -3.8490     0.8490 N.ar  1 <1>  -0.6200 
  6 N       -2.1340    -2.5980    -0.0580 N.pl3 1 <1>  -0.8380 
  7 N        1.6460    -2.9080     1.5650 N.ar  1 <1>  -0.6200 
  8 C        2.2040    -0.5540     1.3710 C.3   1 <1>  -0.0170 
  9 C        0.7890    -3.8980     1.3720 C.ar  1 <1>   0.4700 
 10 C       -3.1500    -1.6370     0.4870 C.3   1 <1>   0.2090 
 11 C       -2.6280    -3.6480    -1.0020 C.3   1 <1>   0.2090 
 12 C        3.2350    -0.4890     0.2370 C.3   1 <1>  -0.2400 
 13 C       -4.1650    -1.2310    -0.5990 C.3   1 <1>   0.1440 
 14 C       -4.1510    -3.8040    -0.9080 C.3   1 <1>  -0.1600 
 15 C       -5.0900    -0.1800    -0.0040 C.ar  1 <1>   0.1670 
 16 C       -4.9200    -2.4830    -1.1260 C.3   1 <1>  -0.1600 
 17 C       -3.4680    -0.4340    -1.7410 C.3   1 <1>  -0.1600 
 18 N       -6.0590    -0.4080     0.8570 N.ar  1 <1>  -0.6200 
 19 C       -4.7840     1.0710    -0.4510 C.ar  1 <1>  -0.1430 
 20 C       -3.6160     1.0580    -1.4040 C.3   1 <1>  -0.0170 
 21 C       -6.7220     0.6740     1.2390 C.ar  1 <1>   0.4770 
 22 C       -5.5350     2.1220     0.0120 C.ar  1 <1>   0.1600 
 23 N       -6.5200     1.9310     0.8650 N.ar  1 <1>  -0.6200 
 24 C       -7.8500     0.4500     2.2160 C.3   1 <1>  -0.0970 
 25 H        2.7140    -0.6830     2.3100 H     1 <1>   0.0800 
 26 H        1.6690     0.3780     1.4210 H     1 <1>   0.0800 
 27 H        1.1230    -4.8740     1.6840 H     1 <1>   0.1500 
 28 H       -2.6710    -0.7610     0.8830 H     1 <1>   0.0800 
 29 H       -3.6760    -2.1110     1.2990 H     1 <1>   0.0800 
 30 H       -2.1610    -4.5940    -0.7870 H     1 <1>   0.0800 
 31 H       -2.3570    -3.3640    -2.0040 H     1 <1>   0.0800 
 32 H        3.7970    -1.4060     0.1970 H     1 <1>   0.0800 
 33 H        3.9170     0.3260     0.4020 H     1 <1>   0.0800 
 34 H        2.7420    -0.3440    -0.7070 H     1 <1>   0.0800 
 35 H       -4.3790    -4.1900     0.0710 H     1 <1>   0.0800 
 36 H       -4.4810    -4.5360    -1.6220 H     1 <1>   0.0800 
 37 H       -5.1470    -2.3700    -2.1700 H     1 <1>   0.0800 
 38 H       -5.8650    -2.5750    -0.6190 H     1 <1>   0.0800 
 39 H       -3.9750    -0.6070    -2.6740 H     1 <1>   0.0800 
 40 H       -2.4350    -0.7050    -1.8690 H     1 <1>   0.0800 
 41 H       -3.8100     1.6470    -2.2840 H     1 <1>   0.0800 
 42 H       -2.7360     1.4230    -0.9040 H     1 <1>   0.0800 
 43 H       -5.3300     3.1260    -0.3150 H     1 <1>   0.1500 
 44 H       -7.6730    -0.4410     2.7890 H     1 <1>   0.0800 
 45 H       -8.7710     0.3450     1.6740 H     1 <1>   0.0800 
 46 H       -7.9270     1.2860     2.8860 H     1 <1>   0.0800 
@<TRIPOS>BOND
  1   1   2  1   
  2   2   3  ar  
  3   2   4  ar  
  4   3   5  ar  
  5   3   6  1   
  6   4   7  ar  
  7   4   8  1   
  8   5   9  ar  
  9   6  10  1   
 10   6  11  1   
 11   7   9  ar  
 12   8  12  1   
 13   8  25  1   
 14   8  26  1   
 15   9  27  1   
 16  10  13  1   
 17  10  28  1   
 18  10  29  1   
 19  11  14  1   
 20  11  30  1   
 21  11  31  1   
 22  12  32  1   
 23  12  33  1   
 24  12  34  1   
 25  13  15  1   
 26  13  16  1   
 27  13  17  1   
 28  14  16  1   
 29  14  35  1   
 30  14  36  1   
 31  15  18  ar  
 32  15  19  ar  
 33  16  37  1   
 34  16  38  1   
 35  17  20  1   
 36  17  39  1   
 37  17  40  1   
 38  18  21  ar  
 39  19  20  1   
 40  19  22  ar  
 41  20  41  1   
 42  20  42  1   
 43  21  23  ar  
 44  21  24  1   
 45  22  23  ar  
 46  22  43  1   
 47  24  44  1   
 48  24  45  1   
 49  24  46  1   
@<TRIPOS>SUBSTRUCTURE
  1 ****  10 GROUP 4 **** **** 0

# MOE 2024.06 (io_trps.svl 2023.06)
