@<TRIPOS>MOLECULE
NONAME
50 51 1 0 0 
SMALL
USER_CHARGES


@<TRIPOS>ATOM
  1 S        0.7690     1.4760    -1.1750 S.o2  1 <1>   1.3330 
  2 O        1.4120     0.2240    -1.5010 O.2   1 <1>  -0.6500 
  3 O        0.2380     2.2880    -2.2470 O.2   1 <1>  -0.6500 
  4 N        1.9160     2.4090    -0.3450 N.am  1 <1>  -0.8490 
  5 C       -0.5660     1.1280    -0.0130 C.3   1 <1>  -0.0550 
  6 C        2.6840     1.6600     0.6560 C.3   1 <1>   0.1160 
  7 C        2.8410     3.0830    -1.2600 C.3   1 <1>   0.1160 
  8 C       -1.3490     2.2850     0.6640 C.3   1 <1>  -0.0800 
  9 C       -1.8030     3.4090    -0.2750 C.3   1 <1>   0.2000 
 10 C       -0.5590     3.0020     1.7630 C.3   1 <1>   0.1400 
 11 O       -2.9900     3.9170     0.2310 O.3   1 <1>  -0.6800 
 12 C       -0.7350     4.4990    -0.1540 C.3   1 <1>   0.1400 
 13 N       -0.0980     4.2770     1.1720 N.am  1 <1>  -0.6600 
 14 C        1.0340     4.8980     1.6190 C.2   1 <1>   0.5690 
 15 O        1.5940     4.5310     2.6270 O.2   1 <1>  -0.5700 
 16 C        1.5990     6.0720     0.8350 C.3   1 <1>  -0.0990 
 17 C        2.8790     6.6660     1.4410 C.3   1 <1>  -0.0170 
 18 C        3.3870     7.8120     0.5810 C.ar  1 <1>  -0.1440 
 19 C        2.9350     9.1030     0.8000 C.ar  1 <1>  -0.1500 
 20 C        4.3030     7.5780    -0.4320 C.ar  1 <1>  -0.1500 
 21 C        3.3930    10.1480     0.0150 C.ar  1 <1>  -0.1500 
 22 C        4.7610     8.6230    -1.2160 C.ar  1 <1>  -0.1500 
 23 C        4.3070     9.9130    -0.9980 C.ar  1 <1>  -0.1440 
 24 C        4.8120    11.0600    -1.8560 C.3   1 <1>  -0.0970 
 25 H       -1.2880     0.5400    -0.5450 H     1 <1>   0.0800 
 26 H       -0.1820     0.4930     0.7610 H     1 <1>   0.0800 
 27 H        3.3090     2.3350     1.2170 H     1 <1>   0.0800 
 28 H        3.3030     0.9170     0.1800 H     1 <1>   0.0800 
 29 H        2.0220     1.1680     1.3460 H     1 <1>   0.0800 
 30 H        3.5330     3.6940    -0.7050 H     1 <1>   0.0800 
 31 H        2.2940     3.7210    -1.9340 H     1 <1>   0.0800 
 32 H        3.3890     2.3590    -1.8390 H     1 <1>   0.0800 
 33 H       -2.2110     1.8250     1.1170 H     1 <1>   0.0800 
 34 H       -1.9820     3.0950    -1.2900 H     1 <1>   0.0800 
 35 H        0.2730     2.4180     2.1160 H     1 <1>   0.0800 
 36 H       -1.2010     3.2260     2.5980 H     1 <1>   0.0800 
 37 H       -2.8100     4.3600     1.0840 H     1 <1>   0.4000 
 38 H       -1.1640     5.4830    -0.2250 H     1 <1>   0.0800 
 39 H        0.0030     4.3810    -0.9260 H     1 <1>   0.0800 
 40 H        1.8140     5.7440    -0.1640 H     1 <1>   0.0800 
 41 H        0.8490     6.8390     0.7830 H     1 <1>   0.0800 
 42 H        3.6340     5.9020     1.5130 H     1 <1>   0.0800 
 43 H        2.6780     7.0190     2.4380 H     1 <1>   0.0800 
 44 H        2.2260     9.3030     1.5840 H     1 <1>   0.1500 
 45 H        4.6660     6.5830    -0.6130 H     1 <1>   0.1500 
 46 H        3.0350    11.1450     0.2000 H     1 <1>   0.1500 
 47 H        5.4740     8.4270    -1.9970 H     1 <1>   0.1500 
 48 H        4.0640    11.8270    -1.9380 H     1 <1>   0.0800 
 49 H        5.0510    10.7120    -2.8460 H     1 <1>   0.0800 
 50 H        5.6960    11.4820    -1.4140 H     1 <1>   0.0800 
@<TRIPOS>BOND
  1   1   2  2   
  2   1   3  2   
  3   1   4  am  
  4   1   5  1   
  5   4   6  1   
  6   4   7  1   
  7   5   8  1   
  8   5  25  1   
  9   5  26  1   
 10   6  27  1   
 11   6  28  1   
 12   6  29  1   
 13   7  30  1   
 14   7  31  1   
 15   7  32  1   
 16   8   9  1   
 17   8  10  1   
 18   8  33  1   
 19   9  11  1   
 20   9  12  1   
 21   9  34  1   
 22  10  13  1   
 23  10  35  1   
 24  10  36  1   
 25  11  37  1   
 26  12  13  1   
 27  12  38  1   
 28  12  39  1   
 29  13  14  am  
 30  14  15  2   
 31  14  16  1   
 32  16  17  1   
 33  16  40  1   
 34  16  41  1   
 35  17  18  1   
 36  17  42  1   
 37  17  43  1   
 38  18  19  ar  
 39  18  20  ar  
 40  19  21  ar  
 41  19  44  1   
 42  20  22  ar  
 43  20  45  1   
 44  21  23  ar  
 45  21  46  1   
 46  22  23  ar  
 47  22  47  1   
 48  23  24  1   
 49  24  48  1   
 50  24  49  1   
 51  24  50  1   
@<TRIPOS>SUBSTRUCTURE
  1 ****  16 GROUP 4 **** **** 0

# MOE 2024.06 (io_trps.svl 2023.06)
