@<TRIPOS>MOLECULE
NONAME
52 55 1 0 0 
SMALL
USER_CHARGES


@<TRIPOS>ATOM
  1 CL      -0.4980    -0.2420    -0.2110 Cl    1 <1>  -0.1770 
  2 C       -0.7460    -1.9700    -0.2960 C.ar  1 <1>   0.1770 
  3 C       -1.5320    -2.6110     0.6900 C.ar  1 <1>   0.0000 
  4 C       -0.1620    -2.6500    -1.3260 C.ar  1 <1>  -0.1500 
  5 C       -1.7400    -4.0080     0.5740 C.ar  1 <1>   0.0000 
  6 C       -2.1020    -1.9270     1.7840 C.ar  1 <1>  -0.1500 
  7 C       -0.3360    -4.0320    -1.4200 C.ar  1 <1>  -0.1500 
  8 C       -2.5660    -4.6710     1.5300 C.ar  1 <1>   0.0860 
  9 C       -1.1000    -4.6850    -0.4920 C.ar  1 <1>  -0.1500 
 10 C       -2.8500    -2.5820     2.7190 C.ar  1 <1>  -0.1500 
 11 C       -2.9020    -6.0760     1.4140 C.2   1 <1>   0.5440 
 12 C       -3.0760    -3.9500     2.5880 C.ar  1 <1>  -0.1500 
 13 O       -2.7070    -6.8300     2.3510 O.2   1 <1>  -0.5700 
 14 N       -3.5230    -6.6010     0.2980 N.am  1 <1>  -0.6600 
 15 C       -3.7220    -8.0690     0.1800 C.3   1 <1>   0.1400 
 16 C       -4.4870    -5.8030    -0.5060 C.3   1 <1>   0.1400 
 17 C       -5.1230    -8.4150     0.7270 C.3   1 <1>   0.4230 
 18 C       -5.9000    -6.1200     0.0030 C.3   1 <1>  -0.1600 
 19 N       -5.3820    -9.9080     0.8720 N.4   1 <1>  -0.9590 
 20 C       -6.2500    -7.6400    -0.0240 C.3   1 <1>   0.0000 
 21 C       -6.8320   -10.2670     1.0010 C.3   1 <1>   0.3430 
 22 C       -4.7250   -10.7820    -0.1540 C.3   1 <1>   0.2630 
 23 C       -7.6020    -7.8540     0.7210 C.3   1 <1>  -0.1600 
 24 C       -6.3560    -8.1410    -1.4930 C.3   1 <1>   0.1200 
 25 C       -7.6310    -9.1150     1.6080 C.3   1 <1>  -0.1600 
 26 O       -7.2020    -7.3470    -2.2470 O.3   1 <1>  -0.6800 
 27 H        0.4330    -2.1330    -2.0580 H     1 <1>   0.1500 
 28 H       -1.9370    -0.8690     1.8880 H     1 <1>   0.1500 
 29 H        0.1380    -4.5670    -2.2260 H     1 <1>   0.1500 
 30 H       -1.2080    -5.7510    -0.5780 H     1 <1>   0.1500 
 31 H       -3.2720    -2.0550     3.5580 H     1 <1>   0.1500 
 32 H       -3.6710    -4.4470     3.3360 H     1 <1>   0.1500 
 33 H       -3.6140    -8.3510    -0.8510 H     1 <1>   0.0800 
 34 H       -2.9680    -8.5830     0.7510 H     1 <1>   0.0800 
 35 H       -4.2920    -4.7480    -0.4040 H     1 <1>   0.0800 
 36 H       -4.3900    -6.0540    -1.5490 H     1 <1>   0.0800 
 37 H       -5.1280    -8.0140     1.7290 H     1 <1>   0.0800 
 38 H       -5.9640    -5.7490     1.0120 H     1 <1>   0.0800 
 39 H       -6.6100    -5.5540    -0.5740 H     1 <1>   0.0800 
 40 H       -4.9510   -10.1450     1.7790 H     1 <1>   0.4500 
 41 H       -7.2410   -10.4900     0.0290 H     1 <1>   0.0800 
 42 H       -6.9380   -11.1480     1.6150 H     1 <1>   0.0800 
 43 H       -5.0970   -10.5540    -1.1400 H     1 <1>   0.0800 
 44 H       -4.9260   -11.8200     0.0560 H     1 <1>   0.0800 
 45 H       -3.6570   -10.6380    -0.1450 H     1 <1>   0.0800 
 46 H       -7.8230    -7.0120     1.3570 H     1 <1>   0.0800 
 47 H       -8.4100    -7.9090     0.0130 H     1 <1>   0.0800 
 48 H       -6.7340    -9.1460    -1.5410 H     1 <1>   0.0800 
 49 H       -5.4020    -8.1140    -1.9870 H     1 <1>   0.0800 
 50 H       -8.6530    -9.4250     1.7450 H     1 <1>   0.0800 
 51 H       -7.2380    -8.8900     2.5850 H     1 <1>   0.0800 
 52 H       -8.1190    -7.3520    -1.9080 H     1 <1>   0.4000 
@<TRIPOS>BOND
  1   1   2  1   
  2   2   3  ar  
  3   2   4  ar  
  4   3   5  ar  
  5   3   6  ar  
  6   4   7  ar  
  7   4  27  1   
  8   5   8  ar  
  9   5   9  ar  
 10   6  10  ar  
 11   6  28  1   
 12   7   9  ar  
 13   7  29  1   
 14   8  11  1   
 15   8  12  ar  
 16   9  30  1   
 17  10  12  ar  
 18  10  31  1   
 19  11  13  2   
 20  11  14  am  
 21  12  32  1   
 22  14  15  1   
 23  14  16  1   
 24  15  17  1   
 25  15  33  1   
 26  15  34  1   
 27  16  18  1   
 28  16  35  1   
 29  16  36  1   
 30  17  19  1   
 31  17  20  1   
 32  17  37  1   
 33  18  20  1   
 34  18  38  1   
 35  18  39  1   
 36  19  21  1   
 37  19  22  1   
 38  19  40  1   
 39  20  23  1   
 40  20  24  1   
 41  21  25  1   
 42  21  41  1   
 43  21  42  1   
 44  22  43  1   
 45  22  44  1   
 46  22  45  1   
 47  23  25  1   
 48  23  46  1   
 49  23  47  1   
 50  24  26  1   
 51  24  48  1   
 52  24  49  1   
 53  25  50  1   
 54  25  51  1   
 55  26  52  1   
@<TRIPOS>SUBSTRUCTURE
  1 ****  14 GROUP 4 **** **** 0

# MOE 2024.06 (io_trps.svl 2023.06)
