@<TRIPOS>MOLECULE
NONAME
54 56 1 0 0 
SMALL
USER_CHARGES


@<TRIPOS>ATOM
  1 O        1.1560     0.6050    -1.7550 O.2   1 <1>  -0.5700 
  2 C        1.8360     0.1650    -0.8460 C.2   1 <1>   0.5440 
  3 N        1.2710    -0.7420     0.0220 N.am  1 <1>  -0.6600 
  4 C        3.2170     0.5910    -0.7120 C.ar  1 <1>   0.0860 
  5 C       -0.1350    -1.1830    -0.1090 C.3   1 <1>   0.1400 
  6 C        2.0290    -1.6510     0.9100 C.3   1 <1>   0.1400 
  7 C        4.0770     0.5770    -1.8080 C.ar  1 <1>  -0.1500 
  8 C        3.7350     1.0350     0.5050 C.ar  1 <1>  -0.1500 
  9 C       -0.2910    -2.3090     0.9080 C.3   1 <1>  -0.1600 
 10 C        1.1200    -2.8600     1.0920 C.3   1 <1>  -0.1600 
 11 C        5.3990     0.9700    -1.6950 C.ar  1 <1>  -0.1500 
 12 C        5.0550     1.4300     0.6250 C.ar  1 <1>  -0.1500 
 13 C        5.8970     1.3970    -0.4740 C.ar  1 <1>  -0.1430 
 14 C        7.3410     1.8430    -0.3380 C.3   1 <1>   0.2840 
 15 N        7.3600     3.3130    -0.3790 N.am  1 <1>  -0.7300 
 16 C        8.0870     4.1030     0.4480 C.2   1 <1>   0.5690 
 17 O        8.8590     3.6400     1.2500 O.2   1 <1>  -0.5700 
 18 C        7.9130     5.6180     0.3720 C.3   1 <1>  -0.0190 
 19 C        6.4510     6.0430     0.6170 C.3   1 <1>  -0.1600 
 20 C        8.4530     6.1970    -0.9580 C.3   1 <1>  -0.1600 
 21 C        6.2960     7.5760     0.6990 C.3   1 <1>   0.2000 
 22 C        7.8520     7.5680    -1.3270 C.3   1 <1>  -0.1600 
 23 O        5.0380     7.9130     0.1680 O.3   1 <1>  -0.5600 
 24 C        7.3990     8.3380    -0.0840 C.3   1 <1>   0.2000 
 25 C        3.9620     7.7440     1.0390 C.3   1 <1>   0.0400 
 26 O        6.9030     9.5580    -0.4940 O.3   1 <1>  -0.6800 
 27 H       -0.8090    -0.3670     0.0880 H     1 <1>   0.0800 
 28 H       -0.2970    -1.5490    -1.1090 H     1 <1>   0.0800 
 29 H        2.9740    -1.9300     0.4730 H     1 <1>   0.0800 
 30 H        2.1930    -1.1640     1.8560 H     1 <1>   0.0800 
 31 H        3.6920     0.2540    -2.7600 H     1 <1>   0.1500 
 32 H        3.0860     1.0760     1.3620 H     1 <1>   0.1500 
 33 H       -0.6470    -1.8940     1.8350 H     1 <1>   0.0800 
 34 H       -0.9850    -3.0580     0.5700 H     1 <1>   0.0800 
 35 H        1.3350    -3.5780     0.3200 H     1 <1>   0.0800 
 36 H        1.2580    -3.3260     2.0520 H     1 <1>   0.0800 
 37 H        6.0340     0.9450    -2.5640 H     1 <1>   0.1500 
 38 H        5.4280     1.7700     1.5770 H     1 <1>   0.1500 
 39 H        7.9370     1.4540    -1.1460 H     1 <1>   0.0800 
 40 H        7.7550     1.4890     0.5920 H     1 <1>   0.0800 
 41 H        6.6710     3.7280    -1.0080 H     1 <1>   0.3700 
 42 H        8.5030     6.0330     1.1720 H     1 <1>   0.0800 
 43 H        6.1020     5.6040     1.5350 H     1 <1>   0.0800 
 44 H        5.8440     5.6690    -0.1890 H     1 <1>   0.0800 
 45 H        9.5230     6.2870    -0.8740 H     1 <1>   0.0800 
 46 H        8.2570     5.5170    -1.7690 H     1 <1>   0.0800 
 47 H        6.3400     7.9010     1.7250 H     1 <1>   0.0800 
 48 H        6.9970     7.4160    -1.9620 H     1 <1>   0.0800 
 49 H        8.5790     8.1460    -1.8710 H     1 <1>   0.0800 
 50 H        8.2490     8.5230     0.5510 H     1 <1>   0.0800 
 51 H        3.0660     8.0420     0.5240 H     1 <1>   0.0800 
 52 H        4.1050     8.3660     1.9060 H     1 <1>   0.0800 
 53 H        3.8860     6.7090     1.3230 H     1 <1>   0.0800 
 54 H        5.9380     9.4210    -0.6320 H     1 <1>   0.4000 
@<TRIPOS>BOND
  1   1   2  2   
  2   2   3  am  
  3   2   4  1   
  4   3   5  1   
  5   3   6  1   
  6   4   7  ar  
  7   4   8  ar  
  8   5   9  1   
  9   5  27  1   
 10   5  28  1   
 11   6  10  1   
 12   6  29  1   
 13   6  30  1   
 14   7  11  ar  
 15   7  31  1   
 16   8  12  ar  
 17   8  32  1   
 18   9  10  1   
 19   9  33  1   
 20   9  34  1   
 21  10  35  1   
 22  10  36  1   
 23  11  13  ar  
 24  11  37  1   
 25  12  13  ar  
 26  12  38  1   
 27  13  14  1   
 28  14  15  1   
 29  14  39  1   
 30  14  40  1   
 31  15  16  am  
 32  15  41  1   
 33  16  17  2   
 34  16  18  1   
 35  18  19  1   
 36  18  20  1   
 37  18  42  1   
 38  19  21  1   
 39  19  43  1   
 40  19  44  1   
 41  20  22  1   
 42  20  45  1   
 43  20  46  1   
 44  21  23  1   
 45  21  24  1   
 46  21  47  1   
 47  22  24  1   
 48  22  48  1   
 49  22  49  1   
 50  23  25  1   
 51  24  26  1   
 52  24  50  1   
 53  25  51  1   
 54  25  52  1   
 55  25  53  1   
 56  26  54  1   
@<TRIPOS>SUBSTRUCTURE
  1 ****  12 GROUP 4 **** **** 0

# MOE 2024.06 (io_trps.svl 2023.06)
