@<TRIPOS>MOLECULE
NONAME
56 60 1 0 0 
SMALL
USER_CHARGES


@<TRIPOS>ATOM
  1 O        0.0660     0.5790    -0.7660 O.3   1 <1>  -0.0190 
  2 N        1.3270     0.5640    -0.4770 N.2   1 <1>  -0.4100 
  3 C       -0.2880    -0.4510    -1.4790 C.2   1 <1>  -0.0400 
  4 C        1.8330    -0.4970    -1.0300 C.2   1 <1>   0.2350 
  5 C        0.8090    -1.1920    -1.6920 C.2   1 <1>  -0.1500 
  6 C       -1.7420    -0.6100    -1.8950 C.3   1 <1>   0.5230 
  7 C        3.2290    -0.8820    -0.9560 C.ar  1 <1>   0.0540 
  8 N       -2.6400    -0.7370    -0.7090 N.4   1 <1>  -0.9590 
  9 C        4.1350    -0.2100    -0.1460 C.ar  1 <1>  -0.1500 
 10 C        3.7760    -1.9370    -1.6760 C.ar  1 <1>  -0.1500 
 11 C       -2.8260     0.5600     0.0210 C.3   1 <1>   0.3430 
 12 C       -2.2500    -1.8300     0.2240 C.3   1 <1>   0.3430 
 13 C        5.4590    -0.6010    -0.0930 C.ar  1 <1>   0.1600 
 14 C        5.1170    -2.2510    -1.5540 C.ar  1 <1>   0.1600 
 15 C       -3.9930     0.4460     1.0200 C.3   1 <1>   0.1430 
 16 C       -3.3530    -2.0270     1.2710 C.3   1 <1>  -0.1600 
 17 N        5.9720    -1.6090    -0.7770 N.ar  1 <1>  -0.6200 
 18 C       -5.2940     0.2650     0.2540 C.ar  1 <1>   0.1670 
 19 C       -3.7340    -0.7220     1.9980 C.3   1 <1>  -0.1600 
 20 C       -4.2430     1.7690     1.7890 C.3   1 <1>  -0.1600 
 21 N       -5.4800    -0.5780    -0.7360 N.ar  1 <1>  -0.6200 
 22 C       -6.2590     1.1160     0.6980 C.ar  1 <1>  -0.1430 
 23 C       -5.7690     1.9760     1.8360 C.3   1 <1>  -0.0170 
 24 C       -6.6960    -0.5400    -1.2830 C.ar  1 <1>   0.7200 
 25 C       -7.4800     1.0800     0.0700 C.ar  1 <1>   0.1600 
 26 N       -7.7040     0.2570    -0.9270 N.ar  1 <1>  -0.6200 
 27 N       -6.9100    -1.4120    -2.3220 N.pl3 1 <1>  -0.8380 
 28 C       -6.6980    -2.8690    -2.1140 C.3   1 <1>   0.1290 
 29 C       -7.9160    -1.0840    -3.3700 C.3   1 <1>   0.1290 
 30 H        0.9210    -2.1110    -2.2360 H     1 <1>   0.1500 
 31 H       -1.8350    -1.4900    -2.5090 H     1 <1>   0.0800 
 32 H       -2.0390     0.2400    -2.4870 H     1 <1>   0.0800 
 33 H       -3.6000    -0.9620    -1.0510 H     1 <1>   0.4500 
 34 H        3.8100     0.6250     0.4470 H     1 <1>   0.1500 
 35 H        3.1710    -2.5220    -2.3400 H     1 <1>   0.1500 
 36 H       -3.0480     1.3460    -0.6820 H     1 <1>   0.0800 
 37 H       -1.9240     0.8180     0.5510 H     1 <1>   0.0800 
 38 H       -1.3240    -1.5750     0.7160 H     1 <1>   0.0800 
 39 H       -2.1050    -2.7490    -0.3190 H     1 <1>   0.0800 
 40 H        6.1340    -0.0570     0.5460 H     1 <1>   0.1500 
 41 H        5.5110    -3.0740    -2.1250 H     1 <1>   0.1500 
 42 H       -3.0210    -2.7510     1.9950 H     1 <1>   0.0800 
 43 H       -4.2220    -2.4430     0.7910 H     1 <1>   0.0800 
 44 H       -4.6080    -0.8920     2.6040 H     1 <1>   0.0800 
 45 H       -2.9270    -0.4550     2.6600 H     1 <1>   0.0800 
 46 H       -3.8140     2.5930     1.2430 H     1 <1>   0.0800 
 47 H       -3.8190     1.7650     2.7790 H     1 <1>   0.0800 
 48 H       -6.0360     3.0100     1.7000 H     1 <1>   0.0800 
 49 H       -6.1770     1.6130     2.7640 H     1 <1>   0.0800 
 50 H       -8.2770     1.7320     0.3840 H     1 <1>   0.1500 
 51 H       -6.1470    -3.0490    -1.2080 H     1 <1>   0.0800 
 52 H       -6.1500    -3.2780    -2.9450 H     1 <1>   0.0800 
 53 H       -7.6490    -3.3680    -2.0390 H     1 <1>   0.0800 
 54 H       -7.9230    -0.0230    -3.5570 H     1 <1>   0.0800 
 55 H       -8.8960    -1.3830    -3.0420 H     1 <1>   0.0800 
 56 H       -7.6740    -1.5930    -4.2870 H     1 <1>   0.0800 
@<TRIPOS>BOND
  1   1   2  1   
  2   1   3  1   
  3   2   4  2   
  4   3   5  2   
  5   3   6  1   
  6   4   5  1   
  7   4   7  1   
  8   5  30  1   
  9   6   8  1   
 10   6  31  1   
 11   6  32  1   
 12   7   9  ar  
 13   7  10  ar  
 14   8  11  1   
 15   8  12  1   
 16   8  33  1   
 17   9  13  ar  
 18   9  34  1   
 19  10  14  ar  
 20  10  35  1   
 21  11  15  1   
 22  11  36  1   
 23  11  37  1   
 24  12  16  1   
 25  12  38  1   
 26  12  39  1   
 27  13  17  ar  
 28  13  40  1   
 29  14  17  ar  
 30  14  41  1   
 31  15  18  1   
 32  15  19  1   
 33  15  20  1   
 34  16  19  1   
 35  16  42  1   
 36  16  43  1   
 37  18  21  ar  
 38  18  22  ar  
 39  19  44  1   
 40  19  45  1   
 41  20  23  1   
 42  20  46  1   
 43  20  47  1   
 44  21  24  ar  
 45  22  23  1   
 46  22  25  ar  
 47  23  48  1   
 48  23  49  1   
 49  24  26  ar  
 50  24  27  1   
 51  25  26  ar  
 52  25  50  1   
 53  27  28  1   
 54  27  29  1   
 55  28  51  1   
 56  28  52  1   
 57  28  53  1   
 58  29  54  1   
 59  29  55  1   
 60  29  56  1   
@<TRIPOS>SUBSTRUCTURE
  1 ****   8 GROUP 4 **** **** 0

# MOE 2024.06 (io_trps.svl 2023.06)
