@<TRIPOS>MOLECULE
NONAME
44 47 1 0 0 
SMALL
USER_CHARGES


@<TRIPOS>ATOM
  1 S       -0.3640     0.9500     2.6220 S.3   1 <1>  -0.0800 
  2 C       -0.1850     1.9980     1.2300 C.2   1 <1>  -0.1400 
  3 C        1.2430     1.3920     3.1830 C.2   1 <1>  -0.1100 
  4 C        1.0060     2.6080     1.2120 C.2   1 <1>  -0.1810 
  5 C       -1.2680     2.1700     0.2000 C.3   1 <1>   0.0200 
  6 C        1.8270     2.2650     2.3390 C.2   1 <1>  -0.1500 
  7 C        1.3880     3.5600     0.0760 C.3   1 <1>   0.4610 
  8 C       -0.9500     3.4560    -0.5810 C.3   1 <1>   0.1200 
  9 O        0.4090     3.5090    -0.9480 O.3   1 <1>  -0.5600 
 10 C        1.5070     5.0060     0.5810 C.3   1 <1>  -0.1600 
 11 C        2.7030     3.1150    -0.5740 C.3   1 <1>  -0.1600 
 12 C        1.9620     5.9580    -0.5260 C.3   1 <1>   0.1400 
 13 C        3.1490     4.0850    -1.6670 C.3   1 <1>   0.1400 
 14 N        3.2430     5.4580    -1.0960 N.am  1 <1>  -0.6600 
 15 C        4.4560     6.0970    -0.9400 C.2   1 <1>   0.5440 
 16 O        5.4820     5.4550    -1.0540 O.2   1 <1>  -0.5700 
 17 C        4.5430     7.5100    -0.6310 C.ar  1 <1>   0.0860 
 18 C        5.2940     7.9890     0.4270 C.ar  1 <1>  -0.1500 
 19 C        3.8900     8.4830    -1.3760 C.ar  1 <1>  -0.1500 
 20 C        5.3420     9.3440     0.6990 C.ar  1 <1>   0.3930 
 21 C        4.0000     9.8150    -1.0300 C.ar  1 <1>   0.1600 
 22 O        6.0890     9.7290     1.7550 O.3   1 <1>  -0.3630 
 23 N        4.7020    10.2710    -0.0080 N.ar  1 <1>  -0.6200 
 24 C        6.2180    11.0960     2.0950 C.3   1 <1>   0.0400 
 25 H        1.5840     0.9440     4.0990 H     1 <1>   0.1500 
 26 H       -2.2280     2.2580     0.6730 H     1 <1>   0.0800 
 27 H       -1.2820     1.3240    -0.4630 H     1 <1>   0.0800 
 28 H        2.8100     2.6840     2.4640 H     1 <1>   0.1500 
 29 H       -1.1770     4.3210     0.0160 H     1 <1>   0.0800 
 30 H       -1.5360     3.4960    -1.4820 H     1 <1>   0.0800 
 31 H        2.2280     5.0400     1.3770 H     1 <1>   0.0800 
 32 H        0.5700     5.3320     0.9910 H     1 <1>   0.0800 
 33 H        2.5780     2.1300    -0.9850 H     1 <1>   0.0800 
 34 H        3.4790     3.0630     0.1660 H     1 <1>   0.0800 
 35 H        2.0780     6.9450    -0.1170 H     1 <1>   0.0800 
 36 H        1.2200     5.9980    -1.3060 H     1 <1>   0.0800 
 37 H        2.4350     4.0860    -2.4730 H     1 <1>   0.0800 
 38 H        4.0990     3.7720    -2.0670 H     1 <1>   0.0800 
 39 H        5.8470     7.3060     1.0440 H     1 <1>   0.1500 
 40 H        3.3020     8.1920    -2.2270 H     1 <1>   0.1500 
 41 H        3.4830    10.5490    -1.6260 H     1 <1>   0.1500 
 42 H        6.8580    11.1710     2.9560 H     1 <1>   0.0800 
 43 H        5.2440    11.4920     2.3210 H     1 <1>   0.0800 
 44 H        6.6530    11.6210     1.2630 H     1 <1>   0.0800 
@<TRIPOS>BOND
  1   1   2  1   
  2   1   3  1   
  3   2   4  2   
  4   2   5  1   
  5   3   6  2   
  6   3  25  1   
  7   4   6  1   
  8   4   7  1   
  9   5   8  1   
 10   5  26  1   
 11   5  27  1   
 12   6  28  1   
 13   7   9  1   
 14   7  10  1   
 15   7  11  1   
 16   8   9  1   
 17   8  29  1   
 18   8  30  1   
 19  10  12  1   
 20  10  31  1   
 21  10  32  1   
 22  11  13  1   
 23  11  33  1   
 24  11  34  1   
 25  12  14  1   
 26  12  35  1   
 27  12  36  1   
 28  13  14  1   
 29  13  37  1   
 30  13  38  1   
 31  14  15  am  
 32  15  16  2   
 33  15  17  1   
 34  17  18  ar  
 35  17  19  ar  
 36  18  20  ar  
 37  18  39  1   
 38  19  21  ar  
 39  19  40  1   
 40  20  22  1   
 41  20  23  ar  
 42  21  23  ar  
 43  21  41  1   
 44  22  24  1   
 45  24  42  1   
 46  24  43  1   
 47  24  44  1   
@<TRIPOS>SUBSTRUCTURE
  1 ****  12 GROUP 4 **** **** 0

# MOE 2024.06 (io_trps.svl 2023.06)
