@<TRIPOS>MOLECULE
NONAME
44 46 1 0 0 
SMALL
USER_CHARGES


@<TRIPOS>ATOM
  1 O       -1.1760    -0.2550    -1.5250 O.2   1 <1>  -0.5700 
  2 C       -1.6060     0.4530    -0.6330 C.2   1 <1>   0.5440 
  3 N       -2.1100    -0.1300     0.5090 N.am  1 <1>  -0.6600 
  4 C       -1.5610     1.8910    -0.7890 C.ar  1 <1>   0.0860 
  5 C       -2.1760    -1.6190     0.6440 C.3   1 <1>   0.3210 
  6 C       -2.7420     0.6460     1.6260 C.3   1 <1>   0.1400 
  7 C       -0.6390     2.6660    -0.0850 C.ar  1 <1>  -0.1500 
  8 C       -2.4450     2.5450    -1.6450 C.ar  1 <1>  -0.1500 
  9 C       -3.6100    -2.1170     0.4930 C.2   1 <1>   0.0460 
 10 C       -4.0380     1.3890     1.2380 C.3   1 <1>   0.1200 
 11 C       -0.6050     4.0440    -0.2100 C.ar  1 <1>  -0.1440 
 12 C       -2.4240     3.9200    -1.7790 C.ar  1 <1>  -0.1500 
 13 N       -4.4580    -2.1280     1.5460 N.2   1 <1>  -0.5650 
 14 C       -4.2310    -2.5640    -0.6240 C.2   1 <1>  -0.3320 
 15 O       -4.8550     0.6110     0.4310 O.3   1 <1>  -0.6800 
 16 C       -1.5110     4.6740    -1.0600 C.ar  1 <1>   0.0820 
 17 C        0.4150     4.8580     0.5680 C.3   1 <1>  -0.0170 
 18 C       -5.5620    -2.5840     1.0520 C.2   1 <1>   0.0360 
 19 N       -5.4900    -2.8690    -0.2640 N.pl3 1 <1>   0.0330 
 20 C       -3.7200    -2.7070    -2.0480 C.3   1 <1>  -0.0600 
 21 O       -1.5270     6.0160    -1.2230 O.3   1 <1>  -0.3620 
 22 C        0.5810     6.2420    -0.0650 C.3   1 <1>  -0.1600 
 23 C       -0.7930     6.8520    -0.3510 C.3   1 <1>   0.1200 
 24 H       -1.8000    -1.9100     1.6080 H     1 <1>   0.0800 
 25 H       -1.5590    -2.0940    -0.0970 H     1 <1>   0.0800 
 26 H       -2.0340     1.3610     2.0040 H     1 <1>   0.0800 
 27 H       -2.9710    -0.0220     2.4380 H     1 <1>   0.0800 
 28 H        0.0570     2.1670     0.5650 H     1 <1>   0.1500 
 29 H       -3.1580     1.9580    -2.1990 H     1 <1>   0.1500 
 30 H       -3.8210     2.2990     0.7090 H     1 <1>   0.0800 
 31 H       -4.5930     1.6380     2.1250 H     1 <1>   0.0800 
 32 H       -3.1110     4.4170    -2.4380 H     1 <1>   0.1500 
 33 H       -4.6920    -0.3460     0.6320 H     1 <1>   0.4000 
 34 H        1.3640     4.3510     0.5830 H     1 <1>   0.0800 
 35 H        0.0700     4.9650     1.5810 H     1 <1>   0.0800 
 36 H       -6.4660    -2.7280     1.6180 H     1 <1>   0.1500 
 37 H       -6.2400    -3.2260    -0.8620 H     1 <1>   0.2700 
 38 H       -2.6920    -2.3980    -2.1160 H     1 <1>   0.0800 
 39 H       -4.2980    -2.0880    -2.7100 H     1 <1>   0.0800 
 40 H       -3.7910    -3.7300    -2.3700 H     1 <1>   0.0800 
 41 H        1.1250     6.1600    -0.9900 H     1 <1>   0.0800 
 42 H        1.1370     6.8830     0.5950 H     1 <1>   0.0800 
 43 H       -1.3620     6.9580     0.5570 H     1 <1>   0.0800 
 44 H       -0.6970     7.8130    -0.8240 H     1 <1>   0.0800 
@<TRIPOS>BOND
  1   1   2  2   
  2   2   3  am  
  3   2   4  1   
  4   3   5  1   
  5   3   6  1   
  6   4   7  ar  
  7   4   8  ar  
  8   5   9  1   
  9   5  24  1   
 10   5  25  1   
 11   6  10  1   
 12   6  26  1   
 13   6  27  1   
 14   7  11  ar  
 15   7  28  1   
 16   8  12  ar  
 17   8  29  1   
 18   9  13  1   
 19   9  14  2   
 20  10  15  1   
 21  10  30  1   
 22  10  31  1   
 23  11  16  ar  
 24  11  17  1   
 25  12  16  ar  
 26  12  32  1   
 27  13  18  2   
 28  14  19  1   
 29  14  20  1   
 30  15  33  1   
 31  16  21  1   
 32  17  22  1   
 33  17  34  1   
 34  17  35  1   
 35  18  19  1   
 36  18  36  1   
 37  19  37  1   
 38  20  38  1   
 39  20  39  1   
 40  20  40  1   
 41  21  23  1   
 42  22  23  1   
 43  22  41  1   
 44  22  42  1   
 45  23  43  1   
 46  23  44  1   
@<TRIPOS>SUBSTRUCTURE
  1 ****   4 GROUP 4 **** **** 0

# MOE 2024.06 (io_trps.svl 2023.06)
