@<TRIPOS>MOLECULE
NONAME
46 48 1 0 0 
SMALL
USER_CHARGES


@<TRIPOS>ATOM
  1 CL      -1.8440    -0.2240     2.0500 Cl    1 <1>  -0.1770 
  2 C       -1.8110    -1.8490     1.4100 C.ar  1 <1>   0.1770 
  3 C       -1.9180    -2.1000     0.0500 C.ar  1 <1>  -0.0090 
  4 C       -1.6910    -2.8750     2.3280 C.ar  1 <1>  -0.1500 
  5 S       -2.1420    -0.7630    -1.1460 S.o2  1 <1>   1.4470 
  6 C       -1.9120    -3.4290    -0.3560 C.ar  1 <1>  -0.1500 
  7 C       -1.6930    -4.1850     1.8940 C.ar  1 <1>  -0.1500 
  8 O       -2.1680    -1.2790    -2.4990 O.2   1 <1>  -0.6500 
  9 O       -1.2530     0.3460    -0.8690 O.2   1 <1>  -0.6500 
 10 N       -3.7260    -0.2590    -0.8210 N.am  1 <1>  -0.8490 
 11 C       -1.8140    -4.4960     0.5400 C.ar  1 <1>  -0.1790 
 12 C       -4.7390    -1.2170    -1.2980 C.3   1 <1>   0.1960 
 13 C       -4.0010     1.0530    -1.3770 C.3   1 <1>   0.1960 
 14 C       -1.8510    -5.8790     0.0810 C.2   1 <1>   0.9790 
 15 C       -6.1390    -1.0280    -0.5360 C.3   1 <1>   0.0000 
 16 C       -5.4550     1.4230    -1.0960 C.3   1 <1>  -0.1600 
 17 O       -1.6980    -6.8150     0.8840 O.co2 1 <1>  -0.9000 
 18 O       -2.0510    -6.1380    -1.1180 O.co2 1 <1>  -0.9000 
 19 C       -7.5590    -0.8960     0.1900 C.3   1 <1>   0.2000 
 20 C       -6.4320     0.2760    -1.4330 C.3   1 <1>  -0.1600 
 21 C       -5.7710    -2.2890     0.3740 C.3   1 <1>  -0.1600 
 22 O       -7.5120     0.1740     1.1040 O.3   1 <1>  -0.5600 
 23 C       -7.9860    -2.1320     0.9700 C.3   1 <1>  -0.1600 
 24 C       -6.6900    -2.5660     1.5470 C.3   1 <1>  -0.1600 
 25 C       -8.7080     0.8590     1.3070 C.3   1 <1>   0.0400 
 26 H       -1.6040    -2.6490     3.3750 H     1 <1>   0.1500 
 27 H       -1.9990    -3.6630    -1.4070 H     1 <1>   0.1500 
 28 H       -1.6060    -4.9930     2.6030 H     1 <1>   0.1500 
 29 H       -4.8290    -1.1220    -2.3680 H     1 <1>   0.0800 
 30 H       -4.3110    -2.2060    -1.2390 H     1 <1>   0.0800 
 31 H       -3.3480     1.7850    -0.9310 H     1 <1>   0.0800 
 32 H       -3.8250     1.0400    -2.4410 H     1 <1>   0.0800 
 33 H       -5.5480     1.6690    -0.0510 H     1 <1>   0.0800 
 34 H       -5.7080     2.3030    -1.6600 H     1 <1>   0.0800 
 35 H       -8.3630    -0.7320    -0.5100 H     1 <1>   0.0800 
 36 H       -6.4010     0.0620    -2.4890 H     1 <1>   0.0800 
 37 H       -7.3940     0.7510    -1.3420 H     1 <1>   0.0800 
 38 H       -5.7960    -3.1870    -0.2260 H     1 <1>   0.0800 
 39 H       -4.7910    -2.2030     0.8200 H     1 <1>   0.0800 
 40 H       -8.7260    -1.9360     1.7230 H     1 <1>   0.0800 
 41 H       -8.3530    -2.8810     0.2910 H     1 <1>   0.0800 
 42 H       -6.4240    -1.9400     2.3840 H     1 <1>   0.0800 
 43 H       -6.6870    -3.6000     1.8440 H     1 <1>   0.0800 
 44 H       -8.5260     1.6370     2.0270 H     1 <1>   0.0800 
 45 H       -9.4530     0.1830     1.6870 H     1 <1>   0.0800 
 46 H       -9.0300     1.2950     0.3780 H     1 <1>   0.0800 
@<TRIPOS>BOND
  1   1   2  1   
  2   2   3  ar  
  3   2   4  ar  
  4   3   5  1   
  5   3   6  ar  
  6   4   7  ar  
  7   4  26  1   
  8   5   8  2   
  9   5   9  2   
 10   5  10  am  
 11   6  11  ar  
 12   6  27  1   
 13   7  11  ar  
 14   7  28  1   
 15  10  12  1   
 16  10  13  1   
 17  11  14  1   
 18  12  15  1   
 19  12  29  1   
 20  12  30  1   
 21  13  16  1   
 22  13  31  1   
 23  13  32  1   
 24  14  17  ar  
 25  14  18  ar  
 26  15  19  1   
 27  15  20  1   
 28  15  21  1   
 29  16  20  1   
 30  16  33  1   
 31  16  34  1   
 32  19  22  1   
 33  19  23  1   
 34  19  35  1   
 35  20  36  1   
 36  20  37  1   
 37  21  24  1   
 38  21  38  1   
 39  21  39  1   
 40  22  25  1   
 41  23  24  1   
 42  23  40  1   
 43  23  41  1   
 44  24  42  1   
 45  24  43  1   
 46  25  44  1   
 47  25  45  1   
 48  25  46  1   
@<TRIPOS>SUBSTRUCTURE
  1 ****  12 GROUP 4 **** **** 0

# MOE 2024.06 (io_trps.svl 2023.06)
