@<TRIPOS>MOLECULE
NONAME
56 59 1 0 0 
SMALL
USER_CHARGES


@<TRIPOS>ATOM
  1 O       -0.1750     0.5110     1.5250 O.3   1 <1>  -0.6800 
  2 C        0.4150    -0.0260     0.3870 C.3   1 <1>   0.2000 
  3 C        0.9100    -1.4310     0.7370 C.3   1 <1>  -0.0800 
  4 C        1.7050     0.7630     0.0920 C.3   1 <1>   0.3430 
  5 C        2.1960    -1.1030     1.5040 C.3   1 <1>   0.3430 
  6 C        1.1300    -2.2790    -0.5480 C.3   1 <1>  -0.0160 
  7 N        2.8140    -0.0190     0.7130 N.4   1 <1>  -0.9590 
  8 C        2.4510    -3.0330    -0.5800 C.ar  1 <1>   0.1670 
  9 C        3.8350     0.8090     1.4040 C.3   1 <1>   0.5240 
 10 N        3.5050    -2.3450    -0.9040 N.ar  1 <1>  -0.6200 
 11 C        2.4830    -4.3980    -0.2570 C.ar  1 <1>  -0.1500 
 12 C        4.6090     1.6290     0.3730 C.2   1 <1>   0.1080 
 13 C        4.7000    -2.9900    -0.9350 C.ar  1 <1>   0.3100 
 14 C        3.6690    -5.0680    -0.2740 C.ar  1 <1>  -0.1500 
 15 N        4.7080     1.3010    -0.8830 N.2   1 <1>  -0.7070 
 16 C        5.2900     2.8080     0.6570 C.2   1 <1>  -0.1500 
 17 C        4.8320    -4.3590    -0.6180 C.ar  1 <1>   0.0000 
 18 C        5.8530    -2.2670    -1.2820 C.ar  1 <1>  -0.1500 
 19 N        5.4680     2.2720    -1.4300 N.pl3 1 <1>   0.3000 
 20 C        5.8330     3.1990    -0.5180 C.2   1 <1>  -0.3320 
 21 C        6.1100    -4.9500    -0.6600 C.ar  1 <1>  -0.1500 
 22 C        7.0860    -2.8600    -1.3140 C.ar  1 <1>  -0.1500 
 23 C        6.6970     4.4060    -0.8660 C.3   1 <1>   0.1800 
 24 C        7.2150    -4.2170    -0.9990 C.ar  1 <1>  -0.1500 
 25 C        5.9890     5.2520    -1.9290 C.3   1 <1>  -0.2400 
 26 C        6.9360     5.2700     0.3780 C.3   1 <1>  -0.2400 
 27 C        8.0490     3.9250    -1.4030 C.3   1 <1>  -0.2400 
 28 H       -1.0920     0.1840     1.6400 H     1 <1>   0.4000 
 29 H       -0.2940     0.0160    -0.4230 H     1 <1>   0.0800 
 30 H        0.2220    -1.9500     1.3810 H     1 <1>   0.0800 
 31 H        1.6350     1.7550     0.5060 H     1 <1>   0.0800 
 32 H        1.8730     0.8310    -0.9700 H     1 <1>   0.0800 
 33 H        2.8520    -1.9540     1.5940 H     1 <1>   0.0800 
 34 H        1.9400    -0.7370     2.4850 H     1 <1>   0.0800 
 35 H        1.1080    -1.6510    -1.4220 H     1 <1>   0.0800 
 36 H        0.3160    -2.9740    -0.6570 H     1 <1>   0.0800 
 37 H        3.3300    -0.4690    -0.0750 H     1 <1>   0.4500 
 38 H        3.3630     1.4640     2.1170 H     1 <1>   0.0800 
 39 H        4.5290     0.1700     1.9220 H     1 <1>   0.0800 
 40 H        1.5700    -4.9080    -0.0020 H     1 <1>   0.1500 
 41 H        3.7350    -6.1150    -0.0340 H     1 <1>   0.1500 
 42 H        5.3600     3.2890     1.6170 H     1 <1>   0.1500 
 43 H        5.7370    -1.2260    -1.5250 H     1 <1>   0.1500 
 44 H        5.7280     2.2830    -2.4250 H     1 <1>   0.2700 
 45 H        6.2050    -5.9950    -0.4190 H     1 <1>   0.1500 
 46 H        7.9650    -2.2980    -1.5820 H     1 <1>   0.1500 
 47 H        8.1910    -4.6710    -1.0300 H     1 <1>   0.1500 
 48 H        6.5690     6.1280    -2.1610 H     1 <1>   0.0800 
 49 H        5.0260     5.5690    -1.5690 H     1 <1>   0.0800 
 50 H        5.8450     4.6940    -2.8360 H     1 <1>   0.0800 
 51 H        7.5460     6.1220     0.1360 H     1 <1>   0.0800 
 52 H        7.4380     4.7000     1.1400 H     1 <1>   0.0800 
 53 H        6.0010     5.6250     0.7730 H     1 <1>   0.0800 
 54 H        8.6890     4.7630    -1.6160 H     1 <1>   0.0800 
 55 H        7.9270     3.3570    -2.3070 H     1 <1>   0.0800 
 56 H        8.5360     3.3020    -0.6730 H     1 <1>   0.0800 
@<TRIPOS>BOND
  1   1   2  1   
  2   1  28  1   
  3   2   3  1   
  4   2   4  1   
  5   2  29  1   
  6   3   5  1   
  7   3   6  1   
  8   3  30  1   
  9   4   7  1   
 10   4  31  1   
 11   4  32  1   
 12   5   7  1   
 13   5  33  1   
 14   5  34  1   
 15   6   8  1   
 16   6  35  1   
 17   6  36  1   
 18   7   9  1   
 19   7  37  1   
 20   8  10  ar  
 21   8  11  ar  
 22   9  12  1   
 23   9  38  1   
 24   9  39  1   
 25  10  13  ar  
 26  11  14  ar  
 27  11  40  1   
 28  12  15  2   
 29  12  16  1   
 30  13  17  ar  
 31  13  18  ar  
 32  14  17  ar  
 33  14  41  1   
 34  15  19  1   
 35  16  20  2   
 36  16  42  1   
 37  17  21  ar  
 38  18  22  ar  
 39  18  43  1   
 40  19  20  1   
 41  19  44  1   
 42  20  23  1   
 43  21  24  ar  
 44  21  45  1   
 45  22  24  ar  
 46  22  46  1   
 47  23  25  1   
 48  23  26  1   
 49  23  27  1   
 50  24  47  1   
 51  25  48  1   
 52  25  49  1   
 53  25  50  1   
 54  26  51  1   
 55  26  52  1   
 56  26  53  1   
 57  27  54  1   
 58  27  55  1   
 59  27  56  1   
@<TRIPOS>SUBSTRUCTURE
  1 ****   7 GROUP 4 **** **** 0

# MOE 2024.06 (io_trps.svl 2023.06)
