@<TRIPOS>MOLECULE
NONAME
46 49 1 0 0 
SMALL
USER_CHARGES


@<TRIPOS>ATOM
  1 S        0.1010     0.4590    -0.0240 S.3   1 <1>  -0.2420 
  2 C        1.7390    -0.1910    -0.0440 C.2   1 <1>   0.6410 
  3 C       -0.5950    -1.1750     0.0140 C.2   1 <1>  -0.0490 
  4 N        2.7910     0.5430    -0.0730 N.2   1 <1>  -0.6610 
  5 N        1.6940    -1.5770    -0.0250 N.pl3 1 <1>  -0.1080 
  6 C        0.3800    -2.1030     0.0100 C.2   1 <1>   0.2090 
  7 C        3.9470    -0.1910    -0.0830 C.2   1 <1>   0.7810 
  8 N        2.8350    -2.3440    -0.0370 N.2   1 <1>  -0.4920 
  9 N        0.2640    -3.4990     0.0340 N.am  1 <1>  -0.5390 
 10 O        5.0010     0.4330    -0.1090 O.2   1 <1>  -0.5700 
 11 C        3.9250    -1.6430    -0.0640 C.2   1 <1>   0.3890 
 12 C       -0.8550    -4.2900     0.1210 C.2   1 <1>   0.5440 
 13 C        5.2450    -2.4010    -0.0780 C.3   1 <1>  -0.1790 
 14 O       -1.9440    -3.7610     0.2360 O.2   1 <1>  -0.5700 
 15 C       -0.7280    -5.7330     0.0920 C.ar  1 <1>   0.0860 
 16 C       -1.6510    -6.5460     0.7540 C.ar  1 <1>  -0.1500 
 17 C        0.3100    -6.3760    -0.5880 C.ar  1 <1>  -0.1500 
 18 C       -1.5480    -7.9240     0.7600 C.ar  1 <1>  -0.1430 
 19 C        0.4220    -7.7510    -0.5880 C.ar  1 <1>  -0.1500 
 20 C       -0.4980    -8.5470     0.0850 C.ar  1 <1>   0.1000 
 21 C       -2.5820    -8.7580     1.5030 C.3   1 <1>  -0.0970 
 22 N       -0.3680    -9.9260     0.0750 N.pl3 1 <1>  -0.8380 
 23 C       -0.6780   -10.6360    -1.1980 C.3   1 <1>   0.2090 
 24 C        0.7970   -10.5190     0.7900 C.3   1 <1>   0.2090 
 25 C       -0.7500   -12.1570    -0.9710 C.3   1 <1>   0.1200 
 26 C        0.6430   -12.0460     0.9100 C.3   1 <1>   0.1200 
 27 O        0.4120   -12.6280    -0.3440 O.3   1 <1>  -0.5600 
 28 H       -1.6670    -1.2600     0.0370 H     1 <1>   0.1500 
 29 H        1.1660    -3.9760     0.0450 H     1 <1>   0.3700 
 30 H        5.8300    -2.1270     0.7820 H     1 <1>   0.0800 
 31 H        5.7980    -2.1520    -0.9650 H     1 <1>   0.0800 
 32 H        5.0770    -3.4630    -0.0590 H     1 <1>   0.0800 
 33 H       -2.4650    -6.0690     1.2730 H     1 <1>   0.1500 
 34 H        1.0340    -5.7970    -1.1330 H     1 <1>   0.1500 
 35 H        1.2250    -8.2280    -1.1180 H     1 <1>   0.1500 
 36 H       -3.3190    -8.1360     1.9760 H     1 <1>   0.0800 
 37 H       -2.0950    -9.3510     2.2550 H     1 <1>   0.0800 
 38 H       -3.0770    -9.4170     0.8140 H     1 <1>   0.0800 
 39 H        0.0850   -10.4220    -1.9260 H     1 <1>   0.0800 
 40 H       -1.6190   -10.2830    -1.5830 H     1 <1>   0.0800 
 41 H        0.8700   -10.0840     1.7720 H     1 <1>   0.0800 
 42 H        1.7030   -10.2960     0.2540 H     1 <1>   0.0800 
 43 H       -0.8470   -12.6690    -1.9120 H     1 <1>   0.0800 
 44 H       -1.5970   -12.4010    -0.3540 H     1 <1>   0.0800 
 45 H       -0.1810   -12.2870     1.5590 H     1 <1>   0.0800 
 46 H        1.5400   -12.4790     1.3140 H     1 <1>   0.0800 
@<TRIPOS>BOND
  1   1   2  1   
  2   1   3  1   
  3   2   4  2   
  4   2   5  1   
  5   3   6  2   
  6   3  28  1   
  7   4   7  1   
  8   5   6  1   
  9   5   8  1   
 10   6   9  1   
 11   7  10  2   
 12   7  11  1   
 13   8  11  2   
 14   9  12  am  
 15   9  29  1   
 16  11  13  1   
 17  12  14  2   
 18  12  15  1   
 19  13  30  1   
 20  13  31  1   
 21  13  32  1   
 22  15  16  ar  
 23  15  17  ar  
 24  16  18  ar  
 25  16  33  1   
 26  17  19  ar  
 27  17  34  1   
 28  18  20  ar  
 29  18  21  1   
 30  19  20  ar  
 31  19  35  1   
 32  20  22  1   
 33  21  36  1   
 34  21  37  1   
 35  21  38  1   
 36  22  23  1   
 37  22  24  1   
 38  23  25  1   
 39  23  39  1   
 40  23  40  1   
 41  24  26  1   
 42  24  41  1   
 43  24  42  1   
 44  25  27  1   
 45  25  43  1   
 46  25  44  1   
 47  26  27  1   
 48  26  45  1   
 49  26  46  1   
@<TRIPOS>SUBSTRUCTURE
  1 ****  17 GROUP 4 **** **** 0

# MOE 2024.06 (io_trps.svl 2023.06)
