@<TRIPOS>MOLECULE
Untitled Document
50 53 1 0 0 
SMALL
USER_CHARGES


@<TRIPOS>ATOM
  1 BR       0.7620    -0.7200    -1.5330 Br    1 <1>  -0.1110 
  2 C        2.4550    -0.9090    -0.6310 C.ar  1 <1>   0.1110 
  3 C        2.5210    -1.4090     0.6640 C.ar  1 <1>  -0.0090 
  4 C        3.5730    -0.5240    -1.3490 C.ar  1 <1>  -0.1500 
  5 S        1.0510    -1.9220     1.5840 S.o2  1 <1>   1.2950 
  6 C        3.7900    -1.5040     1.2290 C.ar  1 <1>  -0.1500 
  7 C        4.8190    -0.6350    -0.7610 C.ar  1 <1>  -0.1500 
  8 O        1.4940    -2.5090     2.8340 O.2   1 <1>  -0.6500 
  9 O        0.1280    -0.8060     1.6450 O.2   1 <1>  -0.6500 
 10 N        0.4170    -3.2230     0.5630 N.pl3 1 <1>   0.3170 
 11 C        4.9250    -1.1250     0.5290 C.ar  1 <1>  -0.1500 
 12 C       -0.9000    -3.4650     0.1980 C.ar  1 <1>  -0.1520 
 13 C        1.1610    -4.2410     0.0010 C.2   1 <1>  -0.3020 
 14 C       -0.9560    -4.6150    -0.5880 C.ar  1 <1>   0.0000 
 15 C       -2.0720    -2.7600     0.4950 C.ar  1 <1>  -0.1500 
 16 C        0.3700    -5.0840    -0.6980 C.2   1 <1>  -0.1500 
 17 C       -2.1850    -5.0760    -1.0800 C.ar  1 <1>  -0.1430 
 18 C       -3.2720    -3.2130     0.0040 C.ar  1 <1>  -0.1500 
 19 C       -3.3280    -4.3690    -0.7810 C.ar  1 <1>  -0.1500 
 20 C       -2.2590    -6.3430    -1.9180 C.3   1 <1>   0.2530 
 21 N       -2.8230    -7.4540    -1.1240 N.3   1 <1>  -0.8100 
 22 C       -3.0110    -8.6750    -1.9390 C.3   1 <1>   0.1100 
 23 C       -2.0170    -7.7490     0.0910 C.3   1 <1>   0.1100 
 24 C       -3.6600    -9.8260    -1.1270 C.3   1 <1>   0.3430 
 25 C       -2.5800    -8.9390     0.9040 C.3   1 <1>   0.3430 
 26 N       -3.8630    -9.4370     0.3090 N.4   1 <1>  -0.9590 
 27 C       -4.5300   -10.4890     1.1260 C.3   1 <1>   0.2630 
 28 H        3.4690    -0.1420    -2.3500 H     1 <1>   0.1500 
 29 H        3.9000    -1.8770     2.2350 H     1 <1>   0.1500 
 30 H        5.7030    -0.3400    -1.3030 H     1 <1>   0.1500 
 31 H        5.8940    -1.2090     0.9910 H     1 <1>   0.1500 
 32 H        2.2270    -4.2970     0.1400 H     1 <1>   0.1500 
 33 H       -2.0440    -1.8680     1.0980 H     1 <1>   0.1500 
 34 H        0.6680    -5.9600    -1.2470 H     1 <1>   0.1500 
 35 H       -4.1820    -2.6800     0.2200 H     1 <1>   0.1500 
 36 H       -4.2840    -4.7020    -1.1450 H     1 <1>   0.1500 
 37 H       -1.2840    -6.6060    -2.2890 H     1 <1>   0.0800 
 38 H       -2.8950    -6.1540    -2.7660 H     1 <1>   0.0800 
 39 H       -2.0620    -9.0070    -2.3250 H     1 <1>   0.0800 
 40 H       -3.6430    -8.4490    -2.7820 H     1 <1>   0.0800 
 41 H       -2.0040    -6.8860     0.7340 H     1 <1>   0.0800 
 42 H       -0.9970    -7.9580    -0.1840 H     1 <1>   0.0800 
 43 H       -3.0310   -10.6990    -1.1890 H     1 <1>   0.0800 
 44 H       -4.6080   -10.0730    -1.5740 H     1 <1>   0.0800 
 45 H       -2.7430    -8.6190     1.9200 H     1 <1>   0.0800 
 46 H       -1.8510    -9.7320     0.9230 H     1 <1>   0.0800 
 47 H       -4.4480    -8.5850     0.2520 H     1 <1>   0.4500 
 48 H       -3.9110   -11.3690     1.1820 H     1 <1>   0.0800 
 49 H       -5.4770   -10.7580     0.6860 H     1 <1>   0.0800 
 50 H       -4.7080   -10.1260     2.1260 H     1 <1>   0.0800 
@<TRIPOS>BOND
  1   1   2  1   
  2   2   3  ar  
  3   2   4  ar  
  4   3   5  1   
  5   3   6  ar  
  6   4   7  ar  
  7   4  28  1   
  8   5   8  2   
  9   5   9  2   
 10   5  10  1   
 11   6  11  ar  
 12   6  29  1   
 13   7  11  ar  
 14   7  30  1   
 15  10  12  1   
 16  10  13  1   
 17  11  31  1   
 18  12  14  ar  
 19  12  15  ar  
 20  13  16  2   
 21  13  32  1   
 22  14  16  1   
 23  14  17  ar  
 24  15  18  ar  
 25  15  33  1   
 26  16  34  1   
 27  17  19  ar  
 28  17  20  1   
 29  18  19  ar  
 30  18  35  1   
 31  19  36  1   
 32  20  21  1   
 33  20  37  1   
 34  20  38  1   
 35  21  22  1   
 36  21  23  1   
 37  22  24  1   
 38  22  39  1   
 39  22  40  1   
 40  23  25  1   
 41  23  41  1   
 42  23  42  1   
 43  24  26  1   
 44  24  43  1   
 45  24  44  1   
 46  25  26  1   
 47  25  45  1   
 48  25  46  1   
 49  26  27  1   
 50  26  47  1   
 51  27  48  1   
 52  27  49  1   
 53  27  50  1   
@<TRIPOS>SUBSTRUCTURE
  1 ****  14 GROUP 4 **** **** 0

# MOE 2024.06 (io_trps.svl 2023.06)
