@<TRIPOS>MOLECULE
NONAME
50 53 1 0 0 
SMALL
USER_CHARGES


@<TRIPOS>ATOM
  1 F        1.5070    -2.4400     1.2830 F     1 <1>  -0.1900 
  2 C        0.6860    -3.4460     1.4140 C.ar  1 <1>   0.1900 
  3 C        0.4440    -4.2540     0.3220 C.ar  1 <1>  -0.1500 
  4 C        0.0940    -3.6610     2.6420 C.ar  1 <1>  -0.1500 
  5 C       -0.4280    -5.3370     0.4350 C.ar  1 <1>   0.0530 
  6 C       -0.7750    -4.7300     2.7710 C.ar  1 <1>  -0.1500 
  7 C       -0.6970    -6.2000    -0.6970 C.2   1 <1>   0.4250 
  8 C       -1.0280    -5.5500     1.6830 C.ar  1 <1>  -0.1500 
  9 O       -1.4430    -7.2680    -0.5440 O.3   1 <1>  -0.2800 
 10 N       -0.2710    -6.0450    -1.9050 N.2   1 <1>  -0.3380 
 11 C       -1.4410    -7.7310    -1.7600 C.2   1 <1>   0.2980 
 12 N       -0.7610    -7.0480    -2.5950 N.2   1 <1>  -0.3380 
 13 C       -2.2160    -9.0070    -2.0790 C.3   1 <1>   0.2900 
 14 N       -3.6810    -8.8880    -1.8420 N.3   1 <1>  -0.8100 
 15 C       -4.3880   -10.1670    -2.0260 C.3   1 <1>   0.1100 
 16 C       -4.2720    -7.8480    -2.6990 C.3   1 <1>   0.0300 
 17 C       -4.1180   -11.1460    -0.8710 C.3   1 <1>  -0.0800 
 18 C       -4.9850   -12.4000    -0.9570 C.3   1 <1>   0.2090 
 19 C       -4.4390   -10.5730     0.5080 C.3   1 <1>  -0.1600 
 20 N       -5.2320   -12.8170     0.4470 N.pl3 1 <1>  -0.8380 
 21 C       -4.6730   -11.8010     1.3730 C.3   1 <1>   0.2090 
 22 C       -5.2990   -14.1820     0.7680 C.ar  1 <1>   0.1000 
 23 C       -5.9530   -15.0640    -0.0890 C.ar  1 <1>  -0.1500 
 24 C       -4.7450   -14.7100     1.9340 C.ar  1 <1>  -0.1500 
 25 C       -6.0330   -16.4160     0.1880 C.ar  1 <1>  -0.1500 
 26 C       -4.8220   -16.0620     2.2180 C.ar  1 <1>  -0.1500 
 27 C       -5.4640   -16.9200     1.3440 C.ar  1 <1>  -0.1500 
 28 H        0.9330    -4.0400    -0.6120 H     1 <1>   0.1500 
 29 H        0.3080    -3.0080     3.4700 H     1 <1>   0.1500 
 30 H       -1.2530    -4.9220     3.7160 H     1 <1>   0.1500 
 31 H       -1.7090    -6.3750     1.8050 H     1 <1>   0.1500 
 32 H       -1.8120    -9.7850    -1.4590 H     1 <1>   0.0800 
 33 H       -2.0380    -9.2730    -3.1060 H     1 <1>   0.0800 
 34 H       -4.1100   -10.6130    -2.9670 H     1 <1>   0.0800 
 35 H       -5.4480    -9.9740    -2.0520 H     1 <1>   0.0800 
 36 H       -3.8140    -6.8930    -2.5000 H     1 <1>   0.0800 
 37 H       -5.3250    -7.7560    -2.4920 H     1 <1>   0.0800 
 38 H       -4.1380    -8.0900    -3.7390 H     1 <1>   0.0800 
 39 H       -3.0940   -11.4710    -0.8930 H     1 <1>   0.0800 
 40 H       -4.4870   -13.1790    -1.5090 H     1 <1>   0.0800 
 41 H       -5.9330   -12.1810    -1.4170 H     1 <1>   0.0800 
 42 H       -5.3450    -9.9940     0.4700 H     1 <1>   0.0800 
 43 H       -3.6450    -9.9560     0.8890 H     1 <1>   0.0800 
 44 H       -5.3610   -11.5980     2.1760 H     1 <1>   0.0800 
 45 H       -3.7340   -12.1450     1.7680 H     1 <1>   0.0800 
 46 H       -6.4150   -14.6840    -0.9800 H     1 <1>   0.1500 
 47 H       -4.2470   -14.0700     2.6340 H     1 <1>   0.1500 
 48 H       -6.5420   -17.0760    -0.4930 H     1 <1>   0.1500 
 49 H       -4.3840   -16.4470     3.1220 H     1 <1>   0.1500 
 50 H       -5.5240   -17.9720     1.5630 H     1 <1>   0.1500 
@<TRIPOS>BOND
  1   1   2  1   
  2   2   3  ar  
  3   2   4  ar  
  4   3   5  ar  
  5   3  28  1   
  6   4   6  ar  
  7   4  29  1   
  8   5   7  1   
  9   5   8  ar  
 10   6   8  ar  
 11   6  30  1   
 12   7   9  1   
 13   7  10  2   
 14   8  31  1   
 15   9  11  1   
 16  10  12  1   
 17  11  12  2   
 18  11  13  1   
 19  13  14  1   
 20  13  32  1   
 21  13  33  1   
 22  14  15  1   
 23  14  16  1   
 24  15  17  1   
 25  15  34  1   
 26  15  35  1   
 27  16  36  1   
 28  16  37  1   
 29  16  38  1   
 30  17  18  1   
 31  17  19  1   
 32  17  39  1   
 33  18  20  1   
 34  18  40  1   
 35  18  41  1   
 36  19  21  1   
 37  19  42  1   
 38  19  43  1   
 39  20  21  1   
 40  20  22  1   
 41  21  44  1   
 42  21  45  1   
 43  22  23  ar  
 44  22  24  ar  
 45  23  25  ar  
 46  23  46  1   
 47  24  26  ar  
 48  24  47  1   
 49  25  27  ar  
 50  25  48  1   
 51  26  27  ar  
 52  26  49  1   
 53  27  50  1   
@<TRIPOS>SUBSTRUCTURE
  1 ****  19 GROUP 4 **** **** 0

# MOE 2024.06 (io_trps.svl 2023.06)
