@<TRIPOS>MOLECULE
NONAME
44 45 1 0 0 
SMALL
USER_CHARGES


@<TRIPOS>ATOM
  1 F        0.5290    -0.5970    -0.4760 F     1 <1>  -0.1900 
  2 C        1.6190    -1.2900    -0.2750 C.ar  1 <1>   0.1900 
  3 C        1.5300    -2.5560     0.2840 C.ar  1 <1>  -0.1440 
  4 C        2.8250    -0.7080    -0.6320 C.ar  1 <1>  -0.1500 
  5 C        2.7310    -3.2230     0.4730 C.ar  1 <1>   0.1900 
  6 C        0.1840    -3.1850     0.6540 C.3   1 <1>   0.0440 
  7 C        4.0040    -1.4080    -0.4270 C.ar  1 <1>  -0.1500 
  8 F        2.7270    -4.4180     1.0010 F     1 <1>  -0.1900 
  9 C        3.9580    -2.6760     0.1300 C.ar  1 <1>  -0.1500 
 10 C       -0.4580    -3.9890    -0.4750 C.2   1 <1>   0.5690 
 11 O        0.0780    -3.9980    -1.5600 O.2   1 <1>  -0.5700 
 12 N       -1.6210    -4.6810    -0.2500 N.am  1 <1>  -0.6600 
 13 C       -2.2020    -5.5400    -1.3430 C.3   1 <1>   0.1400 
 14 C       -2.3870    -4.6630     1.0420 C.3   1 <1>   0.1400 
 15 C       -3.1330    -6.6120    -0.7610 C.3   1 <1>   0.2000 
 16 C       -3.8870    -4.7010     0.7440 C.3   1 <1>  -0.1600 
 17 O       -3.5940    -7.4760    -1.7400 O.3   1 <1>  -0.6800 
 18 C       -4.3190    -6.0370     0.0600 C.3   1 <1>  -0.1060 
 19 C       -4.5820    -7.1460     1.0940 C.2   1 <1>   0.9060 
 20 C       -5.6370    -5.7810    -0.7440 C.3   1 <1>  -0.1600 
 21 O       -4.3570    -6.9470     2.2950 O.co2 1 <1>  -0.9000 
 22 O       -4.9560    -8.2520     0.6780 O.co2 1 <1>  -0.9000 
 23 C       -5.5330    -4.9010    -2.0060 C.3   1 <1>  -0.1600 
 24 C       -6.9120    -4.7000    -2.6420 C.3   1 <1>  -0.2400 
 25 H        2.8350     0.2770    -1.0640 H     1 <1>   0.1500 
 26 H       -0.5000    -2.4090     0.9430 H     1 <1>   0.0800 
 27 H        0.3120    -3.8330     1.4990 H     1 <1>   0.0800 
 28 H        4.9490    -0.9700    -0.7010 H     1 <1>   0.1500 
 29 H        4.8580    -3.2390     0.2970 H     1 <1>   0.1500 
 30 H       -2.7450    -4.9130    -2.0250 H     1 <1>   0.0800 
 31 H       -1.4040    -6.0240    -1.8790 H     1 <1>   0.0800 
 32 H       -2.1160    -5.5190     1.6390 H     1 <1>   0.0800 
 33 H       -2.1720    -3.7750     1.6060 H     1 <1>   0.0800 
 34 H       -2.5200    -7.2160    -0.1100 H     1 <1>   0.0800 
 35 H       -4.4370    -4.5680     1.6600 H     1 <1>   0.0800 
 36 H       -4.1100    -3.8510     0.1300 H     1 <1>   0.0800 
 37 H       -4.2040    -8.0990    -1.2690 H     1 <1>   0.4000 
 38 H       -6.0460    -6.7310    -1.0450 H     1 <1>   0.0800 
 39 H       -6.3550    -5.3460    -0.0700 H     1 <1>   0.0800 
 40 H       -5.1180    -3.9380    -1.7750 H     1 <1>   0.0800 
 41 H       -4.8920    -5.3780    -2.7260 H     1 <1>   0.0800 
 42 H       -7.5740    -4.2070    -1.9530 H     1 <1>   0.0800 
 43 H       -7.3370    -5.6510    -2.9140 H     1 <1>   0.0800 
 44 H       -6.8230    -4.0980    -3.5280 H     1 <1>   0.0800 
@<TRIPOS>BOND
  1   1   2  1   
  2   2   3  ar  
  3   2   4  ar  
  4   3   5  ar  
  5   3   6  1   
  6   4   7  ar  
  7   4  25  1   
  8   5   8  1   
  9   5   9  ar  
 10   6  10  1   
 11   6  26  1   
 12   6  27  1   
 13   7   9  ar  
 14   7  28  1   
 15   9  29  1   
 16  10  11  2   
 17  10  12  am  
 18  12  13  1   
 19  12  14  1   
 20  13  15  1   
 21  13  30  1   
 22  13  31  1   
 23  14  16  1   
 24  14  32  1   
 25  14  33  1   
 26  15  17  1   
 27  15  18  1   
 28  15  34  1   
 29  16  18  1   
 30  16  35  1   
 31  16  36  1   
 32  17  37  1   
 33  18  19  1   
 34  18  20  1   
 35  19  21  ar  
 36  19  22  ar  
 37  20  23  1   
 38  20  38  1   
 39  20  39  1   
 40  23  24  1   
 41  23  40  1   
 42  23  41  1   
 43  24  42  1   
 44  24  43  1   
 45  24  44  1   
@<TRIPOS>SUBSTRUCTURE
  1 ****  12 GROUP 4 **** **** 0

# MOE 2024.06 (io_trps.svl 2023.06)
