@<TRIPOS>MOLECULE
NONAME
41 42 1 0 0 
SMALL
USER_CHARGES


@<TRIPOS>ATOM
  1 S        0.8900     0.1790     1.6690 S.3   1 <1>  -0.0800 
  2 C        1.8200     1.6820     1.7310 C.2   1 <1>  -0.0450 
  3 C        1.2710    -0.2160     3.3300 C.2   1 <1>  -0.1100 
  4 C        1.8820     2.5130     0.5540 C.2   1 <1>   0.7150 
  5 C        2.3570     1.8030     2.9750 C.2   1 <1>  -0.1500 
  6 C        2.0490     0.7380     3.8720 C.2   1 <1>  -0.1500 
  7 O        1.3160     2.2030    -0.4750 O.2   1 <1>  -0.5700 
  8 N        2.6010     3.6730     0.6070 N.am  1 <1>  -0.7300 
  9 C        2.9170     4.6540    -0.4730 C.3   1 <1>   0.3610 
 10 C        3.6150     5.8970     0.1610 C.2   1 <1>   0.5690 
 11 C        3.8250     3.9490    -1.4920 C.3   1 <1>  -0.2400 
 12 C        1.6220     5.1230    -1.1570 C.3   1 <1>  -0.2400 
 13 O        4.5930     6.3980    -0.3500 O.2   1 <1>  -0.5700 
 14 N        3.0990     6.4230     1.3130 N.am  1 <1>  -0.7300 
 15 C        3.6760     7.5860     2.0270 C.3   1 <1>   0.1400 
 16 C        3.2450     8.8910     1.3530 C.3   1 <1>   0.0200 
 17 C        4.2200     9.9950     1.7080 C.2   1 <1>   0.0060 
 18 N        4.0240    10.8590     2.6420 N.2   1 <1>  -0.3380 
 19 N        5.3960    10.1840     1.0980 N.pl3 1 <1>   0.0480 
 20 N        5.0930    11.6570     2.6660 N.2   1 <1>  -0.3380 
 21 C        5.8910    11.2400     1.7450 C.2   1 <1>   0.0360 
 22 C        6.0140     9.4200    -0.0050 C.3   1 <1>   0.0160 
 23 H        0.8680    -1.1300     3.7300 H     1 <1>   0.1500 
 24 H        2.9730     2.6190     3.3070 H     1 <1>   0.1500 
 25 H        2.4220     0.7330     4.8820 H     1 <1>   0.1500 
 26 H        3.1850     3.8020     1.4310 H     1 <1>   0.3700 
 27 H        4.7350     3.6260    -1.0210 H     1 <1>   0.0800 
 28 H        4.0810     4.6270    -2.2860 H     1 <1>   0.0800 
 29 H        3.3290     3.1000    -1.9270 H     1 <1>   0.0800 
 30 H        0.9170     5.4820    -0.4300 H     1 <1>   0.0800 
 31 H        1.1700     4.3320    -1.7260 H     1 <1>   0.0800 
 32 H        1.8450     5.9240    -1.8390 H     1 <1>   0.0800 
 33 H        2.2120     6.0590     1.6720 H     1 <1>   0.3700 
 34 H        4.7500     7.5050     2.0010 H     1 <1>   0.0800 
 35 H        3.3680     7.5840     3.0590 H     1 <1>   0.0800 
 36 H        2.2600     9.1620     1.6880 H     1 <1>   0.0800 
 37 H        3.2220     8.7760     0.2840 H     1 <1>   0.0800 
 38 H        6.8440    11.6790     1.5170 H     1 <1>   0.1500 
 39 H        5.3200     9.3420    -0.8230 H     1 <1>   0.0800 
 40 H        6.2650     8.4330     0.3390 H     1 <1>   0.0800 
 41 H        6.9040     9.9190    -0.3400 H     1 <1>   0.0800 
@<TRIPOS>BOND
  1   1   2  1   
  2   1   3  1   
  3   2   4  1   
  4   2   5  2   
  5   3   6  2   
  6   3  23  1   
  7   4   7  2   
  8   4   8  am  
  9   5   6  1   
 10   5  24  1   
 11   6  25  1   
 12   8   9  1   
 13   8  26  1   
 14   9  10  1   
 15   9  11  1   
 16   9  12  1   
 17  10  13  2   
 18  10  14  am  
 19  11  27  1   
 20  11  28  1   
 21  11  29  1   
 22  12  30  1   
 23  12  31  1   
 24  12  32  1   
 25  14  15  1   
 26  14  33  1   
 27  15  16  1   
 28  15  34  1   
 29  15  35  1   
 30  16  17  1   
 31  16  36  1   
 32  16  37  1   
 33  17  18  2   
 34  17  19  1   
 35  18  20  1   
 36  19  21  1   
 37  19  22  1   
 38  20  21  2   
 39  21  38  1   
 40  22  39  1   
 41  22  40  1   
 42  22  41  1   
@<TRIPOS>SUBSTRUCTURE
  1 ****  14 GROUP 4 **** **** 0

# MOE 2024.06 (io_trps.svl 2023.06)
