@<TRIPOS>MOLECULE
NONAME
50 52 1 0 0 
SMALL
USER_CHARGES


@<TRIPOS>ATOM
  1 O       -0.2680     1.6190     0.5820 O.3   1 <1>  -0.0190 
  2 N       -0.4570     2.0440    -0.6320 N.2   1 <1>  -0.4100 
  3 C        0.9850     1.7010     0.9380 C.2   1 <1>  -0.0400 
  4 C        0.6960     2.4060    -1.0680 C.2   1 <1>   0.1080 
  5 C        1.6780     2.2100    -0.0940 C.2   1 <1>  -0.1810 
  6 C        1.3800     1.2470     2.3280 C.3   1 <1>  -0.0600 
  7 C        0.9130     2.9590    -2.4600 C.3   1 <1>  -0.0590 
  8 C        3.1620     2.5110    -0.2050 C.3   1 <1>   0.0210 
  9 C        3.4290     3.9920     0.0930 C.3   1 <1>  -0.1600 
 10 C        4.9210     4.3200     0.0590 C.3   1 <1>   0.2090 
 11 N        5.0900     5.7560     0.3760 N.pl3 1 <1>  -0.8690 
 12 C        5.9210     6.7090    -0.0610 C.ar  1 <1>   0.7710 
 13 N        5.7330     7.9100     0.4400 N.ar  1 <1>  -0.6200 
 14 N        6.8850     6.4290    -0.9550 N.ar  1 <1>  -0.1790 
 15 C        6.5390     8.8820     0.0500 C.ar  1 <1>   0.4100 
 16 C        7.7190     7.3990    -1.4000 C.ar  1 <1>   0.2110 
 17 N        6.3560    10.1120     0.5960 N.pl3 1 <1>  -0.8380 
 18 C        7.5520     8.6470    -0.9030 C.ar  1 <1>  -0.1500 
 19 C        7.4480    11.1170     0.8190 C.3   1 <1>   0.2090 
 20 C        5.0360    10.5690     1.1320 C.3   1 <1>   0.2090 
 21 C        7.0850    12.4570     0.1560 C.3   1 <1>   0.2000 
 22 C        4.6460    11.8990     0.4710 C.3   1 <1>  -0.1600 
 23 O        8.0510    13.4020     0.4560 O.3   1 <1>  -0.6800 
 24 C        5.7290    12.9790     0.6420 C.3   1 <1>  -0.1600 
 25 H        0.8420     1.8190     3.0620 H     1 <1>   0.0800 
 26 H        2.4340     1.3790     2.4890 H     1 <1>   0.0800 
 27 H        1.1350     0.2070     2.4520 H     1 <1>   0.0800 
 28 H       -0.0130     2.9440    -3.0060 H     1 <1>   0.0800 
 29 H        1.6310     2.3580    -2.9850 H     1 <1>   0.0800 
 30 H        1.2620     3.9730    -2.4020 H     1 <1>   0.0800 
 31 H        3.5040     2.2560    -1.1930 H     1 <1>   0.0800 
 32 H        3.6970     1.8960     0.4960 H     1 <1>   0.0800 
 33 H        3.0350     4.2180     1.0690 H     1 <1>   0.0800 
 34 H        2.9090     4.5960    -0.6290 H     1 <1>   0.0800 
 35 H        5.3200     4.0920    -0.9150 H     1 <1>   0.0800 
 36 H        5.4370     3.7280     0.7990 H     1 <1>   0.0800 
 37 H        4.4250     6.1000     1.0800 H     1 <1>   0.4000 
 38 H        6.9460     5.4660    -1.2640 H     1 <1>   0.4570 
 39 H        8.4760     7.1560    -2.1290 H     1 <1>   0.1500 
 40 H        8.1660     9.4640    -1.2310 H     1 <1>   0.1500 
 41 H        8.3880    10.7670     0.4350 H     1 <1>   0.0800 
 42 H        7.5580    11.2660     1.8790 H     1 <1>   0.0800 
 43 H        5.1110    10.6940     2.1990 H     1 <1>   0.0800 
 44 H        4.2660     9.8430     0.9350 H     1 <1>   0.0800 
 45 H        7.0780    12.3320    -0.9130 H     1 <1>   0.0800 
 46 H        3.7220    12.2460     0.8990 H     1 <1>   0.0800 
 47 H        4.4730    11.7230    -0.5760 H     1 <1>   0.0800 
 48 H        7.9430    13.7230     1.3710 H     1 <1>   0.4000 
 49 H        5.4560    13.8530     0.0780 H     1 <1>   0.0800 
 50 H        5.7920    13.2420     1.6840 H     1 <1>   0.0800 
@<TRIPOS>BOND
  1   1   2  1   
  2   1   3  1   
  3   2   4  2   
  4   3   5  2   
  5   3   6  1   
  6   4   5  1   
  7   4   7  1   
  8   5   8  1   
  9   6  25  1   
 10   6  26  1   
 11   6  27  1   
 12   7  28  1   
 13   7  29  1   
 14   7  30  1   
 15   8   9  1   
 16   8  31  1   
 17   8  32  1   
 18   9  10  1   
 19   9  33  1   
 20   9  34  1   
 21  10  11  1   
 22  10  35  1   
 23  10  36  1   
 24  11  12  1   
 25  11  37  1   
 26  12  13  ar  
 27  12  14  ar  
 28  13  15  ar  
 29  14  16  ar  
 30  14  38  1   
 31  15  17  1   
 32  15  18  ar  
 33  16  18  ar  
 34  16  39  1   
 35  17  19  1   
 36  17  20  1   
 37  18  40  1   
 38  19  21  1   
 39  19  41  1   
 40  19  42  1   
 41  20  22  1   
 42  20  43  1   
 43  20  44  1   
 44  21  23  1   
 45  21  24  1   
 46  21  45  1   
 47  22  24  1   
 48  22  46  1   
 49  22  47  1   
 50  23  48  1   
 51  24  49  1   
 52  24  50  1   
@<TRIPOS>SUBSTRUCTURE
  1 ****  11 GROUP 4 **** **** 0

# MOE 2024.06 (io_trps.svl 2023.06)
