@<TRIPOS>MOLECULE
NONAME
56 59 1 0 0 
SMALL
USER_CHARGES


@<TRIPOS>ATOM
  1 O       -1.0560     1.2980    -1.9480 O.2   1 <1>  -0.5700 
  2 C       -1.5290     1.1510    -0.8350 C.2   1 <1>   0.7160 
  3 N       -1.9850    -0.0980    -0.4610 N.am  1 <1>  -0.6600 
  4 C       -1.6090     2.2770     0.0380 C.2   1 <1>  -0.0860 
  5 C       -1.9730    -1.2600    -1.3910 C.3   1 <1>   0.1400 
  6 C       -2.6920    -0.3610     0.8220 C.3   1 <1>   0.1400 
  7 C       -2.7700     2.9900     0.3520 C.2   1 <1>   0.3720 
  8 C       -0.6490     2.8780     0.7890 C.2   1 <1>   0.0870 
  9 C       -3.4150    -1.6750    -1.7220 C.3   1 <1>  -0.0800 
 10 C       -4.1510    -0.7440     0.5350 C.3   1 <1>  -0.0800 
 11 N       -2.5210     3.9120     1.2160 N.2   1 <1>  -0.4100 
 12 N       -4.0490     2.7290    -0.1620 N.pl3 1 <1>  -0.8210 
 13 O       -1.2410     3.8320     1.4610 O.3   1 <1>  -0.0190 
 14 C        0.7590     2.6270     0.9650 C.ar  1 <1>   0.0530 
 15 C       -4.2170    -1.9470    -0.4300 C.3   1 <1>  -0.1600 
 16 C       -3.3920    -2.8890    -2.6610 C.3   1 <1>   0.1200 
 17 C       -4.8760    -1.0140     1.8610 C.3   1 <1>   0.1200 
 18 C       -4.1870     2.8980    -1.6430 C.3   1 <1>   0.2090 
 19 C       -5.1840     3.4080     0.5380 C.3   1 <1>   0.2090 
 20 C        1.5690     2.1820    -0.0800 C.ar  1 <1>  -0.1500 
 21 C        1.3640     2.8240     2.2070 C.ar  1 <1>  -0.1500 
 22 O       -4.6830    -3.2080    -3.0440 O.3   1 <1>  -0.6800 
 23 O       -6.1970    -1.3490     1.6190 O.3   1 <1>  -0.6800 
 24 C       -5.5800     2.4440    -2.1150 C.3   1 <1>   0.1200 
 25 C       -6.5360     2.9360    -0.0250 C.3   1 <1>   0.1200 
 26 C        2.9160     1.9310     0.1090 C.ar  1 <1>  -0.1500 
 27 C        2.7100     2.5760     2.4020 C.ar  1 <1>  -0.1500 
 28 O       -6.5930     3.1130    -1.4140 O.3   1 <1>  -0.5600 
 29 C        3.4900     2.1260     1.3530 C.ar  1 <1>  -0.1500 
 30 H       -1.4480    -1.0170    -2.3000 H     1 <1>   0.0800 
 31 H       -1.4530    -2.0760    -0.9200 H     1 <1>   0.0800 
 32 H       -2.1950    -1.1680     1.3330 H     1 <1>   0.0800 
 33 H       -2.6640     0.5010     1.4650 H     1 <1>   0.0800 
 34 H       -3.8670    -0.8570    -2.2560 H     1 <1>   0.0800 
 35 H       -4.6210     0.1040     0.0700 H     1 <1>   0.0800 
 36 H       -3.8240    -2.8200     0.0620 H     1 <1>   0.0800 
 37 H       -5.2450    -2.1420    -0.6800 H     1 <1>   0.0800 
 38 H       -2.9620    -3.7500    -2.1770 H     1 <1>   0.0800 
 39 H       -2.8330    -2.6690    -3.5540 H     1 <1>   0.0800 
 40 H       -4.8630    -0.1390     2.4900 H     1 <1>   0.0800 
 41 H       -4.4210    -1.8350     2.3890 H     1 <1>   0.0800 
 42 H       -4.0420     3.9320    -1.9040 H     1 <1>   0.0800 
 43 H       -3.4440     2.3190    -2.1590 H     1 <1>   0.0800 
 44 H       -5.1390     3.1870     1.5910 H     1 <1>   0.0800 
 45 H       -5.1000     4.4750     0.4170 H     1 <1>   0.0800 
 46 H        1.1490     2.0370    -1.0580 H     1 <1>   0.1500 
 47 H        0.7690     3.1740     3.0320 H     1 <1>   0.1500 
 48 H       -5.2290    -3.4240    -2.2640 H     1 <1>   0.4000 
 49 H       -6.6440    -0.6480     1.1080 H     1 <1>   0.4000 
 50 H       -5.6990     1.3850    -1.9660 H     1 <1>   0.0800 
 51 H       -5.7050     2.6620    -3.1600 H     1 <1>   0.0800 
 52 H       -7.3370     3.5060     0.4110 H     1 <1>   0.0800 
 53 H       -6.6900     1.8950     0.1950 H     1 <1>   0.0800 
 54 H        3.5190     1.5860    -0.7130 H     1 <1>   0.1500 
 55 H        3.1530     2.7340     3.3710 H     1 <1>   0.1500 
 56 H        4.5380     1.9310     1.5010 H     1 <1>   0.1500 
@<TRIPOS>BOND
  1   1   2  2   
  2   2   3  am  
  3   2   4  1   
  4   3   5  1   
  5   3   6  1   
  6   4   7  1   
  7   4   8  2   
  8   5   9  1   
  9   5  30  1   
 10   5  31  1   
 11   6  10  1   
 12   6  32  1   
 13   6  33  1   
 14   7  11  2   
 15   7  12  1   
 16   8  13  1   
 17   8  14  1   
 18   9  15  1   
 19   9  16  1   
 20   9  34  1   
 21  10  15  1   
 22  10  17  1   
 23  10  35  1   
 24  11  13  1   
 25  12  18  1   
 26  12  19  1   
 27  14  20  ar  
 28  14  21  ar  
 29  15  36  1   
 30  15  37  1   
 31  16  22  1   
 32  16  38  1   
 33  16  39  1   
 34  17  23  1   
 35  17  40  1   
 36  17  41  1   
 37  18  24  1   
 38  18  42  1   
 39  18  43  1   
 40  19  25  1   
 41  19  44  1   
 42  19  45  1   
 43  20  26  ar  
 44  20  46  1   
 45  21  27  ar  
 46  21  47  1   
 47  22  48  1   
 48  23  49  1   
 49  24  28  1   
 50  24  50  1   
 51  24  51  1   
 52  25  28  1   
 53  25  52  1   
 54  25  53  1   
 55  26  29  ar  
 56  26  54  1   
 57  27  29  ar  
 58  27  55  1   
 59  29  56  1   
@<TRIPOS>SUBSTRUCTURE
  1 ****   2 GROUP 4 **** **** 0

# MOE 2024.06 (io_trps.svl 2023.06)
