@<TRIPOS>MOLECULE
NONAME
57 59 1 0 0 
SMALL
USER_CHARGES


@<TRIPOS>ATOM
  1 O        0.2590     1.3840    -1.9420 O.2   1 <1>  -0.5700 
  2 C        0.0190     2.2770    -1.1620 C.2   1 <1>   0.5690 
  3 N       -1.1750     2.9610    -1.2150 N.am  1 <1>  -0.6600 
  4 C        1.0660     2.6480    -0.1120 C.3   1 <1>   0.0440 
  5 C       -2.2310     2.6030    -2.2010 C.3   1 <1>   0.1400 
  6 C       -1.5770     4.0950    -0.3410 C.3   1 <1>   0.1400 
  7 C        2.2810     1.7270    -0.0170 C.ar  1 <1>  -0.1440 
  8 C       -3.4980     2.1920    -1.4470 C.3   1 <1>  -0.1600 
  9 C       -2.8250     3.6910     0.4500 C.3   1 <1>  -0.1600 
 10 C        3.2370     1.7240    -1.0210 C.ar  1 <1>  -0.1500 
 11 C        2.4550     0.8940     1.0770 C.ar  1 <1>  -0.1500 
 12 C       -3.9900     3.2790    -0.4770 C.3   1 <1>   0.2800 
 13 C        4.3510     0.9080    -0.9290 C.ar  1 <1>  -0.1500 
 14 C        3.5700     0.0780     1.1680 C.ar  1 <1>  -0.1500 
 15 O       -4.3180     4.3750    -1.2820 O.3   1 <1>  -0.5600 
 16 C       -5.2280     2.7530     0.3030 C.3   1 <1>  -0.1600 
 17 C        4.5310     0.0780     0.1670 C.ar  1 <1>  -0.1430 
 18 C       -5.0200     5.4810    -0.7640 C.3   1 <1>   0.1200 
 19 C       -6.4810     3.6400     0.2260 C.3   1 <1>   0.2800 
 20 C        5.7670    -0.8160     0.2510 C.3   1 <1>   0.0630 
 21 C       -6.0700     5.1270     0.3080 C.3   1 <1>   0.2000 
 22 O       -7.1000     3.4170    -0.9900 O.3   1 <1>  -0.6800 
 23 C       -7.5150     3.2440     1.2850 C.3   1 <1>  -0.2400 
 24 C        5.3710    -2.2960     0.2780 C.3   1 <1>  -0.2400 
 25 C        6.6190    -0.4570     1.4720 C.3   1 <1>  -0.2400 
 26 O       -5.5360     5.4160     1.5680 O.3   1 <1>  -0.6800 
 27 H        1.4130     3.6400    -0.3290 H     1 <1>   0.0800 
 28 H        0.5830     2.6720     0.8460 H     1 <1>   0.0800 
 29 H       -2.4350     3.4550    -2.8280 H     1 <1>   0.0800 
 30 H       -1.9090     1.7940    -2.8350 H     1 <1>   0.0800 
 31 H       -0.7900     4.3740     0.3350 H     1 <1>   0.0800 
 32 H       -1.7980     4.9490    -0.9590 H     1 <1>   0.0800 
 33 H       -3.2850     1.2870    -0.9070 H     1 <1>   0.0800 
 34 H       -4.2740     1.9720    -2.1580 H     1 <1>   0.0800 
 35 H       -3.1110     4.5050     1.0850 H     1 <1>   0.0800 
 36 H       -2.5650     2.8630     1.0860 H     1 <1>   0.0800 
 37 H        3.1110     2.3540    -1.8840 H     1 <1>   0.1500 
 38 H        1.7250     0.8720     1.8660 H     1 <1>   0.1500 
 39 H        5.0750     0.9240    -1.7230 H     1 <1>   0.1500 
 40 H        3.6840    -0.5600     2.0250 H     1 <1>   0.1500 
 41 H       -5.4830     1.7580    -0.0150 H     1 <1>   0.0800 
 42 H       -4.9490     2.6540     1.3360 H     1 <1>   0.0800 
 43 H       -4.3110     6.1960    -0.3880 H     1 <1>   0.0800 
 44 H       -5.5280     5.9220    -1.6020 H     1 <1>   0.0800 
 45 H        6.3680    -0.6540    -0.6280 H     1 <1>   0.0800 
 46 H       -6.9350     5.7560     0.1930 H     1 <1>   0.0800 
 47 H       -7.3290     2.4750    -1.0800 H     1 <1>   0.4000 
 48 H       -7.1150     3.3880     2.2720 H     1 <1>   0.0800 
 49 H       -7.7930     2.2100     1.1840 H     1 <1>   0.0800 
 50 H       -8.3920     3.8590     1.1920 H     1 <1>   0.0800 
 51 H        4.8050    -2.5250     1.1630 H     1 <1>   0.0800 
 52 H        6.2480    -2.9170     0.2580 H     1 <1>   0.0800 
 53 H        4.7670    -2.5260    -0.5820 H     1 <1>   0.0800 
 54 H        6.0810    -0.6470     2.3830 H     1 <1>   0.0800 
 55 H        6.8810     0.5850     1.4390 H     1 <1>   0.0800 
 56 H        7.5240    -1.0380     1.4780 H     1 <1>   0.0800 
 57 H       -4.7690     4.8410     1.7370 H     1 <1>   0.4000 
@<TRIPOS>BOND
  1   1   2  2   
  2   2   3  am  
  3   2   4  1   
  4   3   5  1   
  5   3   6  1   
  6   4   7  1   
  7   4  27  1   
  8   4  28  1   
  9   5   8  1   
 10   5  29  1   
 11   5  30  1   
 12   6   9  1   
 13   6  31  1   
 14   6  32  1   
 15   7  10  ar  
 16   7  11  ar  
 17   8  12  1   
 18   8  33  1   
 19   8  34  1   
 20   9  12  1   
 21   9  35  1   
 22   9  36  1   
 23  10  13  ar  
 24  10  37  1   
 25  11  14  ar  
 26  11  38  1   
 27  12  15  1   
 28  12  16  1   
 29  13  17  ar  
 30  13  39  1   
 31  14  17  ar  
 32  14  40  1   
 33  15  18  1   
 34  16  19  1   
 35  16  41  1   
 36  16  42  1   
 37  17  20  1   
 38  18  21  1   
 39  18  43  1   
 40  18  44  1   
 41  19  21  1   
 42  19  22  1   
 43  19  23  1   
 44  20  24  1   
 45  20  25  1   
 46  20  45  1   
 47  21  26  1   
 48  21  46  1   
 49  22  47  1   
 50  23  48  1   
 51  23  49  1   
 52  23  50  1   
 53  24  51  1   
 54  24  52  1   
 55  24  53  1   
 56  25  54  1   
 57  25  55  1   
 58  25  56  1   
 59  26  57  1   
@<TRIPOS>SUBSTRUCTURE
  1 ****   3 GROUP 4 **** **** 0

# MOE 2024.06 (io_trps.svl 2023.06)
