@<TRIPOS>MOLECULE
NONAME
45 47 1 0 0 
SMALL
USER_CHARGES


@<TRIPOS>ATOM
  1 O       -1.4500     0.0610     1.2900 O.co2 1 <1>  -0.9000 
  2 C       -1.9940     0.5730     0.3070 C.2   1 <1>   0.9060 
  3 O       -2.1020     1.7900     0.1430 O.co2 1 <1>  -0.9000 
  4 C       -2.7790    -0.3480    -0.6350 C.3   1 <1>   0.2370 
  5 N       -4.1790    -0.6750    -0.1320 N.4   1 <1>  -0.9590 
  6 C       -4.0360    -1.3790     1.1890 C.3   1 <1>   0.3430 
  7 C       -4.9630     0.6020    -0.0500 C.3   1 <1>   0.3430 
  8 C       -5.3410    -2.0530     1.6670 C.3   1 <1>   0.2200 
  9 C       -6.2810     0.5160     0.7390 C.3   1 <1>  -0.0800 
 10 N       -6.4140    -2.0190     0.5990 N.am  1 <1>  -0.6600 
 11 C       -5.7980    -1.5020     3.0380 C.3   1 <1>   0.1200 
 12 C       -6.0420     0.7340     2.2490 C.3   1 <1>   0.1200 
 13 C       -7.1400    -0.7220     0.4010 C.3   1 <1>   0.1400 
 14 C       -6.6410    -3.1350    -0.1680 C.2   1 <1>   0.5690 
 15 O       -6.5550    -0.3260     2.9870 O.3   1 <1>  -0.5600 
 16 O       -5.8170    -4.0170    -0.2090 O.2   1 <1>  -0.5700 
 17 C       -7.8860    -3.3040    -1.0390 C.3   1 <1>   0.0440 
 18 C       -9.1890    -2.8520    -0.3860 C.ar  1 <1>  -0.1430 
 19 C      -10.0640    -2.0200    -1.0700 C.ar  1 <1>  -0.1500 
 20 C       -9.5090    -3.2620     0.9000 C.ar  1 <1>  -0.1500 
 21 C      -11.2360    -1.5930    -0.4710 C.ar  1 <1>  -0.1500 
 22 C      -10.6800    -2.8340     1.5000 C.ar  1 <1>  -0.1500 
 23 C      -11.5430    -1.9970     0.8160 C.ar  1 <1>  -0.1500 
 24 H       -2.2080    -1.2510    -0.7470 H     1 <1>   0.0800 
 25 H       -2.8350     0.1430    -1.5900 H     1 <1>   0.0800 
 26 H       -4.6650    -1.3390    -0.7490 H     1 <1>   0.4500 
 27 H       -3.2820    -2.1440     1.0980 H     1 <1>   0.0800 
 28 H       -3.6790    -0.6890     1.9370 H     1 <1>   0.0800 
 29 H       -4.3530     1.3710     0.3990 H     1 <1>   0.0800 
 30 H       -5.1830     0.9270    -1.0530 H     1 <1>   0.0800 
 31 H       -5.0780    -3.0790     1.8570 H     1 <1>   0.0800 
 32 H       -6.8500     1.3720     0.4260 H     1 <1>   0.0800 
 33 H       -4.9490    -1.3250     3.6760 H     1 <1>   0.0800 
 34 H       -6.4160    -2.2410     3.5170 H     1 <1>   0.0800 
 35 H       -6.5700     1.6160     2.5710 H     1 <1>   0.0800 
 36 H       -5.0010     0.8680     2.4950 H     1 <1>   0.0800 
 37 H       -7.4600    -0.6480    -0.6240 H     1 <1>   0.0800 
 38 H       -8.0270    -0.7210     1.0140 H     1 <1>   0.0800 
 39 H       -7.7250    -2.7710    -1.9560 H     1 <1>   0.0800 
 40 H       -7.9820    -4.3450    -1.2890 H     1 <1>   0.0800 
 41 H       -9.8450    -1.7000    -2.0740 H     1 <1>   0.1500 
 42 H       -8.8480    -3.9140     1.4440 H     1 <1>   0.1500 
 43 H      -11.9110    -0.9470    -1.0050 H     1 <1>   0.1500 
 44 H      -10.9200    -3.1530     2.5000 H     1 <1>   0.1500 
 45 H      -12.4540    -1.6640     1.2830 H     1 <1>   0.1500 
@<TRIPOS>BOND
  1   1   2  ar  
  2   2   3  ar  
  3   2   4  1   
  4   4   5  1   
  5   4  24  1   
  6   4  25  1   
  7   5   6  1   
  8   5   7  1   
  9   5  26  1   
 10   6   8  1   
 11   6  27  1   
 12   6  28  1   
 13   7   9  1   
 14   7  29  1   
 15   7  30  1   
 16   8  10  1   
 17   8  11  1   
 18   8  31  1   
 19   9  12  1   
 20   9  13  1   
 21   9  32  1   
 22  10  13  1   
 23  10  14  am  
 24  11  15  1   
 25  11  33  1   
 26  11  34  1   
 27  12  15  1   
 28  12  35  1   
 29  12  36  1   
 30  13  37  1   
 31  13  38  1   
 32  14  16  2   
 33  14  17  1   
 34  17  18  1   
 35  17  39  1   
 36  17  40  1   
 37  18  19  ar  
 38  18  20  ar  
 39  19  21  ar  
 40  19  41  1   
 41  20  22  ar  
 42  20  42  1   
 43  21  23  ar  
 44  21  43  1   
 45  22  23  ar  
 46  22  44  1   
 47  23  45  1   
@<TRIPOS>SUBSTRUCTURE
  1 ****  10 GROUP 4 **** **** 0

# MOE 2024.06 (io_trps.svl 2023.06)
