@<TRIPOS>MOLECULE
NONAME
43 45 1 0 0 
SMALL
USER_CHARGES


@<TRIPOS>ATOM
  1 O        0.6550     0.3920    -0.8430 O.2   1 <1>  -0.5750 
  2 C        1.8510     0.4140    -0.6730 C.2   1 <1>   0.6850 
  3 N        2.5830     1.5940    -0.7020 N.am  1 <1>  -0.4430 
  4 N        2.4980    -0.7670    -0.4460 N.am  1 <1>  -0.4960 
  5 C        3.9540     1.5070    -0.5070 C.2   1 <1>   0.4190 
  6 C        1.9180     2.9080    -0.9460 C.3   1 <1>   0.0510 
  7 C        3.8450    -0.8700    -0.2480 C.2   1 <1>   0.6990 
  8 N        4.8660     2.5180    -0.5050 N.pl3 1 <1>  -0.7040 
  9 C        4.6080     0.3430    -0.2850 C.2   1 <1>   0.2690 
 10 O        4.3350    -1.9650    -0.0540 O.2   1 <1>  -0.5750 
 11 C        6.0680     1.9910    -0.2860 C.cat 1 <1>   1.0680 
 12 N        5.9710     0.6690    -0.1420 N.pl3 1 <1>  -0.7680 
 13 N        7.2070     2.6820    -0.2270 N.pl3 1 <1>  -0.7190 
 14 C        7.0060    -0.3740     0.1180 C.3   1 <1>   0.2660 
 15 C        7.4050     4.1480    -0.4120 C.3   1 <1>   0.1590 
 16 C        8.2740     4.7390     0.7020 C.3   1 <1>   0.0860 
 17 N        8.3250     6.1990     0.5290 N.pl3 1 <1>   0.0380 
 18 C        9.1050     6.9230    -0.3000 C.2   1 <1>  -0.3390 
 19 C        7.5110     7.1020     1.1180 C.2   1 <1>   0.0270 
 20 C        8.7050     8.2090    -0.1640 C.2   1 <1>   0.0370 
 21 C       10.2040     6.3290    -1.1700 C.3   1 <1>  -0.0690 
 22 N        7.7020     8.3140     0.7240 N.2   1 <1>  -0.5710 
 23 C        9.2190     9.4620    -0.8400 C.3   1 <1>  -0.0680 
 24 H        1.9330    -1.6140    -0.4280 H     1 <1>   0.3630 
 25 H        0.8470     2.7990    -0.9560 H     1 <1>   0.0710 
 26 H        2.2280     3.3020    -1.8980 H     1 <1>   0.0710 
 27 H        2.1780     3.6020    -0.1660 H     1 <1>   0.0710 
 28 H        4.6730     3.5040    -0.6570 H     1 <1>   0.4440 
 29 H        8.0660     2.1460    -0.1090 H     1 <1>   0.4440 
 30 H        6.7710    -0.9030     1.0270 H     1 <1>   0.0710 
 31 H        7.9830     0.0640     0.2150 H     1 <1>   0.0710 
 32 H        7.0220    -1.0830    -0.6940 H     1 <1>   0.0710 
 33 H        6.4540     4.6530    -0.4170 H     1 <1>   0.0710 
 34 H        7.8820     4.3200    -1.3630 H     1 <1>   0.0710 
 35 H        9.2760     4.3520     0.6580 H     1 <1>   0.0710 
 36 H        7.8500     4.5270     1.6670 H     1 <1>   0.0710 
 37 H        6.7700     6.8240     1.8450 H     1 <1>   0.1410 
 38 H        9.7880     5.6530    -1.8950 H     1 <1>   0.0710 
 39 H       10.9150     5.8020    -0.5600 H     1 <1>   0.0710 
 40 H       10.7300     7.1020    -1.6990 H     1 <1>   0.0710 
 41 H       10.0050     9.2370    -1.5330 H     1 <1>   0.0710 
 42 H        9.5930    10.1410    -0.0960 H     1 <1>   0.0710 
 43 H        8.4140     9.9380    -1.3680 H     1 <1>   0.0710 
@<TRIPOS>BOND
  1   1   2  2   
  2   2   3  am  
  3   2   4  am  
  4   3   5  1   
  5   3   6  1   
  6   4   7  am  
  7   4  24  1   
  8   5   8  1   
  9   5   9  2   
 10   6  25  1   
 11   6  26  1   
 12   6  27  1   
 13   7   9  1   
 14   7  10  2   
 15   8  11  ar  
 16   8  28  1   
 17   9  12  1   
 18  11  12  ar  
 19  11  13  ar  
 20  12  14  1   
 21  13  15  1   
 22  13  29  1   
 23  14  30  1   
 24  14  31  1   
 25  14  32  1   
 26  15  16  1   
 27  15  33  1   
 28  15  34  1   
 29  16  17  1   
 30  16  35  1   
 31  16  36  1   
 32  17  18  1   
 33  17  19  1   
 34  18  20  2   
 35  18  21  1   
 36  19  22  2   
 37  19  37  1   
 38  20  22  1   
 39  20  23  1   
 40  21  38  1   
 41  21  39  1   
 42  21  40  1   
 43  23  41  1   
 44  23  42  1   
 45  23  43  1   
@<TRIPOS>SUBSTRUCTURE
  1 ****   8 GROUP 4 **** **** 0

# MOE 2024.06 (io_trps.svl 2023.06)
