@<TRIPOS>MOLECULE
NONAME
48 50 1 0 0 
SMALL
USER_CHARGES


@<TRIPOS>ATOM
  1 F       -1.5620     0.1180    -1.5540 F     1 <1>  -0.1900 
  2 C       -1.9990     0.8420    -0.5600 C.ar  1 <1>   0.1900 
  3 C       -2.6370     0.2330     0.5310 C.ar  1 <1>   0.3960 
  4 C       -1.8210     2.2050    -0.6540 C.ar  1 <1>  -0.1500 
  5 N       -3.1420     0.9820     1.5400 N.ar  1 <1>  -0.6200 
  6 C       -2.7580    -1.2210     0.5740 C.2   1 <1>   0.5440 
  7 C       -2.3290     2.9230     0.4010 C.ar  1 <1>   0.1900 
  8 C       -2.9710     2.2940     1.4570 C.ar  1 <1>   0.1600 
  9 O       -1.7500    -1.9060     0.5280 O.2   1 <1>  -0.5700 
 10 N       -3.9780    -1.8710     0.6570 N.am  1 <1>  -0.6600 
 11 F       -2.2090     4.2210     0.4030 F     1 <1>  -0.1900 
 12 C       -4.0920    -3.3590     0.7920 C.3   1 <1>   0.1400 
 13 C       -5.3090    -1.1930     0.5970 C.3   1 <1>   0.1400 
 14 C       -5.0770    -3.9360    -0.2400 C.3   1 <1>   0.3440 
 15 C       -6.2310    -1.8790    -0.4400 C.3   1 <1>   0.2000 
 16 O       -6.3030    -3.2550    -0.1690 O.3   1 <1>  -0.5600 
 17 C       -5.3050    -5.4250     0.0040 C.ar  1 <1>  -0.1430 
 18 C       -7.6750    -1.2950    -0.5130 C.3   1 <1>   0.0000 
 19 C       -6.2910    -5.8730     0.8730 C.ar  1 <1>  -0.1500 
 20 C       -4.5060    -6.3560    -0.6440 C.ar  1 <1>  -0.1500 
 21 C       -8.4590    -2.0050    -1.6320 C.3   1 <1>  -0.2400 
 22 C       -8.4450    -1.4830     0.8090 C.3   1 <1>  -0.2400 
 23 C       -7.6450     0.2080    -0.8480 C.3   1 <1>  -0.2400 
 24 C       -6.4740    -7.2280     1.0910 C.ar  1 <1>  -0.1500 
 25 C       -4.6880    -7.7110    -0.4270 C.ar  1 <1>  -0.1500 
 26 C       -5.6720    -8.1480     0.4410 C.ar  1 <1>  -0.1500 
 27 H       -1.3270     2.6700    -1.4880 H     1 <1>   0.1500 
 28 H       -3.3540     2.9030     2.2590 H     1 <1>   0.1500 
 29 H       -3.1350    -3.8320     0.6590 H     1 <1>   0.0800 
 30 H       -4.4390    -3.5990     1.7810 H     1 <1>   0.0800 
 31 H       -5.7610    -1.2360     1.5720 H     1 <1>   0.0800 
 32 H       -5.1890    -0.1610     0.3320 H     1 <1>   0.0800 
 33 H       -4.6810    -3.7970    -1.2310 H     1 <1>   0.0800 
 34 H       -5.7820    -1.7670    -1.4120 H     1 <1>   0.0800 
 35 H       -6.9220    -5.1640     1.3810 H     1 <1>   0.1500 
 36 H       -3.7350    -6.0310    -1.3210 H     1 <1>   0.1500 
 37 H       -9.4510    -1.5990    -1.7230 H     1 <1>   0.0800 
 38 H       -8.5480    -3.0570    -1.4210 H     1 <1>   0.0800 
 39 H       -7.9570    -1.8940    -2.5760 H     1 <1>   0.0800 
 40 H       -9.4560    -1.1300     0.7090 H     1 <1>   0.0800 
 41 H       -7.9820    -0.9420     1.6130 H     1 <1>   0.0800 
 42 H       -8.4800    -2.5250     1.0760 H     1 <1>   0.0800 
 43 H       -8.6450     0.5780    -0.9970 H     1 <1>   0.0800 
 44 H       -7.0860     0.3830    -1.7510 H     1 <1>   0.0800 
 45 H       -7.2030     0.7790    -0.0520 H     1 <1>   0.0800 
 46 H       -7.2420    -7.5640     1.7660 H     1 <1>   0.1500 
 47 H       -4.0630    -8.4260    -0.9350 H     1 <1>   0.1500 
 48 H       -5.8140    -9.2010     0.6100 H     1 <1>   0.1500 
@<TRIPOS>BOND
  1   1   2  1   
  2   2   3  ar  
  3   2   4  ar  
  4   3   5  ar  
  5   3   6  1   
  6   4   7  ar  
  7   4  27  1   
  8   5   8  ar  
  9   6   9  2   
 10   6  10  am  
 11   7   8  ar  
 12   7  11  1   
 13   8  28  1   
 14  10  12  1   
 15  10  13  1   
 16  12  14  1   
 17  12  29  1   
 18  12  30  1   
 19  13  15  1   
 20  13  31  1   
 21  13  32  1   
 22  14  16  1   
 23  14  17  1   
 24  14  33  1   
 25  15  16  1   
 26  15  18  1   
 27  15  34  1   
 28  17  19  ar  
 29  17  20  ar  
 30  18  21  1   
 31  18  22  1   
 32  18  23  1   
 33  19  24  ar  
 34  19  35  1   
 35  20  25  ar  
 36  20  36  1   
 37  21  37  1   
 38  21  38  1   
 39  21  39  1   
 40  22  40  1   
 41  22  41  1   
 42  22  42  1   
 43  23  43  1   
 44  23  44  1   
 45  23  45  1   
 46  24  26  ar  
 47  24  46  1   
 48  25  26  ar  
 49  25  47  1   
 50  26  48  1   
@<TRIPOS>SUBSTRUCTURE
  1 ****  10 GROUP 4 **** **** 0

# MOE 2024.06 (io_trps.svl 2023.06)
