@<TRIPOS>MOLECULE
NONAME
55 58 1 0 0 
SMALL
USER_CHARGES


@<TRIPOS>ATOM
  1 F        2.1450     0.7580     0.8680 F     1 <1>  -0.1900 
  2 C        2.7650    -0.3940     0.7910 C.ar  1 <1>   0.1900 
  3 C        4.1090    -0.4410     0.4660 C.ar  1 <1>   0.1900 
  4 C        2.0440    -1.5510     1.0220 C.ar  1 <1>  -0.1440 
  5 F        4.7730     0.6660     0.2460 F     1 <1>  -0.1900 
  6 C        4.7690    -1.6500     0.3630 C.ar  1 <1>  -0.1500 
  7 C        2.6970    -2.7750     0.9100 C.ar  1 <1>   0.0830 
  8 C        0.5780    -1.4810     1.3950 C.3   1 <1>   0.4860 
  9 C        4.0560    -2.8200     0.5850 C.ar  1 <1>  -0.1500 
 10 O        1.9450    -3.8860     1.1200 O.3   1 <1>  -0.3630 
 11 N       -0.2200    -1.1840     0.1760 N.4   1 <1>  -0.9590 
 12 C        2.5380    -5.1670     1.2030 C.3   1 <1>   0.0400 
 13 C       -1.6300    -0.8210     0.5380 C.3   1 <1>   0.3430 
 14 C       -0.1820    -2.3290    -0.7820 C.3   1 <1>   0.3430 
 15 C       -2.4550    -0.4190    -0.6980 C.3   1 <1>   0.1440 
 16 C       -0.9420    -1.9640    -2.0600 C.3   1 <1>  -0.1600 
 17 C       -3.8810    -0.1980    -0.2600 C.ar  1 <1>   0.1670 
 18 C       -2.3900    -1.5290    -1.7690 C.3   1 <1>  -0.1600 
 19 C       -2.0610     0.9700    -1.2700 C.3   1 <1>  -0.1600 
 20 N       -4.5500    -1.0160     0.5110 N.ar  1 <1>  -0.6200 
 21 C       -4.3870     0.9670    -0.7450 C.ar  1 <1>  -0.1430 
 22 C       -3.3790     1.7050    -1.5890 C.3   1 <1>  -0.0170 
 23 C       -5.7990    -0.6280     0.7890 C.ar  1 <1>   0.7200 
 24 C       -5.6770     1.2850    -0.4040 C.ar  1 <1>   0.1600 
 25 N       -6.3880     0.4940     0.3650 N.ar  1 <1>  -0.6200 
 26 N       -6.5430    -1.4620     1.5980 N.pl3 1 <1>  -0.8380 
 27 C       -6.2690    -2.9200     1.7090 C.3   1 <1>   0.1290 
 28 C       -7.8060    -1.0020     2.2400 C.3   1 <1>   0.1290 
 29 H        5.8160    -1.6730     0.1120 H     1 <1>   0.1500 
 30 H        0.4400    -0.7010     2.1250 H     1 <1>   0.0800 
 31 H        0.2600    -2.4150     1.8320 H     1 <1>   0.0800 
 32 H        4.5800    -3.7550     0.4970 H     1 <1>   0.1500 
 33 H        0.2210    -0.3720    -0.2750 H     1 <1>   0.4500 
 34 H        1.7700    -5.8800     1.4450 H     1 <1>   0.0800 
 35 H        3.2840    -5.1620     1.9790 H     1 <1>   0.0800 
 36 H        2.9760    -5.4170     0.2520 H     1 <1>   0.0800 
 37 H       -1.6400    -0.0060     1.2430 H     1 <1>   0.0800 
 38 H       -2.1130    -1.6650     1.0050 H     1 <1>   0.0800 
 39 H       -0.6350    -3.1970    -0.3290 H     1 <1>   0.0800 
 40 H        0.8390    -2.5750    -1.0290 H     1 <1>   0.0800 
 41 H       -0.9580    -2.8220    -2.7100 H     1 <1>   0.0800 
 42 H       -0.4110    -1.1850    -2.5800 H     1 <1>   0.0800 
 43 H       -2.8680    -1.1980    -2.6750 H     1 <1>   0.0800 
 44 H       -2.9420    -2.3840    -1.4140 H     1 <1>   0.0800 
 45 H       -1.4350     0.9060    -2.1430 H     1 <1>   0.0800 
 46 H       -1.5400     1.5380    -0.5190 H     1 <1>   0.0800 
 47 H       -3.6350     1.6000    -2.6300 H     1 <1>   0.0800 
 48 H       -3.3270     2.7480    -1.3300 H     1 <1>   0.0800 
 49 H       -6.1310     2.1940    -0.7600 H     1 <1>   0.1500 
 50 H       -5.6330    -3.2540     0.9080 H     1 <1>   0.0800 
 51 H       -7.1910    -3.4720     1.6570 H     1 <1>   0.0800 
 52 H       -5.7870    -3.1250     2.6490 H     1 <1>   0.0800 
 53 H       -7.7500     0.0490     2.4710 H     1 <1>   0.0800 
 54 H       -7.9750    -1.5410     3.1560 H     1 <1>   0.0800 
 55 H       -8.6320    -1.1680     1.5710 H     1 <1>   0.0800 
@<TRIPOS>BOND
  1   1   2  1   
  2   2   3  ar  
  3   2   4  ar  
  4   3   5  1   
  5   3   6  ar  
  6   4   7  ar  
  7   4   8  1   
  8   6   9  ar  
  9   6  29  1   
 10   7   9  ar  
 11   7  10  1   
 12   8  11  1   
 13   8  30  1   
 14   8  31  1   
 15   9  32  1   
 16  10  12  1   
 17  11  13  1   
 18  11  14  1   
 19  11  33  1   
 20  12  34  1   
 21  12  35  1   
 22  12  36  1   
 23  13  15  1   
 24  13  37  1   
 25  13  38  1   
 26  14  16  1   
 27  14  39  1   
 28  14  40  1   
 29  15  17  1   
 30  15  18  1   
 31  15  19  1   
 32  16  18  1   
 33  16  41  1   
 34  16  42  1   
 35  17  20  ar  
 36  17  21  ar  
 37  18  43  1   
 38  18  44  1   
 39  19  22  1   
 40  19  45  1   
 41  19  46  1   
 42  20  23  ar  
 43  21  22  1   
 44  21  24  ar  
 45  22  47  1   
 46  22  48  1   
 47  23  25  ar  
 48  23  26  1   
 49  24  25  ar  
 50  24  49  1   
 51  26  27  1   
 52  26  28  1   
 53  27  50  1   
 54  27  51  1   
 55  27  52  1   
 56  28  53  1   
 57  28  54  1   
 58  28  55  1   
@<TRIPOS>SUBSTRUCTURE
  1 ****  13 GROUP 4 **** **** 0

# MOE 2024.06 (io_trps.svl 2023.06)
