@<TRIPOS>MOLECULE
NONAME
37 38 1 0 0 
SMALL
USER_CHARGES


@<TRIPOS>ATOM
  1 F       -1.1000    -0.6970    -1.2110 F     1 <1>  -0.1900 
  2 C       -2.1160    -1.3570    -0.7110 C.ar  1 <1>   0.1900 
  3 C       -2.9690    -0.7560     0.1790 C.ar  1 <1>   0.1600 
  4 C       -2.3460    -2.6600    -1.0690 C.ar  1 <1>   0.1600 
  5 N       -3.9910    -1.4090     0.6860 N.ar  1 <1>  -0.6200 
  6 N       -3.3630    -3.3300    -0.5740 N.ar  1 <1>  -0.6200 
  7 C       -4.1520    -2.6780     0.2890 C.ar  1 <1>   0.7200 
  8 N       -5.2220    -3.3730     0.8110 N.pl3 1 <1>  -0.8380 
  9 C       -5.8080    -4.5830     0.1420 C.3   1 <1>   0.2090 
 10 C       -6.1010    -2.8370     1.8910 C.3   1 <1>   0.2090 
 11 C       -7.1840    -4.2340    -0.4550 C.3   1 <1>   0.2000 
 12 C       -7.4620    -2.4640     1.2880 C.3   1 <1>  -0.1600 
 13 O       -7.7210    -5.3630    -1.0570 O.3   1 <1>  -0.6800 
 14 C       -8.1610    -3.6860     0.6220 C.3   1 <1>  -0.1060 
 15 C       -8.4380    -4.7810     1.6790 C.2   1 <1>   0.9060 
 16 C       -9.5300    -3.2570     0.0160 C.3   1 <1>  -0.1600 
 17 O       -8.5080    -5.9690     1.3220 O.co2 1 <1>  -0.9000 
 18 O       -8.6040    -4.4640     2.8630 O.co2 1 <1>  -0.9000 
 19 C       -9.4860    -2.2210    -1.1230 C.3   1 <1>  -0.1600 
 20 C      -10.9000    -1.8920    -1.6100 C.3   1 <1>  -0.2400 
 21 H       -2.8080     0.2650     0.4750 H     1 <1>   0.1500 
 22 H       -1.6910    -3.1530    -1.7650 H     1 <1>   0.1500 
 23 H       -5.1730    -4.9450    -0.6450 H     1 <1>   0.0800 
 24 H       -5.9160    -5.3670     0.8730 H     1 <1>   0.0800 
 25 H       -6.2250    -3.5900     2.6520 H     1 <1>   0.0800 
 26 H       -5.6650    -1.9760     2.3640 H     1 <1>   0.0800 
 27 H       -7.0270    -3.5080    -1.2300 H     1 <1>   0.0800 
 28 H       -8.0890    -2.0740     2.0710 H     1 <1>   0.0800 
 29 H       -7.2970    -1.6780     0.5770 H     1 <1>   0.0800 
 30 H       -8.1090    -5.8940    -0.2960 H     1 <1>   0.4000 
 31 H      -10.0230    -4.1430    -0.3500 H     1 <1>   0.0800 
 32 H      -10.1410    -2.8740     0.8160 H     1 <1>   0.0800 
 33 H       -9.0170    -1.3140    -0.7870 H     1 <1>   0.0800 
 34 H       -8.9200    -2.6120    -1.9500 H     1 <1>   0.0800 
 35 H      -11.4860    -1.4830    -0.8070 H     1 <1>   0.0800 
 36 H      -11.3830    -2.7810    -1.9750 H     1 <1>   0.0800 
 37 H      -10.8560    -1.1720    -2.4070 H     1 <1>   0.0800 
@<TRIPOS>BOND
  1   1   2  1   
  2   2   3  ar  
  3   2   4  ar  
  4   3   5  ar  
  5   3  21  1   
  6   4   6  ar  
  7   4  22  1   
  8   5   7  ar  
  9   6   7  ar  
 10   7   8  1   
 11   8   9  1   
 12   8  10  1   
 13   9  11  1   
 14   9  23  1   
 15   9  24  1   
 16  10  12  1   
 17  10  25  1   
 18  10  26  1   
 19  11  13  1   
 20  11  14  1   
 21  11  27  1   
 22  12  14  1   
 23  12  28  1   
 24  12  29  1   
 25  13  30  1   
 26  14  15  1   
 27  14  16  1   
 28  15  17  ar  
 29  15  18  ar  
 30  16  19  1   
 31  16  31  1   
 32  16  32  1   
 33  19  20  1   
 34  19  33  1   
 35  19  34  1   
 36  20  35  1   
 37  20  36  1   
 38  20  37  1   
@<TRIPOS>SUBSTRUCTURE
  1 ****   8 GROUP 4 **** **** 0

# MOE 2024.06 (io_trps.svl 2023.06)
