@<TRIPOS>MOLECULE
NONAME
51 53 1 0 0 
SMALL
USER_CHARGES


@<TRIPOS>ATOM
  1 O        0.0240     1.2040     1.5090 O.2   1 <1>  -0.5700 
  2 C        0.1500     2.0870     0.6810 C.2   1 <1>   0.6900 
  3 N       -0.8930     2.9360     0.3930 N.am  1 <1>  -0.6600 
  4 N        1.3360     2.2590     0.0290 N.am  1 <1>  -0.5470 
  5 C       -2.2140     2.7700     1.0870 C.3   1 <1>   0.1400 
  6 C       -0.8850     3.8200    -0.8110 C.3   1 <1>   0.1400 
  7 C        2.4970     1.4760     0.0870 C.ar  1 <1>   0.1170 
  8 C       -3.3790     2.6550     0.0740 C.3   1 <1>   0.0000 
  9 C       -2.1170     4.7280    -0.8520 C.3   1 <1>  -0.1600 
 10 C        2.5120     0.1570    -0.3760 C.ar  1 <1>  -0.1430 
 11 C        3.6740     2.0370     0.5890 C.ar  1 <1>  -0.1430 
 12 C       -4.6850     2.3720     0.8470 C.3   1 <1>   0.2000 
 13 C       -3.4430     3.9460    -0.7910 C.3   1 <1>  -0.1600 
 14 C       -3.2230     1.3710    -0.7740 C.3   1 <1>  -0.1600 
 15 C        3.6860    -0.5750    -0.3300 C.ar  1 <1>  -0.1500 
 16 C        1.2630    -0.5090    -0.9410 C.3   1 <1>  -0.0970 
 17 C        4.8380     1.2880     0.6210 C.ar  1 <1>  -0.1500 
 18 C        3.7020     3.4650     1.1210 C.3   1 <1>  -0.0970 
 19 O       -5.7830     2.5910     0.0320 O.3   1 <1>  -0.6800 
 20 C       -4.6570     0.8760     1.1610 C.3   1 <1>  -0.1600 
 21 C       -3.7860     0.2260     0.0770 C.3   1 <1>  -0.1600 
 22 C        4.8530    -0.0170     0.1630 C.ar  1 <1>  -0.1430 
 23 C        6.1320    -0.8330     0.2080 C.3   1 <1>  -0.0970 
 24 H        1.4630     3.1910    -0.3380 H     1 <1>   0.3700 
 25 H       -2.1950     1.9020     1.7220 H     1 <1>   0.0800 
 26 H       -2.3750     3.6220     1.7230 H     1 <1>   0.0800 
 27 H       -0.0010     4.4330    -0.8030 H     1 <1>   0.0800 
 28 H       -0.8650     3.2030    -1.6940 H     1 <1>   0.0800 
 29 H       -2.0620     5.4040    -0.0160 H     1 <1>   0.0800 
 30 H       -2.0940     5.3260    -1.7460 H     1 <1>   0.0800 
 31 H       -4.7970     2.9830     1.7270 H     1 <1>   0.0800 
 32 H       -3.7560     3.7000    -1.7900 H     1 <1>   0.0800 
 33 H       -4.1870     4.6120    -0.3900 H     1 <1>   0.0800 
 34 H       -3.8110     1.4490    -1.6710 H     1 <1>   0.0800 
 35 H       -2.2050     1.1760    -1.0610 H     1 <1>   0.0800 
 36 H        3.6950    -1.5920    -0.6790 H     1 <1>   0.1500 
 37 H        1.5150    -1.3910    -1.4990 H     1 <1>   0.0800 
 38 H        0.7410     0.1650    -1.5950 H     1 <1>   0.0800 
 39 H        0.6080    -0.7890    -0.1360 H     1 <1>   0.0800 
 40 H        5.7430     1.7190     1.0090 H     1 <1>   0.1500 
 41 H        4.6490     3.6870     1.5780 H     1 <1>   0.0800 
 42 H        2.9340     3.5930     1.8630 H     1 <1>   0.0800 
 43 H        3.5390     4.1610     0.3190 H     1 <1>   0.0800 
 44 H       -5.7210     2.0000    -0.7410 H     1 <1>   0.4000 
 45 H       -4.1880     0.7280     2.1190 H     1 <1>   0.0800 
 46 H       -5.6460     0.4520     1.2050 H     1 <1>   0.0800 
 47 H       -2.9790    -0.3190     0.5390 H     1 <1>   0.0800 
 48 H       -4.3600    -0.4540    -0.5300 H     1 <1>   0.0800 
 49 H        6.1520    -1.5440    -0.5980 H     1 <1>   0.0800 
 50 H        6.1900    -1.3630     1.1420 H     1 <1>   0.0800 
 51 H        6.9900    -0.1920     0.1170 H     1 <1>   0.0800 
@<TRIPOS>BOND
  1   1   2  2   
  2   2   3  am  
  3   2   4  am  
  4   3   5  1   
  5   3   6  1   
  6   4   7  1   
  7   4  24  1   
  8   5   8  1   
  9   5  25  1   
 10   5  26  1   
 11   6   9  1   
 12   6  27  1   
 13   6  28  1   
 14   7  10  ar  
 15   7  11  ar  
 16   8  12  1   
 17   8  13  1   
 18   8  14  1   
 19   9  13  1   
 20   9  29  1   
 21   9  30  1   
 22  10  15  ar  
 23  10  16  1   
 24  11  17  ar  
 25  11  18  1   
 26  12  19  1   
 27  12  20  1   
 28  12  31  1   
 29  13  32  1   
 30  13  33  1   
 31  14  21  1   
 32  14  34  1   
 33  14  35  1   
 34  15  22  ar  
 35  15  36  1   
 36  16  37  1   
 37  16  38  1   
 38  16  39  1   
 39  17  22  ar  
 40  17  40  1   
 41  18  41  1   
 42  18  42  1   
 43  18  43  1   
 44  19  44  1   
 45  20  21  1   
 46  20  45  1   
 47  20  46  1   
 48  21  47  1   
 49  21  48  1   
 50  22  23  1   
 51  23  49  1   
 52  23  50  1   
 53  23  51  1   
@<TRIPOS>SUBSTRUCTURE
  1 ****   2 GROUP 4 **** **** 0

# MOE 2024.06 (io_trps.svl 2023.06)
