@<TRIPOS>MOLECULE
NONAME
49 50 1 0 0 
SMALL
USER_CHARGES


@<TRIPOS>ATOM
  1 O       -0.7090    -0.8850     1.5970 O.2   1 <1>  -0.5700 
  2 C       -1.2460     0.1090     1.1520 C.2   1 <1>   0.5690 
  3 N       -2.6290     0.1590     1.0920 N.am  1 <1>  -0.6600 
  4 C       -0.3010     1.2830     0.7200 C.3   1 <1>   0.3410 
  5 C       -3.4400    -1.0310     1.5190 C.3   1 <1>   0.3210 
  6 C       -3.4370     1.3730     0.7350 C.3   1 <1>   0.1400 
  7 O       -0.8570     1.9520    -0.4170 O.3   1 <1>  -0.3630 
  8 C        1.0910     0.7610     0.3030 C.3   1 <1>  -0.2400 
  9 C       -0.1300     2.2660     1.8940 C.3   1 <1>  -0.2400 
 10 C       -4.1930    -1.6620     0.3520 C.2   1 <1>   0.0460 
 11 C       -3.8050     1.4270    -0.7570 C.3   1 <1>   0.1200 
 12 C       -0.3310     3.0900    -0.9260 C.ar  1 <1>   0.0820 
 13 N       -5.5380    -1.5750     0.2850 N.2   1 <1>  -0.5650 
 14 C       -3.7040    -2.3410    -0.7130 C.2   1 <1>  -0.3320 
 15 O       -5.0830     0.9300    -0.9620 O.3   1 <1>  -0.6800 
 16 C       -0.7480     4.3240    -0.4480 C.ar  1 <1>  -0.1500 
 17 C        0.5830     3.0210    -1.9650 C.ar  1 <1>  -0.1500 
 18 C       -5.8380    -2.1980    -0.8080 C.2   1 <1>   0.0360 
 19 N       -4.7660    -2.6850    -1.4640 N.pl3 1 <1>   0.0330 
 20 C       -2.2780    -2.6990    -1.0920 C.3   1 <1>  -0.0600 
 21 C       -0.2270     5.4910    -0.9810 C.ar  1 <1>  -0.1440 
 22 C        1.1070     4.1840    -2.4990 C.ar  1 <1>  -0.1500 
 23 C        0.7050     5.4150    -2.0050 C.ar  1 <1>  -0.1500 
 24 C       -0.6690     6.8440    -0.4540 C.3   1 <1>  -0.0970 
 25 H       -4.1470    -0.7260     2.2690 H     1 <1>   0.0800 
 26 H       -2.8180    -1.7880     1.9620 H     1 <1>   0.0800 
 27 H       -2.8720     2.2530     0.9700 H     1 <1>   0.0800 
 28 H       -4.3340     1.4120     1.3300 H     1 <1>   0.0800 
 29 H        0.9960     0.0930    -0.5340 H     1 <1>   0.0800 
 30 H        1.5400     0.2170     1.1140 H     1 <1>   0.0800 
 31 H        1.7510     1.5690     0.0500 H     1 <1>   0.0800 
 32 H       -1.0690     2.7050     2.1700 H     1 <1>   0.0800 
 33 H        0.5740     3.0410     1.6520 H     1 <1>   0.0800 
 34 H        0.2490     1.7340     2.7490 H     1 <1>   0.0800 
 35 H       -3.1110     0.8550    -1.3490 H     1 <1>   0.0800 
 36 H       -3.8040     2.4470    -1.1010 H     1 <1>   0.0800 
 37 H       -5.1650     0.0210    -0.5640 H     1 <1>   0.4000 
 38 H       -1.4780     4.3650     0.3370 H     1 <1>   0.1500 
 39 H        0.8790     2.0630    -2.3510 H     1 <1>   0.1500 
 40 H       -6.8410    -2.3240    -1.1790 H     1 <1>   0.1500 
 41 H       -4.7650    -3.2030    -2.3470 H     1 <1>   0.2700 
 42 H       -1.5970    -2.4180    -0.3110 H     1 <1>   0.0800 
 43 H       -1.9940    -2.1840    -1.9920 H     1 <1>   0.0800 
 44 H       -2.1880    -3.7590    -1.2500 H     1 <1>   0.0800 
 45 H        1.8240     4.1350    -3.3000 H     1 <1>   0.1500 
 46 H        1.1200     6.3140    -2.4250 H     1 <1>   0.1500 
 47 H       -1.6320     6.7720     0.0170 H     1 <1>   0.0800 
 48 H       -0.7380     7.5530    -1.2600 H     1 <1>   0.0800 
 49 H        0.0440     7.2040     0.2660 H     1 <1>   0.0800 
@<TRIPOS>BOND
  1   1   2  2   
  2   2   3  am  
  3   2   4  1   
  4   3   5  1   
  5   3   6  1   
  6   4   7  1   
  7   4   8  1   
  8   4   9  1   
  9   5  10  1   
 10   5  25  1   
 11   5  26  1   
 12   6  11  1   
 13   6  27  1   
 14   6  28  1   
 15   7  12  1   
 16   8  29  1   
 17   8  30  1   
 18   8  31  1   
 19   9  32  1   
 20   9  33  1   
 21   9  34  1   
 22  10  13  1   
 23  10  14  2   
 24  11  15  1   
 25  11  35  1   
 26  11  36  1   
 27  12  16  ar  
 28  12  17  ar  
 29  13  18  2   
 30  14  19  1   
 31  14  20  1   
 32  15  37  1   
 33  16  21  ar  
 34  16  38  1   
 35  17  22  ar  
 36  17  39  1   
 37  18  19  1   
 38  18  40  1   
 39  19  41  1   
 40  20  42  1   
 41  20  43  1   
 42  20  44  1   
 43  21  23  ar  
 44  21  24  1   
 45  22  23  ar  
 46  22  45  1   
 47  23  46  1   
 48  24  47  1   
 49  24  48  1   
 50  24  49  1   
@<TRIPOS>SUBSTRUCTURE
  1 ****   7 GROUP 4 **** **** 0

# MOE 2024.06 (io_trps.svl 2023.06)
