@<TRIPOS>MOLECULE
NONAME
46 49 1 0 0 
SMALL
USER_CHARGES


@<TRIPOS>ATOM
  1 CL      -1.7530    -4.0680     2.5330 Cl    1 <1>  -0.1770 
  2 C       -0.7270    -3.4180     1.2750 C.ar  1 <1>   0.1770 
  3 C       -1.2560    -2.5850     0.2930 C.ar  1 <1>  -0.1440 
  4 C        0.6140    -3.7540     1.2950 C.ar  1 <1>  -0.1500 
  5 C       -0.4120    -2.0860    -0.6940 C.ar  1 <1>  -0.1500 
  6 C       -2.7430    -2.2270     0.2810 C.3   1 <1>   0.0450 
  7 C        1.4220    -3.2370     0.3040 C.ar  1 <1>   0.1900 
  8 C        0.9360    -2.4090    -0.6910 C.ar  1 <1>  -0.1500 
  9 C       -3.6340    -3.3420    -0.2610 C.2   1 <1>   0.5690 
 10 F        2.6920    -3.5390     0.3060 F     1 <1>  -0.1900 
 11 O       -3.1500    -4.1240    -1.0470 O.2   1 <1>  -0.5700 
 12 N       -4.9550    -3.4370     0.1120 N.am  1 <1>  -0.6600 
 13 C       -5.7360    -2.4010     0.8600 C.3   1 <1>   0.1400 
 14 C       -5.7710    -4.6310    -0.2500 C.3   1 <1>   0.1400 
 15 C       -6.9210    -1.9000     0.0110 C.3   1 <1>   0.1430 
 16 C       -6.9700    -4.2070    -1.1060 C.3   1 <1>  -0.1600 
 17 C       -7.7630    -0.9080     0.7930 C.ar  1 <1>   0.1670 
 18 C       -7.7960    -3.0930    -0.4350 C.3   1 <1>  -0.1600 
 19 C       -6.4510    -1.0470    -1.2000 C.3   1 <1>  -0.1600 
 20 N       -8.1890    -1.0760     2.0230 N.ar  1 <1>  -0.6200 
 21 C       -8.0360     0.2090     0.0590 C.ar  1 <1>  -0.1440 
 22 C       -7.4240     0.1400    -1.3170 C.3   1 <1>  -0.0160 
 23 C       -8.9030    -0.0610     2.4880 C.ar  1 <1>   0.7200 
 24 C       -8.7960     1.1920     0.6460 C.ar  1 <1>   0.1600 
 25 N       -9.2430     1.0630     1.8750 N.ar  1 <1>  -0.6200 
 26 N       -9.3620    -0.2000     3.7330 N.pl3 1 <1>  -0.9000 
 27 H        1.0130    -4.3980     2.0560 H     1 <1>   0.1500 
 28 H       -0.7990    -1.4500    -1.4720 H     1 <1>   0.1500 
 29 H       -2.9020    -1.3540    -0.3220 H     1 <1>   0.0800 
 30 H       -3.0330    -1.9880     1.2860 H     1 <1>   0.0800 
 31 H        1.6000    -2.0320    -1.4480 H     1 <1>   0.1500 
 32 H       -5.1270    -1.5630     1.1380 H     1 <1>   0.0800 
 33 H       -6.1130    -2.8430     1.7670 H     1 <1>   0.0800 
 34 H       -6.1180    -5.1010     0.6550 H     1 <1>   0.0800 
 35 H       -5.1800    -5.3520    -0.7880 H     1 <1>   0.0800 
 36 H       -7.5980    -5.0640    -1.2760 H     1 <1>   0.0800 
 37 H       -6.6080    -3.8840    -2.0650 H     1 <1>   0.0800 
 38 H       -8.5690    -2.7560    -1.1040 H     1 <1>   0.0800 
 39 H       -8.2800    -3.5040     0.4350 H     1 <1>   0.0800 
 40 H       -6.4040    -1.6080    -2.1160 H     1 <1>   0.0800 
 41 H       -5.4700    -0.6550    -1.0010 H     1 <1>   0.0800 
 42 H       -8.1910    -0.0670    -2.0440 H     1 <1>   0.0800 
 43 H       -6.9110     1.0500    -1.5750 H     1 <1>   0.0800 
 44 H       -9.0400     2.0890     0.1040 H     1 <1>   0.1500 
 45 H      -10.1400     0.4070     3.9750 H     1 <1>   0.4000 
 46 H       -9.3980    -1.1540     4.0780 H     1 <1>   0.4000 
@<TRIPOS>BOND
  1   1   2  1   
  2   2   3  ar  
  3   2   4  ar  
  4   3   5  ar  
  5   3   6  1   
  6   4   7  ar  
  7   4  27  1   
  8   5   8  ar  
  9   5  28  1   
 10   6   9  1   
 11   6  29  1   
 12   6  30  1   
 13   7   8  ar  
 14   7  10  1   
 15   8  31  1   
 16   9  11  2   
 17   9  12  am  
 18  12  13  1   
 19  12  14  1   
 20  13  15  1   
 21  13  32  1   
 22  13  33  1   
 23  14  16  1   
 24  14  34  1   
 25  14  35  1   
 26  15  17  1   
 27  15  18  1   
 28  15  19  1   
 29  16  18  1   
 30  16  36  1   
 31  16  37  1   
 32  17  20  ar  
 33  17  21  ar  
 34  18  38  1   
 35  18  39  1   
 36  19  22  1   
 37  19  40  1   
 38  19  41  1   
 39  20  23  ar  
 40  21  22  1   
 41  21  24  ar  
 42  22  42  1   
 43  22  43  1   
 44  23  25  ar  
 45  23  26  1   
 46  24  25  ar  
 47  24  44  1   
 48  26  45  1   
 49  26  46  1   
@<TRIPOS>SUBSTRUCTURE
  1 ****  13 GROUP 4 **** **** 0

# MOE 2024.06 (io_trps.svl 2023.06)
