@<TRIPOS>MOLECULE
NONAME
51 54 1 0 0 
SMALL
USER_CHARGES


@<TRIPOS>ATOM
  1 CL      -2.5260     1.2540     2.0610 Cl    1 <1>  -0.1230 
  2 C       -3.7100     0.3300     1.1650 C.2   1 <1>   0.4120 
  3 N       -4.4260     0.8130     0.2170 N.2   1 <1>  -0.4100 
  4 C       -3.9780    -1.0110     1.4080 C.2   1 <1>  -0.1500 
  5 O       -5.1670    -0.1850    -0.1830 O.3   1 <1>  -0.0190 
  6 C       -4.9320    -1.2800     0.5010 C.2   1 <1>  -0.0400 
  7 C       -5.7010    -2.5500     0.1890 C.3   1 <1>   0.0200 
  8 C       -7.2100    -2.3340     0.3800 C.3   1 <1>  -0.0990 
  9 C       -8.0480    -3.5650     0.0680 C.2   1 <1>   0.5690 
 10 O       -7.4750    -4.6070    -0.1520 O.2   1 <1>  -0.5700 
 11 N       -9.4160    -3.4840     0.0430 N.am  1 <1>  -0.6600 
 12 C      -10.2190    -2.2530     0.3280 C.3   1 <1>   0.1400 
 13 C      -10.2260    -4.7020    -0.2760 C.3   1 <1>   0.1400 
 14 C      -11.1010    -1.8700    -0.8830 C.3   1 <1>   0.1430 
 15 C      -11.6750    -4.3570    -0.6630 C.3   1 <1>  -0.1600 
 16 C      -12.1440    -0.8890    -0.3770 C.ar  1 <1>   0.1670 
 17 C      -11.7250    -3.1160    -1.5680 C.3   1 <1>  -0.1600 
 18 C      -10.3180    -1.0040    -1.9060 C.3   1 <1>  -0.1600 
 19 N      -13.1970    -1.2020     0.3370 N.ar  1 <1>  -0.6200 
 20 C      -11.8450     0.3910    -0.7350 C.ar  1 <1>  -0.1430 
 21 C      -10.5700     0.4680    -1.5360 C.3   1 <1>  -0.0170 
 22 C      -13.9770    -0.1760     0.6850 C.ar  1 <1>   0.7200 
 23 C      -12.7020     1.3820    -0.3300 C.ar  1 <1>   0.1600 
 24 N      -13.7710     1.1100     0.3810 N.ar  1 <1>  -0.6200 
 25 N      -15.0990    -0.4720     1.4350 N.pl3 1 <1>  -0.8380 
 26 C      -15.6200    -1.8610     1.5650 C.3   1 <1>   0.1290 
 27 C      -15.8920     0.5850     2.1220 C.3   1 <1>   0.1290 
 28 H       -3.5110    -1.6310     2.1480 H     1 <1>   0.1500 
 29 H       -5.3620    -3.3420     0.8340 H     1 <1>   0.0800 
 30 H       -5.5020    -2.8420    -0.8280 H     1 <1>   0.0800 
 31 H       -7.5220    -1.5360    -0.2660 H     1 <1>   0.0800 
 32 H       -7.3980    -2.0450     1.3970 H     1 <1>   0.0800 
 33 H       -9.5990    -1.4220     0.6070 H     1 <1>   0.0800 
 34 H      -10.8570    -2.4620     1.1710 H     1 <1>   0.0800 
 35 H      -10.2210    -5.3640     0.5730 H     1 <1>   0.0800 
 36 H       -9.7580    -5.2170    -1.0980 H     1 <1>   0.0800 
 37 H      -12.2540    -4.1800     0.2270 H     1 <1>   0.0800 
 38 H      -12.1150    -5.1980    -1.1690 H     1 <1>   0.0800 
 39 H      -11.1770    -3.3500    -2.4640 H     1 <1>   0.0800 
 40 H      -12.7420    -2.9090    -1.8540 H     1 <1>   0.0800 
 41 H      -10.7240    -1.1620    -2.8900 H     1 <1>   0.0800 
 42 H       -9.2710    -1.2440    -1.9330 H     1 <1>   0.0800 
 43 H      -10.6850     1.0830    -2.4110 H     1 <1>   0.0800 
 44 H       -9.7760     0.8500    -0.9190 H     1 <1>   0.0800 
 45 H      -12.5100     2.4090    -0.5900 H     1 <1>   0.1500 
 46 H      -15.3600    -2.4450     0.6990 H     1 <1>   0.0800 
 47 H      -16.6920    -1.8480     1.6540 H     1 <1>   0.0800 
 48 H      -15.1950    -2.3220     2.4390 H     1 <1>   0.0800 
 49 H      -15.2610     1.4130     2.3950 H     1 <1>   0.0800 
 50 H      -16.3370     0.1890     3.0180 H     1 <1>   0.0800 
 51 H      -16.6660     0.9380     1.4640 H     1 <1>   0.0800 
@<TRIPOS>BOND
  1   1   2  1   
  2   2   3  2   
  3   2   4  1   
  4   3   5  1   
  5   4   6  2   
  6   4  28  1   
  7   5   6  1   
  8   6   7  1   
  9   7   8  1   
 10   7  29  1   
 11   7  30  1   
 12   8   9  1   
 13   8  31  1   
 14   8  32  1   
 15   9  10  2   
 16   9  11  am  
 17  11  12  1   
 18  11  13  1   
 19  12  14  1   
 20  12  33  1   
 21  12  34  1   
 22  13  15  1   
 23  13  35  1   
 24  13  36  1   
 25  14  16  1   
 26  14  17  1   
 27  14  18  1   
 28  15  17  1   
 29  15  37  1   
 30  15  38  1   
 31  16  19  ar  
 32  16  20  ar  
 33  17  39  1   
 34  17  40  1   
 35  18  21  1   
 36  18  41  1   
 37  18  42  1   
 38  19  22  ar  
 39  20  21  1   
 40  20  23  ar  
 41  21  43  1   
 42  21  44  1   
 43  22  24  ar  
 44  22  25  1   
 45  23  24  ar  
 46  23  45  1   
 47  25  26  1   
 48  25  27  1   
 49  26  46  1   
 50  26  47  1   
 51  26  48  1   
 52  27  49  1   
 53  27  50  1   
 54  27  51  1   
@<TRIPOS>SUBSTRUCTURE
  1 ****  12 GROUP 4 **** **** 0

# MOE 2024.06 (io_trps.svl 2023.06)
