@<TRIPOS>MOLECULE
NONAME
50 53 1 0 0 
SMALL
USER_CHARGES


@<TRIPOS>ATOM
  1 S        0.5410    -0.4820    -0.5440 S.3   1 <1>  -0.0800 
  2 C        0.0140    -1.9770     0.2110 C.2   1 <1>  -0.1400 
  3 C        2.1740    -0.6960     0.0550 C.2   1 <1>  -0.1100 
  4 C        1.0430    -2.5590     0.8650 C.2   1 <1>  -0.1500 
  5 C       -1.4460    -2.3220     0.0000 C.3   1 <1>   0.5230 
  6 C        2.2700    -1.8290     0.7730 C.2   1 <1>  -0.1500 
  7 N       -1.6750    -3.7660     0.2850 N.4   1 <1>  -0.9590 
  8 C       -0.9980    -4.6280    -0.7320 C.3   1 <1>   0.3430 
  9 C       -3.1310    -4.0670     0.4030 C.3   1 <1>   0.3430 
 10 C       -1.1570    -6.0970    -0.3520 C.3   1 <1>  -0.1600 
 11 C       -3.3180    -5.5260     0.8000 C.3   1 <1>  -0.1600 
 12 C       -2.6340    -6.4510    -0.2040 C.3   1 <1>   0.2890 
 13 N       -2.7480    -7.8230     0.2860 N.pl3 1 <1>  -0.8690 
 14 C       -3.7050    -8.6800    -0.1420 C.ar  1 <1>   0.7200 
 15 N       -3.3420    -9.9470    -0.0760 N.ar  1 <1>  -0.6200 
 16 N       -4.8530    -8.1650    -0.5700 N.ar  1 <1>  -0.6200 
 17 C       -4.2360   -10.8400    -0.4670 C.ar  1 <1>   0.4100 
 18 C       -5.7400    -9.0570    -0.9690 C.ar  1 <1>   0.1600 
 19 N       -3.8530   -12.1790    -0.3890 N.pl3 1 <1>  -0.8380 
 20 C       -5.4750   -10.3980    -0.9360 C.ar  1 <1>   0.1900 
 21 C       -4.8130   -13.2790    -0.1310 C.3   1 <1>   0.2090 
 22 C       -2.4860   -12.5820     0.0210 C.3   1 <1>   0.2090 
 23 F       -6.4020   -11.2310    -1.3640 F     1 <1>  -0.1900 
 24 C       -4.0170   -14.3350     0.6260 C.3   1 <1>  -0.1600 
 25 C       -2.5680   -14.0890     0.2220 C.3   1 <1>  -0.1600 
 26 H        2.8990     0.0600    -0.1960 H     1 <1>   0.1500 
 27 H        1.0190    -3.4770     1.4250 H     1 <1>   0.1500 
 28 H       -1.7230    -2.1020    -1.0180 H     1 <1>   0.0800 
 29 H       -2.0460    -1.7100     0.6540 H     1 <1>   0.0800 
 30 H        3.1680    -2.1860     1.2500 H     1 <1>   0.1500 
 31 H       -1.2390    -3.9500     1.1970 H     1 <1>   0.4500 
 32 H        0.0510    -4.3840    -0.7890 H     1 <1>   0.0800 
 33 H       -1.4350    -4.4580    -1.7040 H     1 <1>   0.0800 
 34 H       -3.6220    -3.8870    -0.5400 H     1 <1>   0.0800 
 35 H       -3.5840    -3.4340     1.1490 H     1 <1>   0.0800 
 36 H       -0.6310    -6.2880     0.5660 H     1 <1>   0.0800 
 37 H       -0.7230    -6.7060    -1.1250 H     1 <1>   0.0800 
 38 H       -4.3700    -5.7480     0.8220 H     1 <1>   0.0800 
 39 H       -2.9230    -5.6890     1.7870 H     1 <1>   0.0800 
 40 H       -3.1190    -6.3680    -1.1650 H     1 <1>   0.0800 
 41 H       -1.8790    -8.3300     0.4530 H     1 <1>   0.4000 
 42 H       -6.6920    -8.7110    -1.3290 H     1 <1>   0.1500 
 43 H       -5.1560   -13.6720    -1.0730 H     1 <1>   0.0800 
 44 H       -5.6540   -12.9380     0.4500 H     1 <1>   0.0800 
 45 H       -2.2310   -12.0960     0.9480 H     1 <1>   0.0800 
 46 H       -1.7670   -12.3190    -0.7370 H     1 <1>   0.0800 
 47 H       -4.3480   -15.3310     0.3880 H     1 <1>   0.0800 
 48 H       -4.1360   -14.1680     1.6820 H     1 <1>   0.0800 
 49 H       -1.8690   -14.4310     0.9640 H     1 <1>   0.0800 
 50 H       -2.3590   -14.5760    -0.7140 H     1 <1>   0.0800 
@<TRIPOS>BOND
  1   1   2  1   
  2   1   3  1   
  3   2   4  2   
  4   2   5  1   
  5   3   6  2   
  6   3  26  1   
  7   4   6  1   
  8   4  27  1   
  9   5   7  1   
 10   5  28  1   
 11   5  29  1   
 12   6  30  1   
 13   7   8  1   
 14   7   9  1   
 15   7  31  1   
 16   8  10  1   
 17   8  32  1   
 18   8  33  1   
 19   9  11  1   
 20   9  34  1   
 21   9  35  1   
 22  10  12  1   
 23  10  36  1   
 24  10  37  1   
 25  11  12  1   
 26  11  38  1   
 27  11  39  1   
 28  12  13  1   
 29  12  40  1   
 30  13  14  1   
 31  13  41  1   
 32  14  15  ar  
 33  14  16  ar  
 34  15  17  ar  
 35  16  18  ar  
 36  17  19  1   
 37  17  20  ar  
 38  18  20  ar  
 39  18  42  1   
 40  19  21  1   
 41  19  22  1   
 42  20  23  1   
 43  21  24  1   
 44  21  43  1   
 45  21  44  1   
 46  22  25  1   
 47  22  45  1   
 48  22  46  1   
 49  24  25  1   
 50  24  47  1   
 51  24  48  1   
 52  25  49  1   
 53  25  50  1   
@<TRIPOS>SUBSTRUCTURE
  1 ****  13 GROUP 4 **** **** 0

# MOE 2024.06 (io_trps.svl 2023.06)
