@<TRIPOS>MOLECULE
NONAME
56 57 1 0 0 
SMALL
USER_CHARGES


@<TRIPOS>ATOM
  1 O       -0.6140    -0.0360     1.1110 O.2   1 <1>  -0.5700 
  2 C       -1.1360     0.5380     0.1830 C.2   1 <1>   0.5690 
  3 N       -1.7160    -0.1720    -0.8500 N.am  1 <1>  -0.6600 
  4 C       -1.1170     2.0720     0.2550 C.3   1 <1>  -0.0190 
  5 C       -1.7390    -1.6620    -0.8020 C.3   1 <1>   0.1400 
  6 C       -2.3780     0.3970    -2.0610 C.3   1 <1>   0.0600 
  7 C       -2.5240     2.7060     0.3340 C.3   1 <1>  -0.1600 
  8 C       -0.2040     2.7270    -0.8110 C.3   1 <1>  -0.1600 
  9 C       -3.0890    -2.1470    -0.2700 C.3   1 <1>  -0.1600 
 10 C       -2.4670     4.2240     0.6000 C.3   1 <1>   0.2000 
 11 C       -0.6340     4.1570    -1.1870 C.3   1 <1>  -0.1600 
 12 C       -3.0980    -3.6680    -0.1290 C.3   1 <1>   0.1200 
 13 O       -3.6020     4.8080     0.0070 O.3   1 <1>  -0.5600 
 14 C       -1.1880     4.8980     0.0320 C.3   1 <1>   0.2000 
 15 O       -4.3910    -4.0640     0.2650 O.3   1 <1>  -0.3630 
 16 C       -4.7720     4.7270     0.7620 C.3   1 <1>   0.0400 
 17 O       -1.4850     6.1890    -0.3540 O.3   1 <1>  -0.6800 
 18 C       -4.7170    -5.3730     0.4380 C.ar  1 <1>   0.0820 
 19 C       -6.0370    -5.6690     0.7680 C.ar  1 <1>  -0.1440 
 20 C       -3.7940    -6.4080     0.2980 C.ar  1 <1>  -0.1500 
 21 C       -6.4160    -6.9890     0.9500 C.ar  1 <1>  -0.1500 
 22 C       -7.0630    -4.5580     0.9310 C.3   1 <1>  -0.0970 
 23 C       -4.1790    -7.7260     0.4830 C.ar  1 <1>  -0.1440 
 24 C       -5.4940    -8.0110     0.8070 C.ar  1 <1>  -0.1500 
 25 C       -3.1740    -8.8530     0.3290 C.3   1 <1>  -0.0970 
 26 H       -0.6600     2.3020     1.2030 H     1 <1>   0.0800 
 27 H       -1.5620    -2.0580    -1.7870 H     1 <1>   0.0800 
 28 H       -0.9500    -2.0220    -0.1620 H     1 <1>   0.0800 
 29 H       -2.0590    -0.1400    -2.9370 H     1 <1>   0.0800 
 30 H       -2.1350     1.4310    -2.2020 H     1 <1>   0.0800 
 31 H       -3.4460     0.3050    -1.9650 H     1 <1>   0.0800 
 32 H       -3.0770     2.2300     1.1230 H     1 <1>   0.0800 
 33 H       -3.0490     2.5400    -0.5860 H     1 <1>   0.0800 
 34 H        0.7980     2.7560    -0.4150 H     1 <1>   0.0800 
 35 H       -0.1570     2.1310    -1.7040 H     1 <1>   0.0800 
 36 H       -3.8700    -1.8540    -0.9470 H     1 <1>   0.0800 
 37 H       -3.2660    -1.7070     0.6950 H     1 <1>   0.0800 
 38 H       -2.4910     4.4150     1.6600 H     1 <1>   0.0800 
 39 H       -1.4000     4.1120    -1.9420 H     1 <1>   0.0800 
 40 H        0.2090     4.6920    -1.5890 H     1 <1>   0.0800 
 41 H       -2.4010    -3.9840     0.6280 H     1 <1>   0.0800 
 42 H       -2.8750    -4.1410    -1.0690 H     1 <1>   0.0800 
 43 H       -0.4260     4.9480     0.7910 H     1 <1>   0.0800 
 44 H       -5.5590     5.2110     0.2110 H     1 <1>   0.0800 
 45 H       -4.6250     5.2340     1.7000 H     1 <1>   0.0800 
 46 H       -5.0270     3.6950     0.9250 H     1 <1>   0.0800 
 47 H       -2.4460     6.1840    -0.5710 H     1 <1>   0.4000 
 48 H       -2.7720    -6.2050     0.0470 H     1 <1>   0.1500 
 49 H       -7.4330    -7.2310     1.2040 H     1 <1>   0.1500 
 50 H       -8.0280    -4.9530     1.1900 H     1 <1>   0.0800 
 51 H       -7.1510    -4.0080     0.0110 H     1 <1>   0.0800 
 52 H       -6.7470    -3.8840     1.7070 H     1 <1>   0.0800 
 53 H       -5.8070    -9.0310     0.9510 H     1 <1>   0.1500 
 54 H       -3.3740    -9.6320     1.0430 H     1 <1>   0.0800 
 55 H       -2.1730    -8.4950     0.4910 H     1 <1>   0.0800 
 56 H       -3.2390    -9.2660    -0.6620 H     1 <1>   0.0800 
@<TRIPOS>BOND
  1   1   2  2   
  2   2   3  am  
  3   2   4  1   
  4   3   5  1   
  5   3   6  1   
  6   4   7  1   
  7   4   8  1   
  8   4  26  1   
  9   5   9  1   
 10   5  27  1   
 11   5  28  1   
 12   6  29  1   
 13   6  30  1   
 14   6  31  1   
 15   7  10  1   
 16   7  32  1   
 17   7  33  1   
 18   8  11  1   
 19   8  34  1   
 20   8  35  1   
 21   9  12  1   
 22   9  36  1   
 23   9  37  1   
 24  10  13  1   
 25  10  14  1   
 26  10  38  1   
 27  11  14  1   
 28  11  39  1   
 29  11  40  1   
 30  12  15  1   
 31  12  41  1   
 32  12  42  1   
 33  13  16  1   
 34  14  17  1   
 35  14  43  1   
 36  15  18  1   
 37  16  44  1   
 38  16  45  1   
 39  16  46  1   
 40  17  47  1   
 41  18  19  ar  
 42  18  20  ar  
 43  19  21  ar  
 44  19  22  1   
 45  20  23  ar  
 46  20  48  1   
 47  21  24  ar  
 48  21  49  1   
 49  22  50  1   
 50  22  51  1   
 51  22  52  1   
 52  23  24  ar  
 53  23  25  1   
 54  24  53  1   
 55  25  54  1   
 56  25  55  1   
 57  25  56  1   
@<TRIPOS>SUBSTRUCTURE
  1 ****   9 GROUP 4 **** **** 0

# MOE 2024.06 (io_trps.svl 2023.06)
