@<TRIPOS>MOLECULE
NONAME
41 43 1 0 0 
SMALL
USER_CHARGES


@<TRIPOS>ATOM
  1 O       -1.2970    -4.2590     0.9250 O.3   1 <1>  -0.8290 
  2 C       -0.1460    -3.7580     0.9880 C.ar  1 <1>   0.1390 
  3 N        0.4340    -3.6730     2.2080 N.ar  1 <1>  -0.3100 
  4 C        0.5000    -3.3330    -0.1850 C.ar  1 <1>  -0.1440 
  5 N        1.6460    -3.1820     2.3280 N.ar  1 <1>  -0.3100 
  6 C        1.7630    -2.8270    -0.0430 C.ar  1 <1>  -0.1500 
  7 C       -0.1810    -3.4300    -1.5510 C.3   1 <1>   0.0450 
  8 C        2.2750    -2.7810     1.2380 C.ar  1 <1>   0.3920 
  9 C       -0.2680    -4.8520    -2.0830 C.2   1 <1>   0.5690 
 10 O        3.5060    -2.2970     1.4470 O.3   1 <1>  -0.5320 
 11 O       -0.0680    -5.0770    -3.2550 O.2   1 <1>  -0.5700 
 12 N       -0.6040    -5.8240    -1.2130 N.am  1 <1>  -0.7300 
 13 C       -0.9460    -7.2320    -1.4690 C.3   1 <1>   0.2200 
 14 C       -2.1690    -7.6310    -0.6510 C.3   1 <1>  -0.0800 
 15 C        0.1450    -8.1280    -0.8720 C.3   1 <1>   0.1200 
 16 C       -1.5200    -7.9590     0.6880 C.3   1 <1>   0.1200 
 17 C       -3.3240    -6.6080    -0.5870 C.3   1 <1>  -0.0170 
 18 O       -0.3390    -8.6190     0.3480 O.3   1 <1>  -0.5600 
 19 C       -4.3330    -6.9740     0.4880 C.ar  1 <1>  -0.1440 
 20 C       -5.3270    -7.9130     0.3020 C.ar  1 <1>  -0.1500 
 21 C       -4.2870    -6.3650     1.7250 C.ar  1 <1>  -0.1500 
 22 C       -6.2030    -8.1900     1.3390 C.ar  1 <1>   0.1600 
 23 C       -5.2120    -6.7160     2.6930 C.ar  1 <1>   0.1600 
 24 N       -6.1720    -7.6160     2.5320 N.ar  1 <1>  -0.6200 
 25 H        2.3470    -2.4780    -0.8710 H     1 <1>   0.1500 
 26 H        0.3430    -2.8260    -2.2660 H     1 <1>   0.0800 
 27 H       -1.1800    -3.0480    -1.4620 H     1 <1>   0.0800 
 28 H        3.6620    -2.3630     2.4040 H     1 <1>   0.4500 
 29 H       -0.7920    -5.4760    -0.2420 H     1 <1>   0.3700 
 30 H       -1.0710    -7.3950    -2.5260 H     1 <1>   0.0800 
 31 H       -2.5590    -8.5520    -1.0440 H     1 <1>   0.0800 
 32 H        1.0560    -7.5830    -0.6940 H     1 <1>   0.0800 
 33 H        0.3380    -8.9730    -1.5080 H     1 <1>   0.0800 
 34 H       -2.1260    -8.6000     1.3030 H     1 <1>   0.0800 
 35 H       -1.2620    -7.0600     1.2280 H     1 <1>   0.0800 
 36 H       -3.8100    -6.5560    -1.5440 H     1 <1>   0.0800 
 37 H       -2.9580    -5.6220    -0.3690 H     1 <1>   0.0800 
 38 H       -5.4230    -8.4270    -0.6350 H     1 <1>   0.1500 
 39 H       -3.5320    -5.6220     1.9370 H     1 <1>   0.1500 
 40 H       -6.9730    -8.9250     1.1780 H     1 <1>   0.1500 
 41 H       -5.1540    -6.2270     3.6500 H     1 <1>   0.1500 
@<TRIPOS>BOND
  1   1   2  1   
  2   2   3  ar  
  3   2   4  ar  
  4   3   5  ar  
  5   4   6  ar  
  6   4   7  1   
  7   5   8  ar  
  8   6   8  ar  
  9   6  25  1   
 10   7   9  1   
 11   7  26  1   
 12   7  27  1   
 13   8  10  1   
 14   9  11  2   
 15   9  12  am  
 16  10  28  1   
 17  12  13  1   
 18  12  29  1   
 19  13  14  1   
 20  13  15  1   
 21  13  30  1   
 22  14  16  1   
 23  14  17  1   
 24  14  31  1   
 25  15  18  1   
 26  15  32  1   
 27  15  33  1   
 28  16  18  1   
 29  16  34  1   
 30  16  35  1   
 31  17  19  1   
 32  17  36  1   
 33  17  37  1   
 34  19  20  ar  
 35  19  21  ar  
 36  20  22  ar  
 37  20  38  1   
 38  21  23  ar  
 39  21  39  1   
 40  22  24  ar  
 41  22  40  1   
 42  23  24  ar  
 43  23  41  1   
@<TRIPOS>SUBSTRUCTURE
  1 ****   1 GROUP 4 **** **** 0

# MOE 2024.06 (io_trps.svl 2023.06)
