@<TRIPOS>MOLECULE
NONAME
55 58 1 0 0 
SMALL
USER_CHARGES


@<TRIPOS>ATOM
  1 S       -3.0560    -1.6730    -1.9420 S.3   1 <1>  -0.0800 
  2 C       -2.3420    -3.2440    -1.6140 C.2   1 <1>  -0.1400 
  3 C       -3.9350    -2.3110    -3.3190 C.2   1 <1>  -0.1100 
  4 C       -2.7700    -4.1540    -2.5100 C.2   1 <1>  -0.1500 
  5 C       -1.4080    -3.3300    -0.4260 C.3   1 <1>   0.5230 
  6 C       -3.6770    -3.6210    -3.4810 C.2   1 <1>  -0.1500 
  7 N       -2.0410    -4.1360     0.6510 N.4   1 <1>  -0.9590 
  8 C       -3.4020    -3.6420     1.0430 C.3   1 <1>   0.3430 
  9 C       -1.1590    -4.3040     1.8410 C.3   1 <1>   0.3430 
 10 C       -4.3570    -4.8180     1.3200 C.3   1 <1>   0.1400 
 11 C       -1.3660    -5.6530     2.5460 C.3   1 <1>  -0.1600 
 12 N       -3.6310    -6.0760     1.6800 N.am  1 <1>  -0.6600 
 13 C       -2.8140    -6.0150     2.9160 C.3   1 <1>   0.1400 
 14 C       -3.4040    -7.0280     0.7270 C.2   1 <1>   0.5690 
 15 O       -3.1430    -6.6720    -0.3990 O.2   1 <1>  -0.5700 
 16 C       -3.3960    -8.5130     1.0620 C.3   1 <1>   0.0390 
 17 C       -4.7950    -9.0380     1.3710 C.2   1 <1>  -0.1240 
 18 C       -5.5830    -9.7650     0.5550 C.2   1 <1>  -0.1670 
 19 C       -5.4020    -8.7990     2.6330 C.2   1 <1>   0.4950 
 20 C       -5.3680   -10.2200    -0.7940 C.ar  1 <1>   0.0280 
 21 C       -6.8900   -10.1050     1.2580 C.3   1 <1>  -0.0220 
 22 O       -4.9490    -8.2190     3.5860 O.2   1 <1>  -0.5700 
 23 C       -6.7760    -9.4240     2.6380 C.3   1 <1>  -0.0990 
 24 C       -4.9860    -9.3340    -1.7990 C.ar  1 <1>  -0.1500 
 25 C       -5.5380   -11.5590    -1.1410 C.ar  1 <1>  -0.1500 
 26 C       -4.7760    -9.7660    -3.0960 C.ar  1 <1>  -0.1500 
 27 C       -5.3320   -11.9970    -2.4360 C.ar  1 <1>  -0.1500 
 28 C       -4.9490   -11.1000    -3.4180 C.ar  1 <1>  -0.1500 
 29 H       -4.5580    -1.6290    -3.8720 H     1 <1>   0.1500 
 30 H       -2.4950    -5.1960    -2.5420 H     1 <1>   0.1500 
 31 H       -1.1850    -2.3380    -0.0710 H     1 <1>   0.0800 
 32 H       -0.4890    -3.7980    -0.7380 H     1 <1>   0.0800 
 33 H       -4.0900    -4.2480    -4.2530 H     1 <1>   0.1500 
 34 H       -2.2310    -5.0770     0.2430 H     1 <1>   0.4500 
 35 H       -3.8340    -3.0410     0.2600 H     1 <1>   0.0800 
 36 H       -3.3290    -3.0240     1.9220 H     1 <1>   0.0800 
 37 H       -1.3400    -3.5020     2.5380 H     1 <1>   0.0800 
 38 H       -0.1270    -4.2440     1.5350 H     1 <1>   0.0800 
 39 H       -4.9440    -4.9960     0.4340 H     1 <1>   0.0800 
 40 H       -5.0440    -4.5570     2.1060 H     1 <1>   0.0800 
 41 H       -0.7890    -5.6390     3.4530 H     1 <1>   0.0800 
 42 H       -0.9490    -6.4350     1.9370 H     1 <1>   0.0800 
 43 H       -3.2280    -5.2910     3.5980 H     1 <1>   0.0800 
 44 H       -2.8290    -6.9700     3.4130 H     1 <1>   0.0800 
 45 H       -2.7500    -8.6970     1.8990 H     1 <1>   0.0800 
 46 H       -2.9910    -9.0500     0.2250 H     1 <1>   0.0800 
 47 H       -6.9990   -11.1690     1.3710 H     1 <1>   0.0800 
 48 H       -7.7270    -9.7160     0.7040 H     1 <1>   0.0800 
 49 H       -7.5220    -8.6610     2.7590 H     1 <1>   0.0800 
 50 H       -6.8510   -10.1400     3.4360 H     1 <1>   0.0800 
 51 H       -4.8580    -8.2930    -1.5650 H     1 <1>   0.1500 
 52 H       -5.8270   -12.2680    -0.3880 H     1 <1>   0.1500 
 53 H       -4.4810    -9.0640    -3.8560 H     1 <1>   0.1500 
 54 H       -5.4670   -13.0360    -2.6830 H     1 <1>   0.1500 
 55 H       -4.7870   -11.4380    -4.4270 H     1 <1>   0.1500 
@<TRIPOS>BOND
  1   1   2  1   
  2   1   3  1   
  3   2   4  2   
  4   2   5  1   
  5   3   6  2   
  6   3  29  1   
  7   4   6  1   
  8   4  30  1   
  9   5   7  1   
 10   5  31  1   
 11   5  32  1   
 12   6  33  1   
 13   7   8  1   
 14   7   9  1   
 15   7  34  1   
 16   8  10  1   
 17   8  35  1   
 18   8  36  1   
 19   9  11  1   
 20   9  37  1   
 21   9  38  1   
 22  10  12  1   
 23  10  39  1   
 24  10  40  1   
 25  11  13  1   
 26  11  41  1   
 27  11  42  1   
 28  12  13  1   
 29  12  14  am  
 30  13  43  1   
 31  13  44  1   
 32  14  15  2   
 33  14  16  1   
 34  16  17  1   
 35  16  45  1   
 36  16  46  1   
 37  17  18  2   
 38  17  19  1   
 39  18  20  1   
 40  18  21  1   
 41  19  22  2   
 42  19  23  1   
 43  20  24  ar  
 44  20  25  ar  
 45  21  23  1   
 46  21  47  1   
 47  21  48  1   
 48  23  49  1   
 49  23  50  1   
 50  24  26  ar  
 51  24  51  1   
 52  25  27  ar  
 53  25  52  1   
 54  26  28  ar  
 55  26  53  1   
 56  27  28  ar  
 57  27  54  1   
 58  28  55  1   
@<TRIPOS>SUBSTRUCTURE
  1 ****  14 GROUP 4 **** **** 0

# MOE 2024.06 (io_trps.svl 2023.06)
