@<TRIPOS>MOLECULE
NONAME
52 55 1 0 0 
SMALL
USER_CHARGES


@<TRIPOS>ATOM
  1 O       -0.9010     0.5690     1.7240 O.2   1 <1>  -0.5700 
  2 C       -1.8180     1.0700     1.1150 C.2   1 <1>   0.5690 
  3 N       -3.0790     0.5090     1.1490 N.am  1 <1>  -0.6600 
  4 C       -1.4750     2.3540     0.3440 C.3   1 <1>  -0.0190 
  5 C       -4.3020     1.0310     0.4730 C.3   1 <1>   0.1400 
  6 C       -3.3220    -0.7420     1.9260 C.3   1 <1>   0.1400 
  7 C       -2.1330     3.6160     0.9450 C.3   1 <1>  -0.1600 
  8 C       -1.6460     2.2270    -1.1920 C.3   1 <1>  -0.1600 
  9 C       -4.8760    -0.0380    -0.4580 C.3   1 <1>  -0.1600 
 10 C       -3.8820    -1.8270     1.0020 C.3   1 <1>  -0.1600 
 11 C       -1.6500     4.9150     0.2670 C.3   1 <1>   0.2000 
 12 C       -1.9880     3.5600    -1.8790 C.3   1 <1>  -0.1600 
 13 C       -5.1570    -1.3530     0.2890 C.3   1 <1>   0.1000 
 14 O       -2.6980     5.8510     0.3400 O.3   1 <1>  -0.5600 
 15 C       -1.2390     4.7180    -1.2170 C.3   1 <1>   0.2000 
 16 C       -5.6840    -2.4400    -0.6440 C.2   1 <1>   0.0070 
 17 C       -2.7960     6.5380     1.5490 C.3   1 <1>   0.0400 
 18 O       -1.5220     5.8670    -1.9250 O.3   1 <1>  -0.6800 
 19 N       -5.5220    -2.4630    -1.9290 N.2   1 <1>  -0.3380 
 20 N       -6.3790    -3.5010    -0.2130 N.pl3 1 <1>   0.3340 
 21 N       -6.1150    -3.5560    -2.3920 N.2   1 <1>  -0.3380 
 22 C       -6.6270    -4.1760    -1.3610 C.2   1 <1>   0.1410 
 23 C       -6.8330    -3.9750     1.0170 C.2   1 <1>  -0.1810 
 24 C       -7.3610    -5.3890    -1.3070 C.2   1 <1>  -0.1050 
 25 C       -7.5370    -5.1360     1.0800 C.2   1 <1>  -0.1500 
 26 C       -7.8090    -5.8620    -0.1100 C.2   1 <1>  -0.1500 
 27 H       -0.4180     2.4990     0.4980 H     1 <1>   0.0800 
 28 H       -5.0290     1.2950     1.2220 H     1 <1>   0.0800 
 29 H       -4.0920     1.9100    -0.1050 H     1 <1>   0.0800 
 30 H       -2.4120    -1.1000     2.3780 H     1 <1>   0.0800 
 31 H       -4.0200    -0.5320     2.7180 H     1 <1>   0.0800 
 32 H       -1.9000     3.6620     1.9940 H     1 <1>   0.0800 
 33 H       -3.1990     3.5540     0.8480 H     1 <1>   0.0800 
 34 H       -0.7210     1.8530    -1.5970 H     1 <1>   0.0800 
 35 H       -2.3970     1.5020    -1.4460 H     1 <1>   0.0800 
 36 H       -5.7870     0.3240    -0.9010 H     1 <1>   0.0800 
 37 H       -4.1750    -0.2150    -1.2550 H     1 <1>   0.0800 
 38 H       -3.1330    -2.0820     0.2720 H     1 <1>   0.0800 
 39 H       -4.0870    -2.7090     1.5810 H     1 <1>   0.0800 
 40 H       -0.7950     5.3080     0.7910 H     1 <1>   0.0800 
 41 H       -3.0470     3.7410    -1.8020 H     1 <1>   0.0800 
 42 H       -1.7280     3.5030    -2.9220 H     1 <1>   0.0800 
 43 H       -5.9110    -1.1520     1.0300 H     1 <1>   0.0800 
 44 H       -0.1800     4.5400    -1.2890 H     1 <1>   0.0800 
 45 H       -3.6240     7.2210     1.4800 H     1 <1>   0.0800 
 46 H       -1.8870     7.0880     1.7200 H     1 <1>   0.0800 
 47 H       -2.9720     5.8390     2.3480 H     1 <1>   0.0800 
 48 H       -2.2600     6.3020    -1.4370 H     1 <1>   0.4000 
 49 H       -6.5980    -3.3840     1.8820 H     1 <1>   0.1500 
 50 H       -7.5400    -5.9010    -2.2350 H     1 <1>   0.1500 
 51 H       -7.9030    -5.5310     2.0140 H     1 <1>   0.1500 
 52 H       -8.3680    -6.7800    -0.0400 H     1 <1>   0.1500 
@<TRIPOS>BOND
  1   1   2  2   
  2   2   3  am  
  3   2   4  1   
  4   3   5  1   
  5   3   6  1   
  6   4   7  1   
  7   4   8  1   
  8   4  27  1   
  9   5   9  1   
 10   5  28  1   
 11   5  29  1   
 12   6  10  1   
 13   6  30  1   
 14   6  31  1   
 15   7  11  1   
 16   7  32  1   
 17   7  33  1   
 18   8  12  1   
 19   8  34  1   
 20   8  35  1   
 21   9  13  1   
 22   9  36  1   
 23   9  37  1   
 24  10  13  1   
 25  10  38  1   
 26  10  39  1   
 27  11  14  1   
 28  11  15  1   
 29  11  40  1   
 30  12  15  1   
 31  12  41  1   
 32  12  42  1   
 33  13  16  1   
 34  13  43  1   
 35  14  17  1   
 36  15  18  1   
 37  15  44  1   
 38  16  19  2   
 39  16  20  1   
 40  17  45  1   
 41  17  46  1   
 42  17  47  1   
 43  18  48  1   
 44  19  21  1   
 45  20  22  1   
 46  20  23  1   
 47  21  22  2   
 48  22  24  1   
 49  23  25  2   
 50  23  49  1   
 51  24  26  2   
 52  24  50  1   
 53  25  26  1   
 54  25  51  1   
 55  26  52  1   
@<TRIPOS>SUBSTRUCTURE
  1 ****   9 GROUP 4 **** **** 0

# MOE 2024.06 (io_trps.svl 2023.06)
