@<TRIPOS>MOLECULE
NONAME
46 47 1 0 0 
SMALL
USER_CHARGES


@<TRIPOS>ATOM
  1 O        0.9480    -0.9110    -1.9240 O.2   1 <1>  -0.5700 
  2 C        1.5360    -1.1580    -0.8940 C.2   1 <1>   0.5690 
  3 N        2.2230    -0.1840    -0.2050 N.am  1 <1>  -0.6600 
  4 C        1.4810    -2.6130    -0.3990 C.3   1 <1>   0.1710 
  5 C        2.9090    -0.4200     1.0930 C.3   1 <1>   0.1400 
  6 C        2.2580     1.2160    -0.7030 C.3   1 <1>   0.1400 
  7 N        0.6320    -2.8490     0.8040 N.3   1 <1>  -0.8100 
  8 C        4.3830    -0.7260     0.8430 C.3   1 <1>  -0.2400 
  9 C        1.1050     2.0060    -0.0880 C.3   1 <1>  -0.2400 
 10 C       -0.7290    -2.3120     0.6350 C.3   1 <1>   0.1100 
 11 C        0.5030    -4.2780     1.1430 C.3   1 <1>   0.1100 
 12 C       -1.5980    -3.1630     1.5520 C.3   1 <1>   0.2000 
 13 C       -0.9900    -4.5530     1.3950 C.3   1 <1>  -0.0800 
 14 O       -1.3730    -2.7430     2.8490 O.3   1 <1>  -0.6800 
 15 C       -1.6440    -5.3110     0.2230 C.3   1 <1>   0.0200 
 16 C       -1.0070    -6.6710     0.0030 C.2   1 <1>  -0.0400 
 17 O       -0.9970    -7.5570     0.9630 O.3   1 <1>  -0.0190 
 18 C       -0.3930    -7.2090    -1.0610 C.2   1 <1>  -0.1500 
 19 N       -0.4040    -8.6570     0.6000 N.2   1 <1>  -0.4100 
 20 C       -0.0310    -8.4770    -0.6160 C.2   1 <1>   0.1080 
 21 C        0.7000    -9.5120    -1.4420 C.3   1 <1>  -0.0590 
 22 H        2.4840    -2.9360    -0.1870 H     1 <1>   0.0800 
 23 H        1.1140    -3.2150    -1.2110 H     1 <1>   0.0800 
 24 H        2.8170     0.4550     1.7150 H     1 <1>   0.0800 
 25 H        2.4490    -1.2370     1.6210 H     1 <1>   0.0800 
 26 H        3.2000     1.6720    -0.4500 H     1 <1>   0.0800 
 27 H        2.1670     1.2220    -1.7770 H     1 <1>   0.0800 
 28 H        4.8640     0.1040     0.3580 H     1 <1>   0.0800 
 29 H        4.4860    -1.6030     0.2310 H     1 <1>   0.0800 
 30 H        4.8780    -0.9050     1.7800 H     1 <1>   0.0800 
 31 H        1.1910     2.0350     0.9820 H     1 <1>   0.0800 
 32 H        0.1680     1.5550    -0.3610 H     1 <1>   0.0800 
 33 H        1.1190     3.0130    -0.4610 H     1 <1>   0.0800 
 34 H       -0.7760    -1.2670     0.8920 H     1 <1>   0.0800 
 35 H       -1.0540    -2.4360    -0.3840 H     1 <1>   0.0800 
 36 H        0.8960    -4.9070     0.3630 H     1 <1>   0.0800 
 37 H        1.0630    -4.4700     2.0430 H     1 <1>   0.0800 
 38 H       -2.6530    -3.1050     1.3440 H     1 <1>   0.0800 
 39 H       -1.1250    -5.1340     2.2910 H     1 <1>   0.0800 
 40 H       -0.4070    -2.6000     2.9300 H     1 <1>   0.4000 
 41 H       -1.5620    -4.7390    -0.6840 H     1 <1>   0.0800 
 42 H       -2.6890    -5.4550     0.4320 H     1 <1>   0.0800 
 43 H       -0.2060    -6.7940    -2.0340 H     1 <1>   0.1500 
 44 H        1.6310    -9.1080    -1.7940 H     1 <1>   0.0800 
 45 H        0.0960    -9.7990    -2.2830 H     1 <1>   0.0800 
 46 H        0.9010   -10.3820    -0.8450 H     1 <1>   0.0800 
@<TRIPOS>BOND
  1   1   2  2   
  2   2   3  am  
  3   2   4  1   
  4   3   5  1   
  5   3   6  1   
  6   4   7  1   
  7   4  22  1   
  8   4  23  1   
  9   5   8  1   
 10   5  24  1   
 11   5  25  1   
 12   6   9  1   
 13   6  26  1   
 14   6  27  1   
 15   7  10  1   
 16   7  11  1   
 17   8  28  1   
 18   8  29  1   
 19   8  30  1   
 20   9  31  1   
 21   9  32  1   
 22   9  33  1   
 23  10  12  1   
 24  10  34  1   
 25  10  35  1   
 26  11  13  1   
 27  11  36  1   
 28  11  37  1   
 29  12  13  1   
 30  12  14  1   
 31  12  38  1   
 32  13  15  1   
 33  13  39  1   
 34  14  40  1   
 35  15  16  1   
 36  15  41  1   
 37  15  42  1   
 38  16  17  1   
 39  16  18  2   
 40  17  19  1   
 41  18  20  1   
 42  18  43  1   
 43  19  20  2   
 44  20  21  1   
 45  21  44  1   
 46  21  45  1   
 47  21  46  1   
@<TRIPOS>SUBSTRUCTURE
  1 ****   7 GROUP 4 **** **** 0

# MOE 2024.06 (io_trps.svl 2023.06)
