@<TRIPOS>MOLECULE
NONAME
51 54 1 0 0 
SMALL
USER_CHARGES


@<TRIPOS>ATOM
  1 S       -0.5930    -0.1620    -0.0200 S.3   1 <1>  -0.3320 
  2 C       -2.0680     0.8680     0.0440 C.ar  1 <1>   0.1020 
  3 C        0.8390     0.9450    -0.3970 C.3   1 <1>  -0.0100 
  4 C       -3.2580     0.2410     0.3130 C.ar  1 <1>  -0.1500 
  5 C       -2.0120     2.2440    -0.1710 C.ar  1 <1>  -0.1500 
  6 C       -4.4580     0.9670     0.3820 C.ar  1 <1>   0.0000 
  7 C       -3.1740     2.9770    -0.1090 C.ar  1 <1>  -0.1500 
  8 C       -4.4000     2.3560     0.1650 C.ar  1 <1>   0.3610 
  9 C       -5.7350     0.3880     0.6550 C.ar  1 <1>  -0.1440 
 10 N       -5.5710     3.0900     0.2300 N.ar  1 <1>  -0.1790 
 11 C       -6.8400     1.1830     0.7000 C.ar  1 <1>  -0.1500 
 12 C       -5.8570    -1.1130     0.8890 C.3   1 <1>  -0.0970 
 13 C       -6.7790     2.5860     0.4870 C.ar  1 <1>   0.4610 
 14 N       -7.8480     3.4160     0.5320 N.pl3 1 <1>  -0.8380 
 15 C       -9.2090     2.9980     1.0180 C.3   1 <1>   0.2090 
 16 C       -7.8650     4.8410     0.0370 C.3   1 <1>   0.2090 
 17 C      -10.2020     2.9010    -0.1640 C.3   1 <1>   0.0000 
 18 C       -9.2270     5.2350    -0.5660 C.3   1 <1>  -0.1600 
 19 C      -11.6440     2.8930     0.3770 C.3   1 <1>   0.2000 
 20 C       -9.9390     4.0320    -1.2070 C.3   1 <1>  -0.1600 
 21 C      -10.1550     1.5360    -0.8720 C.3   1 <1>  -0.1600 
 22 O      -12.1160     4.1620     0.6520 O.3   1 <1>  -0.6800 
 23 C      -12.5030     2.2090    -0.6870 C.3   1 <1>  -0.1600 
 24 C      -11.5250     1.3880    -1.5410 C.3   1 <1>  -0.1600 
 25 H        1.7210     0.3300    -0.4340 H     1 <1>   0.0800 
 26 H        0.9170     1.6710     0.3920 H     1 <1>   0.0800 
 27 H        0.6610     1.4110    -1.3490 H     1 <1>   0.0800 
 28 H       -3.2510    -0.8230     0.4720 H     1 <1>   0.1500 
 29 H       -1.0760     2.7270    -0.3810 H     1 <1>   0.1500 
 30 H       -3.1310     4.0390    -0.2740 H     1 <1>   0.1500 
 31 H       -5.5190     4.0930     0.1100 H     1 <1>   0.4570 
 32 H       -7.7950     0.7380     0.8920 H     1 <1>   0.1500 
 33 H       -6.8770    -1.3970     1.0790 H     1 <1>   0.0800 
 34 H       -5.2660    -1.4080     1.7390 H     1 <1>   0.0800 
 35 H       -5.5160    -1.6550     0.0240 H     1 <1>   0.0800 
 36 H       -9.1840     2.0800     1.5730 H     1 <1>   0.0800 
 37 H       -9.5650     3.7490     1.7050 H     1 <1>   0.0800 
 38 H       -7.6320     5.5110     0.8490 H     1 <1>   0.0800 
 39 H       -7.1240     4.9650    -0.7330 H     1 <1>   0.0800 
 40 H       -9.8480     5.6510     0.2090 H     1 <1>   0.0800 
 41 H       -9.0800     6.0090    -1.2980 H     1 <1>   0.0800 
 42 H      -11.6930     2.3220     1.2900 H     1 <1>   0.0800 
 43 H       -9.3000     3.6640    -1.9900 H     1 <1>   0.0800 
 44 H      -10.8520     4.3480    -1.6790 H     1 <1>   0.0800 
 45 H       -9.3470     1.4500    -1.5770 H     1 <1>   0.0800 
 46 H      -10.0520     0.7510    -0.1420 H     1 <1>   0.0800 
 47 H      -12.2240     4.6610    -0.1790 H     1 <1>   0.4000 
 48 H      -13.2270     1.5670    -0.2160 H     1 <1>   0.0800 
 49 H      -13.0130     2.9270    -1.3060 H     1 <1>   0.0800 
 50 H      -11.8220     0.3540    -1.6020 H     1 <1>   0.0800 
 51 H      -11.4890     1.7950    -2.5380 H     1 <1>   0.0800 
@<TRIPOS>BOND
  1   1   2  1   
  2   1   3  1   
  3   2   4  ar  
  4   2   5  ar  
  5   3  25  1   
  6   3  26  1   
  7   3  27  1   
  8   4   6  ar  
  9   4  28  1   
 10   5   7  ar  
 11   5  29  1   
 12   6   8  ar  
 13   6   9  ar  
 14   7   8  ar  
 15   7  30  1   
 16   8  10  ar  
 17   9  11  ar  
 18   9  12  1   
 19  10  13  ar  
 20  10  31  1   
 21  11  13  ar  
 22  11  32  1   
 23  12  33  1   
 24  12  34  1   
 25  12  35  1   
 26  13  14  1   
 27  14  15  1   
 28  14  16  1   
 29  15  17  1   
 30  15  36  1   
 31  15  37  1   
 32  16  18  1   
 33  16  38  1   
 34  16  39  1   
 35  17  19  1   
 36  17  20  1   
 37  17  21  1   
 38  18  20  1   
 39  18  40  1   
 40  18  41  1   
 41  19  22  1   
 42  19  23  1   
 43  19  42  1   
 44  20  43  1   
 45  20  44  1   
 46  21  24  1   
 47  21  45  1   
 48  21  46  1   
 49  22  47  1   
 50  23  24  1   
 51  23  48  1   
 52  23  49  1   
 53  24  50  1   
 54  24  51  1   
@<TRIPOS>SUBSTRUCTURE
  1 ****  13 GROUP 4 **** **** 0

# MOE 2024.06 (io_trps.svl 2023.06)
