@<TRIPOS>MOLECULE
NONAME
45 47 1 0 0 
SMALL
USER_CHARGES


@<TRIPOS>ATOM
  1 S       -0.2580     0.3700    -0.2390 S.3   1 <1>  -0.3320 
  2 C       -1.8090    -0.4850     0.0720 C.ar  1 <1>   0.1020 
  3 C        0.5350    -0.4710    -1.6790 C.3   1 <1>  -0.0100 
  4 C       -2.2420    -1.5440    -0.7110 C.ar  1 <1>  -0.1500 
  5 C       -2.5690    -0.0440     1.1390 C.ar  1 <1>  -0.1500 
  6 C       -3.4490    -2.1520    -0.4170 C.ar  1 <1>  -0.1500 
  7 C       -3.7740    -0.6610     1.4220 C.ar  1 <1>  -0.1500 
  8 C       -4.2460    -1.7210     0.6450 C.ar  1 <1>   0.0860 
  9 C       -5.5160    -2.3630     0.9270 C.2   1 <1>   0.5440 
 10 O       -5.5520    -3.5730     1.0420 O.2   1 <1>  -0.5700 
 11 N       -6.6860    -1.6410     1.0550 N.am  1 <1>  -0.6600 
 12 C       -7.9310    -2.2510     1.6020 C.3   1 <1>   0.1400 
 13 C       -6.8780    -0.2640     0.5220 C.3   1 <1>   0.1400 
 14 C       -9.0000    -2.2930     0.5090 C.3   1 <1>  -0.1600 
 15 C       -7.9340    -0.2980    -0.5840 C.3   1 <1>  -0.1600 
 16 C       -9.2530    -0.9070    -0.0900 C.3   1 <1>   0.4180 
 17 O       -9.7700    -0.1140     0.9530 O.3   1 <1>  -0.5600 
 18 C      -10.2650    -1.0170    -1.2280 C.2   1 <1>  -0.2880 
 19 C      -10.4810     1.0380     0.5970 C.3   1 <1>   0.1200 
 20 C      -11.4040    -0.3230    -1.2890 C.2   1 <1>  -0.2760 
 21 C      -11.7440     0.6720    -0.1950 C.3   1 <1>  -0.0220 
 22 C      -12.4350    -0.4560    -2.3950 C.3   1 <1>  -0.1020 
 23 H        1.4720     0.0220    -1.8670 H     1 <1>   0.0800 
 24 H       -0.1220    -0.3740    -2.5240 H     1 <1>   0.0800 
 25 H        0.6930    -1.5020    -1.4170 H     1 <1>   0.0800 
 26 H       -1.6590    -1.9020    -1.5370 H     1 <1>   0.1500 
 27 H       -2.2140     0.7740     1.7400 H     1 <1>   0.1500 
 28 H       -3.7930    -2.9810    -1.0130 H     1 <1>   0.1500 
 29 H       -4.3640    -0.3250     2.2570 H     1 <1>   0.1500 
 30 H       -8.2780    -1.6570     2.4310 H     1 <1>   0.0800 
 31 H       -7.7410    -3.2470     1.9650 H     1 <1>   0.0800 
 32 H       -5.9610     0.1280     0.1210 H     1 <1>   0.0800 
 33 H       -7.2020     0.3810     1.3210 H     1 <1>   0.0800 
 34 H       -9.9190    -2.6770     0.9120 H     1 <1>   0.0800 
 35 H       -8.6730    -2.9680    -0.2600 H     1 <1>   0.0800 
 36 H       -7.5570    -0.8920    -1.3960 H     1 <1>   0.0800 
 37 H       -8.1010     0.6900    -0.9670 H     1 <1>   0.0800 
 38 H       -9.9680    -1.7260    -1.9790 H     1 <1>   0.1500 
 39 H       -9.8410     1.6730     0.0110 H     1 <1>   0.0800 
 40 H      -10.7460     1.5550     1.5020 H     1 <1>   0.0800 
 41 H      -12.1520     1.5710    -0.6220 H     1 <1>   0.0800 
 42 H      -12.4790     0.2500     0.4660 H     1 <1>   0.0800 
 43 H      -13.3800    -0.7630    -1.9840 H     1 <1>   0.0800 
 44 H      -12.1220    -1.1910    -3.1150 H     1 <1>   0.0800 
 45 H      -12.5630     0.4840    -2.9010 H     1 <1>   0.0800 
@<TRIPOS>BOND
  1   1   2  1   
  2   1   3  1   
  3   2   4  ar  
  4   2   5  ar  
  5   3  23  1   
  6   3  24  1   
  7   3  25  1   
  8   4   6  ar  
  9   4  26  1   
 10   5   7  ar  
 11   5  27  1   
 12   6   8  ar  
 13   6  28  1   
 14   7   8  ar  
 15   7  29  1   
 16   8   9  1   
 17   9  10  2   
 18   9  11  am  
 19  11  12  1   
 20  11  13  1   
 21  12  14  1   
 22  12  30  1   
 23  12  31  1   
 24  13  15  1   
 25  13  32  1   
 26  13  33  1   
 27  14  16  1   
 28  14  34  1   
 29  14  35  1   
 30  15  16  1   
 31  15  36  1   
 32  15  37  1   
 33  16  17  1   
 34  16  18  1   
 35  17  19  1   
 36  18  20  2   
 37  18  38  1   
 38  19  21  1   
 39  19  39  1   
 40  19  40  1   
 41  20  21  1   
 42  20  22  1   
 43  21  41  1   
 44  21  42  1   
 45  22  43  1   
 46  22  44  1   
 47  22  45  1   
@<TRIPOS>SUBSTRUCTURE
  1 ****  13 GROUP 4 **** **** 0

# MOE 2024.06 (io_trps.svl 2023.06)
