@<TRIPOS>MOLECULE
NONAME
41 43 1 0 0 
SMALL
USER_CHARGES


@<TRIPOS>ATOM
  1 CL       1.9140     1.0040     1.9720 Cl    1 <1>  -0.1770 
  2 C        3.2580     0.1340     1.2730 C.ar  1 <1>   0.1770 
  3 C        3.6900     0.4200    -0.0120 C.ar  1 <1>   0.0860 
  4 C        3.8860    -0.8410     2.0260 C.ar  1 <1>   0.1600 
  5 C        3.0810     1.4280    -0.8450 C.2   1 <1>   0.5440 
  6 C        4.7600    -0.3480    -0.4510 C.ar  1 <1>  -0.1500 
  7 N        4.9160    -1.5620     1.6090 N.ar  1 <1>  -0.6200 
  8 O        2.3920     1.0640    -1.7780 O.2   1 <1>  -0.5700 
  9 N        3.2960     2.7760    -0.6390 N.am  1 <1>  -0.6600 
 10 C        5.3260    -1.3000     0.3770 C.ar  1 <1>   0.1600 
 11 C        4.2520     3.3000     0.3810 C.3   1 <1>   0.1400 
 12 C        2.6320     3.8060    -1.4880 C.3   1 <1>   0.1400 
 13 C        5.6780     3.3770    -0.1850 C.3   1 <1>   0.1100 
 14 C        3.5900     4.9120    -1.9530 C.3   1 <1>  -0.1600 
 15 N        5.8900     4.4770    -1.1590 N.3   1 <1>  -0.8100 
 16 C        4.9910     4.4160    -2.3260 C.3   1 <1>   0.1100 
 17 C        7.3040     4.5070    -1.6090 C.3   1 <1>   0.2900 
 18 C        8.2930     4.7150    -0.4710 C.2   1 <1>   0.1980 
 19 S        8.2980     6.2370     0.3490 S.3   1 <1>  -0.0800 
 20 N        9.1550     3.8990    -0.0080 N.2   1 <1>  -0.3380 
 21 C        9.5640     5.6010     1.3380 C.2   1 <1>   0.1980 
 22 N        9.8840     4.4090     1.0320 N.2   1 <1>  -0.3380 
 23 C       10.1370     6.4890     2.4180 C.3   1 <1>  -0.0600 
 24 H        3.5210    -1.0320     3.0210 H     1 <1>   0.1500 
 25 H        5.1450    -0.1980    -1.4440 H     1 <1>   0.1500 
 26 H        6.1570    -1.8800     0.0090 H     1 <1>   0.1500 
 27 H        4.2560     2.6540     1.2400 H     1 <1>   0.0800 
 28 H        3.9430     4.2730     0.7210 H     1 <1>   0.0800 
 29 H        1.8180     4.2430    -0.9360 H     1 <1>   0.0800 
 30 H        2.2130     3.3380    -2.3620 H     1 <1>   0.0800 
 31 H        5.9370     2.4330    -0.6320 H     1 <1>   0.0800 
 32 H        6.3360     3.5280     0.6530 H     1 <1>   0.0800 
 33 H        3.6640     5.6810    -1.2050 H     1 <1>   0.0800 
 34 H        3.1490     5.3670    -2.8200 H     1 <1>   0.0800 
 35 H        5.3690     5.0720    -3.0920 H     1 <1>   0.0800 
 36 H        4.9530     3.4170    -2.7310 H     1 <1>   0.0800 
 37 H        7.4370     5.3120    -2.3100 H     1 <1>   0.0800 
 38 H        7.5420     3.5850    -2.1100 H     1 <1>   0.0800 
 39 H        9.3640     6.7660     3.1100 H     1 <1>   0.0800 
 40 H       10.5550     7.3750     1.9780 H     1 <1>   0.0800 
 41 H       10.9100     5.9620     2.9480 H     1 <1>   0.0800 
@<TRIPOS>BOND
  1   1   2  1   
  2   2   3  ar  
  3   2   4  ar  
  4   3   5  1   
  5   3   6  ar  
  6   4   7  ar  
  7   4  24  1   
  8   5   8  2   
  9   5   9  am  
 10   6  10  ar  
 11   6  25  1   
 12   7  10  ar  
 13   9  11  1   
 14   9  12  1   
 15  10  26  1   
 16  11  13  1   
 17  11  27  1   
 18  11  28  1   
 19  12  14  1   
 20  12  29  1   
 21  12  30  1   
 22  13  15  1   
 23  13  31  1   
 24  13  32  1   
 25  14  16  1   
 26  14  33  1   
 27  14  34  1   
 28  15  16  1   
 29  15  17  1   
 30  16  35  1   
 31  16  36  1   
 32  17  18  1   
 33  17  37  1   
 34  17  38  1   
 35  18  19  1   
 36  18  20  2   
 37  19  21  1   
 38  20  22  1   
 39  21  22  2   
 40  21  23  1   
 41  23  39  1   
 42  23  40  1   
 43  23  41  1   
@<TRIPOS>SUBSTRUCTURE
  1 ****  13 GROUP 4 **** **** 0

# MOE 2024.06 (io_trps.svl 2023.06)
