@<TRIPOS>MOLECULE
NONAME
52 55 1 0 0 
SMALL
USER_CHARGES


@<TRIPOS>ATOM
  1 O        0.8670    -0.3260     2.2850 O.2   1 <1>  -0.5700 
  2 C        1.3790    -0.8980     1.3410 C.2   1 <1>   0.7150 
  3 N        2.5320    -0.3800     0.7950 N.am  1 <1>  -0.6600 
  4 C        0.8140    -2.1340     0.8630 C.2   1 <1>  -0.2370 
  5 C        2.7320     1.1150     0.7710 C.3   1 <1>   0.2200 
  6 C        3.7300    -1.2570     0.9260 C.3   1 <1>   0.1400 
  7 N        0.8080    -2.5640    -0.4420 N.pl3 1 <1>   0.0480 
  8 C        0.1720    -3.0880     1.6080 C.2   1 <1>  -0.1500 
  9 C        3.9740     1.5470    -0.0570 C.3   1 <1>  -0.0800 
 10 C        1.4400     1.8030     0.2540 C.3   1 <1>  -0.1600 
 11 C        4.8740    -0.8050     0.0260 C.3   1 <1>  -0.1600 
 12 C        0.1870    -3.7650    -0.4830 C.2   1 <1>  -0.3020 
 13 C        1.3060    -1.8450    -1.6320 C.3   1 <1>   0.0160 
 14 C       -0.2250    -4.1300     0.7680 C.2   1 <1>   0.0190 
 15 C        5.2150     0.6740     0.2260 C.3   1 <1>   0.4240 
 16 C        3.6060     1.6570    -1.5570 C.3   1 <1>  -0.1600 
 17 C        1.7000     3.0710    -0.5680 C.3   1 <1>  -0.1600 
 18 C       -0.9240    -5.3170     1.1720 C.1   1 <1>   0.5380 
 19 O        5.5280     0.8220     1.5680 O.3   1 <1>  -0.6800 
 20 C        6.4430     1.1480    -0.5820 C.ar  1 <1>  -0.1440 
 21 C        2.5590     2.7590    -1.8040 C.3   1 <1>  -0.1600 
 22 N       -1.4750    -6.2640     1.4920 N.1   1 <1>  -0.5570 
 23 C        6.9350     0.4570    -1.6880 C.ar  1 <1>  -0.1500 
 24 C        7.0880     2.3260    -0.2150 C.ar  1 <1>  -0.1500 
 25 C        8.0270     0.9270    -2.3970 C.ar  1 <1>  -0.1500 
 26 C        8.1790     2.8000    -0.9220 C.ar  1 <1>  -0.1500 
 27 C        8.6500     2.1000    -2.0160 C.ar  1 <1>  -0.1500 
 28 H        2.8910     1.4390     1.7860 H     1 <1>   0.0800 
 29 H        4.0490    -1.2570     1.9550 H     1 <1>   0.0800 
 30 H        3.4690    -2.2710     0.6740 H     1 <1>   0.0800 
 31 H       -0.0070    -3.0490     2.6700 H     1 <1>   0.1500 
 32 H        4.2410     2.5420     0.2530 H     1 <1>   0.0800 
 33 H        0.8860     1.1280    -0.3710 H     1 <1>   0.0800 
 34 H        0.8180     2.0540     1.0960 H     1 <1>   0.0800 
 35 H        4.5910    -0.9840    -0.9930 H     1 <1>   0.0800 
 36 H        5.7470    -1.4000     0.2290 H     1 <1>   0.0800 
 37 H        0.0500    -4.3160    -1.3970 H     1 <1>   0.1500 
 38 H        0.9380    -2.3220    -2.5230 H     1 <1>   0.0800 
 39 H        2.3790    -1.8610    -1.6370 H     1 <1>   0.0800 
 40 H        0.9600    -0.8290    -1.6080 H     1 <1>   0.0800 
 41 H        4.4740     1.8770    -2.1540 H     1 <1>   0.0800 
 42 H        3.2090     0.7160    -1.8930 H     1 <1>   0.0800 
 43 H        0.7660     3.5080    -0.8780 H     1 <1>   0.0800 
 44 H        2.2050     3.7940     0.0510 H     1 <1>   0.0800 
 45 H        4.7490     0.5910     2.1040 H     1 <1>   0.4000 
 46 H        3.0570     3.6640    -2.1100 H     1 <1>   0.0800 
 47 H        1.9230     2.4540    -2.6170 H     1 <1>   0.0800 
 48 H        6.4820    -0.4560    -2.0250 H     1 <1>   0.1500 
 49 H        6.7400     2.8840     0.6360 H     1 <1>   0.1500 
 50 H        8.3930     0.3800    -3.2480 H     1 <1>   0.1500 
 51 H        8.6610     3.7120    -0.6170 H     1 <1>   0.1500 
 52 H        9.4990     2.4660    -2.5670 H     1 <1>   0.1500 
@<TRIPOS>BOND
  1   1   2  2   
  2   2   3  am  
  3   2   4  1   
  4   3   5  1   
  5   3   6  1   
  6   4   7  1   
  7   4   8  2   
  8   5   9  1   
  9   5  10  1   
 10   5  28  1   
 11   6  11  1   
 12   6  29  1   
 13   6  30  1   
 14   7  12  1   
 15   7  13  1   
 16   8  14  1   
 17   8  31  1   
 18   9  15  1   
 19   9  16  1   
 20   9  32  1   
 21  10  17  1   
 22  10  33  1   
 23  10  34  1   
 24  11  15  1   
 25  11  35  1   
 26  11  36  1   
 27  12  14  2   
 28  12  37  1   
 29  13  38  1   
 30  13  39  1   
 31  13  40  1   
 32  14  18  1   
 33  15  19  1   
 34  15  20  1   
 35  16  21  1   
 36  16  41  1   
 37  16  42  1   
 38  17  21  1   
 39  17  43  1   
 40  17  44  1   
 41  18  22  3   
 42  19  45  1   
 43  20  23  ar  
 44  20  24  ar  
 45  21  46  1   
 46  21  47  1   
 47  23  25  ar  
 48  23  48  1   
 49  24  26  ar  
 50  24  49  1   
 51  25  27  ar  
 52  25  50  1   
 53  26  27  ar  
 54  26  51  1   
 55  27  52  1   
@<TRIPOS>SUBSTRUCTURE
  1 ****   3 GROUP 4 **** **** 0

# MOE 2024.06 (io_trps.svl 2023.06)
