@<TRIPOS>MOLECULE
NONAME
49 50 1 0 0 
SMALL
USER_CHARGES


@<TRIPOS>ATOM
  1 S        0.5690     0.1700     0.7060 S.o2  1 <1>   1.3330 
  2 O        0.4460     0.8310     1.9850 O.2   1 <1>  -0.6500 
  3 O        0.6710    -1.2720     0.6590 O.2   1 <1>  -0.6500 
  4 N       -0.7600     0.6190    -0.2500 N.am  1 <1>  -0.8490 
  5 C        1.9650     0.8850    -0.1610 C.3   1 <1>  -0.0550 
  6 C       -0.9280    -0.2120    -1.4460 C.3   1 <1>   0.1160 
  7 C       -2.0070     0.6460     0.5190 C.3   1 <1>   0.1160 
  8 C        3.2960     0.7490     0.5990 C.3   1 <1>  -0.0800 
  9 C        4.4710     1.2680    -0.2000 C.3   1 <1>   0.2200 
 10 C        3.7280    -0.6860     0.8880 C.3   1 <1>   0.1200 
 11 N        4.6010     2.7350    -0.0690 N.am  1 <1>  -0.7300 
 12 C        5.6480     0.5010     0.3920 C.3   1 <1>   0.1200 
 13 O        5.1230    -0.6690     0.9480 O.3   1 <1>  -0.5600 
 14 C        4.1390     3.6540    -0.9660 C.2   1 <1>   0.5440 
 15 O        3.5110     3.2370    -1.9210 O.2   1 <1>  -0.5700 
 16 C        4.3510     5.0800    -0.7770 C.ar  1 <1>   0.0860 
 17 C        5.4300     5.6220    -0.0600 C.ar  1 <1>   0.0820 
 18 C        3.4380     5.9800    -1.3350 C.ar  1 <1>  -0.1500 
 19 O        6.3590     4.7920     0.4780 O.3   1 <1>  -0.3630 
 20 C        5.5570     7.0060     0.1190 C.ar  1 <1>   0.0820 
 21 C        3.5670     7.3450    -1.1800 C.ar  1 <1>  -0.1500 
 22 C        7.6230     4.7520    -0.1510 C.3   1 <1>   0.0400 
 23 O        6.6030     7.4710     0.8620 O.3   1 <1>  -0.3630 
 24 C        4.6220     7.8610    -0.4510 C.ar  1 <1>  -0.1500 
 25 C        6.7170     8.8310     1.2190 C.3   1 <1>   0.0400 
 26 H        2.0590     0.4250    -1.1250 H     1 <1>   0.0800 
 27 H        1.7720     1.9280    -0.3200 H     1 <1>   0.0800 
 28 H       -1.7350     0.1680    -2.0490 H     1 <1>   0.0800 
 29 H       -1.1470    -1.2310    -1.1700 H     1 <1>   0.0800 
 30 H       -0.0290    -0.1990    -2.0370 H     1 <1>   0.0800 
 31 H       -2.8270     0.9530    -0.1080 H     1 <1>   0.0800 
 32 H       -1.9240     1.3490     1.3310 H     1 <1>   0.0800 
 33 H       -2.2170    -0.3290     0.9270 H     1 <1>   0.0800 
 34 H        3.2320     1.2700     1.5400 H     1 <1>   0.0800 
 35 H        4.3720     0.9970    -1.2380 H     1 <1>   0.0800 
 36 H        3.4440    -1.3520     0.0910 H     1 <1>   0.0800 
 37 H        3.3380    -1.0520     1.8230 H     1 <1>   0.0800 
 38 H        5.1760     3.0890     0.7040 H     1 <1>   0.3700 
 39 H        6.1170     1.0540     1.1860 H     1 <1>   0.0800 
 40 H        6.3690     0.2340    -0.3600 H     1 <1>   0.0800 
 41 H        2.6080     5.5930    -1.9020 H     1 <1>   0.1500 
 42 H        2.8440     8.0080    -1.6250 H     1 <1>   0.1500 
 43 H        8.2230     4.0120     0.3460 H     1 <1>   0.0800 
 44 H        8.0930     5.7150    -0.0690 H     1 <1>   0.0800 
 45 H        7.4890     4.4880    -1.1850 H     1 <1>   0.0800 
 46 H        4.6920     8.9270    -0.3450 H     1 <1>   0.1500 
 47 H        7.5790     8.9380     1.8530 H     1 <1>   0.0800 
 48 H        5.8320     9.1290     1.7530 H     1 <1>   0.0800 
 49 H        6.8470     9.4180     0.3270 H     1 <1>   0.0800 
@<TRIPOS>BOND
  1   1   2  2   
  2   1   3  2   
  3   1   4  am  
  4   1   5  1   
  5   4   6  1   
  6   4   7  1   
  7   5   8  1   
  8   5  26  1   
  9   5  27  1   
 10   6  28  1   
 11   6  29  1   
 12   6  30  1   
 13   7  31  1   
 14   7  32  1   
 15   7  33  1   
 16   8   9  1   
 17   8  10  1   
 18   8  34  1   
 19   9  11  1   
 20   9  12  1   
 21   9  35  1   
 22  10  13  1   
 23  10  36  1   
 24  10  37  1   
 25  11  14  am  
 26  11  38  1   
 27  12  13  1   
 28  12  39  1   
 29  12  40  1   
 30  14  15  2   
 31  14  16  1   
 32  16  17  ar  
 33  16  18  ar  
 34  17  19  1   
 35  17  20  ar  
 36  18  21  ar  
 37  18  41  1   
 38  19  22  1   
 39  20  23  1   
 40  20  24  ar  
 41  21  24  ar  
 42  21  42  1   
 43  22  43  1   
 44  22  44  1   
 45  22  45  1   
 46  23  25  1   
 47  24  46  1   
 48  25  47  1   
 49  25  48  1   
 50  25  49  1   
@<TRIPOS>SUBSTRUCTURE
  1 ****  11 GROUP 4 **** **** 0

# MOE 2024.06 (io_trps.svl 2023.06)
