@<TRIPOS>MOLECULE
NONAME
53 55 1 0 0 
SMALL
USER_CHARGES


@<TRIPOS>ATOM
  1 S        0.3720     0.1430     0.6610 S.3   1 <1>  -0.0800 
  2 C        1.7180     1.2700     0.5950 C.2   1 <1>  -0.1400 
  3 C        1.4570    -1.2230     0.8110 C.2   1 <1>  -0.1100 
  4 C        2.8930     0.6070     0.6770 C.2   1 <1>  -0.1810 
  5 C        1.3080     2.7310     0.4610 C.3   1 <1>   0.6030 
  6 C        2.7360    -0.8110     0.8040 C.2   1 <1>  -0.1500 
  7 C        4.3020     1.1790     0.6460 C.3   1 <1>  -0.0590 
  8 N        1.7010     3.3060    -0.8740 N.4   1 <1>  -0.9590 
  9 C        1.8660     3.5480     1.6630 C.3   1 <1>   0.2090 
 10 C        0.7130     4.3220    -1.3370 C.3   1 <1>   0.2630 
 11 C        1.9860     2.3090    -1.9500 C.3   1 <1>   0.2630 
 12 N        1.9330     5.0380     1.4460 N.pl3 1 <1>  -0.8690 
 13 C        3.0410     5.6600     0.9300 C.ar  1 <1>   0.4100 
 14 N        3.8440     4.9250     0.1700 N.ar  1 <1>  -0.6200 
 15 C        3.2670     7.0100     1.1880 C.ar  1 <1>  -0.1500 
 16 C        4.9000     5.5510    -0.3300 C.ar  1 <1>   0.1600 
 17 C        4.3650     7.6390     0.6540 C.ar  1 <1>  -0.1500 
 18 C        5.2330     6.8880    -0.1330 C.ar  1 <1>   0.0860 
 19 C        6.4080     7.4330    -0.7680 C.2   1 <1>   0.5440 
 20 O        6.6210     7.1430    -1.9300 O.2   1 <1>  -0.5700 
 21 N        7.3030     8.2530    -0.1160 N.am  1 <1>  -0.6600 
 22 C        7.4980     8.3120     1.3640 C.3   1 <1>   0.1400 
 23 C        8.3560     9.0060    -0.8640 C.3   1 <1>   0.1400 
 24 C        7.7090     9.7650     1.8220 C.3   1 <1>   0.1200 
 25 C        8.5340    10.4170    -0.2790 C.3   1 <1>   0.1200 
 26 O        8.7510    10.3610     1.1040 O.3   1 <1>  -0.5600 
 27 H        1.0180    -2.2030     0.8920 H     1 <1>   0.1500 
 28 H        0.2340     2.7590     0.5310 H     1 <1>   0.0800 
 29 H        3.5910    -1.4620     0.8860 H     1 <1>   0.1500 
 30 H        4.2990     2.2280     0.4210 H     1 <1>   0.0800 
 31 H        4.8850     0.6760    -0.1050 H     1 <1>   0.0800 
 32 H        4.7770     1.0320     1.6000 H     1 <1>   0.0800 
 33 H        2.5720     3.8330    -0.6490 H     1 <1>   0.4500 
 34 H        2.8520     3.1930     1.9040 H     1 <1>   0.0800 
 35 H        1.2530     3.3430     2.5230 H     1 <1>   0.0800 
 36 H       -0.2350     3.8550    -1.5490 H     1 <1>   0.0800 
 37 H        1.0710     4.8050    -2.2310 H     1 <1>   0.0800 
 38 H        0.5700     5.0760    -0.5800 H     1 <1>   0.0800 
 39 H        1.1150     1.7020    -2.1390 H     1 <1>   0.0800 
 40 H        2.7970     1.6620    -1.6580 H     1 <1>   0.0800 
 41 H        2.2650     2.8120    -2.8610 H     1 <1>   0.0800 
 42 H        1.4440     5.5750     2.1720 H     1 <1>   0.4000 
 43 H        2.5740     7.5550     1.8010 H     1 <1>   0.1500 
 44 H        5.5650     4.9720    -0.9510 H     1 <1>   0.1500 
 45 H        4.5550     8.6850     0.8260 H     1 <1>   0.1500 
 46 H        8.3720     7.7390     1.6230 H     1 <1>   0.0800 
 47 H        6.6620     7.8860     1.8850 H     1 <1>   0.0800 
 48 H        8.0900     9.0870    -1.9040 H     1 <1>   0.0800 
 49 H        9.2870     8.4710    -0.8000 H     1 <1>   0.0800 
 50 H        7.9740     9.7920     2.8640 H     1 <1>   0.0800 
 51 H        6.8140    10.3450     1.6770 H     1 <1>   0.0800 
 52 H        7.6610    11.0160    -0.4680 H     1 <1>   0.0800 
 53 H        9.3860    10.8980    -0.7260 H     1 <1>   0.0800 
@<TRIPOS>BOND
  1   1   2  1   
  2   1   3  1   
  3   2   4  2   
  4   2   5  1   
  5   3   6  2   
  6   3  27  1   
  7   4   6  1   
  8   4   7  1   
  9   5   8  1   
 10   5   9  1   
 11   5  28  1   
 12   6  29  1   
 13   7  30  1   
 14   7  31  1   
 15   7  32  1   
 16   8  10  1   
 17   8  11  1   
 18   8  33  1   
 19   9  12  1   
 20   9  34  1   
 21   9  35  1   
 22  10  36  1   
 23  10  37  1   
 24  10  38  1   
 25  11  39  1   
 26  11  40  1   
 27  11  41  1   
 28  12  13  1   
 29  12  42  1   
 30  13  14  ar  
 31  13  15  ar  
 32  14  16  ar  
 33  15  17  ar  
 34  15  43  1   
 35  16  18  ar  
 36  16  44  1   
 37  17  18  ar  
 38  17  45  1   
 39  18  19  1   
 40  19  20  2   
 41  19  21  am  
 42  21  22  1   
 43  21  23  1   
 44  22  24  1   
 45  22  46  1   
 46  22  47  1   
 47  23  25  1   
 48  23  48  1   
 49  23  49  1   
 50  24  26  1   
 51  24  50  1   
 52  24  51  1   
 53  25  26  1   
 54  25  52  1   
 55  25  53  1   
@<TRIPOS>SUBSTRUCTURE
  1 ****  14 GROUP 4 **** **** 0

# MOE 2024.06 (io_trps.svl 2023.06)
