@<TRIPOS>MOLECULE
NONAME
57 60 1 0 0 
SMALL
USER_CHARGES


@<TRIPOS>ATOM
  1 O       -0.3630     0.3550    -0.3070 O.2   1 <1>  -0.5700 
  2 C       -1.4310     0.9370    -0.2560 C.2   1 <1>   0.5440 
  3 N       -2.5830     0.1900    -0.1500 N.am  1 <1>  -0.6600 
  4 C       -1.4630     2.3830    -0.3210 C.ar  1 <1>   0.0860 
  5 C       -3.9350     0.6700    -0.5330 C.3   1 <1>   0.1400 
  6 C       -2.5580    -1.2930    -0.0840 C.3   1 <1>   0.1400 
  7 C       -0.7530     3.0720    -1.3030 C.ar  1 <1>  -0.1500 
  8 C       -2.1930     3.1480     0.5910 C.ar  1 <1>  -0.1500 
  9 C       -4.7320    -0.5980    -0.8410 C.3   1 <1>   0.2000 
 10 C       -4.0270    -1.7190    -0.0820 C.3   1 <1>  -0.0800 
 11 C       -0.7810     4.4500    -1.3810 C.ar  1 <1>  -0.1500 
 12 C       -2.2220     4.5270     0.5170 C.ar  1 <1>  -0.1500 
 13 O       -6.0480    -0.4900    -0.4150 O.3   1 <1>  -0.6800 
 14 C       -4.2830    -3.1050    -0.6970 C.3   1 <1>  -0.0170 
 15 C       -1.5150     5.2040    -0.4730 C.ar  1 <1>   0.1000 
 16 C       -3.6210    -4.2080     0.1110 C.ar  1 <1>   0.1670 
 17 N       -1.5160     6.5900    -0.5580 N.pl3 1 <1>  -0.8380 
 18 N       -2.3440    -4.4410    -0.1490 N.ar  1 <1>  -0.6200 
 19 C       -4.3580    -4.9010     1.0610 C.ar  1 <1>  -0.1500 
 20 C       -2.7620     7.3940    -0.3770 C.3   1 <1>   0.2090 
 21 C       -0.2230     7.3350    -0.4920 C.3   1 <1>   0.2090 
 22 C       -1.7770    -5.4000     0.5660 C.ar  1 <1>   0.1600 
 23 C       -3.7550    -5.8970     1.7980 C.ar  1 <1>  -0.1500 
 24 C       -2.6560     8.3200     0.8540 C.3   1 <1>   0.3430 
 25 C       -0.1770     8.2560     0.7460 C.3   1 <1>   0.3430 
 26 C       -2.4250    -6.1460     1.5360 C.ar  1 <1>  -0.1500 
 27 N       -1.3920     9.1480     0.8580 N.4   1 <1>  -0.9590 
 28 C       -1.3160    10.0160     2.0710 C.3   1 <1>   0.2630 
 29 H       -4.3700     1.2020     0.2940 H     1 <1>   0.0800 
 30 H       -3.8800     1.3070    -1.3990 H     1 <1>   0.0800 
 31 H       -2.0460    -1.6750    -0.9520 H     1 <1>   0.0800 
 32 H       -2.0440    -1.6290     0.8000 H     1 <1>   0.0800 
 33 H       -0.1720     2.5030    -2.0110 H     1 <1>   0.1500 
 34 H       -2.7330     2.6420     1.3720 H     1 <1>   0.1500 
 35 H       -4.7300    -0.7800    -1.9020 H     1 <1>   0.0800 
 36 H       -4.3540    -1.7180     0.9430 H     1 <1>   0.0800 
 37 H       -0.2340     4.9500    -2.1580 H     1 <1>   0.1500 
 38 H       -2.7880     5.0800     1.2410 H     1 <1>   0.1500 
 39 H       -6.0810    -0.3570     0.5510 H     1 <1>   0.4000 
 40 H       -3.9100    -3.1360    -1.7050 H     1 <1>   0.0800 
 41 H       -5.3430    -3.2830    -0.7400 H     1 <1>   0.0800 
 42 H       -5.3930    -4.6640     1.2240 H     1 <1>   0.1500 
 43 H       -2.9280     7.9850    -1.2610 H     1 <1>   0.0800 
 44 H       -3.6090     6.7390    -0.2670 H     1 <1>   0.0800 
 45 H        0.5970     6.6380    -0.4400 H     1 <1>   0.0800 
 46 H       -0.1020     7.9170    -1.3890 H     1 <1>   0.0800 
 47 H       -0.7380    -5.6020     0.3680 H     1 <1>   0.1500 
 48 H       -4.2970    -6.4550     2.5430 H     1 <1>   0.1500 
 49 H       -2.6820     7.7040     1.7370 H     1 <1>   0.0800 
 50 H       -3.5180     8.9670     0.8800 H     1 <1>   0.0800 
 51 H        0.7170     8.8570     0.7010 H     1 <1>   0.0800 
 52 H       -0.1090     7.6310     1.6210 H     1 <1>   0.0800 
 53 H       -1.8940    -6.9090     2.0740 H     1 <1>   0.1500 
 54 H       -1.4130     9.7450     0.0180 H     1 <1>   0.4500 
 55 H       -1.2910     9.4120     2.9640 H     1 <1>   0.0800 
 56 H       -2.1730    10.6690     2.1200 H     1 <1>   0.0800 
 57 H       -0.4250    10.6240     2.0420 H     1 <1>   0.0800 
@<TRIPOS>BOND
  1   1   2  2   
  2   2   3  am  
  3   2   4  1   
  4   3   5  1   
  5   3   6  1   
  6   4   7  ar  
  7   4   8  ar  
  8   5   9  1   
  9   5  29  1   
 10   5  30  1   
 11   6  10  1   
 12   6  31  1   
 13   6  32  1   
 14   7  11  ar  
 15   7  33  1   
 16   8  12  ar  
 17   8  34  1   
 18   9  10  1   
 19   9  13  1   
 20   9  35  1   
 21  10  14  1   
 22  10  36  1   
 23  11  15  ar  
 24  11  37  1   
 25  12  15  ar  
 26  12  38  1   
 27  13  39  1   
 28  14  16  1   
 29  14  40  1   
 30  14  41  1   
 31  15  17  1   
 32  16  18  ar  
 33  16  19  ar  
 34  17  20  1   
 35  17  21  1   
 36  18  22  ar  
 37  19  23  ar  
 38  19  42  1   
 39  20  24  1   
 40  20  43  1   
 41  20  44  1   
 42  21  25  1   
 43  21  45  1   
 44  21  46  1   
 45  22  26  ar  
 46  22  47  1   
 47  23  26  ar  
 48  23  48  1   
 49  24  27  1   
 50  24  49  1   
 51  24  50  1   
 52  25  27  1   
 53  25  51  1   
 54  25  52  1   
 55  26  53  1   
 56  27  28  1   
 57  27  54  1   
 58  28  55  1   
 59  28  56  1   
 60  28  57  1   
@<TRIPOS>SUBSTRUCTURE
  1 ****   2 GROUP 4 **** **** 0

# MOE 2024.06 (io_trps.svl 2023.06)
