@<TRIPOS>MOLECULE
NONAME
44 46 1 0 0 
SMALL
USER_CHARGES


@<TRIPOS>ATOM
  1 CL       0.5510    -0.0840    -1.5590 Cl    1 <1>  -0.1770 
  2 C        1.5520    -0.8030    -0.3020 C.ar  1 <1>   0.1770 
  3 C        1.2810    -2.1090     0.2110 C.ar  1 <1>   0.4100 
  4 C        2.6260    -0.1060     0.1660 C.ar  1 <1>   0.2170 
  5 N        2.1050    -2.6610     1.0910 N.ar  1 <1>  -0.6200 
  6 N        0.2030    -2.8750    -0.1360 N.pl3 1 <1>  -0.8380 
  7 N        3.4010    -0.7180     1.0980 N.ar  1 <1>  -0.1790 
  8 C        3.0430     1.2950    -0.2700 C.3   1 <1>  -0.0970 
  9 C        3.1300    -1.9630     1.5230 C.ar  1 <1>   0.7710 
 10 C       -1.1210    -2.3900    -0.6360 C.3   1 <1>   0.2090 
 11 C        0.0370    -4.2920     0.3040 C.3   1 <1>   0.2090 
 12 N        3.9110    -2.5500     2.4230 N.pl3 1 <1>  -0.9000 
 13 C       -2.1420    -3.4840    -0.2990 C.3   1 <1>   0.2000 
 14 C       -1.2980    -4.7560    -0.2810 C.3   1 <1>  -0.0800 
 15 O       -2.6700    -3.2740     0.9810 O.3   1 <1>  -0.5600 
 16 C       -1.9270    -5.9320     0.4880 C.3   1 <1>   0.0200 
 17 C       -3.7910    -2.4480     1.0340 C.3   1 <1>   0.0400 
 18 C       -1.1400    -7.2240     0.3470 C.2   1 <1>  -0.0400 
 19 O       -1.4770    -8.2490     1.0840 O.3   1 <1>  -0.0190 
 20 C       -0.1010    -7.5990    -0.4180 C.2   1 <1>  -0.1500 
 21 N       -0.7220    -9.2840     0.8570 N.2   1 <1>  -0.4100 
 22 C        0.1170    -8.9210    -0.0440 C.2   1 <1>   0.1080 
 23 C        1.1920    -9.8190    -0.6160 C.3   1 <1>  -0.0590 
 24 H        4.2160    -0.2650     1.4980 H     1 <1>   0.4570 
 25 H        2.3600     1.7130    -0.9880 H     1 <1>   0.0800 
 26 H        4.0180     1.2710    -0.7230 H     1 <1>   0.0800 
 27 H        3.0680     1.9590     0.5760 H     1 <1>   0.0800 
 28 H       -1.3940    -1.4530    -0.1840 H     1 <1>   0.0800 
 29 H       -1.0680    -2.2780    -1.7040 H     1 <1>   0.0800 
 30 H        0.8560    -4.8990    -0.0400 H     1 <1>   0.0800 
 31 H       -0.0040    -4.3220     1.3800 H     1 <1>   0.0800 
 32 H        4.7470    -2.1940     2.8890 H     1 <1>   0.4000 
 33 H        3.6510    -3.4990     2.7170 H     1 <1>   0.4000 
 34 H       -2.9450    -3.5420    -1.0140 H     1 <1>   0.0800 
 35 H       -1.1290    -5.0540    -1.3000 H     1 <1>   0.0800 
 36 H       -2.9260    -6.1030     0.1270 H     1 <1>   0.0800 
 37 H       -1.9990    -5.6870     1.5340 H     1 <1>   0.0800 
 38 H       -4.0880    -2.3560     2.0640 H     1 <1>   0.0800 
 39 H       -4.5890    -2.8950     0.4680 H     1 <1>   0.0800 
 40 H       -3.5450    -1.4760     0.6430 H     1 <1>   0.0800 
 41 H        0.4550    -7.0520    -1.1560 H     1 <1>   0.1500 
 42 H        2.1550    -9.3580    -0.4970 H     1 <1>   0.0800 
 43 H        1.0050    -9.9900    -1.6600 H     1 <1>   0.0800 
 44 H        1.1910   -10.7630    -0.1030 H     1 <1>   0.0800 
@<TRIPOS>BOND
  1   1   2  1   
  2   2   3  ar  
  3   2   4  ar  
  4   3   5  ar  
  5   3   6  1   
  6   4   7  ar  
  7   4   8  1   
  8   5   9  ar  
  9   6  10  1   
 10   6  11  1   
 11   7   9  ar  
 12   7  24  1   
 13   8  25  1   
 14   8  26  1   
 15   8  27  1   
 16   9  12  1   
 17  10  13  1   
 18  10  28  1   
 19  10  29  1   
 20  11  14  1   
 21  11  30  1   
 22  11  31  1   
 23  12  32  1   
 24  12  33  1   
 25  13  14  1   
 26  13  15  1   
 27  13  34  1   
 28  14  16  1   
 29  14  35  1   
 30  15  17  1   
 31  16  18  1   
 32  16  36  1   
 33  16  37  1   
 34  17  38  1   
 35  17  39  1   
 36  17  40  1   
 37  18  19  1   
 38  18  20  2   
 39  19  21  1   
 40  20  22  1   
 41  20  41  1   
 42  21  22  2   
 43  22  23  1   
 44  23  42  1   
 45  23  43  1   
 46  23  44  1   
@<TRIPOS>SUBSTRUCTURE
  1 ****  11 GROUP 4 **** **** 0

# MOE 2024.06 (io_trps.svl 2023.06)
