@<TRIPOS>MOLECULE
NONAME
47 49 1 0 0 
SMALL
USER_CHARGES


@<TRIPOS>ATOM
  1 CL      -5.2030    -0.5740     2.2070 Cl    1 <1>  -0.1770 
  2 C       -4.5200    -1.4800     0.8810 C.ar  1 <1>   0.1770 
  3 C       -4.3840    -2.8490     0.9970 C.ar  1 <1>  -0.1500 
  4 C       -4.1270    -0.8110    -0.2630 C.ar  1 <1>  -0.1500 
  5 C       -3.8490    -3.5710    -0.0570 C.ar  1 <1>   0.0830 
  6 C       -3.5840    -1.5310    -1.3150 C.ar  1 <1>  -0.1500 
  7 O       -3.7570    -4.9110     0.1080 O.3   1 <1>  -0.3630 
  8 C       -3.4430    -2.9060    -1.2140 C.ar  1 <1>  -0.1500 
  9 C       -3.5620    -5.7750    -1.0040 C.3   1 <1>   0.1810 
 10 C       -3.8500    -7.2270    -0.6360 C.2   1 <1>   0.5690 
 11 O       -2.9360    -8.0190    -0.6930 O.2   1 <1>  -0.5700 
 12 N       -5.1150    -7.6240    -0.2920 N.am  1 <1>  -0.6600 
 13 C       -6.2980    -6.7450    -0.1520 C.3   1 <1>   0.1400 
 14 C       -5.4510    -9.0210     0.0480 C.3   1 <1>   0.1400 
 15 C       -7.3090    -7.5630     0.6610 C.3   1 <1>  -0.0800 
 16 C       -6.9520    -9.0300     0.3540 C.3   1 <1>  -0.0800 
 17 C       -8.8110    -7.1890     0.4620 C.3   1 <1>   0.2800 
 18 C       -7.7910    -9.5650    -0.8160 C.3   1 <1>  -0.1600 
 19 O       -9.0100    -6.6530    -0.7970 O.3   1 <1>  -0.6800 
 20 C       -9.6840    -8.4550     0.5390 C.3   1 <1>  -0.1600 
 21 C       -9.3060    -6.1400     1.4810 C.3   1 <1>  -0.1600 
 22 C       -9.2970    -9.5370    -0.4930 C.3   1 <1>  -0.1600 
 23 C       -8.5690    -4.7880     1.4590 C.3   1 <1>  -0.2400 
 24 H       -4.6920    -3.3510     1.8940 H     1 <1>   0.1500 
 25 H       -4.2450     0.2560    -0.3260 H     1 <1>   0.1500 
 26 H       -3.2710    -1.0210    -2.2100 H     1 <1>   0.1500 
 27 H       -3.0120    -3.4410    -2.0400 H     1 <1>   0.1500 
 28 H       -4.2270    -5.4760    -1.7920 H     1 <1>   0.0800 
 29 H       -2.5420    -5.6790    -1.3270 H     1 <1>   0.0800 
 30 H       -6.0500    -5.8300     0.3530 H     1 <1>   0.0800 
 31 H       -6.6640    -6.5220    -1.1380 H     1 <1>   0.0800 
 32 H       -5.2000    -9.6770    -0.7690 H     1 <1>   0.0800 
 33 H       -4.8870    -9.3100     0.9180 H     1 <1>   0.0800 
 34 H       -7.0680    -7.4130     1.6980 H     1 <1>   0.0800 
 35 H       -7.1330    -9.6520     1.2140 H     1 <1>   0.0800 
 36 H       -7.6080    -8.9490    -1.6810 H     1 <1>   0.0800 
 37 H       -7.4940   -10.5690    -1.0640 H     1 <1>   0.0800 
 38 H       -9.9610    -6.4900    -0.9290 H     1 <1>   0.4000 
 39 H       -9.5700    -8.8740     1.5230 H     1 <1>   0.0800 
 40 H      -10.7250    -8.2050     0.4280 H     1 <1>   0.0800 
 41 H      -10.3530    -5.9600     1.3140 H     1 <1>   0.0800 
 42 H       -9.2180    -6.5530     2.4710 H     1 <1>   0.0800 
 43 H       -9.6020   -10.4980    -0.1150 H     1 <1>   0.0800 
 44 H       -9.8360    -9.3670    -1.4100 H     1 <1>   0.0800 
 45 H       -8.5780    -4.3630     0.4700 H     1 <1>   0.0800 
 46 H       -7.5500    -4.9000     1.7800 H     1 <1>   0.0800 
 47 H       -9.0530    -4.0980     2.1270 H     1 <1>   0.0800 
@<TRIPOS>BOND
  1   1   2  1   
  2   2   3  ar  
  3   2   4  ar  
  4   3   5  ar  
  5   3  24  1   
  6   4   6  ar  
  7   4  25  1   
  8   5   7  1   
  9   5   8  ar  
 10   6   8  ar  
 11   6  26  1   
 12   7   9  1   
 13   8  27  1   
 14   9  10  1   
 15   9  28  1   
 16   9  29  1   
 17  10  11  2   
 18  10  12  am  
 19  12  13  1   
 20  12  14  1   
 21  13  15  1   
 22  13  30  1   
 23  13  31  1   
 24  14  16  1   
 25  14  32  1   
 26  14  33  1   
 27  15  16  1   
 28  15  17  1   
 29  15  34  1   
 30  16  18  1   
 31  16  35  1   
 32  17  19  1   
 33  17  20  1   
 34  17  21  1   
 35  18  22  1   
 36  18  36  1   
 37  18  37  1   
 38  19  38  1   
 39  20  22  1   
 40  20  39  1   
 41  20  40  1   
 42  21  23  1   
 43  21  41  1   
 44  21  42  1   
 45  22  43  1   
 46  22  44  1   
 47  23  45  1   
 48  23  46  1   
 49  23  47  1   
@<TRIPOS>SUBSTRUCTURE
  1 ****  13 GROUP 4 **** **** 0

# MOE 2024.06 (io_trps.svl 2023.06)
