@<TRIPOS>MOLECULE
NONAME
54 57 1 0 0 
SMALL
USER_CHARGES


@<TRIPOS>ATOM
  1 F       -1.8820    -1.6360    -0.7070 F     1 <1>  -0.1900 
  2 C       -2.9140    -0.8320    -0.6760 C.ar  1 <1>   0.1900 
  3 C       -2.8410     0.4900    -1.1270 C.ar  1 <1>   0.0830 
  4 C       -4.0880    -1.3590    -0.1760 C.ar  1 <1>  -0.1500 
  5 O       -1.7460     1.1220    -1.6380 O.3   1 <1>  -0.3630 
  6 C       -3.9910     1.2580    -1.0550 C.ar  1 <1>  -0.1500 
  7 C       -5.2190    -0.5650    -0.1210 C.ar  1 <1>  -0.1500 
  8 C       -0.4740     0.5190    -1.7160 C.3   1 <1>   0.0400 
  9 C       -5.2010     0.7630    -0.5570 C.ar  1 <1>   0.0530 
 10 C       -6.3750     1.6070    -0.5090 C.2   1 <1>   0.0870 
 11 O       -6.4190     2.7100    -1.2140 O.3   1 <1>  -0.0190 
 12 C       -7.5650     1.5200     0.1440 C.2   1 <1>  -0.0860 
 13 N       -7.5410     3.3640    -1.0780 N.2   1 <1>  -0.4100 
 14 C       -8.2480     2.6730    -0.2540 C.2   1 <1>   0.3720 
 15 C       -8.0630     0.5240     1.0360 C.2   1 <1>   0.7160 
 16 N       -9.5350     3.0390     0.1730 N.pl3 1 <1>  -0.8210 
 17 O       -7.5110     0.3720     2.1110 O.2   1 <1>  -0.5700 
 18 N       -9.1140    -0.3100     0.7020 N.am  1 <1>  -0.6600 
 19 C       -9.6060     3.4320     1.6080 C.3   1 <1>   0.1290 
 20 C      -10.2490     4.0110    -0.7010 C.3   1 <1>   0.1290 
 21 C       -9.8760    -0.2010    -0.5740 C.3   1 <1>   0.1400 
 22 C       -9.6170    -1.3620     1.6280 C.3   1 <1>   0.1400 
 23 C       -9.8400    -1.5460    -1.3020 C.3   1 <1>  -0.1600 
 24 C       -9.5730    -2.7190     0.9220 C.3   1 <1>  -0.1600 
 25 C      -10.3450    -2.6840    -0.4040 C.3   1 <1>   0.1000 
 26 C      -10.2430    -4.0190    -1.1210 C.2   1 <1>  -0.3320 
 27 N       -9.0890    -4.5640    -1.5630 N.pl3 1 <1>   0.3000 
 28 C      -11.2250    -4.8870    -1.4470 C.2   1 <1>  -0.1500 
 29 N       -9.2940    -5.7500    -2.1620 N.2   1 <1>  -0.7070 
 30 C      -10.5760    -5.9370    -2.0880 C.2   1 <1>   0.1390 
 31 H       -4.1130    -2.3780     0.1660 H     1 <1>   0.1500 
 32 H       -3.9360     2.2760    -1.3980 H     1 <1>   0.1500 
 33 H       -6.1220    -0.9940     0.2700 H     1 <1>   0.1500 
 34 H        0.2140     1.2410    -2.1170 H     1 <1>   0.0800 
 35 H       -0.5290    -0.3330    -2.3710 H     1 <1>   0.0800 
 36 H       -0.1620     0.2280    -0.7290 H     1 <1>   0.0800 
 37 H       -9.1110     2.7040     2.2260 H     1 <1>   0.0800 
 38 H      -10.6340     3.4990     1.9180 H     1 <1>   0.0800 
 39 H       -9.1300     4.3870     1.7510 H     1 <1>   0.0800 
 40 H      -10.1920     3.6910    -1.7270 H     1 <1>   0.0800 
 41 H       -9.7980     4.9860    -0.6170 H     1 <1>   0.0800 
 42 H      -11.2850     4.0720    -0.4160 H     1 <1>   0.0800 
 43 H       -9.4650     0.5570    -1.2160 H     1 <1>   0.0800 
 44 H      -10.8920     0.0740    -0.3500 H     1 <1>   0.0800 
 45 H      -10.6280    -1.1250     1.9110 H     1 <1>   0.0800 
 46 H       -9.0240    -1.4050     2.5260 H     1 <1>   0.0800 
 47 H       -8.8300    -1.7380    -1.6170 H     1 <1>   0.0800 
 48 H      -10.4530    -1.4890    -2.1840 H     1 <1>   0.0800 
 49 H      -10.0000    -3.4680     1.5650 H     1 <1>   0.0800 
 50 H       -8.5450    -2.9830     0.7510 H     1 <1>   0.0800 
 51 H      -11.3840    -2.5000    -0.1820 H     1 <1>   0.0800 
 52 H       -8.1520    -4.1530    -1.4730 H     1 <1>   0.2700 
 53 H      -12.2830    -4.8170    -1.2690 H     1 <1>   0.1500 
 54 H      -11.0710    -6.8090    -2.4820 H     1 <1>   0.1500 
@<TRIPOS>BOND
  1   1   2  1   
  2   2   3  ar  
  3   2   4  ar  
  4   3   5  1   
  5   3   6  ar  
  6   4   7  ar  
  7   4  31  1   
  8   5   8  1   
  9   6   9  ar  
 10   6  32  1   
 11   7   9  ar  
 12   7  33  1   
 13   8  34  1   
 14   8  35  1   
 15   8  36  1   
 16   9  10  1   
 17  10  11  1   
 18  10  12  2   
 19  11  13  1   
 20  12  14  1   
 21  12  15  1   
 22  13  14  2   
 23  14  16  1   
 24  15  17  2   
 25  15  18  am  
 26  16  19  1   
 27  16  20  1   
 28  18  21  1   
 29  18  22  1   
 30  19  37  1   
 31  19  38  1   
 32  19  39  1   
 33  20  40  1   
 34  20  41  1   
 35  20  42  1   
 36  21  23  1   
 37  21  43  1   
 38  21  44  1   
 39  22  24  1   
 40  22  45  1   
 41  22  46  1   
 42  23  25  1   
 43  23  47  1   
 44  23  48  1   
 45  24  25  1   
 46  24  49  1   
 47  24  50  1   
 48  25  26  1   
 49  25  51  1   
 50  26  27  1   
 51  26  28  2   
 52  27  29  1   
 53  27  52  1   
 54  28  30  1   
 55  28  53  1   
 56  29  30  2   
 57  30  54  1   
@<TRIPOS>SUBSTRUCTURE
  1 ****  15 GROUP 4 **** **** 0

# MOE 2024.06 (io_trps.svl 2023.06)
