@<TRIPOS>MOLECULE
NONAME
43 44 1 0 0 
SMALL
USER_CHARGES


@<TRIPOS>ATOM
  1 O       -1.0850     0.5790    -2.0160 O.3   1 <1>  -0.3630 
  2 C       -1.0290     0.9100    -0.7000 C.ar  1 <1>   0.0830 
  3 C       -2.3300     0.6800    -2.6840 C.3   1 <1>   0.1200 
  4 C       -0.6450    -0.0490     0.2380 C.ar  1 <1>   0.0830 
  5 C       -1.3480     2.1960    -0.2880 C.ar  1 <1>  -0.1500 
  6 C       -2.9560    -0.7190    -2.8080 C.3   1 <1>   0.3430 
  7 O       -0.3380    -1.3050    -0.1850 O.3   1 <1>  -0.3630 
  8 C       -0.6130     0.2830     1.5860 C.ar  1 <1>  -0.1500 
  9 C       -1.3090     2.5190     1.0570 C.ar  1 <1>  -0.1500 
 10 N       -2.9180    -1.4530    -1.5090 N.4   1 <1>  -0.9590 
 11 C        0.8520    -1.8840     0.3100 C.3   1 <1>   0.0400 
 12 C       -0.9460     1.5640     1.9920 C.ar  1 <1>  -0.1500 
 13 C       -3.1400    -2.9140    -1.6000 C.3   1 <1>   0.3430 
 14 C       -3.8400    -0.9500    -0.4670 C.3   1 <1>   0.3430 
 15 C       -3.5380    -3.3490    -0.1900 C.3   1 <1>  -0.0800 
 16 C       -3.8240    -2.0490     0.5790 C.3   1 <1>  -0.1600 
 17 C       -2.4410    -4.1960     0.4660 C.3   1 <1>   0.1200 
 18 O       -2.8390    -4.4740     1.7650 O.3   1 <1>  -0.5600 
 19 C       -1.9570    -5.2830     2.4750 C.3   1 <1>   0.0400 
 20 H       -2.1460     1.0900    -3.6600 H     1 <1>   0.0800 
 21 H       -2.9830     1.3450    -2.1470 H     1 <1>   0.0800 
 22 H       -1.6130     2.9470    -1.0110 H     1 <1>   0.1500 
 23 H       -2.3920    -1.2690    -3.5440 H     1 <1>   0.0800 
 24 H       -3.9700    -0.6370    -3.1620 H     1 <1>   0.0800 
 25 H       -0.3370    -0.4460     2.3260 H     1 <1>   0.1500 
 26 H       -1.5560     3.5180     1.3790 H     1 <1>   0.1500 
 27 H       -1.9570    -1.3110    -1.1280 H     1 <1>   0.4500 
 28 H        1.0870    -2.7440    -0.2920 H     1 <1>   0.0800 
 29 H        0.7050    -2.1840     1.3320 H     1 <1>   0.0800 
 30 H        1.6490    -1.1630     0.2390 H     1 <1>   0.0800 
 31 H       -0.9180     1.8220     3.0380 H     1 <1>   0.1500 
 32 H       -2.2520    -3.4220    -1.9390 H     1 <1>   0.0800 
 33 H       -3.9520    -3.1200    -2.2790 H     1 <1>   0.0800 
 34 H       -4.8330    -0.8440    -0.8710 H     1 <1>   0.0800 
 35 H       -3.5070    -0.0090    -0.0580 H     1 <1>   0.0800 
 36 H       -4.4300    -3.9470    -0.2600 H     1 <1>   0.0800 
 37 H       -4.7560    -2.0970     1.1140 H     1 <1>   0.0800 
 38 H       -3.0410    -1.8400     1.2870 H     1 <1>   0.0800 
 39 H       -1.5080    -3.6610     0.5030 H     1 <1>   0.0800 
 40 H       -2.3100    -5.1270    -0.0600 H     1 <1>   0.0800 
 41 H       -2.3570    -5.4280     3.4630 H     1 <1>   0.0800 
 42 H       -0.9990    -4.7970     2.5410 H     1 <1>   0.0800 
 43 H       -1.8680    -6.2350     1.9800 H     1 <1>   0.0800 
@<TRIPOS>BOND
  1   1   2  1   
  2   1   3  1   
  3   2   4  ar  
  4   2   5  ar  
  5   3   6  1   
  6   3  20  1   
  7   3  21  1   
  8   4   7  1   
  9   4   8  ar  
 10   5   9  ar  
 11   5  22  1   
 12   6  10  1   
 13   6  23  1   
 14   6  24  1   
 15   7  11  1   
 16   8  12  ar  
 17   8  25  1   
 18   9  12  ar  
 19   9  26  1   
 20  10  13  1   
 21  10  14  1   
 22  10  27  1   
 23  11  28  1   
 24  11  29  1   
 25  11  30  1   
 26  12  31  1   
 27  13  15  1   
 28  13  32  1   
 29  13  33  1   
 30  14  16  1   
 31  14  34  1   
 32  14  35  1   
 33  15  16  1   
 34  15  17  1   
 35  15  36  1   
 36  16  37  1   
 37  16  38  1   
 38  17  18  1   
 39  17  39  1   
 40  17  40  1   
 41  18  19  1   
 42  19  41  1   
 43  19  42  1   
 44  19  43  1   
@<TRIPOS>SUBSTRUCTURE
  1 ****   7 GROUP 4 **** **** 0

# MOE 2024.06 (io_trps.svl 2023.06)
