@<TRIPOS>MOLECULE
NONAME
55 58 1 0 0 
SMALL
USER_CHARGES


@<TRIPOS>ATOM
  1 O        1.8110    -0.3850    -1.5190 O.2   1 <1>  -0.5700 
  2 C        1.9480    -0.3720    -0.3080 C.2   1 <1>   0.5440 
  3 N        1.8450     0.8070     0.3890 N.am  1 <1>  -0.4940 
  4 C        2.2220    -1.5730     0.4320 C.ar  1 <1>   0.0860 
  5 C        1.5640     2.1170    -0.0590 C.2   1 <1>  -0.0880 
  6 C        1.2140    -2.5040     0.7380 C.ar  1 <1>   0.1000 
  7 C        3.5190    -1.8200     0.8830 C.ar  1 <1>  -0.1500 
  8 N        2.1070     2.7510    -1.1410 N.pl3 1 <1>   0.3140 
  9 C        0.7260     3.0040     0.5270 C.2   1 <1>  -0.1810 
 10 N       -0.1150    -2.3520     0.3550 N.pl3 1 <1>  -0.8380 
 11 C        1.5460    -3.6450     1.4600 C.ar  1 <1>  -0.1500 
 12 C        3.8300    -2.9550     1.6030 C.ar  1 <1>  -0.1500 
 13 N        1.6270     4.0170    -1.2490 N.2   1 <1>  -0.7070 
 14 C        3.1440     2.2700    -2.0850 C.3   1 <1>   0.2390 
 15 C        0.8070     4.1500    -0.2550 C.2   1 <1>   0.1390 
 16 C       -0.1400     2.8430     1.7620 C.3   1 <1>  -0.0590 
 17 C       -0.5980    -3.0110    -0.8960 C.3   1 <1>   0.2090 
 18 C       -0.9730    -1.2280     0.8440 C.3   1 <1>   0.2090 
 19 C        2.8360    -3.8750     1.8910 C.ar  1 <1>  -0.1500 
 20 C        4.4010     1.7610    -1.3790 C.ar  1 <1>  -0.1430 
 21 C       -1.1500    -1.9950    -1.9140 C.3   1 <1>   0.1200 
 22 C       -1.4980    -0.3460    -0.3080 C.3   1 <1>   0.1200 
 23 C        5.0220     2.5230    -0.4000 C.ar  1 <1>  -0.1500 
 24 C        4.9380     0.5290    -1.7200 C.ar  1 <1>  -0.1500 
 25 O       -2.0740    -1.1300    -1.3130 O.3   1 <1>  -0.5600 
 26 C        6.1630     2.0630     0.2380 C.ar  1 <1>  -0.1430 
 27 C        6.0820     0.0680    -1.0930 C.ar  1 <1>  -0.1500 
 28 C        6.6920     0.8330    -0.1150 C.ar  1 <1>  -0.1500 
 29 C        6.8290     2.9080     1.3080 C.3   1 <1>  -0.0970 
 30 H        1.9430     0.7060     1.3980 H     1 <1>   0.3700 
 31 H        4.2920    -1.1050     0.6580 H     1 <1>   0.1500 
 32 H        0.7680    -4.3530     1.6830 H     1 <1>   0.1500 
 33 H        4.8380    -3.1290     1.9380 H     1 <1>   0.1500 
 34 H        3.4150     3.0900    -2.7230 H     1 <1>   0.0800 
 35 H        2.7130     1.5070    -2.7030 H     1 <1>   0.0800 
 36 H        0.2550     5.0560    -0.0670 H     1 <1>   0.1500 
 37 H       -0.0300     1.8590     2.1790 H     1 <1>   0.0800 
 38 H       -1.1730     2.9950     1.5040 H     1 <1>   0.0800 
 39 H        0.1440     3.5680     2.5040 H     1 <1>   0.0800 
 40 H       -1.3770    -3.7090    -0.6440 H     1 <1>   0.0800 
 41 H        0.2080    -3.5630    -1.3490 H     1 <1>   0.0800 
 42 H       -0.4180    -0.6220     1.5370 H     1 <1>   0.0800 
 43 H       -1.8140    -1.6420     1.3710 H     1 <1>   0.0800 
 44 H        3.0700    -4.7650     2.4500 H     1 <1>   0.1500 
 45 H       -1.6520    -2.5090    -2.7130 H     1 <1>   0.0800 
 46 H       -0.3510    -1.4100    -2.3350 H     1 <1>   0.0800 
 47 H       -0.7040     0.2370    -0.7400 H     1 <1>   0.0800 
 48 H       -2.2530     0.3260     0.0570 H     1 <1>   0.0800 
 49 H        4.6120     3.4830    -0.1340 H     1 <1>   0.1500 
 50 H        4.4640    -0.0780    -2.4730 H     1 <1>   0.1500 
 51 H        6.4950    -0.8870    -1.3670 H     1 <1>   0.1500 
 52 H        7.5820     0.4680     0.3670 H     1 <1>   0.1500 
 53 H        6.0940     3.4820     1.8440 H     1 <1>   0.0800 
 54 H        7.5310     3.5830     0.8520 H     1 <1>   0.0800 
 55 H        7.3520     2.2850     2.0100 H     1 <1>   0.0800 
@<TRIPOS>BOND
  1   1   2  2   
  2   2   3  am  
  3   2   4  1   
  4   3   5  1   
  5   3  30  1   
  6   4   6  ar  
  7   4   7  ar  
  8   5   8  1   
  9   5   9  2   
 10   6  10  1   
 11   6  11  ar  
 12   7  12  ar  
 13   7  31  1   
 14   8  13  1   
 15   8  14  1   
 16   9  15  1   
 17   9  16  1   
 18  10  17  1   
 19  10  18  1   
 20  11  19  ar  
 21  11  32  1   
 22  12  19  ar  
 23  12  33  1   
 24  13  15  2   
 25  14  20  1   
 26  14  34  1   
 27  14  35  1   
 28  15  36  1   
 29  16  37  1   
 30  16  38  1   
 31  16  39  1   
 32  17  21  1   
 33  17  40  1   
 34  17  41  1   
 35  18  22  1   
 36  18  42  1   
 37  18  43  1   
 38  19  44  1   
 39  20  23  ar  
 40  20  24  ar  
 41  21  25  1   
 42  21  45  1   
 43  21  46  1   
 44  22  25  1   
 45  22  47  1   
 46  22  48  1   
 47  23  26  ar  
 48  23  49  1   
 49  24  27  ar  
 50  24  50  1   
 51  26  28  ar  
 52  26  29  1   
 53  27  28  ar  
 54  27  51  1   
 55  28  52  1   
 56  29  53  1   
 57  29  54  1   
 58  29  55  1   
@<TRIPOS>SUBSTRUCTURE
  1 ****   2 GROUP 4 **** **** 0

# MOE 2024.06 (io_trps.svl 2023.06)
