@<TRIPOS>MOLECULE
NONAME
42 44 1 0 0 
SMALL
USER_CHARGES


@<TRIPOS>ATOM
  1 O       -0.7140     0.5980    -0.9720 O.2   1 <1>  -0.5700 
  2 C       -1.5330     1.4150    -0.5950 C.2   1 <1>   0.7160 
  3 N       -2.8470     1.2970    -1.0100 N.am  1 <1>  -0.6600 
  4 C       -1.1090     2.4690     0.2900 C.2   1 <1>  -0.0860 
  5 C       -3.9650     1.9250    -0.2330 C.3   1 <1>   0.2200 
  6 C       -3.1960     0.3670    -2.1310 C.3   1 <1>   0.0600 
  7 C       -1.1990     3.8120     0.2020 C.2   1 <1>  -0.0400 
  8 C       -0.4790     2.3230     1.5150 C.2   1 <1>   0.1080 
  9 C       -4.8660     0.8760     0.4170 C.3   1 <1>  -0.1600 
 10 C       -4.8960     2.7560    -1.1170 C.3   1 <1>  -0.1600 
 11 O       -0.7090     4.4140     1.2590 O.3   1 <1>  -0.0190 
 12 C       -1.7550     4.6720    -0.9160 C.3   1 <1>  -0.0600 
 13 N       -0.2700     3.4640     2.0530 N.2   1 <1>  -0.4100 
 14 C       -0.0860     1.0040     2.1470 C.3   1 <1>  -0.0590 
 15 C       -6.0640     0.6640    -0.5230 C.3   1 <1>  -0.0800 
 16 C       -6.0900     1.8600    -1.4860 C.3   1 <1>  -0.0800 
 17 C       -7.4230     0.6540     0.1950 C.3   1 <1>  -0.1600 
 18 C       -7.4580     2.5370    -1.3070 C.3   1 <1>  -0.1600 
 19 C       -7.9940     2.0580     0.0370 C.3   1 <1>   0.2000 
 20 O       -7.4560     2.8550     1.0220 O.3   1 <1>  -0.6800 
 21 H       -3.5640     2.5550     0.5420 H     1 <1>   0.0800 
 22 H       -3.8410     0.8570    -2.8360 H     1 <1>   0.0800 
 23 H       -3.6830    -0.5100    -1.7450 H     1 <1>   0.0800 
 24 H       -2.3130     0.0550    -2.6610 H     1 <1>   0.0800 
 25 H       -4.3380    -0.0410     0.6110 H     1 <1>   0.0800 
 26 H       -5.2050     1.2660     1.3600 H     1 <1>   0.0800 
 27 H       -5.2370     3.5980    -0.5410 H     1 <1>   0.0800 
 28 H       -4.3920     3.1310    -1.9890 H     1 <1>   0.0800 
 29 H       -2.0550     4.0620    -1.7490 H     1 <1>   0.0800 
 30 H       -1.0000     5.3610    -1.2500 H     1 <1>   0.0800 
 31 H       -2.6030     5.2280    -0.5620 H     1 <1>   0.0800 
 32 H       -0.9520     0.3780     2.2610 H     1 <1>   0.0800 
 33 H        0.3540     1.1730     3.1130 H     1 <1>   0.0800 
 34 H        0.6300     0.5020     1.5210 H     1 <1>   0.0800 
 35 H       -5.9320    -0.2520    -1.0730 H     1 <1>   0.0800 
 36 H       -5.9860     1.5190    -2.5020 H     1 <1>   0.0800 
 37 H       -7.3690     0.3450     1.2250 H     1 <1>   0.0800 
 38 H       -8.0750    -0.0270    -0.3230 H     1 <1>   0.0800 
 39 H       -8.1200     2.1730    -2.0730 H     1 <1>   0.0800 
 40 H       -7.4270     3.6100    -1.3780 H     1 <1>   0.0800 
 41 H       -9.0690     2.0980     0.1120 H     1 <1>   0.0800 
 42 H       -6.4850     2.8030     0.9630 H     1 <1>   0.4000 
@<TRIPOS>BOND
  1   1   2  2   
  2   2   3  am  
  3   2   4  1   
  4   3   5  1   
  5   3   6  1   
  6   4   7  2   
  7   4   8  1   
  8   5   9  1   
  9   5  10  1   
 10   5  21  1   
 11   6  22  1   
 12   6  23  1   
 13   6  24  1   
 14   7  11  1   
 15   7  12  1   
 16   8  13  2   
 17   8  14  1   
 18   9  15  1   
 19   9  25  1   
 20   9  26  1   
 21  10  16  1   
 22  10  27  1   
 23  10  28  1   
 24  11  13  1   
 25  12  29  1   
 26  12  30  1   
 27  12  31  1   
 28  14  32  1   
 29  14  33  1   
 30  14  34  1   
 31  15  16  1   
 32  15  17  1   
 33  15  35  1   
 34  16  18  1   
 35  16  36  1   
 36  17  19  1   
 37  17  37  1   
 38  17  38  1   
 39  18  19  1   
 40  18  39  1   
 41  18  40  1   
 42  19  20  1   
 43  19  41  1   
 44  20  42  1   
@<TRIPOS>SUBSTRUCTURE
  1 ****   5 GROUP 4 **** **** 0

# MOE 2024.06 (io_trps.svl 2023.06)
