@<TRIPOS>MOLECULE
NONAME
49 52 1 0 0 
SMALL
USER_CHARGES


@<TRIPOS>ATOM
  1 O        0.2440     1.9640    -3.1100 O.2   1 <1>  -0.5700 
  2 C       -0.0840     2.5410    -2.0980 C.2   1 <1>   0.5690 
  3 N       -1.2490     2.2210    -1.4380 N.am  1 <1>  -0.6600 
  4 C        0.8390     3.6460    -1.6290 C.3   1 <1>   0.1570 
  5 C       -1.7450     2.8660    -0.1770 C.3   1 <1>   0.1400 
  6 C       -2.1150     1.0970    -1.8950 C.3   1 <1>   0.1400 
  7 N        1.4890     3.2990    -0.3570 N.pl3 1 <1>   0.3140 
  8 C       -3.1680     3.4270    -0.3690 C.3   1 <1>   0.1440 
  9 C       -3.5410     1.6040    -2.1350 C.3   1 <1>  -0.1600 
 10 N        1.3410     4.0970     0.7200 N.2   1 <1>  -0.7070 
 11 C        2.3000     2.2500    -0.0760 C.2   1 <1>  -0.3320 
 12 C       -3.7120     3.9760     0.9380 C.ar  1 <1>   0.1670 
 13 C       -4.1110     2.3240    -0.8980 C.3   1 <1>  -0.1600 
 14 C       -3.1740     4.6820    -1.2840 C.3   1 <1>  -0.1600 
 15 C        2.0410     3.5380     1.6530 C.2   1 <1>   0.1080 
 16 C        2.6680     2.3790     1.2160 C.2   1 <1>  -0.1500 
 17 C        2.6980     1.1580    -1.0560 C.3   1 <1>  -0.0600 
 18 N       -3.6990     3.3500     2.0910 N.ar  1 <1>  -0.6200 
 19 C       -4.2410     5.2240     0.7780 C.ar  1 <1>  -0.1440 
 20 C       -4.1360     5.7010    -0.6470 C.3   1 <1>  -0.0160 
 21 C        2.1400     4.1150     3.0450 C.3   1 <1>  -0.0590 
 22 C       -4.2470     4.0350     3.0830 C.ar  1 <1>   0.7200 
 23 C       -4.7730     5.8410     1.8850 C.ar  1 <1>   0.1600 
 24 N       -4.7780     5.2490     3.0590 N.ar  1 <1>  -0.6200 
 25 N       -4.2420     3.4320     4.2730 N.pl3 1 <1>  -0.9000 
 26 H        0.2820     4.5530    -1.5010 H     1 <1>   0.0800 
 27 H        1.6030     3.8120    -2.3620 H     1 <1>   0.0800 
 28 H       -1.1000     3.6610     0.1460 H     1 <1>   0.0800 
 29 H       -1.7560     2.1270     0.6050 H     1 <1>   0.0800 
 30 H       -2.1210     0.3330    -1.1360 H     1 <1>   0.0800 
 31 H       -1.7320     0.6600    -2.8010 H     1 <1>   0.0800 
 32 H       -4.1710     0.7690    -2.3830 H     1 <1>   0.0800 
 33 H       -3.5340     2.2620    -2.9850 H     1 <1>   0.0800 
 34 H       -5.0750     2.7420    -1.1280 H     1 <1>   0.0800 
 35 H       -4.2540     1.5960    -0.1170 H     1 <1>   0.0800 
 36 H       -3.4530     4.4590    -2.2980 H     1 <1>   0.0800 
 37 H       -2.1910     5.1190    -1.2980 H     1 <1>   0.0800 
 38 H        3.3040     1.7420     1.8030 H     1 <1>   0.1500 
 39 H        3.1100     1.5870    -1.9510 H     1 <1>   0.0800 
 40 H        1.8420     0.5610    -1.3170 H     1 <1>   0.0800 
 41 H        3.4370     0.5140    -0.6130 H     1 <1>   0.0800 
 42 H       -5.1040     5.6540    -1.1160 H     1 <1>   0.0800 
 43 H       -3.7470     6.7030    -0.7060 H     1 <1>   0.0800 
 44 H        2.5700     5.0980     2.9940 H     1 <1>   0.0800 
 45 H        2.7530     3.4920     3.6670 H     1 <1>   0.0800 
 46 H        1.1570     4.1850     3.4720 H     1 <1>   0.0800 
 47 H       -5.1990     6.8260     1.8070 H     1 <1>   0.1500 
 48 H       -4.3650     4.0520     5.0680 H     1 <1>   0.4000 
 49 H       -3.5620     2.6840     4.3710 H     1 <1>   0.4000 
@<TRIPOS>BOND
  1   1   2  2   
  2   2   3  am  
  3   2   4  1   
  4   3   5  1   
  5   3   6  1   
  6   4   7  1   
  7   4  26  1   
  8   4  27  1   
  9   5   8  1   
 10   5  28  1   
 11   5  29  1   
 12   6   9  1   
 13   6  30  1   
 14   6  31  1   
 15   7  10  1   
 16   7  11  1   
 17   8  12  1   
 18   8  13  1   
 19   8  14  1   
 20   9  13  1   
 21   9  32  1   
 22   9  33  1   
 23  10  15  2   
 24  11  16  2   
 25  11  17  1   
 26  12  18  ar  
 27  12  19  ar  
 28  13  34  1   
 29  13  35  1   
 30  14  20  1   
 31  14  36  1   
 32  14  37  1   
 33  15  16  1   
 34  15  21  1   
 35  16  38  1   
 36  17  39  1   
 37  17  40  1   
 38  17  41  1   
 39  18  22  ar  
 40  19  20  1   
 41  19  23  ar  
 42  20  42  1   
 43  20  43  1   
 44  21  44  1   
 45  21  45  1   
 46  21  46  1   
 47  22  24  ar  
 48  22  25  1   
 49  23  24  ar  
 50  23  47  1   
 51  25  48  1   
 52  25  49  1   
@<TRIPOS>SUBSTRUCTURE
  1 ****   5 GROUP 4 **** **** 0

# MOE 2024.06 (io_trps.svl 2023.06)
