@<TRIPOS>MOLECULE
NONAME
47 49 1 0 0 
SMALL
USER_CHARGES


@<TRIPOS>ATOM
  1 S       -0.3180    -1.3700     1.8900 S.3   1 <1>   0.1810 
  2 N        0.4050     0.0840     1.4130 N.2   1 <1>  -0.2210 
  3 C       -0.3070    -2.0220     0.2900 C.2   1 <1>  -0.0450 
  4 N        0.6510     0.0730     0.1780 N.2   1 <1>  -0.2270 
  5 C        0.2810    -1.0810    -0.4680 C.2   1 <1>   0.0460 
  6 C       -0.8270    -3.3370     0.0500 C.2   1 <1>   0.7150 
  7 C        0.5730    -1.1760    -1.9530 C.3   1 <1>  -0.0590 
  8 O       -0.0820    -4.1750    -0.4210 O.2   1 <1>  -0.5700 
  9 N       -2.1430    -3.6730     0.3010 N.am  1 <1>  -0.6600 
 10 C       -2.6540    -5.0640     0.0440 C.3   1 <1>   0.1400 
 11 C       -3.2300    -2.6610     0.4700 C.3   1 <1>   0.1400 
 12 C       -3.2220    -5.7490     1.2990 C.3   1 <1>   0.1400 
 13 C       -3.6750    -2.4940     1.9300 C.3   1 <1>  -0.1600 
 14 N       -4.2300    -4.9090     2.0150 N.am  1 <1>  -0.6600 
 15 C       -3.6490    -3.7720     2.7730 C.3   1 <1>   0.1400 
 16 C       -5.5920    -5.1340     1.9940 C.2   1 <1>   0.5440 
 17 O       -6.3190    -4.4100     2.6500 O.2   1 <1>  -0.5700 
 18 C       -6.1780    -6.2260     1.2590 C.ar  1 <1>   0.0860 
 19 C       -6.3210    -6.1880    -0.1330 C.ar  1 <1>   0.3930 
 20 C       -6.6250    -7.3600     1.9220 C.ar  1 <1>  -0.1500 
 21 O       -5.9140    -5.0780    -0.7820 O.3   1 <1>  -0.3620 
 22 N       -6.8300    -7.1770    -0.8690 N.ar  1 <1>  -0.6200 
 23 C       -7.1630    -8.3820     1.1720 C.ar  1 <1>  -0.1500 
 24 C       -6.1290    -4.9070    -2.1680 C.3   1 <1>   0.1200 
 25 C       -7.2390    -8.2420    -0.2020 C.ar  1 <1>   0.1600 
 26 C       -5.5490    -3.5580    -2.5820 C.3   1 <1>  -0.2400 
 27 H        0.2410    -2.1180    -2.3480 H     1 <1>   0.0800 
 28 H        1.6310    -1.0870    -2.1180 H     1 <1>   0.0800 
 29 H        0.0720    -0.3810    -2.4750 H     1 <1>   0.0800 
 30 H       -1.8700    -5.6890    -0.3450 H     1 <1>   0.0800 
 31 H       -3.4150    -5.0250    -0.7120 H     1 <1>   0.0800 
 32 H       -4.0840    -2.9770    -0.1030 H     1 <1>   0.0800 
 33 H       -2.9230    -1.7070     0.0750 H     1 <1>   0.0800 
 34 H       -2.4100    -5.9730     1.9680 H     1 <1>   0.0800 
 35 H       -3.6570    -6.6890     1.0110 H     1 <1>   0.0800 
 36 H       -4.6800    -2.1110     1.9310 H     1 <1>   0.0800 
 37 H       -3.0710    -1.7520     2.4140 H     1 <1>   0.0800 
 38 H       -4.2040    -3.6160     3.6830 H     1 <1>   0.0800 
 39 H       -2.6340    -4.0030     3.0470 H     1 <1>   0.0800 
 40 H       -6.5510    -7.4260     2.9940 H     1 <1>   0.1500 
 41 H       -7.5230    -9.2780     1.6450 H     1 <1>   0.1500 
 42 H       -7.1890    -4.9440    -2.3510 H     1 <1>   0.0800 
 43 H       -5.6420    -5.7120    -2.6930 H     1 <1>   0.0800 
 44 H       -7.6600    -9.0470    -0.7810 H     1 <1>   0.1500 
 45 H       -6.0120    -2.7680    -2.0170 H     1 <1>   0.0800 
 46 H       -5.7410    -3.3890    -3.6260 H     1 <1>   0.0800 
 47 H       -4.4860    -3.5440    -2.4250 H     1 <1>   0.0800 
@<TRIPOS>BOND
  1   1   2  1   
  2   1   3  1   
  3   2   4  2   
  4   3   5  2   
  5   3   6  1   
  6   4   5  1   
  7   5   7  1   
  8   6   8  2   
  9   6   9  am  
 10   7  27  1   
 11   7  28  1   
 12   7  29  1   
 13   9  10  1   
 14   9  11  1   
 15  10  12  1   
 16  10  30  1   
 17  10  31  1   
 18  11  13  1   
 19  11  32  1   
 20  11  33  1   
 21  12  14  1   
 22  12  34  1   
 23  12  35  1   
 24  13  15  1   
 25  13  36  1   
 26  13  37  1   
 27  14  15  1   
 28  14  16  am  
 29  15  38  1   
 30  15  39  1   
 31  16  17  2   
 32  16  18  1   
 33  18  19  ar  
 34  18  20  ar  
 35  19  21  1   
 36  19  22  ar  
 37  20  23  ar  
 38  20  40  1   
 39  21  24  1   
 40  22  25  ar  
 41  23  25  ar  
 42  23  41  1   
 43  24  26  1   
 44  24  42  1   
 45  24  43  1   
 46  25  44  1   
 47  26  45  1   
 48  26  46  1   
 49  26  47  1   
@<TRIPOS>SUBSTRUCTURE
  1 ****  10 GROUP 4 **** **** 0

# MOE 2024.06 (io_trps.svl 2023.06)
