@<TRIPOS>MOLECULE
NONAME
58 62 1 0 0 
SMALL
USER_CHARGES


@<TRIPOS>ATOM
  1 O       -3.7490    -3.9490    -1.9160 O.co2 1 <1>  -0.9000 
  2 C       -3.1880    -3.0530    -1.2510 C.2   1 <1>   1.0330 
  3 O       -3.8520    -2.5400    -0.3260 O.co2 1 <1>  -0.9000 
  4 C       -1.7310    -2.9060    -1.2610 C.2   1 <1>   0.0560 
  5 N       -0.9270    -2.3010    -2.1230 N.2   1 <1>  -0.7070 
  6 C       -0.9780    -3.4850    -0.2300 C.2   1 <1>  -0.1810 
  7 N        0.3110    -2.4930    -1.6510 N.pl3 1 <1>   0.3000 
  8 C        0.3110    -3.2060    -0.5080 C.2   1 <1>  -0.3020 
  9 C       -1.6060    -4.2240     0.9360 C.3   1 <1>   0.5240 
 10 N       -2.3190    -5.4400     0.4530 N.4   1 <1>  -0.9590 
 11 C       -2.0730    -6.7330     1.1190 C.3   1 <1>   0.4230 
 12 C       -3.7710    -5.4140     0.6720 C.3   1 <1>   0.4230 
 13 C       -2.9900    -7.6910     0.2980 C.3   1 <1>   0.0610 
 14 C       -2.6530    -6.4250     2.5230 C.3   1 <1>  -0.1600 
 15 C       -4.1850    -6.7330     0.0180 C.3   1 <1>  -0.1600 
 16 C       -3.8780    -5.5600     2.1940 C.3   1 <1>  -0.1600 
 17 C       -3.3420    -8.9590     1.0970 C.2   1 <1>   0.5690 
 18 C       -2.3240    -8.1990    -1.0140 C.3   1 <1>  -0.0170 
 19 O       -2.5230    -9.3370     1.9030 O.2   1 <1>  -0.5700 
 20 N       -4.4860    -9.6910     0.8800 N.am  1 <1>  -0.6600 
 21 C       -1.2780    -7.2960    -1.6450 C.ar  1 <1>  -0.1430 
 22 C       -4.8280   -10.8480     1.7460 C.3   1 <1>   0.1400 
 23 C       -5.2940    -9.7390    -0.3700 C.3   1 <1>   0.1400 
 24 C       -1.6480    -6.2990    -2.5340 C.ar  1 <1>  -0.1500 
 25 C        0.0650    -7.4830    -1.3510 C.ar  1 <1>  -0.1500 
 26 C       -5.6590   -11.7750     0.8690 C.3   1 <1>  -0.1600 
 27 C       -6.3140   -10.8490    -0.1470 C.3   1 <1>  -0.1600 
 28 C       -0.6860    -5.4970    -3.1180 C.ar  1 <1>  -0.1500 
 29 C        1.0280    -6.6830    -1.9400 C.ar  1 <1>  -0.1500 
 30 C        0.6530    -5.6910    -2.8270 C.ar  1 <1>  -0.1500 
 31 H        1.1370    -2.1170    -2.1320 H     1 <1>   0.2700 
 32 H        1.2110    -3.4600     0.0210 H     1 <1>   0.1500 
 33 H       -2.3000    -3.5610     1.4270 H     1 <1>   0.0800 
 34 H       -0.8360    -4.5010     1.6350 H     1 <1>   0.0800 
 35 H       -2.1570    -5.4940    -0.5700 H     1 <1>   0.4500 
 36 H       -1.0380    -7.0350     1.1270 H     1 <1>   0.0800 
 37 H       -4.2960    -4.5620     0.2730 H     1 <1>   0.0800 
 38 H       -2.9250    -7.2890     3.0980 H     1 <1>   0.0800 
 39 H       -1.9370    -5.8710     3.1040 H     1 <1>   0.0800 
 40 H       -5.1110    -7.0630     0.4480 H     1 <1>   0.0800 
 41 H       -4.3380    -6.5620    -1.0340 H     1 <1>   0.0800 
 42 H       -3.8250    -4.5960     2.6690 H     1 <1>   0.0800 
 43 H       -4.8020    -6.0310     2.4820 H     1 <1>   0.0800 
 44 H       -1.8400    -9.1410    -0.8180 H     1 <1>   0.0800 
 45 H       -3.0810    -8.4080    -1.7480 H     1 <1>   0.0800 
 46 H       -3.9460   -11.3480     2.1110 H     1 <1>   0.0800 
 47 H       -5.4120   -10.4990     2.5810 H     1 <1>   0.0800 
 48 H       -5.7950    -8.8100    -0.5720 H     1 <1>   0.0800 
 49 H       -4.6550    -9.9970    -1.1970 H     1 <1>   0.0800 
 50 H       -2.6820    -6.1250    -2.7860 H     1 <1>   0.1500 
 51 H        0.3730    -8.2580    -0.6710 H     1 <1>   0.1500 
 52 H       -5.0010   -12.4640     0.3680 H     1 <1>   0.0800 
 53 H       -6.3770   -12.3320     1.4430 H     1 <1>   0.0800 
 54 H       -7.2100   -10.4240     0.2720 H     1 <1>   0.0800 
 55 H       -6.5630   -11.3550    -1.0630 H     1 <1>   0.0800 
 56 H       -0.9890    -4.7130    -3.7930 H     1 <1>   0.1500 
 57 H        2.0690    -6.8360    -1.7150 H     1 <1>   0.1500 
 58 H        1.3940    -5.0660    -3.2920 H     1 <1>   0.1500 
@<TRIPOS>BOND
  1   1   2  ar  
  2   2   3  ar  
  3   2   4  1   
  4   4   5  2   
  5   4   6  1   
  6   5   7  1   
  7   6   8  2   
  8   6   9  1   
  9   7   8  1   
 10   7  31  1   
 11   8  32  1   
 12   9  10  1   
 13   9  33  1   
 14   9  34  1   
 15  10  11  1   
 16  10  12  1   
 17  10  35  1   
 18  11  13  1   
 19  11  14  1   
 20  11  36  1   
 21  12  15  1   
 22  12  16  1   
 23  12  37  1   
 24  13  15  1   
 25  13  17  1   
 26  13  18  1   
 27  14  16  1   
 28  14  38  1   
 29  14  39  1   
 30  15  40  1   
 31  15  41  1   
 32  16  42  1   
 33  16  43  1   
 34  17  19  2   
 35  17  20  am  
 36  18  21  1   
 37  18  44  1   
 38  18  45  1   
 39  20  22  1   
 40  20  23  1   
 41  21  24  ar  
 42  21  25  ar  
 43  22  26  1   
 44  22  46  1   
 45  22  47  1   
 46  23  27  1   
 47  23  48  1   
 48  23  49  1   
 49  24  28  ar  
 50  24  50  1   
 51  25  29  ar  
 52  25  51  1   
 53  26  27  1   
 54  26  52  1   
 55  26  53  1   
 56  27  54  1   
 57  27  55  1   
 58  28  30  ar  
 59  28  56  1   
 60  29  30  ar  
 61  29  57  1   
 62  30  58  1   
@<TRIPOS>SUBSTRUCTURE
  1 ****  10 GROUP 4 **** **** 0

# MOE 2024.06 (io_trps.svl 2023.06)
