@<TRIPOS>MOLECULE
NONAME
52 56 1 0 0 
SMALL
USER_CHARGES


@<TRIPOS>ATOM
  1 S       -1.8180    -1.0520    -0.4740 S.3   1 <1>  -0.0800 
  2 C       -1.3300    -1.9680     0.9130 C.2   1 <1>   0.4420 
  3 C       -1.0690     0.3270     0.2590 C.2   1 <1>   0.1980 
  4 N       -0.7000    -1.2510     1.7710 N.2   1 <1>  -0.3380 
  5 N       -1.6690    -3.3010     0.9270 N.am  1 <1>  -0.4940 
  6 N       -0.5570     0.0550     1.3940 N.2   1 <1>  -0.3380 
  7 C       -1.1260     1.6540    -0.4950 C.3   1 <1>   0.3800 
  8 C       -1.4480    -4.2680     1.8610 C.2   1 <1>   0.5690 
  9 O       -0.6810     1.5050    -1.8160 O.3   1 <1>  -0.5600 
 10 C       -0.2680     2.7670     0.1030 C.3   1 <1>  -0.1600 
 11 O       -0.8830    -4.0910     2.9110 O.2   1 <1>  -0.5700 
 12 C       -1.9700    -5.6630     1.5190 C.3   1 <1>   0.1710 
 13 C        0.1550     2.5490    -2.2120 C.3   1 <1>   0.1200 
 14 C        0.0910     3.5980    -1.1110 C.3   1 <1>  -0.1600 
 15 N       -3.0860    -5.6490     0.5250 N.3   1 <1>  -0.8100 
 16 C       -4.3430    -5.2130     1.1590 C.3   1 <1>   0.1100 
 17 C       -3.2290    -6.9630    -0.1160 C.3   1 <1>   0.1100 
 18 C       -5.4300    -5.0570     0.0970 C.3   1 <1>  -0.1600 
 19 C       -4.2720    -6.8850    -1.2310 C.3   1 <1>  -0.1600 
 20 C       -5.6250    -6.3290    -0.7500 C.3   1 <1>   0.2040 
 21 C       -6.5500    -6.0440    -1.9460 C.2   1 <1>   0.5690 
 22 C       -6.4710    -7.3910    -0.0250 C.ar  1 <1>  -0.1440 
 23 O       -6.3300    -5.2560    -2.8340 O.2   1 <1>  -0.5700 
 24 N       -7.6620    -6.8060    -1.8650 N.am  1 <1>  -0.5470 
 25 C       -7.6350    -7.6070    -0.7410 C.ar  1 <1>   0.1170 
 26 C       -6.2460    -8.1010     1.1440 C.ar  1 <1>  -0.1500 
 27 C       -8.5870    -8.5180    -0.3160 C.ar  1 <1>  -0.1500 
 28 C       -7.1950    -9.0160     1.5780 C.ar  1 <1>  -0.1500 
 29 C       -8.3600    -9.2240     0.8520 C.ar  1 <1>  -0.1500 
 30 H       -2.2150    -3.6500     0.1350 H     1 <1>   0.3700 
 31 H       -2.1490     1.9830    -0.5510 H     1 <1>   0.0800 
 32 H        0.6230     2.3470     0.5370 H     1 <1>   0.0800 
 33 H       -0.7980     3.3240     0.8550 H     1 <1>   0.0800 
 34 H       -2.2830    -6.1530     2.4240 H     1 <1>   0.0800 
 35 H       -1.1380    -6.2140     1.1170 H     1 <1>   0.0800 
 36 H       -0.1780     2.9290    -3.1630 H     1 <1>   0.0800 
 37 H        1.1510     2.1500    -2.3050 H     1 <1>   0.0800 
 38 H        1.0240     4.1220    -0.9970 H     1 <1>   0.0800 
 39 H       -0.6910     4.3040    -1.3340 H     1 <1>   0.0800 
 40 H       -4.2000    -4.2630     1.6460 H     1 <1>   0.0800 
 41 H       -4.6470    -5.9210     1.9090 H     1 <1>   0.0800 
 42 H       -3.5040    -7.7060     0.6110 H     1 <1>   0.0800 
 43 H       -2.2860    -7.2560    -0.5490 H     1 <1>   0.0800 
 44 H       -5.1500    -4.2440    -0.5500 H     1 <1>   0.0800 
 45 H       -6.3600    -4.7900     0.5670 H     1 <1>   0.0800 
 46 H       -4.4140    -7.8600    -1.6630 H     1 <1>   0.0800 
 47 H       -3.8840    -6.2430    -2.0030 H     1 <1>   0.0800 
 48 H       -8.4010    -6.7660    -2.5660 H     1 <1>   0.3700 
 49 H       -5.3550    -7.9610     1.7240 H     1 <1>   0.1500 
 50 H       -9.4850    -8.6700    -0.8870 H     1 <1>   0.1500 
 51 H       -7.0270    -9.5700     2.4850 H     1 <1>   0.1500 
 52 H       -9.0870    -9.9370     1.2000 H     1 <1>   0.1500 
@<TRIPOS>BOND
  1   1   2  1   
  2   1   3  1   
  3   2   4  2   
  4   2   5  1   
  5   3   6  2   
  6   3   7  1   
  7   4   6  1   
  8   5   8  am  
  9   5  30  1   
 10   7   9  1   
 11   7  10  1   
 12   7  31  1   
 13   8  11  2   
 14   8  12  1   
 15   9  13  1   
 16  10  14  1   
 17  10  32  1   
 18  10  33  1   
 19  12  15  1   
 20  12  34  1   
 21  12  35  1   
 22  13  14  1   
 23  13  36  1   
 24  13  37  1   
 25  14  38  1   
 26  14  39  1   
 27  15  16  1   
 28  15  17  1   
 29  16  18  1   
 30  16  40  1   
 31  16  41  1   
 32  17  19  1   
 33  17  42  1   
 34  17  43  1   
 35  18  20  1   
 36  18  44  1   
 37  18  45  1   
 38  19  20  1   
 39  19  46  1   
 40  19  47  1   
 41  20  21  1   
 42  20  22  1   
 43  21  23  2   
 44  21  24  am  
 45  22  25  ar  
 46  22  26  ar  
 47  24  25  1   
 48  24  48  1   
 49  25  27  ar  
 50  26  28  ar  
 51  26  49  1   
 52  27  29  ar  
 53  27  50  1   
 54  28  29  ar  
 55  28  51  1   
 56  29  52  1   
@<TRIPOS>SUBSTRUCTURE
  1 ****  16 GROUP 4 **** **** 0

# MOE 2024.06 (io_trps.svl 2023.06)
