@<TRIPOS>MOLECULE
NONAME
35 36 1 0 0 
SMALL
USER_CHARGES


@<TRIPOS>ATOM
  1 S       -0.1020     0.3840    -0.1740 S.3   1 <1>  -0.4600 
  2 C        0.2640     2.0920    -0.6480 C.3   1 <1>   0.0700 
  3 C        1.4950    -0.4330    -0.4110 C.3   1 <1>   0.0700 
  4 C        1.4720     2.5810     0.1610 C.3   1 <1>   0.3430 
  5 C        2.5730     0.3370     0.3640 C.3   1 <1>   0.3430 
  6 N        2.7200     1.7670    -0.0960 N.4   1 <1>  -0.9590 
  7 C        3.9400     2.4900     0.4450 C.3   1 <1>   0.4840 
  8 C        4.1350     3.8870    -0.2030 C.2   1 <1>   0.5690 
  9 C        5.2000     1.6450     0.2160 C.3   1 <1>  -0.2400 
 10 O        3.6820     4.0490    -1.3120 O.2   1 <1>  -0.5700 
 11 N        4.7700     4.8710     0.5010 N.am  1 <1>  -0.5470 
 12 C        5.0410     6.1910     0.2180 C.ar  1 <1>   0.4270 
 13 N        5.5060     6.8250     1.2800 N.ar  1 <1>  -0.6200 
 14 C        4.8620     6.7970    -1.0250 C.ar  1 <1>  -0.1500 
 15 C        5.7980     8.1050     1.1100 C.ar  1 <1>   0.1600 
 16 C        5.1690     8.1280    -1.1880 C.ar  1 <1>  -0.1500 
 17 C        5.6510     8.7940    -0.0800 C.ar  1 <1>  -0.1500 
 18 H       -0.6130     2.6750    -0.4260 H     1 <1>   0.0800 
 19 H        0.4530     2.1140    -1.7060 H     1 <1>   0.0800 
 20 H        1.7000    -0.4610    -1.4660 H     1 <1>   0.0800 
 21 H        1.3900    -1.4370    -0.0380 H     1 <1>   0.0800 
 22 H        1.2230     2.5470     1.2090 H     1 <1>   0.0800 
 23 H        1.6460     3.6110    -0.1040 H     1 <1>   0.0800 
 24 H        3.5030    -0.1890     0.2310 H     1 <1>   0.0800 
 25 H        2.3290     0.3160     1.4140 H     1 <1>   0.0800 
 26 H        2.8510     1.7780    -1.1200 H     1 <1>   0.4500 
 27 H        3.8160     2.6380     1.5050 H     1 <1>   0.0800 
 28 H        5.2950     1.3740    -0.8210 H     1 <1>   0.0800 
 29 H        5.2050     0.7630     0.8300 H     1 <1>   0.0800 
 30 H        6.0710     2.2160     0.4850 H     1 <1>   0.0800 
 31 H        5.1050     4.6740     1.4430 H     1 <1>   0.3700 
 32 H        4.4900     6.2400    -1.8630 H     1 <1>   0.1500 
 33 H        6.1780     8.6370     1.9670 H     1 <1>   0.1500 
 34 H        5.0420     8.6280    -2.1330 H     1 <1>   0.1500 
 35 H        5.9100     9.8360    -0.1390 H     1 <1>   0.1500 
@<TRIPOS>BOND
  1   1   2  1   
  2   1   3  1   
  3   2   4  1   
  4   2  18  1   
  5   2  19  1   
  6   3   5  1   
  7   3  20  1   
  8   3  21  1   
  9   4   6  1   
 10   4  22  1   
 11   4  23  1   
 12   5   6  1   
 13   5  24  1   
 14   5  25  1   
 15   6   7  1   
 16   6  26  1   
 17   7   8  1   
 18   7   9  1   
 19   7  27  1   
 20   8  10  2   
 21   8  11  am  
 22   9  28  1   
 23   9  29  1   
 24   9  30  1   
 25  11  12  1   
 26  11  31  1   
 27  12  13  ar  
 28  12  14  ar  
 29  13  15  ar  
 30  14  16  ar  
 31  14  32  1   
 32  15  17  ar  
 33  15  33  1   
 34  16  17  ar  
 35  16  34  1   
 36  17  35  1   
@<TRIPOS>SUBSTRUCTURE
  1 ****   8 GROUP 4 **** **** 0

# MOE 2024.06 (io_trps.svl 2023.06)
