@<TRIPOS>MOLECULE
NONAME
57 59 1 0 0 
SMALL
USER_CHARGES


@<TRIPOS>ATOM
  1 O        0.4210     0.4500     1.1940 O.2   1 <1>  -0.5700 
  2 C        0.7620    -0.7080     1.2230 C.2   1 <1>   0.5690 
  3 N        2.0940    -1.0410     1.2360 N.am  1 <1>  -0.6600 
  4 C       -0.3750    -1.7190     1.2640 C.3   1 <1>  -0.0990 
  5 C        2.6260    -2.4350     1.2380 C.3   1 <1>   0.1400 
  6 C        3.1450     0.0420     1.3200 C.3   1 <1>   0.2010 
  7 C       -0.0520    -3.1940     1.0260 C.3   1 <1>   0.1200 
  8 C        2.1390    -3.3110     0.0400 C.3   1 <1>   0.2800 
  9 C        3.9890     0.1770     0.0460 C.2   1 <1>   0.5690 
 10 O        0.7510    -3.3140    -0.1050 O.3   1 <1>  -0.5600 
 11 C        2.6590    -2.7860    -1.3050 C.3   1 <1>  -0.1600 
 12 C        2.5580    -4.7800     0.2060 C.3   1 <1>  -0.1600 
 13 O        5.0130    -0.4710    -0.0060 O.2   1 <1>  -0.5700 
 14 N        3.5850     0.9570    -1.0120 N.am  1 <1>  -0.6600 
 15 C        4.1590    -2.9980    -1.4650 C.3   1 <1>   0.3430 
 16 C        4.0580    -4.9830     0.0070 C.3   1 <1>   0.3430 
 17 C        4.4600     1.2170    -2.1890 C.3   1 <1>   0.0600 
 18 C        2.2530     1.6270    -1.0690 C.3   1 <1>   0.0600 
 19 N        4.4780    -4.4470    -1.3220 N.4   1 <1>  -0.9590 
 20 C        5.9140    -4.7350    -1.6650 C.3   1 <1>   0.3430 
 21 C        6.9280    -4.4720    -0.5350 C.3   1 <1>  -0.0800 
 22 C        7.0630    -3.0280    -0.0700 C.3   1 <1>   0.1200 
 23 C        8.3560    -4.7820    -0.9640 C.3   1 <1>  -0.1600 
 24 O        8.3150    -2.9770     0.5190 O.3   1 <1>  -0.5600 
 25 C        9.2050    -3.8410    -0.1120 C.3   1 <1>   0.1200 
 26 H       -1.0910    -1.4200     0.5210 H     1 <1>   0.0800 
 27 H       -0.8620    -1.6240     2.2160 H     1 <1>   0.0800 
 28 H        2.3630    -2.9000     2.1720 H     1 <1>   0.0800 
 29 H        3.7000    -2.3980     1.2250 H     1 <1>   0.0800 
 30 H        3.8070    -0.1830     2.1360 H     1 <1>   0.0800 
 31 H        2.6990     0.9920     1.5470 H     1 <1>   0.0800 
 32 H       -0.9670    -3.7250     0.8260 H     1 <1>   0.0800 
 33 H        0.4160    -3.6560     1.8770 H     1 <1>   0.0800 
 34 H        2.4430    -1.7370    -1.3900 H     1 <1>   0.0800 
 35 H        2.1500    -3.2830    -2.1120 H     1 <1>   0.0800 
 36 H        2.0310    -5.3870    -0.5110 H     1 <1>   0.0800 
 37 H        2.2880    -5.1290     1.1860 H     1 <1>   0.0800 
 38 H        4.6850    -2.4450    -0.7110 H     1 <1>   0.0800 
 39 H        4.4730    -2.6360    -2.4300 H     1 <1>   0.0800 
 40 H        4.2890    -6.0350     0.0690 H     1 <1>   0.0800 
 41 H        4.5970    -4.4740     0.7910 H     1 <1>   0.0800 
 42 H        5.4210     0.7470    -2.0680 H     1 <1>   0.0800 
 43 H        4.6140     2.2760    -2.2990 H     1 <1>   0.0800 
 44 H        3.9950     0.8350    -3.0810 H     1 <1>   0.0800 
 45 H        1.4780     0.8880    -1.1730 H     1 <1>   0.0800 
 46 H        2.2020     2.2990    -1.9090 H     1 <1>   0.0800 
 47 H        2.0770     2.1950    -0.1720 H     1 <1>   0.0800 
 48 H        3.9010    -4.9270    -2.0280 H     1 <1>   0.4500 
 49 H        6.1970    -4.1540    -2.5280 H     1 <1>   0.0800 
 50 H        5.9990    -5.7740    -1.9400 H     1 <1>   0.0800 
 51 H        6.7060    -5.0870     0.3190 H     1 <1>   0.0800 
 52 H        6.3280    -2.7430     0.6620 H     1 <1>   0.0800 
 53 H        7.0600    -2.3320    -0.8910 H     1 <1>   0.0800 
 54 H        8.5200    -4.5450    -2.0010 H     1 <1>   0.0800 
 55 H        8.6240    -5.8100    -0.7930 H     1 <1>   0.0800 
 56 H        9.8840    -3.2580    -0.7100 H     1 <1>   0.0800 
 57 H        9.7500    -4.3700     0.6510 H     1 <1>   0.0800 
@<TRIPOS>BOND
  1   1   2  2   
  2   2   3  am  
  3   2   4  1   
  4   3   5  1   
  5   3   6  1   
  6   4   7  1   
  7   4  26  1   
  8   4  27  1   
  9   5   8  1   
 10   5  28  1   
 11   5  29  1   
 12   6   9  1   
 13   6  30  1   
 14   6  31  1   
 15   7  10  1   
 16   7  32  1   
 17   7  33  1   
 18   8  10  1   
 19   8  11  1   
 20   8  12  1   
 21   9  13  2   
 22   9  14  am  
 23  11  15  1   
 24  11  34  1   
 25  11  35  1   
 26  12  16  1   
 27  12  36  1   
 28  12  37  1   
 29  14  17  1   
 30  14  18  1   
 31  15  19  1   
 32  15  38  1   
 33  15  39  1   
 34  16  19  1   
 35  16  40  1   
 36  16  41  1   
 37  17  42  1   
 38  17  43  1   
 39  17  44  1   
 40  18  45  1   
 41  18  46  1   
 42  18  47  1   
 43  19  20  1   
 44  19  48  1   
 45  20  21  1   
 46  20  49  1   
 47  20  50  1   
 48  21  22  1   
 49  21  23  1   
 50  21  51  1   
 51  22  24  1   
 52  22  52  1   
 53  22  53  1   
 54  23  25  1   
 55  23  54  1   
 56  23  55  1   
 57  24  25  1   
 58  25  56  1   
 59  25  57  1   
@<TRIPOS>SUBSTRUCTURE
  1 ****  15 GROUP 4 **** **** 0

# MOE 2024.06 (io_trps.svl 2023.06)
