@<TRIPOS>MOLECULE
NONAME
20 20 1 0 0 
SMALL
USER_CHARGES


@<TRIPOS>ATOM
  1 N        6.8110     0.7190     0.2000 N.pl3 1 <1>  -0.8380 
  2 C        5.8430    -0.1570    -0.3020 C.2   1 <1>  -0.0500 
  3 C        8.1140     0.0250    -0.0420 C.3   1 <1>   0.5780 
  4 C        6.7550     2.0700    -0.4010 C.3   1 <1>   0.2090 
  5 C        6.3750    -1.2800    -0.7740 C.2   1 <1>  -0.0500 
  6 N        7.7670    -1.2890    -0.6710 N.pl3 1 <1>  -0.8380 
  7 C        5.8100     2.9330     0.4280 C.3   1 <1>  -0.2400 
  8 C        8.2720    -2.4460     0.1060 C.3   1 <1>   0.1290 
  9 H        4.8010     0.1130    -0.2750 H     1 <1>   0.1500 
 10 H        8.6280    -0.1180     0.8940 H     1 <1>   0.0800 
 11 H        8.7370     0.5900    -0.7140 H     1 <1>   0.0800 
 12 H        6.4070     2.0060    -1.4190 H     1 <1>   0.0800 
 13 H        7.7340     2.5170    -0.4010 H     1 <1>   0.0800 
 14 H        5.8570    -2.1230    -1.2000 H     1 <1>   0.1500 
 15 H        4.8200     2.5170     0.4150 H     1 <1>   0.0800 
 16 H        5.7730     3.9270     0.0220 H     1 <1>   0.0800 
 17 H        6.1590     2.9850     1.4440 H     1 <1>   0.0800 
 18 H        9.3430    -2.3920     0.1920 H     1 <1>   0.0800 
 19 H        8.0120    -3.3600    -0.4000 H     1 <1>   0.0800 
 20 H        7.8330    -2.4510     1.0890 H     1 <1>   0.0800 
@<TRIPOS>BOND
  1   1   2  1   
  2   1   3  1   
  3   1   4  1   
  4   2   5  2   
  5   2   9  1   
  6   3   6  1   
  7   3  10  1   
  8   3  11  1   
  9   4   7  1   
 10   4  12  1   
 11   4  13  1   
 12   5   6  1   
 13   5  14  1   
 14   6   8  1   
 15   7  15  1   
 16   7  16  1   
 17   7  17  1   
 18   8  18  1   
 19   8  19  1   
 20   8  20  1   
@<TRIPOS>SUBSTRUCTURE
  1 ****   1 GROUP 4 **** **** 0

# MOE 2024.06 (io_trps.svl 2023.06)
