@<TRIPOS>MOLECULE
NONAME
57 61 1 0 0 
SMALL
USER_CHARGES


@<TRIPOS>ATOM
  1 O        0.4470     1.1610    -0.7150 O.2   1 <1>  -0.5700 
  2 C       -0.3770     1.9910    -0.3760 C.2   1 <1>   0.7150 
  3 N       -1.6680     1.8750    -0.8460 N.am  1 <1>  -0.6600 
  4 C        0.0190     3.0510     0.5040 C.2   1 <1>  -0.2370 
  5 C       -2.8250     2.6530    -0.2830 C.3   1 <1>   0.1400 
  6 C       -1.9870     0.9040    -1.9390 C.3   1 <1>   0.1400 
  7 N        0.6640     2.8560     1.6840 N.pl3 1 <1>   0.3140 
  8 C       -0.1220     4.4010     0.3930 C.2   1 <1>  -0.1500 
  9 C       -3.8370     3.0310    -1.3810 C.3   1 <1>   0.1440 
 10 C       -3.4730     0.5290    -1.9440 C.3   1 <1>  -0.1600 
 11 N        0.8990     4.0120     2.3270 N.2   1 <1>  -0.7070 
 12 C        1.0870     1.5660     2.2790 C.3   1 <1>   0.0960 
 13 C        0.4320     4.9310     1.5430 C.2   1 <1>   0.1080 
 14 C       -4.9160     3.8990    -0.7520 C.ar  1 <1>   0.1660 
 15 C       -4.4120     1.7490    -2.0440 C.3   1 <1>  -0.1600 
 16 C       -3.2000     4.0030    -2.4200 C.3   1 <1>  -0.1600 
 17 C        2.5470     1.2480     1.9320 C.3   1 <1>  -0.2400 
 18 C        0.5100     6.3980     1.8930 C.3   1 <1>  -0.0590 
 19 N       -5.8540     3.4760     0.0610 N.ar  1 <1>  -0.6200 
 20 C       -4.7880     5.2050    -1.1100 C.ar  1 <1>  -0.1440 
 21 C       -3.6110     5.4310    -2.0230 C.3   1 <1>  -0.0170 
 22 C       -6.7080     4.4060     0.5110 C.ar  1 <1>   0.6200 
 23 C       -5.6970     6.0990    -0.6070 C.ar  1 <1>   0.1600 
 24 N       -6.6580     5.7100     0.1990 N.ar  1 <1>  -0.6200 
 25 C       -7.7690     3.9670     1.4070 C.ar  1 <1>   0.0000 
 26 C       -7.6190     2.8450     2.2290 C.ar  1 <1>  -0.1500 
 27 C       -8.9890     4.6460     1.4890 C.ar  1 <1>  -0.1500 
 28 C       -8.6250     2.4250     3.0810 C.ar  1 <1>  -0.1500 
 29 C       -9.9990     4.2330     2.3390 C.ar  1 <1>  -0.1500 
 30 C       -9.8190     3.1190     3.1380 C.ar  1 <1>  -0.1500 
 31 H       -2.4920     3.5450     0.2120 H     1 <1>   0.0800 
 32 H       -3.3220     2.0460     0.4550 H     1 <1>   0.0800 
 33 H       -1.3990     0.0090    -1.8150 H     1 <1>   0.0800 
 34 H       -1.7210     1.3460    -2.8830 H     1 <1>   0.0800 
 35 H       -0.5650     4.9560    -0.4130 H     1 <1>   0.1500 
 36 H       -3.6830    -0.0060    -1.0340 H     1 <1>   0.0800 
 37 H       -3.6710    -0.1450    -2.7590 H     1 <1>   0.0800 
 38 H        0.4420     0.7850     1.9240 H     1 <1>   0.0800 
 39 H        0.9770     1.6420     3.3460 H     1 <1>   0.0800 
 40 H       -4.6520     1.9360    -3.0750 H     1 <1>   0.0800 
 41 H       -5.3370     1.4790    -1.5650 H     1 <1>   0.0800 
 42 H       -3.6000     3.8110    -3.3990 H     1 <1>   0.0800 
 43 H       -2.1300     3.9090    -2.4780 H     1 <1>   0.0800 
 44 H        2.6660     1.1610     0.8660 H     1 <1>   0.0800 
 45 H        2.8370     0.3180     2.3860 H     1 <1>   0.0800 
 46 H        3.1920     2.0270     2.2990 H     1 <1>   0.0800 
 47 H        0.0790     6.9960     1.1120 H     1 <1>   0.0800 
 48 H        1.5380     6.6780     2.0260 H     1 <1>   0.0800 
 49 H       -0.0210     6.5750     2.8100 H     1 <1>   0.0800 
 50 H       -3.8820     6.0180    -2.8830 H     1 <1>   0.0800 
 51 H       -2.8200     5.9190    -1.4800 H     1 <1>   0.0800 
 52 H       -5.6360     7.1430    -0.8640 H     1 <1>   0.1500 
 53 H       -6.6970     2.2910     2.2000 H     1 <1>   0.1500 
 54 H       -9.1480     5.5150     0.8750 H     1 <1>   0.1500 
 55 H       -8.4780     1.5570     3.7000 H     1 <1>   0.1500 
 56 H      -10.9250     4.7790     2.3780 H     1 <1>   0.1500 
 57 H      -10.6030     2.7960     3.8000 H     1 <1>   0.1500 
@<TRIPOS>BOND
  1   1   2  2   
  2   2   3  am  
  3   2   4  1   
  4   3   5  1   
  5   3   6  1   
  6   4   7  1   
  7   4   8  2   
  8   5   9  1   
  9   5  31  1   
 10   5  32  1   
 11   6  10  1   
 12   6  33  1   
 13   6  34  1   
 14   7  11  1   
 15   7  12  1   
 16   8  13  1   
 17   8  35  1   
 18   9  14  1   
 19   9  15  1   
 20   9  16  1   
 21  10  15  1   
 22  10  36  1   
 23  10  37  1   
 24  11  13  2   
 25  12  17  1   
 26  12  38  1   
 27  12  39  1   
 28  13  18  1   
 29  14  19  ar  
 30  14  20  ar  
 31  15  40  1   
 32  15  41  1   
 33  16  21  1   
 34  16  42  1   
 35  16  43  1   
 36  17  44  1   
 37  17  45  1   
 38  17  46  1   
 39  18  47  1   
 40  18  48  1   
 41  18  49  1   
 42  19  22  ar  
 43  20  21  1   
 44  20  23  ar  
 45  21  50  1   
 46  21  51  1   
 47  22  24  ar  
 48  22  25  1   
 49  23  24  ar  
 50  23  52  1   
 51  25  26  ar  
 52  25  27  ar  
 53  26  28  ar  
 54  26  53  1   
 55  27  29  ar  
 56  27  54  1   
 57  28  30  ar  
 58  28  55  1   
 59  29  30  ar  
 60  29  56  1   
 61  30  57  1   
@<TRIPOS>SUBSTRUCTURE
  1 ****   5 GROUP 4 **** **** 0

# MOE 2024.06 (io_trps.svl 2023.06)
