@<TRIPOS>MOLECULE
NONAME
40 42 1 0 0 
SMALL
USER_CHARGES


@<TRIPOS>ATOM
  1 O       -1.9620    -2.4170    -0.9150 O.co2 1 <1>  -0.9000 
  2 C       -2.9080    -1.7210    -1.3230 C.2   1 <1>   1.0330 
  3 O       -3.6240    -2.2450    -2.2020 O.co2 1 <1>  -0.9000 
  4 C       -3.4820    -0.6960    -0.4500 C.2   1 <1>   0.0560 
  5 N       -3.5410     0.6210    -0.5530 N.2   1 <1>  -0.7070 
  6 C       -4.1440    -1.1180     0.7120 C.2   1 <1>  -0.1810 
  7 N       -4.2150     1.0350     0.5290 N.pl3 1 <1>   0.3000 
  8 C       -4.5990     0.0030     1.3090 C.2   1 <1>  -0.3020 
  9 C       -4.2400    -2.5910     1.0880 C.3   1 <1>   0.5240 
 10 N       -4.8810    -3.3550    -0.0190 N.4   1 <1>  -0.9590 
 11 C       -6.1440    -2.7870    -0.5760 C.3   1 <1>   0.3430 
 12 C       -5.0250    -4.8160     0.1650 C.3   1 <1>   0.3430 
 13 C       -7.1330    -3.9550    -0.6310 C.3   1 <1>   0.2000 
 14 C       -6.2380    -5.1970    -0.6820 C.3   1 <1>  -0.0800 
 15 O       -7.8910    -3.9610     0.5380 O.3   1 <1>  -0.6800 
 16 C       -6.9060    -6.5240    -0.2680 C.3   1 <1>   0.0200 
 17 C       -5.8820    -7.6340    -0.1390 C.2   1 <1>  -0.0400 
 18 O       -5.0460    -7.8700    -1.1140 O.3   1 <1>  -0.0190 
 19 C       -5.6160    -8.4990     0.8520 C.2   1 <1>  -0.1500 
 20 N       -4.2280    -8.8390    -0.8240 N.2   1 <1>  -0.4100 
 21 C       -4.5510    -9.2420     0.3520 C.2   1 <1>   0.1080 
 22 C       -3.8600   -10.3740     1.0800 C.3   1 <1>  -0.0590 
 23 H       -4.3960     2.0310     0.7050 H     1 <1>   0.2700 
 24 H       -5.1530     0.1390     2.2190 H     1 <1>   0.1500 
 25 H       -4.8100    -2.6960     1.9950 H     1 <1>   0.0800 
 26 H       -3.2440    -2.9700     1.2550 H     1 <1>   0.0800 
 27 H       -4.2100    -3.2350    -0.8260 H     1 <1>   0.4500 
 28 H       -6.5260    -1.9770     0.0200 H     1 <1>   0.0800 
 29 H       -5.9470    -2.4260    -1.5750 H     1 <1>   0.0800 
 30 H       -4.1380    -5.3420    -0.1590 H     1 <1>   0.0800 
 31 H       -5.2190    -5.0420     1.2000 H     1 <1>   0.0800 
 32 H       -7.8050    -3.8840    -1.4700 H     1 <1>   0.0800 
 33 H       -5.8830    -5.3060    -1.6940 H     1 <1>   0.0800 
 34 H       -7.3310    -3.8730     1.3320 H     1 <1>   0.4000 
 35 H       -7.6350    -6.8020    -1.0100 H     1 <1>   0.0800 
 36 H       -7.4170    -6.4280     0.6730 H     1 <1>   0.0800 
 37 H       -6.0860    -8.6250     1.8100 H     1 <1>   0.1500 
 38 H       -3.5350   -10.0430     2.0500 H     1 <1>   0.0800 
 39 H       -3.0020   -10.7000     0.5200 H     1 <1>   0.0800 
 40 H       -4.5350   -11.2010     1.1940 H     1 <1>   0.0800 
@<TRIPOS>BOND
  1   1   2  ar  
  2   2   3  ar  
  3   2   4  1   
  4   4   5  2   
  5   4   6  1   
  6   5   7  1   
  7   6   8  2   
  8   6   9  1   
  9   7   8  1   
 10   7  23  1   
 11   8  24  1   
 12   9  10  1   
 13   9  25  1   
 14   9  26  1   
 15  10  11  1   
 16  10  12  1   
 17  10  27  1   
 18  11  13  1   
 19  11  28  1   
 20  11  29  1   
 21  12  14  1   
 22  12  30  1   
 23  12  31  1   
 24  13  14  1   
 25  13  15  1   
 26  13  32  1   
 27  14  16  1   
 28  14  33  1   
 29  15  34  1   
 30  16  17  1   
 31  16  35  1   
 32  16  36  1   
 33  17  18  1   
 34  17  19  2   
 35  18  20  1   
 36  19  21  1   
 37  19  37  1   
 38  20  21  2   
 39  21  22  1   
 40  22  38  1   
 41  22  39  1   
 42  22  40  1   
@<TRIPOS>SUBSTRUCTURE
  1 ****  12 GROUP 4 **** **** 0

# MOE 2024.06 (io_trps.svl 2023.06)
