@<TRIPOS>MOLECULE
NONAME
49 51 1 0 0 
SMALL
USER_CHARGES


@<TRIPOS>ATOM
  1 O        0.2670     1.4430     1.0240 O.co2 1 <1>  -0.9000 
  2 C        0.4920     1.9900    -0.0670 C.2   1 <1>   0.9060 
  3 O        1.6040     2.0370    -0.5930 O.co2 1 <1>  -0.9000 
  4 C       -0.6990     2.7790    -0.6630 C.3   1 <1>   0.3170 
  5 N       -1.8170     2.8340     0.3640 N.4   1 <1>  -0.9590 
  6 C       -0.3090     4.2400    -0.8680 C.3   1 <1>  -0.1600 
  7 C       -1.7220     4.1600     1.0510 C.3   1 <1>   0.3430 
  8 C       -3.1560     2.4460    -0.1490 C.3   1 <1>   0.2630 
  9 C       -0.4210     4.7970     0.5380 C.3   1 <1>   0.2890 
 10 N       -0.3940     6.2790     0.5010 N.pl3 1 <1>  -0.8690 
 11 C        0.6970     7.0620     0.4830 C.ar  1 <1>   0.4100 
 12 N        0.4530     8.3500     0.4960 N.ar  1 <1>  -0.6200 
 13 C        2.0080     6.5460     0.4420 C.ar  1 <1>  -0.1500 
 14 C        1.4870     9.1840     0.4800 C.ar  1 <1>   0.7710 
 15 C        3.0490     7.4090     0.4170 C.ar  1 <1>   0.2180 
 16 N        2.7540     8.7300     0.4360 N.ar  1 <1>  -0.1790 
 17 N        1.2720    10.5280     0.4990 N.pl3 1 <1>  -0.8380 
 18 C        4.5030     6.9700     0.3630 C.3   1 <1>  -0.0970 
 19 C        2.2980    11.6100     0.6290 C.3   1 <1>   0.2090 
 20 C       -0.1050    11.1100     0.3570 C.3   1 <1>   0.2090 
 21 C        2.3050    12.4510    -0.6500 C.3   1 <1>  -0.1600 
 22 C       -0.1600    11.9570    -0.9190 C.3   1 <1>  -0.1600 
 23 C        0.9190    13.0500    -0.9290 C.3   1 <1>  -0.1600 
 24 H       -1.0060     2.3070    -1.5790 H     1 <1>   0.0800 
 25 H       -1.4510     2.1070     1.0350 H     1 <1>   0.4500 
 26 H        0.6850     4.3330    -1.2690 H     1 <1>   0.0800 
 27 H       -1.0100     4.7120    -1.5320 H     1 <1>   0.0800 
 28 H       -2.5570     4.7770     0.7670 H     1 <1>   0.0800 
 29 H       -1.6950     4.0400     2.1210 H     1 <1>   0.0800 
 30 H       -3.4880     3.1500    -0.8930 H     1 <1>   0.0800 
 31 H       -3.8700     2.4240     0.6580 H     1 <1>   0.0800 
 32 H       -3.1090     1.4650    -0.5930 H     1 <1>   0.0800 
 33 H        0.3880     4.4320     1.1500 H     1 <1>   0.0800 
 34 H       -1.2930     6.7670     0.4470 H     1 <1>   0.4000 
 35 H        2.1670     5.4830     0.4240 H     1 <1>   0.1500 
 36 H        3.4690     9.4410     0.3940 H     1 <1>   0.4570 
 37 H        4.5700     5.8960     0.3480 H     1 <1>   0.0800 
 38 H        5.0370     7.3270     1.2260 H     1 <1>   0.0800 
 39 H        4.9770     7.3460    -0.5270 H     1 <1>   0.0800 
 40 H        2.0400    12.2390     1.4660 H     1 <1>   0.0800 
 41 H        3.2820    11.2190     0.8140 H     1 <1>   0.0800 
 42 H       -0.8670    10.3520     0.3060 H     1 <1>   0.0800 
 43 H       -0.3220    11.7270     1.2130 H     1 <1>   0.0800 
 44 H        3.0210    13.2480    -0.5510 H     1 <1>   0.0800 
 45 H        2.6080    11.8390    -1.4810 H     1 <1>   0.0800 
 46 H       -0.0340    11.3110    -1.7700 H     1 <1>   0.0800 
 47 H       -1.1320    12.4130    -0.9990 H     1 <1>   0.0800 
 48 H        0.9210    13.5520    -1.8820 H     1 <1>   0.0800 
 49 H        0.6880    13.7820    -0.1730 H     1 <1>   0.0800 
@<TRIPOS>BOND
  1   1   2  ar  
  2   2   3  ar  
  3   2   4  1   
  4   4   5  1   
  5   4   6  1   
  6   4  24  1   
  7   5   7  1   
  8   5   8  1   
  9   5  25  1   
 10   6   9  1   
 11   6  26  1   
 12   6  27  1   
 13   7   9  1   
 14   7  28  1   
 15   7  29  1   
 16   8  30  1   
 17   8  31  1   
 18   8  32  1   
 19   9  10  1   
 20   9  33  1   
 21  10  11  1   
 22  10  34  1   
 23  11  12  ar  
 24  11  13  ar  
 25  12  14  ar  
 26  13  15  ar  
 27  13  35  1   
 28  14  16  ar  
 29  14  17  1   
 30  15  16  ar  
 31  15  18  1   
 32  16  36  1   
 33  17  19  1   
 34  17  20  1   
 35  18  37  1   
 36  18  38  1   
 37  18  39  1   
 38  19  21  1   
 39  19  40  1   
 40  19  41  1   
 41  20  22  1   
 42  20  42  1   
 43  20  43  1   
 44  21  23  1   
 45  21  44  1   
 46  21  45  1   
 47  22  23  1   
 48  22  46  1   
 49  22  47  1   
 50  23  48  1   
 51  23  49  1   
@<TRIPOS>SUBSTRUCTURE
  1 ****  11 GROUP 4 **** **** 0

# MOE 2024.06 (io_trps.svl 2023.06)
