@<TRIPOS>MOLECULE
NONAME
41 42 1 0 0 
SMALL
USER_CHARGES


@<TRIPOS>ATOM
  1 CL       0.3070     0.0870     0.6820 Cl    1 <1>  -0.1770 
  2 C       -0.8640     1.3940     0.6300 C.ar  1 <1>   0.1770 
  3 C       -0.6580     2.5340    -0.1690 C.ar  1 <1>   0.4100 
  4 C       -1.9840     1.2750     1.4150 C.ar  1 <1>  -0.1500 
  5 N       -1.5070     3.5650    -0.1660 N.ar  1 <1>  -0.6200 
  6 N        0.4500     2.6610    -1.0130 N.pl3 1 <1>  -0.8380 
  7 C       -2.8750     2.3290     1.3800 C.ar  1 <1>  -0.1500 
  8 C       -2.5910     3.4270     0.5880 C.ar  1 <1>   0.1600 
  9 C        0.9520     4.0100    -1.4010 C.3   1 <1>   0.2090 
 10 C        0.6200     1.6280    -2.0790 C.3   1 <1>   0.1290 
 11 C        1.3390     4.8200    -0.1470 C.3   1 <1>   0.3430 
 12 N        1.0600     6.2980    -0.2680 N.4   1 <1>  -0.9590 
 13 C        1.7230     7.0720     0.8180 C.3   1 <1>   0.4230 
 14 C       -0.4280     6.5070    -0.2520 C.3   1 <1>   0.2630 
 15 C        1.5450     8.5870     0.6250 C.3   1 <1>  -0.1600 
 16 C        3.2380     6.8380     0.8310 C.3   1 <1>  -0.1600 
 17 C        2.9450     9.2010     0.5480 C.3   1 <1>  -0.1600 
 18 C        3.8590     8.1790     1.2080 C.3   1 <1>  -0.1600 
 19 H       -2.1520     0.4040     2.0240 H     1 <1>   0.1500 
 20 H       -3.7790     2.2970     1.9630 H     1 <1>   0.1500 
 21 H       -3.3010     4.2370     0.5740 H     1 <1>   0.1500 
 22 H        0.1850     4.5070    -1.9670 H     1 <1>   0.0800 
 23 H        1.8210     3.9020    -2.0260 H     1 <1>   0.0800 
 24 H       -0.1190     0.8510    -1.9790 H     1 <1>   0.0800 
 25 H        1.5970     1.1830    -2.0000 H     1 <1>   0.0800 
 26 H        0.5100     2.0700    -3.0540 H     1 <1>   0.0800 
 27 H        2.3830     4.6490     0.0460 H     1 <1>   0.0800 
 28 H        0.7830     4.4320     0.6910 H     1 <1>   0.0800 
 29 H        1.4450     6.6420    -1.1570 H     1 <1>   0.4500 
 30 H        1.3130     6.7920     1.7770 H     1 <1>   0.0800 
 31 H       -0.8420     6.1480     0.6760 H     1 <1>   0.0800 
 32 H       -0.8960     5.9630    -1.0570 H     1 <1>   0.0800 
 33 H       -0.6710     7.5510    -0.3600 H     1 <1>   0.0800 
 34 H        1.0400     8.9830     1.4890 H     1 <1>   0.0800 
 35 H        0.9850     8.8490    -0.2550 H     1 <1>   0.0800 
 36 H        3.5920     6.5700    -0.1490 H     1 <1>   0.0800 
 37 H        3.5170     6.0760     1.5390 H     1 <1>   0.0800 
 38 H        2.9960    10.1600     1.0360 H     1 <1>   0.0800 
 39 H        3.2340     9.3230    -0.4840 H     1 <1>   0.0800 
 40 H        4.8780     8.2690     0.8700 H     1 <1>   0.0800 
 41 H        3.8330     8.3090     2.2780 H     1 <1>   0.0800 
@<TRIPOS>BOND
  1   1   2  1   
  2   2   3  ar  
  3   2   4  ar  
  4   3   5  ar  
  5   3   6  1   
  6   4   7  ar  
  7   4  19  1   
  8   5   8  ar  
  9   6   9  1   
 10   6  10  1   
 11   7   8  ar  
 12   7  20  1   
 13   8  21  1   
 14   9  11  1   
 15   9  22  1   
 16   9  23  1   
 17  10  24  1   
 18  10  25  1   
 19  10  26  1   
 20  11  12  1   
 21  11  27  1   
 22  11  28  1   
 23  12  13  1   
 24  12  14  1   
 25  12  29  1   
 26  13  15  1   
 27  13  16  1   
 28  13  30  1   
 29  14  31  1   
 30  14  32  1   
 31  14  33  1   
 32  15  17  1   
 33  15  34  1   
 34  15  35  1   
 35  16  18  1   
 36  16  36  1   
 37  16  37  1   
 38  17  18  1   
 39  17  38  1   
 40  17  39  1   
 41  18  40  1   
 42  18  41  1   
@<TRIPOS>SUBSTRUCTURE
  1 ****  11 GROUP 4 **** **** 0

# MOE 2024.06 (io_trps.svl 2023.06)
