@<TRIPOS>MOLECULE
NONAME
42 43 1 0 0 
SMALL
USER_CHARGES


@<TRIPOS>ATOM
  1 S        0.4080     0.2150     0.5960 S.o2  1 <1>   1.3330 
  2 O       -0.9480    -0.1620     0.9240 O.2   1 <1>  -0.6500 
  3 O        1.3890     0.3230     1.6530 O.2   1 <1>  -0.6500 
  4 N        1.0050    -0.8860    -0.5480 N.am  1 <1>  -0.8490 
  5 C        0.3360     1.7530    -0.3210 C.3   1 <1>  -0.0550 
  6 C        2.4570    -0.7930    -0.7400 C.3   1 <1>   0.1160 
  7 C        0.6330    -2.2660    -0.2280 C.3   1 <1>   0.1160 
  8 C       -0.2040     2.9350     0.5030 C.3   1 <1>  -0.0800 
  9 C       -0.4240     4.1600    -0.3870 C.3   1 <1>   0.2000 
 10 C        0.7580     3.3960     1.6100 C.3   1 <1>   0.1400 
 11 O       -1.7370     4.2050    -0.8270 O.3   1 <1>  -0.6800 
 12 C       -0.0810     5.3720     0.4700 C.3   1 <1>   0.1400 
 13 N        0.9210     4.8590     1.4320 N.am  1 <1>  -0.6600 
 14 C        2.0900     5.4830     1.7970 C.2   1 <1>   0.5440 
 15 O        2.7230     5.0400     2.7330 O.2   1 <1>  -0.5700 
 16 C        2.6060     6.6200     1.0680 C.ar  1 <1>   0.0860 
 17 C        3.1070     6.4730    -0.2320 C.ar  1 <1>   0.0730 
 18 C        2.6260     7.8830     1.6560 C.ar  1 <1>  -0.1500 
 19 C        3.1100     5.1890    -0.8750 C.1   1 <1>   0.4840 
 20 C        3.5960     7.5870    -0.9050 C.ar  1 <1>  -0.1500 
 21 C        3.1140     8.9830     0.9770 C.ar  1 <1>  -0.1500 
 22 N        3.0560     4.1720    -1.3900 N.1   1 <1>  -0.5570 
 23 C        3.6000     8.8350    -0.3090 C.ar  1 <1>  -0.1500 
 24 H        1.3120     2.0000    -0.6910 H     1 <1>   0.0800 
 25 H       -0.3060     1.6080    -1.1690 H     1 <1>   0.0800 
 26 H        2.7690    -1.4560    -1.5290 H     1 <1>   0.0800 
 27 H        2.9760    -1.0580     0.1670 H     1 <1>   0.0800 
 28 H        2.7350     0.2110    -1.0140 H     1 <1>   0.0800 
 29 H        1.0080    -2.9380    -0.9800 H     1 <1>   0.0800 
 30 H       -0.4400    -2.3610    -0.1970 H     1 <1>   0.0800 
 31 H        1.0320    -2.5480     0.7320 H     1 <1>   0.0800 
 32 H       -1.1310     2.6500     0.9720 H     1 <1>   0.0800 
 33 H        0.2180     4.1390    -1.2510 H     1 <1>   0.0800 
 34 H        1.7200     2.9170     1.5270 H     1 <1>   0.0800 
 35 H        0.3530     3.1900     2.5870 H     1 <1>   0.0800 
 36 H       -2.3570     4.1120    -0.0770 H     1 <1>   0.4000 
 37 H       -0.9450     5.7070     1.0180 H     1 <1>   0.0800 
 38 H        0.3040     6.1740    -0.1330 H     1 <1>   0.0800 
 39 H        2.2570     7.9950     2.6620 H     1 <1>   0.1500 
 40 H        3.9810     7.4830    -1.9060 H     1 <1>   0.1500 
 41 H        3.1200     9.9520     1.4480 H     1 <1>   0.1500 
 42 H        3.9820     9.6900    -0.8420 H     1 <1>   0.1500 
@<TRIPOS>BOND
  1   1   2  2   
  2   1   3  2   
  3   1   4  am  
  4   1   5  1   
  5   4   6  1   
  6   4   7  1   
  7   5   8  1   
  8   5  24  1   
  9   5  25  1   
 10   6  26  1   
 11   6  27  1   
 12   6  28  1   
 13   7  29  1   
 14   7  30  1   
 15   7  31  1   
 16   8   9  1   
 17   8  10  1   
 18   8  32  1   
 19   9  11  1   
 20   9  12  1   
 21   9  33  1   
 22  10  13  1   
 23  10  34  1   
 24  10  35  1   
 25  11  36  1   
 26  12  13  1   
 27  12  37  1   
 28  12  38  1   
 29  13  14  am  
 30  14  15  2   
 31  14  16  1   
 32  16  17  ar  
 33  16  18  ar  
 34  17  19  1   
 35  17  20  ar  
 36  18  21  ar  
 37  18  39  1   
 38  19  22  3   
 39  20  23  ar  
 40  20  40  1   
 41  21  23  ar  
 42  21  41  1   
 43  23  42  1   
@<TRIPOS>SUBSTRUCTURE
  1 ****  10 GROUP 4 **** **** 0

# MOE 2024.06 (io_trps.svl 2023.06)
