@<TRIPOS>MOLECULE
NONAME
43 45 1 0 0 
SMALL
USER_CHARGES


@<TRIPOS>ATOM
  1 O       -0.2840     0.2440    -0.1270 O.2   1 <1>  -0.5700 
  2 C       -1.3070     0.8470     0.1360 C.2   1 <1>   0.5440 
  3 N       -2.4750     0.1330     0.2770 N.am  1 <1>  -0.6600 
  4 C       -1.2660     2.2780     0.2700 C.ar  1 <1>   0.0860 
  5 C       -3.8370     0.6730     0.0120 C.3   1 <1>   0.1400 
  6 C       -2.4930    -1.3520     0.2160 C.3   1 <1>   0.1400 
  7 C       -1.9740     2.9690     1.2370 C.ar  1 <1>   0.1600 
  8 C       -0.4980     3.0670    -0.5650 C.ar  1 <1>   0.1600 
  9 C       -4.6430    -0.5260    -0.4830 C.3   1 <1>   0.2000 
 10 C       -3.9700    -1.7420     0.1430 C.3   1 <1>  -0.0800 
 11 N       -1.9630     4.2750     1.3470 N.ar  1 <1>  -0.6200 
 12 N       -0.4590     4.3760    -0.4860 N.ar  1 <1>  -0.6200 
 13 O       -5.9680    -0.4500    -0.0860 O.3   1 <1>  -0.6800 
 14 C       -4.2220    -3.0460    -0.6290 C.3   1 <1>   0.0210 
 15 C       -1.2030     4.9200     0.4720 C.ar  1 <1>   0.7200 
 16 C       -3.4210    -4.1900    -0.0380 C.2   1 <1>   0.1080 
 17 N       -1.2130     6.2610     0.6040 N.pl3 1 <1>  -0.8690 
 18 N       -3.5190    -4.5500     1.2040 N.2   1 <1>  -0.7070 
 19 C       -2.4990    -4.9600    -0.7380 C.2   1 <1>  -0.1500 
 20 C       -0.4320     7.2570    -0.1710 C.3   1 <1>   0.1290 
 21 N       -2.6530    -5.5740     1.3300 N.pl3 1 <1>   0.3000 
 22 C       -2.0220    -5.8390     0.1670 C.2   1 <1>  -0.3320 
 23 C       -0.9840    -6.9320    -0.0090 C.3   1 <1>  -0.0600 
 24 H       -4.2530     1.0510     0.9290 H     1 <1>   0.0800 
 25 H       -3.8070     1.4470    -0.7350 H     1 <1>   0.0800 
 26 H       -1.9650    -1.6770    -0.6650 H     1 <1>   0.0800 
 27 H       -2.0190    -1.7770     1.0860 H     1 <1>   0.0800 
 28 H       -2.5660     2.4130     1.9440 H     1 <1>   0.1500 
 29 H        0.0990     2.5870    -1.3230 H     1 <1>   0.1500 
 30 H       -4.6120    -0.5660    -1.5590 H     1 <1>   0.0800 
 31 H       -4.3110    -1.8630     1.1560 H     1 <1>   0.0800 
 32 H       -6.0440    -0.6020     0.8760 H     1 <1>   0.4000 
 33 H       -3.9560    -2.9220    -1.6630 H     1 <1>   0.0800 
 34 H       -5.2670    -3.2950    -0.5800 H     1 <1>   0.0800 
 35 H       -1.7830     6.6020     1.3780 H     1 <1>   0.4000 
 36 H       -2.2400    -4.8570    -1.7770 H     1 <1>   0.1500 
 37 H        0.1180     6.7810    -0.9640 H     1 <1>   0.0800 
 38 H        0.2650     7.7570     0.4800 H     1 <1>   0.0800 
 39 H       -1.0980     7.9840    -0.6010 H     1 <1>   0.0800 
 40 H       -2.5170    -6.0680     2.2200 H     1 <1>   0.2700 
 41 H       -0.6290    -6.9440    -1.0240 H     1 <1>   0.0800 
 42 H       -1.4140    -7.8930     0.2150 H     1 <1>   0.0800 
 43 H       -0.1470    -6.7600     0.6440 H     1 <1>   0.0800 
@<TRIPOS>BOND
  1   1   2  2   
  2   2   3  am  
  3   2   4  1   
  4   3   5  1   
  5   3   6  1   
  6   4   7  ar  
  7   4   8  ar  
  8   5   9  1   
  9   5  24  1   
 10   5  25  1   
 11   6  10  1   
 12   6  26  1   
 13   6  27  1   
 14   7  11  ar  
 15   7  28  1   
 16   8  12  ar  
 17   8  29  1   
 18   9  10  1   
 19   9  13  1   
 20   9  30  1   
 21  10  14  1   
 22  10  31  1   
 23  11  15  ar  
 24  12  15  ar  
 25  13  32  1   
 26  14  16  1   
 27  14  33  1   
 28  14  34  1   
 29  15  17  1   
 30  16  18  2   
 31  16  19  1   
 32  17  20  1   
 33  17  35  1   
 34  18  21  1   
 35  19  22  2   
 36  19  36  1   
 37  20  37  1   
 38  20  38  1   
 39  20  39  1   
 40  21  22  1   
 41  21  40  1   
 42  22  23  1   
 43  23  41  1   
 44  23  42  1   
 45  23  43  1   
@<TRIPOS>SUBSTRUCTURE
  1 ****   3 GROUP 4 **** **** 0

# MOE 2024.06 (io_trps.svl 2023.06)
