@<TRIPOS>MOLECULE
NONAME
45 48 1 0 0 
SMALL
USER_CHARGES


@<TRIPOS>ATOM
  1 N       -0.5300     0.6450    -0.6880 N.ar  1 <1>  -0.6200 
  2 C       -0.4260     1.8300    -0.1000 C.ar  1 <1>   0.4100 
  3 C        0.5650     0.2920    -1.3320 C.ar  1 <1>   0.1660 
  4 N       -1.5640     2.2660     0.5590 N.pl3 1 <1>  -0.8380 
  5 C        0.7520     2.6110    -0.1610 C.ar  1 <1>   0.1660 
  6 C        1.7130     1.0740    -1.3920 C.ar  1 <1>   0.1600 
  7 C        0.5100    -1.0510    -2.0300 C.3   1 <1>  -0.0960 
  8 C       -2.6210     2.8350    -0.3270 C.3   1 <1>   0.2090 
  9 C       -2.1320     1.3490     1.5790 C.3   1 <1>   0.2090 
 10 N        1.8430     2.2560    -0.8100 N.ar  1 <1>  -0.6200 
 11 C        0.8260     3.9580     0.5390 C.3   1 <1>  -0.0970 
 12 C       -3.6170     3.6780     0.4920 C.3   1 <1>   0.1430 
 13 C       -3.1220     2.1160     2.4640 C.3   1 <1>  -0.1600 
 14 C       -4.7260     4.2060    -0.3970 C.ar  1 <1>   0.1670 
 15 C       -4.2130     2.8240     1.6350 C.3   1 <1>  -0.1600 
 16 C       -2.9710     4.9860     1.0270 C.3   1 <1>  -0.1600 
 17 N       -5.4150     3.4940    -1.2560 N.ar  1 <1>  -0.6200 
 18 C       -4.9340     5.5410    -0.2040 C.ar  1 <1>  -0.1440 
 19 C       -4.0060     6.1090     0.8400 C.3   1 <1>  -0.0160 
 20 C       -6.3210     4.1880    -1.9270 C.ar  1 <1>   0.7200 
 21 C       -5.9140     6.1500    -0.9490 C.ar  1 <1>   0.1600 
 22 N       -6.6260     5.4740    -1.8230 N.ar  1 <1>  -0.6200 
 23 N       -7.0420     3.4930    -2.8080 N.pl3 1 <1>  -0.9000 
 24 H        2.5630     0.7120    -1.9410 H     1 <1>   0.1500 
 25 H       -0.2970    -1.0530    -2.7390 H     1 <1>   0.0800 
 26 H        0.3330    -1.8240    -1.3040 H     1 <1>   0.0800 
 27 H        1.4290    -1.2610    -2.5460 H     1 <1>   0.0800 
 28 H       -3.1450     2.0270    -0.8100 H     1 <1>   0.0800 
 29 H       -2.1710     3.4390    -1.0950 H     1 <1>   0.0800 
 30 H       -1.3360     0.9420     2.1800 H     1 <1>   0.0800 
 31 H       -2.6330     0.5330     1.0850 H     1 <1>   0.0800 
 32 H        0.1980     3.9720     1.4100 H     1 <1>   0.0800 
 33 H        0.5100     4.7280    -0.1380 H     1 <1>   0.0800 
 34 H        1.8360     4.1560     0.8480 H     1 <1>   0.0800 
 35 H       -2.5720     2.8320     3.0480 H     1 <1>   0.0800 
 36 H       -3.5830     1.4280     3.1500 H     1 <1>   0.0800 
 37 H       -4.8490     2.0720     1.1990 H     1 <1>   0.0800 
 38 H       -4.8260     3.4340     2.2740 H     1 <1>   0.0800 
 39 H       -2.1080     5.2220     0.4290 H     1 <1>   0.0800 
 40 H       -2.6530     4.9070     2.0500 H     1 <1>   0.0800 
 41 H       -3.5430     7.0220     0.5090 H     1 <1>   0.0800 
 42 H       -4.5500     6.2800     1.7530 H     1 <1>   0.0800 
 43 H       -6.1160     7.2010    -0.8290 H     1 <1>   0.1500 
 44 H       -7.9200     3.9240    -3.0820 H     1 <1>   0.4000 
 45 H       -7.0420     2.4880    -2.6690 H     1 <1>   0.4000 
@<TRIPOS>BOND
  1   1   2  ar  
  2   1   3  ar  
  3   2   4  1   
  4   2   5  ar  
  5   3   6  ar  
  6   3   7  1   
  7   4   8  1   
  8   4   9  1   
  9   5  10  ar  
 10   5  11  1   
 11   6  10  ar  
 12   6  24  1   
 13   7  25  1   
 14   7  26  1   
 15   7  27  1   
 16   8  12  1   
 17   8  28  1   
 18   8  29  1   
 19   9  13  1   
 20   9  30  1   
 21   9  31  1   
 22  11  32  1   
 23  11  33  1   
 24  11  34  1   
 25  12  14  1   
 26  12  15  1   
 27  12  16  1   
 28  13  15  1   
 29  13  35  1   
 30  13  36  1   
 31  14  17  ar  
 32  14  18  ar  
 33  15  37  1   
 34  15  38  1   
 35  16  19  1   
 36  16  39  1   
 37  16  40  1   
 38  17  20  ar  
 39  18  19  1   
 40  18  21  ar  
 41  19  41  1   
 42  19  42  1   
 43  20  22  ar  
 44  20  23  1   
 45  21  22  ar  
 46  21  43  1   
 47  23  44  1   
 48  23  45  1   
@<TRIPOS>SUBSTRUCTURE
  1 ****   8 GROUP 4 **** **** 0

# MOE 2024.06 (io_trps.svl 2023.06)
