@<TRIPOS>MOLECULE
NONAME
44 46 1 0 0 
SMALL
USER_CHARGES


@<TRIPOS>ATOM
  1 F        0.5030     1.7810     0.8440 F     1 <1>  -0.1900 
  2 C        1.6230     1.4960     0.2290 C.ar  1 <1>   0.1900 
  3 C        1.9440     0.1850    -0.1390 C.ar  1 <1>   0.0820 
  4 C        2.4630     2.5600    -0.0290 C.ar  1 <1>  -0.1500 
  5 O        1.2000    -0.9340     0.0620 O.3   1 <1>  -0.3630 
  6 C        3.1560    -0.0080    -0.7840 C.ar  1 <1>  -0.1500 
  7 C        3.6860     2.3640    -0.6730 C.ar  1 <1>   0.0860 
  8 C       -0.0810    -0.9230     0.6530 C.3   1 <1>   0.0400 
  9 C        4.0040     1.0550    -1.0450 C.ar  1 <1>  -0.1500 
 10 C        4.5930     3.4670    -0.9470 C.2   1 <1>   0.5440 
 11 O        5.5950     3.3280    -1.6250 O.2   1 <1>  -0.5700 
 12 N        4.4010     4.7160    -0.4170 N.am  1 <1>  -0.6600 
 13 C        4.9910     4.9850     0.9410 C.3   1 <1>   0.2200 
 14 C        4.2090     5.8540    -1.3690 C.3   1 <1>   0.1400 
 15 C        4.3230     6.1670     1.6610 C.3   1 <1>   0.1200 
 16 C        6.5290     5.1870     0.8650 C.3   1 <1>   0.3430 
 17 C        5.0730     7.0990    -1.0880 C.3   1 <1>  -0.0800 
 18 O        4.9390     7.3690     1.3100 O.3   1 <1>  -0.5600 
 19 N        7.0120     5.5110    -0.5220 N.4   1 <1>  -0.9590 
 20 C        4.5450     7.9200     0.0990 C.3   1 <1>   0.1200 
 21 C        6.5970     6.8630    -1.0120 C.3   1 <1>   0.3430 
 22 C        8.4790     5.2990    -0.6580 C.3   1 <1>   0.2630 
 23 H        2.1550     3.5440     0.2720 H     1 <1>   0.1500 
 24 H        3.4300    -1.0060    -1.0830 H     1 <1>   0.1500 
 25 H       -0.4520    -1.9320     0.6650 H     1 <1>   0.0800 
 26 H       -0.7340    -0.3010     0.0670 H     1 <1>   0.0800 
 27 H        0.0010    -0.5550     1.6610 H     1 <1>   0.0800 
 28 H        4.9350     0.8640    -1.5520 H     1 <1>   0.1500 
 29 H        4.8070     4.1180     1.5520 H     1 <1>   0.0800 
 30 H        4.4210     5.5100    -2.3690 H     1 <1>   0.0800 
 31 H        3.1700     6.1360    -1.3530 H     1 <1>   0.0800 
 32 H        4.4590     6.0560     2.7230 H     1 <1>   0.0800 
 33 H        3.2650     6.2160     1.4610 H     1 <1>   0.0800 
 34 H        6.9930     4.2710     1.1890 H     1 <1>   0.0800 
 35 H        6.8270     5.9610     1.5530 H     1 <1>   0.0800 
 36 H        4.9250     7.7420    -1.9370 H     1 <1>   0.0800 
 37 H        6.5240     4.8070    -1.1240 H     1 <1>   0.4500 
 38 H        3.4700     8.0040     0.0820 H     1 <1>   0.0800 
 39 H        4.9550     8.9150     0.0640 H     1 <1>   0.0800 
 40 H        7.0350     7.6220    -0.3840 H     1 <1>   0.0800 
 41 H        6.9990     6.9950    -2.0030 H     1 <1>   0.0800 
 42 H        9.0180     5.9850    -0.0260 H     1 <1>   0.0800 
 43 H        8.7840     5.4530    -1.6800 H     1 <1>   0.0800 
 44 H        8.7360     4.2900    -0.3760 H     1 <1>   0.0800 
@<TRIPOS>BOND
  1   1   2  1   
  2   2   3  ar  
  3   2   4  ar  
  4   3   5  1   
  5   3   6  ar  
  6   4   7  ar  
  7   4  23  1   
  8   5   8  1   
  9   6   9  ar  
 10   6  24  1   
 11   7   9  ar  
 12   7  10  1   
 13   8  25  1   
 14   8  26  1   
 15   8  27  1   
 16   9  28  1   
 17  10  11  2   
 18  10  12  am  
 19  12  13  1   
 20  12  14  1   
 21  13  15  1   
 22  13  16  1   
 23  13  29  1   
 24  14  17  1   
 25  14  30  1   
 26  14  31  1   
 27  15  18  1   
 28  15  32  1   
 29  15  33  1   
 30  16  19  1   
 31  16  34  1   
 32  16  35  1   
 33  17  20  1   
 34  17  21  1   
 35  17  36  1   
 36  18  20  1   
 37  19  21  1   
 38  19  22  1   
 39  19  37  1   
 40  20  38  1   
 41  20  39  1   
 42  21  40  1   
 43  21  41  1   
 44  22  42  1   
 45  22  43  1   
 46  22  44  1   
@<TRIPOS>SUBSTRUCTURE
  1 ****  10 GROUP 4 **** **** 0

# MOE 2024.06 (io_trps.svl 2023.06)
