@<TRIPOS>MOLECULE
NONAME
54 55 1 0 0 
SMALL
USER_CHARGES


@<TRIPOS>ATOM
  1 O       -0.2560     0.5310    -0.8240 O.2   1 <1>  -0.5700 
  2 C       -1.1910     0.9910    -0.2110 C.2   1 <1>   0.5690 
  3 N       -2.1750     0.1960     0.3250 N.am  1 <1>  -0.6600 
  4 C       -1.2380     2.5040    -0.0300 C.3   1 <1>  -0.0990 
  5 C       -2.1910    -1.2700     0.0240 C.3   1 <1>   0.2200 
  6 C       -3.2470     0.7170     1.2300 C.3   1 <1>   0.0600 
  7 C       -0.4350     3.2750    -1.0960 C.3   1 <1>  -0.0990 
  8 C       -3.5750    -1.7410    -0.4520 C.3   1 <1>  -0.1600 
  9 C       -1.7110    -2.0760     1.2400 C.3   1 <1>  -0.1600 
 10 C       -0.4770     4.7670    -0.8440 C.2   1 <1>   0.5690 
 11 C       -3.5620    -3.2450    -0.7640 C.3   1 <1>  -0.1600 
 12 C       -1.7070    -3.5810     0.9340 C.3   1 <1>  -0.1600 
 13 O       -1.5280     5.3400    -0.9920 O.2   1 <1>  -0.5700 
 14 N        0.6820     5.3790    -0.4550 N.am  1 <1>  -0.4940 
 15 C       -3.0840    -4.0560     0.4490 C.3   1 <1>  -0.1600 
 16 C        0.9860     6.7350    -0.1730 C.2   1 <1>  -0.0880 
 17 N        0.1680     7.6880     0.3600 N.pl3 1 <1>   0.3140 
 18 C        2.1880     7.3330    -0.3630 C.2   1 <1>  -0.1810 
 19 N        0.8180     8.8610     0.5170 N.2   1 <1>  -0.7070 
 20 C       -1.2150     7.5640     0.8370 C.3   1 <1>   0.0160 
 21 C        2.0170     8.6430     0.0800 C.2   1 <1>   0.1080 
 22 C        3.4650     6.7420    -0.9360 C.3   1 <1>  -0.0590 
 23 C        3.0770     9.7290     0.0800 C.3   1 <1>   0.0210 
 24 C        3.8920     9.7080     1.3770 C.3   1 <1>  -0.2400 
 25 H       -0.8530     2.7360     0.9450 H     1 <1>   0.0800 
 26 H       -2.2590     2.8350    -0.0810 H     1 <1>   0.0800 
 27 H       -1.5030    -1.4680    -0.7810 H     1 <1>   0.0800 
 28 H       -2.8950     1.5650     1.7900 H     1 <1>   0.0800 
 29 H       -3.5490    -0.0380     1.9330 H     1 <1>   0.0800 
 30 H       -4.1010     1.0090     0.6440 H     1 <1>   0.0800 
 31 H       -0.8540     3.0800    -2.0670 H     1 <1>   0.0800 
 32 H        0.5850     2.9370    -1.1030 H     1 <1>   0.0800 
 33 H       -3.8480    -1.1960    -1.3390 H     1 <1>   0.0800 
 34 H       -4.3150    -1.5610     0.3050 H     1 <1>   0.0800 
 35 H       -2.3520    -1.8970     2.0820 H     1 <1>   0.0800 
 36 H       -0.7130    -1.7640     1.4950 H     1 <1>   0.0800 
 37 H       -2.9070    -3.4310    -1.5980 H     1 <1>   0.0800 
 38 H       -4.5510    -3.5640    -1.0450 H     1 <1>   0.0800 
 39 H       -1.4250    -4.1280     1.8170 H     1 <1>   0.0800 
 40 H       -0.9720    -3.7870     0.1730 H     1 <1>   0.0800 
 41 H        1.4990     4.7710    -0.4510 H     1 <1>   0.3700 
 42 H       -3.0320    -5.0990     0.1860 H     1 <1>   0.0800 
 43 H       -3.7970    -3.9550     1.2490 H     1 <1>   0.0800 
 44 H       -1.3500     6.6020     1.2940 H     1 <1>   0.0800 
 45 H       -1.8810     7.6720     0.0030 H     1 <1>   0.0800 
 46 H       -1.4100     8.3360     1.5560 H     1 <1>   0.0800 
 47 H        3.3170     5.7200    -1.2300 H     1 <1>   0.0800 
 48 H        4.2470     6.7820    -0.2000 H     1 <1>   0.0800 
 49 H        3.7690     7.3040    -1.8000 H     1 <1>   0.0800 
 50 H        2.5900    10.6830    -0.0210 H     1 <1>   0.0800 
 51 H        3.7270     9.6010    -0.7660 H     1 <1>   0.0800 
 52 H        3.2370     9.8520     2.2180 H     1 <1>   0.0800 
 53 H        4.6250    10.4940     1.3680 H     1 <1>   0.0800 
 54 H        4.3920     8.7630     1.4880 H     1 <1>   0.0800 
@<TRIPOS>BOND
  1   1   2  2   
  2   2   3  am  
  3   2   4  1   
  4   3   5  1   
  5   3   6  1   
  6   4   7  1   
  7   4  25  1   
  8   4  26  1   
  9   5   8  1   
 10   5   9  1   
 11   5  27  1   
 12   6  28  1   
 13   6  29  1   
 14   6  30  1   
 15   7  10  1   
 16   7  31  1   
 17   7  32  1   
 18   8  11  1   
 19   8  33  1   
 20   8  34  1   
 21   9  12  1   
 22   9  35  1   
 23   9  36  1   
 24  10  13  2   
 25  10  14  am  
 26  11  15  1   
 27  11  37  1   
 28  11  38  1   
 29  12  15  1   
 30  12  39  1   
 31  12  40  1   
 32  14  16  1   
 33  14  41  1   
 34  15  42  1   
 35  15  43  1   
 36  16  17  1   
 37  16  18  2   
 38  17  19  1   
 39  17  20  1   
 40  18  21  1   
 41  18  22  1   
 42  19  21  2   
 43  20  44  1   
 44  20  45  1   
 45  20  46  1   
 46  21  23  1   
 47  22  47  1   
 48  22  48  1   
 49  22  49  1   
 50  23  24  1   
 51  23  50  1   
 52  23  51  1   
 53  24  52  1   
 54  24  53  1   
 55  24  54  1   
@<TRIPOS>SUBSTRUCTURE
  1 ****   7 GROUP 4 **** **** 0

# MOE 2024.06 (io_trps.svl 2023.06)
