@<TRIPOS>MOLECULE
NONAME
58 61 1 0 0 
SMALL
USER_CHARGES


@<TRIPOS>ATOM
  1 O       -0.2380    -0.4880    -0.0370 O.2   1 <1>  -0.5700 
  2 C       -1.2190     0.1590     0.2760 C.2   1 <1>   0.7160 
  3 N       -2.3410    -0.5150     0.6310 N.am  1 <1>  -0.7300 
  4 C       -1.2120     1.5940     0.2690 C.2   1 <1>  -0.0860 
  5 C       -2.5850    -1.9440     0.4690 C.3   1 <1>   0.3580 
  6 C       -2.3310     2.4260     0.4250 C.2   1 <1>   0.3720 
  7 C       -0.1860     2.4820     0.1440 C.2   1 <1>   0.0870 
  8 C       -4.0310    -2.1590     0.0280 C.2   1 <1>  -0.2760 
  9 C       -2.3260    -2.6320     1.8040 C.3   1 <1>  -0.2400 
 10 N       -1.9970     3.6680     0.4050 N.2   1 <1>  -0.4100 
 11 N       -3.6610     1.9950     0.5570 N.pl3 1 <1>  -0.8210 
 12 O       -0.7030     3.6810     0.2400 O.3   1 <1>  -0.0190 
 13 C        1.2360     2.3550    -0.0460 C.ar  1 <1>   0.0530 
 14 C       -5.0720    -1.3880     0.3760 C.2   1 <1>  -0.2880 
 15 C       -4.1960    -3.3800    -0.8750 C.3   1 <1>  -0.0220 
 16 C       -4.4050     2.0000    -0.7340 C.3   1 <1>   0.2090 
 17 C       -4.4710     2.7250     1.5740 C.3   1 <1>   0.2090 
 18 C        2.1210     3.1120     0.7220 C.ar  1 <1>  -0.1500 
 19 C        1.7870     1.5020    -1.0030 C.ar  1 <1>  -0.1500 
 20 C       -6.5020    -1.6050    -0.0920 C.3   1 <1>  -0.0220 
 21 C       -5.6660    -3.7960    -1.0280 C.3   1 <1>  -0.1600 
 22 C       -5.7950     2.5330    -0.4160 C.3   1 <1>  -0.1600 
 23 C       -5.5830     3.4180     0.8020 C.3   1 <1>  -0.1600 
 24 C        3.4890     3.0140     0.5510 C.ar  1 <1>  -0.1500 
 25 C        3.1540     1.3960    -1.1790 C.ar  1 <1>  -0.1500 
 26 C       -6.5620    -2.5780    -1.2770 C.3   1 <1>  -0.1600 
 27 C        4.0200     2.1560    -0.3980 C.ar  1 <1>   0.0830 
 28 O        5.3680     2.1130    -0.5040 O.3   1 <1>  -0.3630 
 29 C        6.0080     1.2430    -1.4100 C.3   1 <1>   0.0400 
 30 H       -3.1830     0.0570     0.7610 H     1 <1>   0.3700 
 31 H       -1.9110    -2.3290    -0.2790 H     1 <1>   0.0800 
 32 H       -2.9900    -2.2460     2.5550 H     1 <1>   0.0800 
 33 H       -1.3070    -2.4700     2.1060 H     1 <1>   0.0800 
 34 H       -2.4910    -3.6880     1.7090 H     1 <1>   0.0800 
 35 H       -4.9870    -0.5410     1.0360 H     1 <1>   0.1500 
 36 H       -3.6470    -4.2140    -0.4740 H     1 <1>   0.0800 
 37 H       -3.7860    -3.1480    -1.8430 H     1 <1>   0.0800 
 38 H       -4.4530     1.0060    -1.1480 H     1 <1>   0.0800 
 39 H       -3.9160     2.6530    -1.4380 H     1 <1>   0.0800 
 40 H       -3.8820     3.4340     2.1330 H     1 <1>   0.0800 
 41 H       -4.8890     2.0070     2.2590 H     1 <1>   0.0800 
 42 H        1.7270     3.7840     1.4640 H     1 <1>   0.1500 
 43 H        1.1310     0.9120    -1.6180 H     1 <1>   0.1500 
 44 H       -6.9360    -0.6670    -0.3880 H     1 <1>   0.0800 
 45 H       -7.0780    -1.9950     0.7290 H     1 <1>   0.0800 
 46 H       -5.9870    -4.2890    -0.1260 H     1 <1>   0.0800 
 47 H       -5.7600    -4.4950    -1.8400 H     1 <1>   0.0800 
 48 H       -6.4390     1.7090    -0.1640 H     1 <1>   0.0800 
 49 H       -6.2160     3.0700    -1.2470 H     1 <1>   0.0800 
 50 H       -5.2360     4.3900     0.4940 H     1 <1>   0.0800 
 51 H       -6.4740     3.5310     1.3940 H     1 <1>   0.0800 
 52 H        4.1580     3.6030     1.1520 H     1 <1>   0.1500 
 53 H        3.5250     0.7200    -1.9250 H     1 <1>   0.1500 
 54 H       -6.2280    -2.0720    -2.1660 H     1 <1>   0.0800 
 55 H       -7.5790    -2.8920    -1.4330 H     1 <1>   0.0800 
 56 H        7.0700     1.3730    -1.3050 H     1 <1>   0.0800 
 57 H        5.7050     1.4960    -2.4100 H     1 <1>   0.0800 
 58 H        5.7390     0.2300    -1.1690 H     1 <1>   0.0800 
@<TRIPOS>BOND
  1   1   2  2   
  2   2   3  am  
  3   2   4  1   
  4   3   5  1   
  5   3  30  1   
  6   4   6  1   
  7   4   7  2   
  8   5   8  1   
  9   5   9  1   
 10   5  31  1   
 11   6  10  2   
 12   6  11  1   
 13   7  12  1   
 14   7  13  1   
 15   8  14  2   
 16   8  15  1   
 17   9  32  1   
 18   9  33  1   
 19   9  34  1   
 20  10  12  1   
 21  11  16  1   
 22  11  17  1   
 23  13  18  ar  
 24  13  19  ar  
 25  14  20  1   
 26  14  35  1   
 27  15  21  1   
 28  15  36  1   
 29  15  37  1   
 30  16  22  1   
 31  16  38  1   
 32  16  39  1   
 33  17  23  1   
 34  17  40  1   
 35  17  41  1   
 36  18  24  ar  
 37  18  42  1   
 38  19  25  ar  
 39  19  43  1   
 40  20  26  1   
 41  20  44  1   
 42  20  45  1   
 43  21  26  1   
 44  21  46  1   
 45  21  47  1   
 46  22  23  1   
 47  22  48  1   
 48  22  49  1   
 49  23  50  1   
 50  23  51  1   
 51  24  27  ar  
 52  24  52  1   
 53  25  27  ar  
 54  25  53  1   
 55  26  54  1   
 56  26  55  1   
 57  27  28  1   
 58  28  29  1   
 59  29  56  1   
 60  29  57  1   
 61  29  58  1   
@<TRIPOS>SUBSTRUCTURE
  1 ****   2 GROUP 4 **** **** 0

# MOE 2024.06 (io_trps.svl 2023.06)
