@<TRIPOS>MOLECULE
NONAME
50 52 1 0 0 
SMALL
USER_CHARGES


@<TRIPOS>ATOM
  1 O       -1.1770    -0.2240     0.6180 O.3   1 <1>  -0.3630 
  2 C       -2.4540    -0.6330     0.8100 C.ar  1 <1>   0.0830 
  3 C       -0.8810     1.0880     0.1970 C.3   1 <1>   0.2580 
  4 C       -2.6240    -1.9450     1.2160 C.ar  1 <1>  -0.1500 
  5 C       -3.5690     0.1780     0.6200 C.ar  1 <1>  -0.1500 
  6 C        0.6240     1.2040     0.0550 C.2   1 <1>  -0.2880 
  7 C       -3.8930    -2.4630     1.4260 C.ar  1 <1>  -0.1430 
  8 C       -4.8360    -0.3330     0.8370 C.ar  1 <1>  -0.1500 
  9 C        1.2740     1.5400    -1.0630 C.2   1 <1>  -0.3000 
 10 C       -5.0000    -1.6470     1.2380 C.ar  1 <1>  -0.1500 
 11 C       -4.0750    -3.9080     1.8490 C.3   1 <1>   0.4860 
 12 N       -3.7070    -4.7970     0.7130 N.4   1 <1>  -0.9590 
 13 C       -4.6150    -4.5780    -0.4560 C.3   1 <1>   0.3430 
 14 C       -3.8490    -6.2340     1.1060 C.3   1 <1>   0.3430 
 15 C       -5.6860    -5.6650    -0.3520 C.3   1 <1>   0.2000 
 16 C       -4.9090    -6.8630     0.1860 C.3   1 <1>  -0.0800 
 17 O       -6.6170    -5.2810     0.6090 O.3   1 <1>  -0.6800 
 18 C       -4.2670    -7.6790    -0.9520 C.3   1 <1>   0.0210 
 19 C       -3.5270    -8.8860    -0.4130 C.2   1 <1>   0.1080 
 20 N       -2.4130    -8.7920     0.2430 N.2   1 <1>  -0.7070 
 21 C       -3.9440   -10.2050    -0.5570 C.2   1 <1>  -0.1500 
 22 N       -2.0770   -10.0690     0.5290 N.pl3 1 <1>   0.3000 
 23 C       -2.9950   -10.9390     0.0590 C.2   1 <1>  -0.3320 
 24 C       -2.9020   -12.4450     0.2240 C.3   1 <1>  -0.0600 
 25 H       -1.3680     1.2640    -0.7450 H     1 <1>   0.0800 
 26 H       -1.2440     1.7750     0.9410 H     1 <1>   0.0800 
 27 H       -1.7420    -2.5440     1.3650 H     1 <1>   0.1500 
 28 H       -3.4740     1.2020     0.3090 H     1 <1>   0.1500 
 29 H        1.1340     0.9780     0.9760 H     1 <1>   0.1500 
 30 H       -5.6990     0.2980     0.6950 H     1 <1>   0.1500 
 31 H        2.3460     1.6120    -1.1330 H     1 <1>   0.1500 
 32 H        0.7970     1.7690    -2.0010 H     1 <1>   0.1500 
 33 H       -5.9960    -2.0250     1.4010 H     1 <1>   0.1500 
 34 H       -5.1010    -4.0780     2.1320 H     1 <1>   0.0800 
 35 H       -3.4460    -4.1130     2.7000 H     1 <1>   0.0800 
 36 H       -2.7380    -4.5830     0.4440 H     1 <1>   0.4500 
 37 H       -5.0550    -3.5940    -0.4630 H     1 <1>   0.0800 
 38 H       -4.0600    -4.7180    -1.3690 H     1 <1>   0.0800 
 39 H       -2.9030    -6.7410     1.0240 H     1 <1>   0.0800 
 40 H       -4.1840    -6.3060     2.1280 H     1 <1>   0.0800 
 41 H       -6.1980    -5.8420    -1.2830 H     1 <1>   0.0800 
 42 H       -5.5470    -7.5230     0.7490 H     1 <1>   0.0800 
 43 H       -7.3960    -5.8770     0.6060 H     1 <1>   0.4000 
 44 H       -3.5700    -7.0800    -1.5120 H     1 <1>   0.0800 
 45 H       -5.0280    -8.0200    -1.6300 H     1 <1>   0.0800 
 46 H       -4.8330   -10.5470    -1.0580 H     1 <1>   0.1500 
 47 H       -1.2200   -10.3170     1.0380 H     1 <1>   0.2700 
 48 H       -3.7490   -12.9210    -0.2380 H     1 <1>   0.0800 
 49 H       -2.8900   -12.7070     1.2670 H     1 <1>   0.0800 
 50 H       -2.0060   -12.8170    -0.2420 H     1 <1>   0.0800 
@<TRIPOS>BOND
  1   1   2  1   
  2   1   3  1   
  3   2   4  ar  
  4   2   5  ar  
  5   3   6  1   
  6   3  25  1   
  7   3  26  1   
  8   4   7  ar  
  9   4  27  1   
 10   5   8  ar  
 11   5  28  1   
 12   6   9  2   
 13   6  29  1   
 14   7  10  ar  
 15   7  11  1   
 16   8  10  ar  
 17   8  30  1   
 18   9  31  1   
 19   9  32  1   
 20  10  33  1   
 21  11  12  1   
 22  11  34  1   
 23  11  35  1   
 24  12  13  1   
 25  12  14  1   
 26  12  36  1   
 27  13  15  1   
 28  13  37  1   
 29  13  38  1   
 30  14  16  1   
 31  14  39  1   
 32  14  40  1   
 33  15  16  1   
 34  15  17  1   
 35  15  41  1   
 36  16  18  1   
 37  16  42  1   
 38  17  43  1   
 39  18  19  1   
 40  18  44  1   
 41  18  45  1   
 42  19  20  2   
 43  19  21  1   
 44  20  22  1   
 45  21  23  2   
 46  21  46  1   
 47  22  23  1   
 48  22  47  1   
 49  23  24  1   
 50  24  48  1   
 51  24  49  1   
 52  24  50  1   
@<TRIPOS>SUBSTRUCTURE
  1 ****  12 GROUP 4 **** **** 0

# MOE 2024.06 (io_trps.svl 2023.06)
