@<TRIPOS>MOLECULE
NONAME
53 55 1 0 0 
SMALL
USER_CHARGES


@<TRIPOS>ATOM
  1 O       -0.4550    -0.2280     2.0140 O.2   1 <1>  -0.5700 
  2 C       -1.0510     0.6010     1.3650 C.2   1 <1>   0.5690 
  3 N       -1.9910     0.2080     0.4370 N.am  1 <1>  -0.6600 
  4 C       -0.7460     2.0700     1.6520 C.3   1 <1>   0.1810 
  5 C       -2.1260    -1.2230     0.0480 C.3   1 <1>   0.1400 
  6 C       -2.9620     1.1210    -0.2310 C.3   1 <1>   0.1400 
  7 O       -0.4580     2.7790     0.4560 O.3   1 <1>  -0.3620 
  8 C       -3.5530    -1.7210     0.3650 C.3   1 <1>   0.4230 
  9 C       -4.3830     0.6410     0.0900 C.3   1 <1>  -0.1600 
 10 C       -0.2660     4.1210     0.4680 C.ar  1 <1>   0.0820 
 11 N       -3.7430    -3.2180     0.1520 N.4   1 <1>  -0.9590 
 12 C       -4.6490    -0.8400    -0.3070 C.3   1 <1>   0.0000 
 13 C       -0.1170     4.7380    -0.7640 C.ar  1 <1>  -0.1500 
 14 C       -0.2170     4.8860     1.6290 C.ar  1 <1>  -0.1500 
 15 C       -5.1770    -3.6440     0.0430 C.3   1 <1>   0.3430 
 16 C       -2.9470    -3.8180    -0.9700 C.3   1 <1>   0.2630 
 17 C       -6.0470    -1.2590     0.2370 C.3   1 <1>  -0.1600 
 18 C       -4.5950    -1.0010    -1.8540 C.3   1 <1>   0.1200 
 19 C        0.0740     6.1070    -0.8520 C.ar  1 <1>  -0.1440 
 20 C       -0.0260     6.2540     1.5440 C.ar  1 <1>  -0.1500 
 21 C       -6.0910    -2.6900     0.8080 C.3   1 <1>  -0.1600 
 22 O       -5.4220    -0.0930    -2.4930 O.3   1 <1>  -0.6800 
 23 C        0.1180     6.8620     0.3090 C.ar  1 <1>  -0.1500 
 24 C        0.2380     6.7790    -2.2030 C.3   1 <1>  -0.0970 
 25 H        0.1130     2.1380     2.2940 H     1 <1>   0.0800 
 26 H       -1.5950     2.5260     2.1250 H     1 <1>   0.0800 
 27 H       -1.9070    -1.3070    -1.0000 H     1 <1>   0.0800 
 28 H       -1.4150    -1.8230     0.5870 H     1 <1>   0.0800 
 29 H       -2.8470     2.1340     0.1150 H     1 <1>   0.0800 
 30 H       -2.7890     1.1210    -1.2940 H     1 <1>   0.0800 
 31 H       -3.6720    -1.5530     1.4230 H     1 <1>   0.0800 
 32 H       -4.5320     0.7700     1.1480 H     1 <1>   0.0800 
 33 H       -5.0840     1.2960    -0.3990 H     1 <1>   0.0800 
 34 H       -3.3890    -3.6450     1.0210 H     1 <1>   0.4500 
 35 H       -0.1500     4.1340    -1.6520 H     1 <1>   0.1500 
 36 H       -0.3200     4.4440     2.6010 H     1 <1>   0.1500 
 37 H       -5.4780    -3.6500    -0.9920 H     1 <1>   0.0800 
 38 H       -5.2910    -4.6460     0.4260 H     1 <1>   0.0800 
 39 H       -3.2340    -3.3830    -1.9130 H     1 <1>   0.0800 
 40 H       -3.1140    -4.8820    -1.0180 H     1 <1>   0.0800 
 41 H       -1.8920    -3.6500    -0.8180 H     1 <1>   0.0800 
 42 H       -6.3640    -0.5920     1.0220 H     1 <1>   0.0800 
 43 H       -6.7870    -1.1710    -0.5390 H     1 <1>   0.0800 
 44 H       -4.9020    -1.9840    -2.1610 H     1 <1>   0.0800 
 45 H       -3.6040    -0.8220    -2.2320 H     1 <1>   0.0800 
 46 H        0.0130     6.8490     2.4400 H     1 <1>   0.1500 
 47 H       -7.1030    -3.0550     0.7620 H     1 <1>   0.0800 
 48 H       -5.8070    -2.6850     1.8460 H     1 <1>   0.0800 
 49 H       -6.3650    -0.2290    -2.2730 H     1 <1>   0.4000 
 50 H        0.2680     7.9260     0.2550 H     1 <1>   0.1500 
 51 H       -0.2880     7.7170    -2.2190 H     1 <1>   0.0800 
 52 H       -0.1560     6.1560    -2.9870 H     1 <1>   0.0800 
 53 H        1.2800     6.9590    -2.3950 H     1 <1>   0.0800 
@<TRIPOS>BOND
  1   1   2  2   
  2   2   3  am  
  3   2   4  1   
  4   3   5  1   
  5   3   6  1   
  6   4   7  1   
  7   4  25  1   
  8   4  26  1   
  9   5   8  1   
 10   5  27  1   
 11   5  28  1   
 12   6   9  1   
 13   6  29  1   
 14   6  30  1   
 15   7  10  1   
 16   8  11  1   
 17   8  12  1   
 18   8  31  1   
 19   9  12  1   
 20   9  32  1   
 21   9  33  1   
 22  10  13  ar  
 23  10  14  ar  
 24  11  15  1   
 25  11  16  1   
 26  11  34  1   
 27  12  17  1   
 28  12  18  1   
 29  13  19  ar  
 30  13  35  1   
 31  14  20  ar  
 32  14  36  1   
 33  15  21  1   
 34  15  37  1   
 35  15  38  1   
 36  16  39  1   
 37  16  40  1   
 38  16  41  1   
 39  17  21  1   
 40  17  42  1   
 41  17  43  1   
 42  18  22  1   
 43  18  44  1   
 44  18  45  1   
 45  19  23  ar  
 46  19  24  1   
 47  20  23  ar  
 48  20  46  1   
 49  21  47  1   
 50  21  48  1   
 51  22  49  1   
 52  23  50  1   
 53  24  51  1   
 54  24  52  1   
 55  24  53  1   
@<TRIPOS>SUBSTRUCTURE
  1 ****   6 GROUP 4 **** **** 0

# MOE 2024.06 (io_trps.svl 2023.06)
