@<TRIPOS>MOLECULE
NONAME
49 52 1 0 0 
SMALL
USER_CHARGES


@<TRIPOS>ATOM
  1 CL       0.6050    -1.1360     1.5800 Cl    1 <1>  -0.1770 
  2 C       -0.0760    -2.7470     1.5140 C.ar  1 <1>   0.1770 
  3 C       -1.1790    -3.0310     0.7170 C.ar  1 <1>  -0.1440 
  4 C        0.5400    -3.7160     2.2820 C.ar  1 <1>  -0.1500 
  5 C       -1.6640    -4.3430     0.6880 C.ar  1 <1>   0.1170 
  6 C       -1.8460    -1.9310    -0.1140 C.3   1 <1>  -0.0960 
  7 C        0.0560    -5.0100     2.2580 C.ar  1 <1>  -0.1500 
  8 N       -2.7550    -4.6690    -0.1340 N.am  1 <1>  -0.5470 
  9 C       -1.0330    -5.3150     1.4630 C.ar  1 <1>  -0.1500 
 10 C       -3.7100    -5.6280    -0.0310 C.2   1 <1>   0.6900 
 11 O       -3.7580    -6.4390     0.8770 O.2   1 <1>  -0.5700 
 12 N       -4.6860    -5.6660    -0.9800 N.am  1 <1>  -0.6600 
 13 C       -6.0390    -5.1760    -0.5660 C.3   1 <1>   0.1400 
 14 C       -4.7580    -6.9080    -1.8160 C.3   1 <1>   0.1400 
 15 C       -6.8260    -6.2470     0.2420 C.3   1 <1>   0.4230 
 16 C       -5.7680    -7.9420    -1.2580 C.3   1 <1>   0.3430 
 17 N       -6.1780    -7.6080     0.1490 N.4   1 <1>  -0.9590 
 18 C       -8.3090    -6.3090    -0.1900 C.3   1 <1>   0.1200 
 19 C       -6.9930    -8.6320     0.8660 C.3   1 <1>   0.5180 
 20 O       -8.9950    -7.3010     0.5230 O.3   1 <1>  -0.5600 
 21 C       -6.3600   -10.0180     0.6930 C.3   1 <1>  -0.1950 
 22 C       -8.4680    -8.5980     0.4090 C.3   1 <1>   0.1200 
 23 C       -6.2940   -10.9630     1.8540 C.3   1 <1>  -0.2000 
 24 C       -5.0350   -10.3510     1.3110 C.3   1 <1>  -0.2000 
 25 H        1.3890    -3.4580     2.8900 H     1 <1>   0.1500 
 26 H       -2.9140    -2.0460    -0.1190 H     1 <1>   0.0800 
 27 H       -1.4810    -1.9650    -1.1240 H     1 <1>   0.0800 
 28 H       -1.6430    -0.9540     0.2860 H     1 <1>   0.0800 
 29 H        0.5260    -5.7750     2.8510 H     1 <1>   0.1500 
 30 H       -2.8940    -4.0480    -0.9270 H     1 <1>   0.3700 
 31 H       -1.3860    -6.3290     1.4470 H     1 <1>   0.1500 
 32 H       -5.9350    -4.2900     0.0370 H     1 <1>   0.0800 
 33 H       -6.5900    -4.8950    -1.4480 H     1 <1>   0.0800 
 34 H       -5.0240    -6.6490    -2.8270 H     1 <1>   0.0800 
 35 H       -3.7820    -7.3650    -1.8520 H     1 <1>   0.0800 
 36 H       -6.8120    -5.9380     1.2740 H     1 <1>   0.0800 
 37 H       -5.3100    -8.9170    -1.2920 H     1 <1>   0.0800 
 38 H       -6.6370    -7.9680    -1.8940 H     1 <1>   0.0800 
 39 H       -5.2790    -7.5010     0.6650 H     1 <1>   0.4500 
 40 H       -8.4040    -6.5170    -1.2410 H     1 <1>   0.0800 
 41 H       -8.7950    -5.3710     0.0170 H     1 <1>   0.0800 
 42 H       -6.9780    -8.3970     1.9170 H     1 <1>   0.0800 
 43 H       -6.6000   -10.4720    -0.2530 H     1 <1>   0.1000 
 44 H       -9.0580    -9.2450     1.0340 H     1 <1>   0.0800 
 45 H       -8.5680    -8.9230    -0.6110 H     1 <1>   0.0800 
 46 H       -6.6250   -10.6520     2.8310 H     1 <1>   0.1000 
 47 H       -6.4600   -12.0150     1.6860 H     1 <1>   0.1000 
 48 H       -4.3490   -10.9910     0.7810 H     1 <1>   0.1000 
 49 H       -4.5230    -9.6270     1.9240 H     1 <1>   0.1000 
@<TRIPOS>BOND
  1   1   2  1   
  2   2   3  ar  
  3   2   4  ar  
  4   3   5  ar  
  5   3   6  1   
  6   4   7  ar  
  7   4  25  1   
  8   5   8  1   
  9   5   9  ar  
 10   6  26  1   
 11   6  27  1   
 12   6  28  1   
 13   7   9  ar  
 14   7  29  1   
 15   8  10  am  
 16   8  30  1   
 17   9  31  1   
 18  10  11  2   
 19  10  12  am  
 20  12  13  1   
 21  12  14  1   
 22  13  15  1   
 23  13  32  1   
 24  13  33  1   
 25  14  16  1   
 26  14  34  1   
 27  14  35  1   
 28  15  17  1   
 29  15  18  1   
 30  15  36  1   
 31  16  17  1   
 32  16  37  1   
 33  16  38  1   
 34  17  19  1   
 35  17  39  1   
 36  18  20  1   
 37  18  40  1   
 38  18  41  1   
 39  19  21  1   
 40  19  22  1   
 41  19  42  1   
 42  20  22  1   
 43  21  23  1   
 44  21  24  1   
 45  21  43  1   
 46  22  44  1   
 47  22  45  1   
 48  23  24  1   
 49  23  46  1   
 50  23  47  1   
 51  24  48  1   
 52  24  49  1   
@<TRIPOS>SUBSTRUCTURE
  1 ****  11 GROUP 4 **** **** 0

# MOE 2024.06 (io_trps.svl 2023.06)
