@<TRIPOS>MOLECULE
NONAME
43 45 1 0 0 
SMALL
USER_CHARGES


@<TRIPOS>ATOM
  1 CL      -0.0920     0.4360    -0.0550 Cl    1 <1>  -0.1770 
  2 C        0.6560    -0.9580    -0.8010 C.ar  1 <1>   0.1770 
  3 C        1.0710    -2.0460    -0.0410 C.ar  1 <1>  -0.1440 
  4 C        0.8100    -0.9350    -2.1760 C.ar  1 <1>  -0.1500 
  5 C        1.6570    -3.1190    -0.6990 C.ar  1 <1>  -0.1500 
  6 C        0.9120    -2.1090     1.4800 C.3   1 <1>   0.0450 
  7 C        1.3910    -2.0150    -2.8160 C.ar  1 <1>  -0.1500 
  8 C        1.8140    -3.1050    -2.0750 C.ar  1 <1>  -0.1500 
  9 C        0.2090    -3.3780     1.9540 C.2   1 <1>   0.5690 
 10 O        0.8810    -4.1560     2.5910 O.2   1 <1>  -0.5700 
 11 N       -1.1190    -3.6330     1.6820 N.am  1 <1>  -0.6600 
 12 C       -1.9910    -2.6950     0.9100 C.3   1 <1>   0.2200 
 13 C       -1.7280    -4.9170     2.1530 C.3   1 <1>   0.0600 
 14 C       -2.2650    -3.1820    -0.5080 C.3   1 <1>  -0.1600 
 15 C       -3.3790    -2.4710     1.5060 C.3   1 <1>  -0.1600 
 16 C       -3.4720    -2.3520    -0.9620 C.3   1 <1>  -0.0800 
 17 C       -4.2050    -1.9230     0.3340 C.3   1 <1>  -0.0800 
 18 C       -4.3340    -3.0770    -2.0140 C.3   1 <1>   0.1400 
 19 C       -5.6880    -2.3410     0.3930 C.3   1 <1>  -0.0990 
 20 N       -5.6840    -2.4770    -2.0520 N.am  1 <1>  -0.7300 
 21 C       -6.3600    -2.1130    -0.9430 C.2   1 <1>   0.5690 
 22 O       -7.4620    -1.6330    -1.0050 O.2   1 <1>  -0.5700 
 23 H        0.4790    -0.0790    -2.7360 H     1 <1>   0.1500 
 24 H        1.9950    -3.9760    -0.1390 H     1 <1>   0.1500 
 25 H        0.3840    -1.2640     1.8720 H     1 <1>   0.0800 
 26 H        1.8940    -2.0860     1.9170 H     1 <1>   0.0800 
 27 H        1.5180    -2.0070    -3.8860 H     1 <1>   0.1500 
 28 H        2.2700    -3.9460    -2.5690 H     1 <1>   0.1500 
 29 H       -1.5280    -1.7290     0.8430 H     1 <1>   0.0800 
 30 H       -2.4200    -5.3020     1.4270 H     1 <1>   0.0800 
 31 H       -2.2450    -4.7500     3.0820 H     1 <1>   0.0800 
 32 H       -0.9690    -5.6630     2.3150 H     1 <1>   0.0800 
 33 H       -1.4170    -3.0320    -1.1510 H     1 <1>   0.0800 
 34 H       -2.5200    -4.2260    -0.4950 H     1 <1>   0.0800 
 35 H       -3.8070    -3.3970     1.8400 H     1 <1>   0.0800 
 36 H       -3.3450    -1.7760     2.3260 H     1 <1>   0.0800 
 37 H       -3.0930    -1.4550    -1.4250 H     1 <1>   0.0800 
 38 H       -4.1710    -0.8460     0.3730 H     1 <1>   0.0800 
 39 H       -4.4350    -4.1190    -1.7610 H     1 <1>   0.0800 
 40 H       -3.8720    -3.0040    -2.9840 H     1 <1>   0.0800 
 41 H       -6.2010    -1.7820     1.1540 H     1 <1>   0.0800 
 42 H       -5.7780    -3.3860     0.6230 H     1 <1>   0.0800 
 43 H       -6.1500    -2.3550    -2.9530 H     1 <1>   0.3700 
@<TRIPOS>BOND
  1   1   2  1   
  2   2   3  ar  
  3   2   4  ar  
  4   3   5  ar  
  5   3   6  1   
  6   4   7  ar  
  7   4  23  1   
  8   5   8  ar  
  9   5  24  1   
 10   6   9  1   
 11   6  25  1   
 12   6  26  1   
 13   7   8  ar  
 14   7  27  1   
 15   8  28  1   
 16   9  10  2   
 17   9  11  am  
 18  11  12  1   
 19  11  13  1   
 20  12  14  1   
 21  12  15  1   
 22  12  29  1   
 23  13  30  1   
 24  13  31  1   
 25  13  32  1   
 26  14  16  1   
 27  14  33  1   
 28  14  34  1   
 29  15  17  1   
 30  15  35  1   
 31  15  36  1   
 32  16  17  1   
 33  16  18  1   
 34  16  37  1   
 35  17  19  1   
 36  17  38  1   
 37  18  20  1   
 38  18  39  1   
 39  18  40  1   
 40  19  21  1   
 41  19  41  1   
 42  19  42  1   
 43  20  21  am  
 44  20  43  1   
 45  21  22  2   
@<TRIPOS>SUBSTRUCTURE
  1 ****  14 GROUP 4 **** **** 0

# MOE 2024.06 (io_trps.svl 2023.06)
