@<TRIPOS>MOLECULE
NONAME
43 46 1 0 0 
SMALL
USER_CHARGES


@<TRIPOS>ATOM
  1 CL      -0.3390    -1.5410     2.8190 Cl    1 <1>  -0.1770 
  2 C       -1.2080    -1.8950     1.3480 C.ar  1 <1>   0.1770 
  3 C       -0.9210    -1.1950     0.1890 C.ar  1 <1>   0.1600 
  4 C       -2.1770    -2.8710     1.3480 C.ar  1 <1>  -0.1500 
  5 N       -1.5360    -1.4050    -0.9680 N.ar  1 <1>  -0.6200 
  6 C       -2.8430    -3.1180     0.1530 C.ar  1 <1>   0.0860 
  7 C       -2.4650    -2.3500    -0.9530 C.ar  1 <1>   0.1600 
  8 C       -3.8820    -4.1260     0.0550 C.2   1 <1>   0.5440 
  9 O       -4.1910    -4.8210     1.0070 O.2   1 <1>  -0.5700 
 10 N       -4.5840    -4.3440    -1.1040 N.am  1 <1>  -0.6600 
 11 C       -5.9940    -3.8380    -1.1580 C.3   1 <1>   0.1400 
 12 C       -4.4370    -5.6910    -1.7500 C.3   1 <1>   0.1400 
 13 C       -6.9860    -4.8100    -0.4580 C.3   1 <1>   0.4230 
 14 C       -5.5770    -6.6650    -1.3570 C.3   1 <1>   0.3430 
 15 N       -6.3510    -6.1510    -0.1760 N.4   1 <1>  -0.9590 
 16 C       -8.2930    -4.9750    -1.2690 C.3   1 <1>   0.1200 
 17 C       -7.3420    -7.0900     0.4270 C.3   1 <1>   0.5180 
 18 O       -9.1580    -5.8770    -0.6370 O.3   1 <1>  -0.5600 
 19 C       -6.7010    -8.4680     0.6320 C.3   1 <1>  -0.1950 
 20 C       -8.6350    -7.1610    -0.4160 C.3   1 <1>   0.1200 
 21 C       -6.9670    -9.2380     1.8880 C.3   1 <1>  -0.2000 
 22 C       -5.6000    -8.6750     1.6270 C.3   1 <1>  -0.2000 
 23 H       -0.1580    -0.4360     0.2190 H     1 <1>   0.1500 
 24 H       -2.4030    -3.4180     2.2460 H     1 <1>   0.1500 
 25 H       -2.9640    -2.5260    -1.8900 H     1 <1>   0.1500 
 26 H       -6.0530    -2.8740    -0.6810 H     1 <1>   0.0800 
 27 H       -6.2730    -3.7000    -2.1880 H     1 <1>   0.0800 
 28 H       -4.4090    -5.5790    -2.8200 H     1 <1>   0.0800 
 29 H       -3.4970    -6.1250    -1.4520 H     1 <1>   0.0800 
 30 H       -7.2580    -4.3620     0.4840 H     1 <1>   0.0800 
 31 H       -5.1420    -7.6240    -1.1300 H     1 <1>   0.0800 
 32 H       -6.2380    -6.7960    -2.1970 H     1 <1>   0.0800 
 33 H       -5.6250    -5.9470     0.5420 H     1 <1>   0.4500 
 34 H       -8.0950    -5.3320    -2.2640 H     1 <1>   0.0800 
 35 H       -8.8070    -4.0320    -1.3400 H     1 <1>   0.0800 
 36 H       -7.6150    -6.7110     1.3990 H     1 <1>   0.0800 
 37 H       -6.6800    -9.0560    -0.2700 H     1 <1>   0.1000 
 38 H       -9.3820    -7.7320     0.1090 H     1 <1>   0.0800 
 39 H       -8.4550    -7.6300    -1.3670 H     1 <1>   0.0800 
 40 H       -7.5470    -8.8020     2.6850 H     1 <1>   0.1000 
 41 H       -7.0940   -10.3070     1.8330 H     1 <1>   0.1000 
 42 H       -4.8040    -9.3660     1.4010 H     1 <1>   0.1000 
 43 H       -5.2650    -7.8600     2.2480 H     1 <1>   0.1000 
@<TRIPOS>BOND
  1   1   2  1   
  2   2   3  ar  
  3   2   4  ar  
  4   3   5  ar  
  5   3  23  1   
  6   4   6  ar  
  7   4  24  1   
  8   5   7  ar  
  9   6   7  ar  
 10   6   8  1   
 11   7  25  1   
 12   8   9  2   
 13   8  10  am  
 14  10  11  1   
 15  10  12  1   
 16  11  13  1   
 17  11  26  1   
 18  11  27  1   
 19  12  14  1   
 20  12  28  1   
 21  12  29  1   
 22  13  15  1   
 23  13  16  1   
 24  13  30  1   
 25  14  15  1   
 26  14  31  1   
 27  14  32  1   
 28  15  17  1   
 29  15  33  1   
 30  16  18  1   
 31  16  34  1   
 32  16  35  1   
 33  17  19  1   
 34  17  20  1   
 35  17  36  1   
 36  18  20  1   
 37  19  21  1   
 38  19  22  1   
 39  19  37  1   
 40  20  38  1   
 41  20  39  1   
 42  21  22  1   
 43  21  40  1   
 44  21  41  1   
 45  22  42  1   
 46  22  43  1   
@<TRIPOS>SUBSTRUCTURE
  1 ****   9 GROUP 4 **** **** 0

# MOE 2024.06 (io_trps.svl 2023.06)
