@<TRIPOS>MOLECULE
NONAME
48 51 1 0 0 
SMALL
USER_CHARGES


@<TRIPOS>ATOM
  1 O       -0.2560     0.6650     0.4300 O.2   1 <1>  -0.5700 
  2 C       -0.2890     1.8730     0.4470 C.2   1 <1>   0.5690 
  3 N       -1.3250     2.5710     1.0040 N.am  1 <1>  -0.6600 
  4 C        0.8630     2.6320    -0.2150 C.3   1 <1>   0.1810 
  5 C       -1.3590     4.0710     0.9770 C.3   1 <1>   0.3640 
  6 C       -2.4160     1.9060     1.7740 C.3   1 <1>   0.0600 
  7 O        0.9930     3.9560     0.2440 O.3   1 <1>  -0.5600 
  8 C       -2.7150     4.5830     0.4600 C.ar  1 <1>  -0.1430 
  9 C       -0.1980     4.7230     0.1750 C.3   1 <1>   0.2610 
 10 C       -3.3370     4.1570    -0.7200 C.ar  1 <1>  -0.1430 
 11 C       -3.3490     5.5480     1.2360 C.ar  1 <1>  -0.1500 
 12 C        0.0730     6.1780     0.6120 C.2   1 <1>   0.5690 
 13 C       -4.5620     4.7020    -1.0800 C.ar  1 <1>  -0.1500 
 14 C       -2.7600     3.0960    -1.6530 C.3   1 <1>  -0.0960 
 15 C       -4.5670     6.0840     0.8660 C.ar  1 <1>  -0.1500 
 16 O       -0.3990     6.5700     1.6580 O.2   1 <1>  -0.5700 
 17 N        0.8230     7.0260    -0.1700 N.am  1 <1>  -0.6600 
 18 C       -5.1760     5.6600    -0.2970 C.ar  1 <1>  -0.1500 
 19 C        1.0550     8.4450     0.2700 C.3   1 <1>   0.3210 
 20 C        1.5520     6.6230    -1.4220 C.3   1 <1>   0.1400 
 21 C        2.5040     8.8320     0.0320 C.2   1 <1>  -0.1810 
 22 C        3.0780     6.7370    -1.2450 C.3   1 <1>   0.0200 
 23 C        3.4030     8.0840    -0.6330 C.2   1 <1>  -0.3320 
 24 C        3.2040     9.9670     0.4240 C.2   1 <1>   0.1390 
 25 N        4.5710     8.7580    -0.6150 N.pl3 1 <1>   0.3000 
 26 N        4.4450     9.9320     0.0370 N.2   1 <1>  -0.7070 
 27 H        0.7150     2.6510    -1.2780 H     1 <1>   0.0800 
 28 H        1.7850     2.1240    -0.0020 H     1 <1>   0.0800 
 29 H       -1.2520     4.3770     2.0030 H     1 <1>   0.0800 
 30 H       -2.4560     2.3080     2.7710 H     1 <1>   0.0800 
 31 H       -2.2440     0.8450     1.8390 H     1 <1>   0.0800 
 32 H       -3.3620     2.0710     1.2900 H     1 <1>   0.0800 
 33 H       -0.4910     4.7620    -0.8550 H     1 <1>   0.0800 
 34 H       -2.8920     5.8990     2.1460 H     1 <1>   0.1500 
 35 H       -5.0560     4.3800    -1.9800 H     1 <1>   0.1500 
 36 H       -3.2630     3.1060    -2.6030 H     1 <1>   0.0800 
 37 H       -2.8890     2.1200    -1.2200 H     1 <1>   0.0800 
 38 H       -1.7180     3.2590    -1.8380 H     1 <1>   0.0800 
 39 H       -5.0370     6.8310     1.4820 H     1 <1>   0.1500 
 40 H       -6.1250     6.0720    -0.5910 H     1 <1>   0.1500 
 41 H        0.4110     9.0980    -0.2900 H     1 <1>   0.0800 
 42 H        0.8330     8.5630     1.3170 H     1 <1>   0.0800 
 43 H        1.3090     5.6200    -1.7180 H     1 <1>   0.0800 
 44 H        1.2460     7.2830    -2.2160 H     1 <1>   0.0800 
 45 H        3.5570     6.6330    -2.2020 H     1 <1>   0.0800 
 46 H        3.4240     5.9500    -0.5990 H     1 <1>   0.0800 
 47 H        2.7820    10.7850     0.9840 H     1 <1>   0.1500 
 48 H        5.4610     8.4560    -1.0280 H     1 <1>   0.2700 
@<TRIPOS>BOND
  1   1   2  2   
  2   2   3  am  
  3   2   4  1   
  4   3   5  1   
  5   3   6  1   
  6   4   7  1   
  7   4  27  1   
  8   4  28  1   
  9   5   8  1   
 10   5   9  1   
 11   5  29  1   
 12   6  30  1   
 13   6  31  1   
 14   6  32  1   
 15   7   9  1   
 16   8  10  ar  
 17   8  11  ar  
 18   9  12  1   
 19   9  33  1   
 20  10  13  ar  
 21  10  14  1   
 22  11  15  ar  
 23  11  34  1   
 24  12  16  2   
 25  12  17  am  
 26  13  18  ar  
 27  13  35  1   
 28  14  36  1   
 29  14  37  1   
 30  14  38  1   
 31  15  18  ar  
 32  15  39  1   
 33  17  19  1   
 34  17  20  1   
 35  18  40  1   
 36  19  21  1   
 37  19  41  1   
 38  19  42  1   
 39  20  22  1   
 40  20  43  1   
 41  20  44  1   
 42  21  23  2   
 43  21  24  1   
 44  22  23  1   
 45  22  45  1   
 46  22  46  1   
 47  23  25  1   
 48  24  26  2   
 49  24  47  1   
 50  25  26  1   
 51  25  48  1   
@<TRIPOS>SUBSTRUCTURE
  1 ****   9 GROUP 4 **** **** 0

# MOE 2024.06 (io_trps.svl 2023.06)
