@<TRIPOS>MOLECULE
NONAME
43 45 1 0 0 
SMALL
USER_CHARGES


@<TRIPOS>ATOM
  1 O       -1.2980    -0.9290     1.1770 O.3   1 <1>  -0.6800 
  2 C       -2.2930    -1.6660     0.5540 C.3   1 <1>   0.2000 
  3 C       -1.8460    -3.1320     0.4150 C.3   1 <1>   0.2090 
  4 C       -2.5510    -1.0340    -0.8170 C.3   1 <1>  -0.1600 
  5 N       -2.8570    -3.9180    -0.3710 N.pl3 1 <1>  -0.8380 
  6 C       -3.5310    -1.8950    -1.6330 C.3   1 <1>  -0.1600 
  7 C       -3.4190    -5.0880     0.0340 C.ar  1 <1>   0.4100 
  8 C       -3.0710    -3.3540    -1.7410 C.3   1 <1>   0.2090 
  9 N       -3.7550    -5.9640    -0.8980 N.ar  1 <1>  -0.6200 
 10 C       -3.6380    -5.3590     1.4000 C.ar  1 <1>  -0.1500 
 11 C       -4.2670    -7.1140    -0.5130 C.ar  1 <1>   0.7710 
 12 C       -4.1780    -6.5470     1.7630 C.ar  1 <1>   0.2110 
 13 N       -4.4820    -7.4200     0.7770 N.ar  1 <1>  -0.1790 
 14 N       -4.5570    -7.9770    -1.4940 N.pl3 1 <1>  -0.8690 
 15 C       -4.9730    -9.4130    -1.4750 C.3   1 <1>   0.3530 
 16 C       -6.2100    -9.6750    -0.6150 C.ar  1 <1>   0.1670 
 17 N       -6.0450    -9.7400     0.7050 N.ar  1 <1>  -0.6200 
 18 C       -7.4400    -9.8500    -1.2440 C.ar  1 <1>   0.1600 
 19 C       -7.1820   -10.0300     1.3290 C.ar  1 <1>   0.1600 
 20 N       -8.5680   -10.1130    -0.6120 N.ar  1 <1>  -0.6200 
 21 C       -8.4080   -10.2090     0.6930 C.ar  1 <1>   0.1670 
 22 C       -9.6570   -10.5340     1.4880 C.3   1 <1>  -0.0970 
 23 H       -1.2580    -1.1250     2.1320 H     1 <1>   0.4000 
 24 H       -3.1810    -1.6070     1.1600 H     1 <1>   0.0800 
 25 H       -1.6890    -3.5620     1.3850 H     1 <1>   0.0800 
 26 H       -0.9100    -3.1590    -0.1160 H     1 <1>   0.0800 
 27 H       -1.6210    -0.9580    -1.3540 H     1 <1>   0.0800 
 28 H       -2.9560    -0.0460    -0.6900 H     1 <1>   0.0800 
 29 H       -3.6310    -1.4830    -2.6220 H     1 <1>   0.0800 
 30 H       -4.5040    -1.8730    -1.1730 H     1 <1>   0.0800 
 31 H       -3.8170    -3.9150    -2.2790 H     1 <1>   0.0800 
 32 H       -2.1490    -3.4090    -2.2950 H     1 <1>   0.0800 
 33 H       -3.3920    -4.6150     2.1320 H     1 <1>   0.1500 
 34 H       -4.3790    -6.8180     2.7870 H     1 <1>   0.1500 
 35 H       -4.9380    -8.3240     0.9480 H     1 <1>   0.4570 
 36 H       -4.3400    -7.6130    -2.4280 H     1 <1>   0.4000 
 37 H       -4.1580   -10.0160    -1.1120 H     1 <1>   0.0800 
 38 H       -5.1740    -9.7250    -2.4860 H     1 <1>   0.0800 
 39 H       -7.5010    -9.7720    -2.3160 H     1 <1>   0.1500 
 40 H       -7.1460   -10.1340     2.4000 H     1 <1>   0.1500 
 41 H       -9.4490   -10.6000     2.5400 H     1 <1>   0.0800 
 42 H      -10.0580   -11.4750     1.1560 H     1 <1>   0.0800 
 43 H      -10.3970    -9.7720     1.3260 H     1 <1>   0.0800 
@<TRIPOS>BOND
  1   1   2  1   
  2   1  23  1   
  3   2   3  1   
  4   2   4  1   
  5   2  24  1   
  6   3   5  1   
  7   3  25  1   
  8   3  26  1   
  9   4   6  1   
 10   4  27  1   
 11   4  28  1   
 12   5   7  1   
 13   5   8  1   
 14   6   8  1   
 15   6  29  1   
 16   6  30  1   
 17   7   9  ar  
 18   7  10  ar  
 19   8  31  1   
 20   8  32  1   
 21   9  11  ar  
 22  10  12  ar  
 23  10  33  1   
 24  11  13  ar  
 25  11  14  1   
 26  12  13  ar  
 27  12  34  1   
 28  13  35  1   
 29  14  15  1   
 30  14  36  1   
 31  15  16  1   
 32  15  37  1   
 33  15  38  1   
 34  16  17  ar  
 35  16  18  ar  
 36  17  19  ar  
 37  18  20  ar  
 38  18  39  1   
 39  19  21  ar  
 40  19  40  1   
 41  20  21  ar  
 42  21  22  1   
 43  22  41  1   
 44  22  42  1   
 45  22  43  1   
@<TRIPOS>SUBSTRUCTURE
  1 ****  11 GROUP 4 **** **** 0

# MOE 2024.06 (io_trps.svl 2023.06)
