@<TRIPOS>MOLECULE
NONAME
50 52 1 0 0 
SMALL
USER_CHARGES


@<TRIPOS>ATOM
  1 S        0.6080     0.0610    -0.6490 S.o2  1 <1>   1.3330 
  2 O        1.8420     0.1540     0.0990 O.2   1 <1>  -0.6500 
  3 O        0.6530    -0.1100    -2.0830 O.2   1 <1>  -0.6500 
  4 N       -0.3080    -1.2060     0.0120 N.am  1 <1>  -0.8490 
  5 C       -0.3920     1.5070    -0.3100 C.3   1 <1>  -0.0550 
  6 C       -0.0420    -2.4850    -0.6530 C.3   1 <1>   0.1160 
  7 C       -0.1360    -1.3530     1.4610 C.3   1 <1>   0.1160 
  8 C        0.1940     2.8030    -0.9070 C.3   1 <1>  -0.0800 
  9 C       -0.7210     4.0240    -0.7810 C.3   1 <1>   0.2000 
 10 C        1.5190     3.2490    -0.2700 C.3   1 <1>   0.1400 
 11 O       -1.2400     4.0700     0.5040 O.3   1 <1>  -0.6800 
 12 C        0.2320     5.2040    -0.9480 C.3   1 <1>   0.1400 
 13 N        1.4950     4.7330    -0.3260 N.am  1 <1>  -0.6600 
 14 C        2.4820     5.5100     0.2110 C.2   1 <1>   0.5690 
 15 O        3.4230     5.0200     0.7880 O.2   1 <1>  -0.5700 
 16 C        2.3910     7.0210     0.0900 C.3   1 <1>  -0.0990 
 17 C        3.6740     7.7490     0.5230 C.3   1 <1>   0.0200 
 18 C        3.5650     9.2590     0.3730 C.2   1 <1>   0.0070 
 19 N        2.5440     9.8870    -0.1020 N.2   1 <1>  -0.5650 
 20 N        4.5820    10.0770     0.7470 N.pl3 1 <1>   0.0330 
 21 C        2.8930    11.2020    -0.0450 C.ar  1 <1>   0.2270 
 22 C        4.1650    11.3410     0.4840 C.ar  1 <1>  -0.1520 
 23 C        2.1670    12.3260    -0.4280 C.ar  1 <1>  -0.1500 
 24 C        4.7620    12.5960     0.6510 C.ar  1 <1>  -0.1500 
 25 C        2.7640    13.5520    -0.2590 C.ar  1 <1>   0.1900 
 26 C        4.0470    13.7110     0.2730 C.ar  1 <1>  -0.1500 
 27 F        2.1090    14.6300    -0.6100 F     1 <1>  -0.1900 
 28 H       -1.3680     1.3510    -0.7270 H     1 <1>   0.0800 
 29 H       -0.5070     1.6200     0.7500 H     1 <1>   0.0800 
 30 H       -0.6500    -3.2630    -0.2250 H     1 <1>   0.0800 
 31 H        0.9980    -2.7500    -0.5530 H     1 <1>   0.0800 
 32 H       -0.2810    -2.4120    -1.7020 H     1 <1>   0.0800 
 33 H       -0.8010    -2.1130     1.8360 H     1 <1>   0.0800 
 34 H       -0.3660    -0.4280     1.9590 H     1 <1>   0.0800 
 35 H        0.8790    -1.6290     1.6950 H     1 <1>   0.0800 
 36 H        0.3790     2.6410    -1.9560 H     1 <1>   0.0800 
 37 H       -1.5360     4.0280    -1.4850 H     1 <1>   0.0800 
 38 H        2.3690     2.8630    -0.8080 H     1 <1>   0.0800 
 39 H        1.5850     2.9370     0.7590 H     1 <1>   0.0800 
 40 H       -0.5100     4.2630     1.1280 H     1 <1>   0.4000 
 41 H       -0.1520     6.0940    -0.4780 H     1 <1>   0.0800 
 42 H        0.4050     5.3920    -1.9930 H     1 <1>   0.0800 
 43 H        2.1820     7.2720    -0.9340 H     1 <1>   0.0800 
 44 H        1.5730     7.3640     0.6960 H     1 <1>   0.0800 
 45 H        4.4970     7.3960    -0.0720 H     1 <1>   0.0800 
 46 H        3.8800     7.5150     1.5530 H     1 <1>   0.0800 
 47 H        5.4810     9.8010     1.1470 H     1 <1>   0.2700 
 48 H        1.1820    12.2170    -0.8370 H     1 <1>   0.1500 
 49 H        5.7520    12.6800     1.0650 H     1 <1>   0.1500 
 50 H        4.4530    14.7020     0.3770 H     1 <1>   0.1500 
@<TRIPOS>BOND
  1   1   2  2   
  2   1   3  2   
  3   1   4  am  
  4   1   5  1   
  5   4   6  1   
  6   4   7  1   
  7   5   8  1   
  8   5  28  1   
  9   5  29  1   
 10   6  30  1   
 11   6  31  1   
 12   6  32  1   
 13   7  33  1   
 14   7  34  1   
 15   7  35  1   
 16   8   9  1   
 17   8  10  1   
 18   8  36  1   
 19   9  11  1   
 20   9  12  1   
 21   9  37  1   
 22  10  13  1   
 23  10  38  1   
 24  10  39  1   
 25  11  40  1   
 26  12  13  1   
 27  12  41  1   
 28  12  42  1   
 29  13  14  am  
 30  14  15  2   
 31  14  16  1   
 32  16  17  1   
 33  16  43  1   
 34  16  44  1   
 35  17  18  1   
 36  17  45  1   
 37  17  46  1   
 38  18  19  2   
 39  18  20  1   
 40  19  21  1   
 41  20  22  1   
 42  20  47  1   
 43  21  22  ar  
 44  21  23  ar  
 45  22  24  ar  
 46  23  25  ar  
 47  23  48  1   
 48  24  26  ar  
 49  24  49  1   
 50  25  26  ar  
 51  25  27  1   
 52  26  50  1   
@<TRIPOS>SUBSTRUCTURE
  1 ****  14 GROUP 4 **** **** 0

# MOE 2024.06 (io_trps.svl 2023.06)
