@<TRIPOS>MOLECULE
NONAME
40 42 1 0 0 
SMALL
USER_CHARGES


@<TRIPOS>ATOM
  1 S       -2.6240     2.3810    -0.1020 S.3   1 <1>  -0.0800 
  2 C       -2.4050     0.6610    -0.3820 C.2   1 <1>  -0.1400 
  3 C       -2.3320     2.1830     1.6170 C.2   1 <1>  -0.1100 
  4 C       -2.1300     0.0270     0.7740 C.2   1 <1>  -0.1500 
  5 C       -2.5750     0.1660    -1.8130 C.3   1 <1>   0.0810 
  6 C       -2.0880     0.8940     1.9120 C.2   1 <1>  -0.1500 
  7 C       -2.8290    -1.3350    -1.9070 C.2   1 <1>   0.5690 
  8 O       -1.9410    -2.0080    -2.3800 O.2   1 <1>  -0.5700 
  9 N       -4.0160    -1.9030    -1.4920 N.am  1 <1>  -0.6600 
 10 C       -5.0840    -1.1350    -0.7800 C.3   1 <1>   0.2200 
 11 C       -4.2240    -3.3750    -1.6650 C.3   1 <1>   0.0600 
 12 C       -5.5250    -1.7460     0.5470 C.3   1 <1>  -0.1600 
 13 C       -6.3760    -0.9920    -1.5740 C.3   1 <1>  -0.1600 
 14 C       -6.8600    -1.0510     0.8410 C.3   1 <1>  -0.0800 
 15 C       -7.4080    -0.5710    -0.5170 C.3   1 <1>  -0.0800 
 16 C       -6.7040     0.2010     1.7170 C.3   1 <1>  -0.1600 
 17 C       -7.5690     0.9530    -0.4040 C.3   1 <1>  -0.1600 
 18 C       -7.6300     1.2300     1.0900 C.3   1 <1>   0.2000 
 19 O       -7.1720     2.5010     1.3550 O.3   1 <1>  -0.6800 
 20 H       -2.3720     3.0660     2.2310 H     1 <1>   0.1500 
 21 H       -1.9530    -1.0300     0.8790 H     1 <1>   0.1500 
 22 H       -3.3960     0.6760    -2.2790 H     1 <1>   0.0800 
 23 H       -1.6880     0.4070    -2.3690 H     1 <1>   0.0800 
 24 H       -1.8760     0.5050     2.8930 H     1 <1>   0.1500 
 25 H       -4.7480    -0.1410    -0.5610 H     1 <1>   0.0800 
 26 H       -5.2550    -3.5960    -1.8680 H     1 <1>   0.0800 
 27 H       -3.9200    -3.8890    -0.7700 H     1 <1>   0.0800 
 28 H       -3.6350    -3.7440    -2.4870 H     1 <1>   0.0800 
 29 H       -5.7090    -2.7990     0.4400 H     1 <1>   0.0800 
 30 H       -4.7950    -1.5880     1.3210 H     1 <1>   0.0800 
 31 H       -6.2810    -0.2730    -2.3680 H     1 <1>   0.0800 
 32 H       -6.6710    -1.9380    -1.9870 H     1 <1>   0.0800 
 33 H       -7.5530    -1.7350     1.3040 H     1 <1>   0.0800 
 34 H       -8.3650    -1.0250    -0.7150 H     1 <1>   0.0800 
 35 H       -5.6880     0.5570     1.6810 H     1 <1>   0.0800 
 36 H       -6.9780     0.0020     2.7380 H     1 <1>   0.0800 
 37 H       -8.4640     1.2890    -0.8970 H     1 <1>   0.0800 
 38 H       -6.7160     1.4520    -0.8300 H     1 <1>   0.0800 
 39 H       -8.6360     1.1300     1.4640 H     1 <1>   0.0800 
 40 H       -6.2500     2.5910     1.0520 H     1 <1>   0.4000 
@<TRIPOS>BOND
  1   1   2  1   
  2   1   3  1   
  3   2   4  2   
  4   2   5  1   
  5   3   6  2   
  6   3  20  1   
  7   4   6  1   
  8   4  21  1   
  9   5   7  1   
 10   5  22  1   
 11   5  23  1   
 12   6  24  1   
 13   7   8  2   
 14   7   9  am  
 15   9  10  1   
 16   9  11  1   
 17  10  12  1   
 18  10  13  1   
 19  10  25  1   
 20  11  26  1   
 21  11  27  1   
 22  11  28  1   
 23  12  14  1   
 24  12  29  1   
 25  12  30  1   
 26  13  15  1   
 27  13  31  1   
 28  13  32  1   
 29  14  15  1   
 30  14  16  1   
 31  14  33  1   
 32  15  17  1   
 33  15  34  1   
 34  16  18  1   
 35  16  35  1   
 36  16  36  1   
 37  17  18  1   
 38  17  37  1   
 39  17  38  1   
 40  18  19  1   
 41  18  39  1   
 42  19  40  1   
@<TRIPOS>SUBSTRUCTURE
  1 ****  10 GROUP 4 **** **** 0

# MOE 2024.06 (io_trps.svl 2023.06)
