@<TRIPOS>MOLECULE
NONAME
47 49 1 0 0 
SMALL
USER_CHARGES


@<TRIPOS>ATOM
  1 F       -0.7680     2.3910     3.2260 F     1 <1>  -0.1900 
  2 C       -0.0290     3.0280     2.3560 C.ar  1 <1>   0.1900 
  3 C       -0.4940     3.3370     1.0730 C.ar  1 <1>   0.0830 
  4 C        1.2400     3.3860     2.7680 C.ar  1 <1>  -0.1500 
  5 O       -1.7160     3.0410     0.5470 O.3   1 <1>  -0.3630 
  6 C        0.3610     4.0200     0.2240 C.ar  1 <1>  -0.1500 
  7 C        2.0680     4.0700     1.8960 C.ar  1 <1>  -0.1500 
  8 C       -2.6780     2.2660     1.2270 C.3   1 <1>   0.0400 
  9 C        1.6460     4.4110     0.6090 C.ar  1 <1>   0.0860 
 10 C        2.5190     5.1430    -0.2950 C.2   1 <1>   0.5440 
 11 O        3.7290     5.0930    -0.1770 O.2   1 <1>  -0.5700 
 12 N        2.0350     5.9850    -1.2700 N.am  1 <1>  -0.6600 
 13 C        2.7680     6.1540    -2.5700 C.3   1 <1>   0.1400 
 14 C        1.0880     7.0770    -0.9260 C.3   1 <1>   0.1400 
 15 C        4.0710     6.9750    -2.4300 C.3   1 <1>   0.3430 
 16 C        1.8380     8.2430    -0.2650 C.3   1 <1>  -0.1600 
 17 N        4.0980     7.7580    -1.1590 N.4   1 <1>  -0.9590 
 18 C        3.0250     8.7890    -1.0660 C.3   1 <1>   0.3430 
 19 C        5.4670     8.2570    -0.7950 C.3   1 <1>   0.5240 
 20 C        5.5430     8.7710     0.6440 C.2   1 <1>   0.3350 
 21 N        5.9590     8.0860     1.6310 N.2   1 <1>  -0.4100 
 22 N        5.1540     9.9970     0.9770 N.2   1 <1>  -0.5650 
 23 O        5.8760     8.8420     2.6840 O.3   1 <1>  -0.0190 
 24 C        5.3930     9.9700     2.2280 C.2   1 <1>   0.2980 
 25 C        5.1650    11.1080     3.1970 C.3   1 <1>  -0.0600 
 26 H        1.5730     3.1290     3.7590 H     1 <1>   0.1500 
 27 H        0.0120     4.2460    -0.7670 H     1 <1>   0.1500 
 28 H        3.0590     4.3460     2.2160 H     1 <1>   0.1500 
 29 H       -3.5240     2.1360     0.5770 H     1 <1>   0.0800 
 30 H       -2.9820     2.7860     2.1190 H     1 <1>   0.0800 
 31 H       -2.2520     1.3070     1.4660 H     1 <1>   0.0800 
 32 H        2.1220     6.6270    -3.2890 H     1 <1>   0.0800 
 33 H        3.0140     5.1810    -2.9620 H     1 <1>   0.0800 
 34 H        0.3350     6.7100    -0.2490 H     1 <1>   0.0800 
 35 H        0.5840     7.4130    -1.8170 H     1 <1>   0.0800 
 36 H        4.1910     7.6220    -3.2830 H     1 <1>   0.0800 
 37 H        4.8930     6.2770    -2.4270 H     1 <1>   0.0800 
 38 H        2.1700     7.9530     0.7160 H     1 <1>   0.0800 
 39 H        1.1360     9.0460    -0.1250 H     1 <1>   0.0800 
 40 H        3.8730     7.0300    -0.4470 H     1 <1>   0.4500 
 41 H        3.3980     9.6690    -0.5680 H     1 <1>   0.0800 
 42 H        2.7030     9.0820    -2.0520 H     1 <1>   0.0800 
 43 H        5.7600     9.0510    -1.4610 H     1 <1>   0.0800 
 44 H        6.1770     7.4530    -0.8930 H     1 <1>   0.0800 
 45 H        4.7700    11.9630     2.6780 H     1 <1>   0.0800 
 46 H        6.0960    11.3800     3.6600 H     1 <1>   0.0800 
 47 H        4.4690    10.8060     3.9570 H     1 <1>   0.0800 
@<TRIPOS>BOND
  1   1   2  1   
  2   2   3  ar  
  3   2   4  ar  
  4   3   5  1   
  5   3   6  ar  
  6   4   7  ar  
  7   4  26  1   
  8   5   8  1   
  9   6   9  ar  
 10   6  27  1   
 11   7   9  ar  
 12   7  28  1   
 13   8  29  1   
 14   8  30  1   
 15   8  31  1   
 16   9  10  1   
 17  10  11  2   
 18  10  12  am  
 19  12  13  1   
 20  12  14  1   
 21  13  15  1   
 22  13  32  1   
 23  13  33  1   
 24  14  16  1   
 25  14  34  1   
 26  14  35  1   
 27  15  17  1   
 28  15  36  1   
 29  15  37  1   
 30  16  18  1   
 31  16  38  1   
 32  16  39  1   
 33  17  18  1   
 34  17  19  1   
 35  17  40  1   
 36  18  41  1   
 37  18  42  1   
 38  19  20  1   
 39  19  43  1   
 40  19  44  1   
 41  20  21  2   
 42  20  22  1   
 43  21  23  1   
 44  22  24  2   
 45  23  24  1   
 46  24  25  1   
 47  25  45  1   
 48  25  46  1   
 49  25  47  1   
@<TRIPOS>SUBSTRUCTURE
  1 ****  10 GROUP 4 **** **** 0

# MOE 2024.06 (io_trps.svl 2023.06)
