@<TRIPOS>MOLECULE
NONAME
51 52 1 0 0 
SMALL
USER_CHARGES


@<TRIPOS>ATOM
  1 S        2.0520     1.8780     1.4450 S.o2  1 <1>   1.3330 
  2 O        1.9140     2.9640     2.3880 O.2   1 <1>  -0.6500 
  3 O        0.9980     0.8940     1.3310 O.2   1 <1>  -0.6500 
  4 N        3.4850     1.0530     1.8350 N.am  1 <1>  -0.8490 
  5 C        2.3530     2.5550    -0.1890 C.3   1 <1>  -0.0550 
  6 C        4.5900     1.9500     2.1960 C.3   1 <1>   0.1160 
  7 C        3.2720     0.0800     2.9090 C.3   1 <1>   0.1160 
  8 C        2.4680     1.5060    -1.3170 C.3   1 <1>  -0.0800 
  9 C        2.5390     2.0900    -2.7230 C.3   1 <1>   0.2200 
 10 C        3.7220     0.6250    -1.2470 C.3   1 <1>   0.1200 
 11 N        3.4040     3.2910    -2.7370 N.am  1 <1>  -0.7300 
 12 C        3.2470     0.9640    -3.4620 C.3   1 <1>   0.1200 
 13 O        4.1900     0.4790    -2.5570 O.3   1 <1>  -0.5600 
 14 C        2.9670     4.5750    -2.7730 C.2   1 <1>   0.5690 
 15 O        1.8040     4.8450    -2.9470 O.2   1 <1>  -0.5700 
 16 C        3.9680     5.6900    -2.5380 C.3   1 <1>   0.0440 
 17 C        4.7490     5.4470    -1.2510 C.ar  1 <1>  -0.1440 
 18 C        4.1390     5.6710    -0.0260 C.ar  1 <1>  -0.1500 
 19 C        6.0530     4.9770    -1.2870 C.ar  1 <1>  -0.1500 
 20 C        4.8200     5.4120     1.1500 C.ar  1 <1>  -0.1500 
 21 C        6.7380     4.7200    -0.1120 C.ar  1 <1>  -0.1500 
 22 C        6.1190     4.9320     1.1170 C.ar  1 <1>   0.0820 
 23 O        6.7090     4.6820     2.3120 O.3   1 <1>  -0.3630 
 24 C        8.0830     4.3880     2.4010 C.3   1 <1>   0.1200 
 25 C        8.4450     4.2700     3.8780 C.3   1 <1>  -0.2400 
 26 H        1.5410     3.2130    -0.4320 H     1 <1>   0.0800 
 27 H        3.2440     3.1470    -0.1580 H     1 <1>   0.0800 
 28 H        5.4790     1.3800     2.4060 H     1 <1>   0.0800 
 29 H        4.3400     2.5380     3.0640 H     1 <1>   0.0800 
 30 H        4.8070     2.6140     1.3800 H     1 <1>   0.0800 
 31 H        4.1870    -0.4450     3.1250 H     1 <1>   0.0800 
 32 H        2.5310    -0.6430     2.6110 H     1 <1>   0.0800 
 33 H        2.9290     0.5780     3.8020 H     1 <1>   0.0800 
 34 H        1.6100     0.8570    -1.2700 H     1 <1>   0.0800 
 35 H        1.5690     2.3100    -3.1370 H     1 <1>   0.0800 
 36 H        3.5040    -0.3480    -0.8410 H     1 <1>   0.0800 
 37 H        4.5080     1.0870    -0.6750 H     1 <1>   0.0800 
 38 H        4.3860     3.0920    -2.5280 H     1 <1>   0.3700 
 39 H        3.7380     1.2960    -4.3590 H     1 <1>   0.0800 
 40 H        2.5620     0.1650    -3.6880 H     1 <1>   0.0800 
 41 H        4.6310     5.7450    -3.3810 H     1 <1>   0.0800 
 42 H        3.4430     6.6260    -2.4700 H     1 <1>   0.0800 
 43 H        3.1280     6.0410     0.0200 H     1 <1>   0.1500 
 44 H        6.5450     4.8060    -2.2290 H     1 <1>   0.1500 
 45 H        4.3440     5.5780     2.1000 H     1 <1>   0.1500 
 46 H        7.7460     4.3540    -0.1730 H     1 <1>   0.1500 
 47 H        8.2700     3.4600     1.8890 H     1 <1>   0.0800 
 48 H        8.6340     5.1890     1.9370 H     1 <1>   0.0800 
 49 H        7.8800     3.4780     4.3360 H     1 <1>   0.0800 
 50 H        8.2390     5.1970     4.3840 H     1 <1>   0.0800 
 51 H        9.4920     4.0500     3.9810 H     1 <1>   0.0800 
@<TRIPOS>BOND
  1   1   2  2   
  2   1   3  2   
  3   1   4  am  
  4   1   5  1   
  5   4   6  1   
  6   4   7  1   
  7   5   8  1   
  8   5  26  1   
  9   5  27  1   
 10   6  28  1   
 11   6  29  1   
 12   6  30  1   
 13   7  31  1   
 14   7  32  1   
 15   7  33  1   
 16   8   9  1   
 17   8  10  1   
 18   8  34  1   
 19   9  11  1   
 20   9  12  1   
 21   9  35  1   
 22  10  13  1   
 23  10  36  1   
 24  10  37  1   
 25  11  14  am  
 26  11  38  1   
 27  12  13  1   
 28  12  39  1   
 29  12  40  1   
 30  14  15  2   
 31  14  16  1   
 32  16  17  1   
 33  16  41  1   
 34  16  42  1   
 35  17  18  ar  
 36  17  19  ar  
 37  18  20  ar  
 38  18  43  1   
 39  19  21  ar  
 40  19  44  1   
 41  20  22  ar  
 42  20  45  1   
 43  21  22  ar  
 44  21  46  1   
 45  22  23  1   
 46  23  24  1   
 47  24  25  1   
 48  24  47  1   
 49  24  48  1   
 50  25  49  1   
 51  25  50  1   
 52  25  51  1   
@<TRIPOS>SUBSTRUCTURE
  1 ****   5 GROUP 4 **** **** 0

# MOE 2024.06 (io_trps.svl 2023.06)
