@<TRIPOS>MOLECULE
NONAME
54 57 1 0 0 
SMALL
USER_CHARGES


@<TRIPOS>ATOM
  1 O        0.0410     3.0750     3.3270 O.2   1 <1>  -0.5700 
  2 C       -0.0470     3.9470     2.5010 C.2   1 <1>   0.5690 
  3 N       -1.2530     4.4400     2.1440 N.am  1 <1>  -0.7300 
  4 C        1.2130     4.4810     1.8130 C.3   1 <1>   0.1810 
  5 C       -1.4380     5.5040     1.1260 C.3   1 <1>   0.3640 
  6 O        1.0080     5.7210     1.1720 O.3   1 <1>  -0.5600 
  7 C       -2.5690     5.0850     0.1890 C.ar  1 <1>  -0.1440 
  8 C       -0.1340     5.7750     0.3280 C.3   1 <1>   0.2610 
  9 C       -3.5370     6.0100    -0.1780 C.ar  1 <1>  -0.1500 
 10 C       -2.6490     3.7930    -0.3170 C.ar  1 <1>  -0.1500 
 11 C       -0.1810     7.1210    -0.4190 C.2   1 <1>   0.5690 
 12 C       -4.5660     5.6520    -1.0310 C.ar  1 <1>  -0.1500 
 13 C       -3.6780     3.4340    -1.1700 C.ar  1 <1>  -0.1500 
 14 O       -0.9930     7.9520    -0.0730 O.2   1 <1>  -0.5700 
 15 N        0.6970     7.3820    -1.4440 N.am  1 <1>  -0.6600 
 16 C       -4.6380     4.3640    -1.5280 C.ar  1 <1>  -0.1500 
 17 C        0.7790     8.7480    -2.0570 C.3   1 <1>   0.3210 
 18 C        1.7720     6.4480    -1.8900 C.3   1 <1>   0.0600 
 19 C        2.1770     9.3450    -1.9150 C.2   1 <1>   0.1080 
 20 N        2.9750     9.5050    -2.9310 N.2   1 <1>  -0.7070 
 21 C        2.7640     9.7670    -0.7200 C.2   1 <1>  -0.1810 
 22 N        4.0920    10.0390    -2.4050 N.pl3 1 <1>   0.3000 
 23 C        3.9910    10.2020    -1.0710 C.2   1 <1>  -0.3320 
 24 C        2.1620     9.7270     0.6740 C.3   1 <1>   0.0210 
 25 C        5.0970    10.7650    -0.2000 C.3   1 <1>   0.0200 
 26 C        2.2530    11.0820     1.3880 C.3   1 <1>  -0.1600 
 27 C        4.6010    11.9140     0.6860 C.3   1 <1>  -0.1600 
 28 C        3.6730    11.4750     1.8310 C.3   1 <1>  -0.1600 
 29 H       -2.0930     4.0750     2.5950 H     1 <1>   0.3700 
 30 H        1.5490     3.7710     1.0810 H     1 <1>   0.0800 
 31 H        1.9870     4.6160     2.5460 H     1 <1>   0.0800 
 32 H       -1.7240     6.4020     1.6480 H     1 <1>   0.0800 
 33 H       -0.0310     4.9960    -0.4020 H     1 <1>   0.0800 
 34 H       -3.4930     7.0210     0.1950 H     1 <1>   0.1500 
 35 H       -1.9140     3.0550    -0.0490 H     1 <1>   0.1500 
 36 H       -5.3100     6.3790    -1.3090 H     1 <1>   0.1500 
 37 H       -3.7340     2.4300    -1.5550 H     1 <1>   0.1500 
 38 H       -5.4390     4.0850    -2.1910 H     1 <1>   0.1500 
 39 H        0.5380     8.6750    -3.1020 H     1 <1>   0.0800 
 40 H        0.0710     9.4190    -1.6060 H     1 <1>   0.0800 
 41 H        2.1030     6.7120    -2.8800 H     1 <1>   0.0800 
 42 H        1.4190     5.4340    -1.9120 H     1 <1>   0.0800 
 43 H        2.6100     6.5220    -1.2170 H     1 <1>   0.0800 
 44 H        4.9060    10.2800    -2.9830 H     1 <1>   0.2700 
 45 H        1.1250     9.4570     0.6060 H     1 <1>   0.0800 
 46 H        2.6550     8.9660     1.2520 H     1 <1>   0.0800 
 47 H        5.5060     9.9800     0.4110 H     1 <1>   0.0800 
 48 H        5.8890    11.1360    -0.8280 H     1 <1>   0.0800 
 49 H        1.8420    11.8470     0.7530 H     1 <1>   0.0800 
 50 H        1.6340    11.0280     2.2660 H     1 <1>   0.0800 
 51 H        5.4620    12.3880     1.1220 H     1 <1>   0.0800 
 52 H        4.1040    12.6480     0.0760 H     1 <1>   0.0800 
 53 H        4.1220    10.6650     2.3800 H     1 <1>   0.0800 
 54 H        3.5810    12.3050     2.5110 H     1 <1>   0.0800 
@<TRIPOS>BOND
  1   1   2  2   
  2   2   3  am  
  3   2   4  1   
  4   3   5  1   
  5   3  29  1   
  6   4   6  1   
  7   4  30  1   
  8   4  31  1   
  9   5   7  1   
 10   5   8  1   
 11   5  32  1   
 12   6   8  1   
 13   7   9  ar  
 14   7  10  ar  
 15   8  11  1   
 16   8  33  1   
 17   9  12  ar  
 18   9  34  1   
 19  10  13  ar  
 20  10  35  1   
 21  11  14  2   
 22  11  15  am  
 23  12  16  ar  
 24  12  36  1   
 25  13  16  ar  
 26  13  37  1   
 27  15  17  1   
 28  15  18  1   
 29  16  38  1   
 30  17  19  1   
 31  17  39  1   
 32  17  40  1   
 33  18  41  1   
 34  18  42  1   
 35  18  43  1   
 36  19  20  2   
 37  19  21  1   
 38  20  22  1   
 39  21  23  2   
 40  21  24  1   
 41  22  23  1   
 42  22  44  1   
 43  23  25  1   
 44  24  26  1   
 45  24  45  1   
 46  24  46  1   
 47  25  27  1   
 48  25  47  1   
 49  25  48  1   
 50  26  28  1   
 51  26  49  1   
 52  26  50  1   
 53  27  28  1   
 54  27  51  1   
 55  27  52  1   
 56  28  53  1   
 57  28  54  1   
@<TRIPOS>SUBSTRUCTURE
  1 ****  11 GROUP 4 **** **** 0

# MOE 2024.06 (io_trps.svl 2023.06)
