@<TRIPOS>MOLECULE
NONAME
41 43 1 0 0 
SMALL
USER_CHARGES


@<TRIPOS>ATOM
  1 O       -0.1600     0.7870     0.4800 O.co2 1 <1>  -0.9000 
  2 C       -0.4680     1.8510    -0.0960 C.2   1 <1>   1.0330 
  3 O       -1.3720     1.8110    -0.9520 O.co2 1 <1>  -0.9000 
  4 C        0.2390     3.0810     0.2670 C.2   1 <1>  -0.0060 
  5 N        0.0970     4.3480    -0.2550 N.2   1 <1>  -0.5650 
  6 C        1.1900     3.1590     1.2200 C.2   1 <1>  -0.0100 
  7 C        0.9490     5.0520     0.3950 C.2   1 <1>   0.2980 
  8 O        1.6240     4.3830     1.3010 O.3   1 <1>  -0.2800 
  9 C        1.2050     6.5510     0.2340 C.3   1 <1>   0.2900 
 10 N        2.4000     6.9150    -0.5750 N.3   1 <1>  -0.8100 
 11 C        2.5490     8.3840    -0.6360 C.3   1 <1>   0.1100 
 12 C        3.6400     6.3090    -0.0380 C.3   1 <1>   0.1100 
 13 C        3.7710     8.8210    -1.4680 C.3   1 <1>   0.2090 
 14 C        4.8820     6.6870    -0.8660 C.3   1 <1>   0.2090 
 15 N        5.0260     8.1660    -0.9920 N.pl3 1 <1>  -0.8380 
 16 C        5.8420     8.8160    -0.0910 C.ar  1 <1>   0.4100 
 17 N        5.2400     9.4470     0.8970 N.ar  1 <1>  -0.6200 
 18 C        7.2310     8.7920    -0.2000 C.ar  1 <1>  -0.1440 
 19 C        6.0350    10.0230     1.7710 C.ar  1 <1>   0.4700 
 20 C        7.9470     9.4240     0.7940 C.ar  1 <1>   0.1670 
 21 C        7.9150     8.1010    -1.3820 C.3   1 <1>  -0.0970 
 22 N        7.3540    10.0500     1.7900 N.ar  1 <1>  -0.6200 
 23 C        9.4640     9.4590     0.8290 C.3   1 <1>  -0.0970 
 24 H        1.5850     2.3870     1.8560 H     1 <1>   0.1500 
 25 H        1.2890     6.9810     1.2160 H     1 <1>   0.0800 
 26 H        0.3350     6.9720    -0.2380 H     1 <1>   0.0800 
 27 H        2.6550     8.7820     0.3590 H     1 <1>   0.0800 
 28 H        1.6650     8.8130    -1.0750 H     1 <1>   0.0800 
 29 H        3.5540     5.2370    -0.0510 H     1 <1>   0.0800 
 30 H        3.7920     6.6240     0.9810 H     1 <1>   0.0800 
 31 H        3.8800     9.8900    -1.4090 H     1 <1>   0.0800 
 32 H        3.6070     8.5600    -2.4980 H     1 <1>   0.0800 
 33 H        4.7940     6.2550    -1.8470 H     1 <1>   0.0800 
 34 H        5.7560     6.2750    -0.3950 H     1 <1>   0.0800 
 35 H        5.5470    10.5390     2.5800 H     1 <1>   0.1500 
 36 H        7.2730     8.0980    -2.2450 H     1 <1>   0.0800 
 37 H        8.1500     7.0850    -1.1250 H     1 <1>   0.0800 
 38 H        8.8170     8.6130    -1.6620 H     1 <1>   0.0800 
 39 H        9.8800     8.5370     0.4680 H     1 <1>   0.0800 
 40 H        9.8060     9.6040     1.8380 H     1 <1>   0.0800 
 41 H        9.8190    10.2740     0.2270 H     1 <1>   0.0800 
@<TRIPOS>BOND
  1   1   2  ar  
  2   2   3  ar  
  3   2   4  1   
  4   4   5  1   
  5   4   6  2   
  6   5   7  2   
  7   6   8  1   
  8   6  24  1   
  9   7   8  1   
 10   7   9  1   
 11   9  10  1   
 12   9  25  1   
 13   9  26  1   
 14  10  11  1   
 15  10  12  1   
 16  11  13  1   
 17  11  27  1   
 18  11  28  1   
 19  12  14  1   
 20  12  29  1   
 21  12  30  1   
 22  13  15  1   
 23  13  31  1   
 24  13  32  1   
 25  14  15  1   
 26  14  33  1   
 27  14  34  1   
 28  15  16  1   
 29  16  17  ar  
 30  16  18  ar  
 31  17  19  ar  
 32  18  20  ar  
 33  18  21  1   
 34  19  22  ar  
 35  19  35  1   
 36  20  22  ar  
 37  20  23  1   
 38  21  36  1   
 39  21  37  1   
 40  21  38  1   
 41  23  39  1   
 42  23  40  1   
 43  23  41  1   
@<TRIPOS>SUBSTRUCTURE
  1 ****  12 GROUP 4 **** **** 0

# MOE 2024.06 (io_trps.svl 2023.06)
