@<TRIPOS>MOLECULE
NONAME
41 42 1 0 0 
SMALL
USER_CHARGES


@<TRIPOS>ATOM
  1 O        1.6070    -0.8660     1.5470 O.co2 1 <1>  -0.9000 
  2 C        2.4930    -0.6400     0.7120 C.2   1 <1>   0.9060 
  3 O        3.1520    -1.5720     0.2300 O.co2 1 <1>  -0.9000 
  4 C        2.7570     0.8090     0.2240 C.3   1 <1>  -0.1060 
  5 C        4.2410     0.8540    -0.2520 C.3   1 <1>   0.2000 
  6 C        2.5380     1.8330     1.3960 C.3   1 <1>  -0.1600 
  7 C        1.8030     1.1350    -0.9710 C.3   1 <1>  -0.1600 
  8 O        4.4610     1.9450    -1.1050 O.3   1 <1>  -0.6800 
  9 C        5.2160     0.9110     0.9460 C.3   1 <1>   0.1100 
 10 C        3.7100     2.7820     1.6770 C.3   1 <1>   0.1100 
 11 C        0.3110     0.8540    -0.7180 C.3   1 <1>  -0.1600 
 12 N        4.9390     2.0100     1.9120 N.3   1 <1>  -0.8100 
 13 C       -0.5480     1.3260    -1.8950 C.3   1 <1>  -0.2400 
 14 C        6.1090     2.7850     2.3710 C.3   1 <1>   0.2900 
 15 C        6.6680     3.7600     1.3430 C.2   1 <1>   0.0070 
 16 N        6.3670     3.7210     0.0500 N.pl3 1 <1>   0.0330 
 17 N        7.4930     4.7190     1.5990 N.2   1 <1>  -0.3380 
 18 C        7.0660     4.7260    -0.4680 C.2   1 <1>   0.0060 
 19 N        7.7470     5.3360     0.4400 N.2   1 <1>  -0.3380 
 20 C        7.0450     5.0870    -1.9370 C.3   1 <1>  -0.0600 
 21 H        4.4720    -0.0170    -0.8410 H     1 <1>   0.0800 
 22 H        2.3550     1.3040     2.3140 H     1 <1>   0.0800 
 23 H        1.6640     2.4290     1.2180 H     1 <1>   0.0800 
 24 H        1.9070     2.1730    -1.2350 H     1 <1>   0.0800 
 25 H        2.1030     0.5390    -1.8160 H     1 <1>   0.0800 
 26 H        3.7520     1.9240    -1.7770 H     1 <1>   0.4000 
 27 H        6.2240     0.9680     0.5780 H     1 <1>   0.0800 
 28 H        5.1280    -0.0200     1.4800 H     1 <1>   0.0800 
 29 H        3.4870     3.3680     2.5520 H     1 <1>   0.0800 
 30 H        3.8390     3.4560     0.8500 H     1 <1>   0.0800 
 31 H        0.1610    -0.2040    -0.5800 H     1 <1>   0.0800 
 32 H       -0.0190     1.3430     0.1820 H     1 <1>   0.0800 
 33 H       -0.2540     0.8200    -2.7970 H     1 <1>   0.0800 
 34 H       -0.4440     2.3870    -2.0360 H     1 <1>   0.0800 
 35 H       -1.5820     1.1040    -1.7010 H     1 <1>   0.0800 
 36 H        5.8320     3.3410     3.2500 H     1 <1>   0.0800 
 37 H        6.8890     2.1020     2.6580 H     1 <1>   0.0800 
 38 H        5.7200     3.0550    -0.3940 H     1 <1>   0.2700 
 39 H        7.3860     4.2540    -2.5240 H     1 <1>   0.0800 
 40 H        7.6920     5.9270    -2.1150 H     1 <1>   0.0800 
 41 H        6.0460     5.3480    -2.2350 H     1 <1>   0.0800 
@<TRIPOS>BOND
  1   1   2  ar  
  2   2   3  ar  
  3   2   4  1   
  4   4   5  1   
  5   4   6  1   
  6   4   7  1   
  7   5   8  1   
  8   5   9  1   
  9   5  21  1   
 10   6  10  1   
 11   6  22  1   
 12   6  23  1   
 13   7  11  1   
 14   7  24  1   
 15   7  25  1   
 16   8  26  1   
 17   9  12  1   
 18   9  27  1   
 19   9  28  1   
 20  10  12  1   
 21  10  29  1   
 22  10  30  1   
 23  11  13  1   
 24  11  31  1   
 25  11  32  1   
 26  12  14  1   
 27  13  33  1   
 28  13  34  1   
 29  13  35  1   
 30  14  15  1   
 31  14  36  1   
 32  14  37  1   
 33  15  16  1   
 34  15  17  2   
 35  16  18  1   
 36  16  38  1   
 37  17  19  1   
 38  18  19  2   
 39  18  20  1   
 40  20  39  1   
 41  20  40  1   
 42  20  41  1   
@<TRIPOS>SUBSTRUCTURE
  1 ****   5 GROUP 4 **** **** 0

# MOE 2024.06 (io_trps.svl 2023.06)
