@<TRIPOS>MOLECULE
NONAME
56 59 1 0 0 
SMALL
USER_CHARGES


@<TRIPOS>ATOM
  1 O        0.6100     0.0200    -0.5820 O.3   1 <1>  -0.6800 
  2 C        1.9160    -0.2140    -0.9900 C.3   1 <1>   0.2000 
  3 C        2.5110    -1.3970    -0.2310 C.3   1 <1>  -0.0800 
  4 C        2.8250     0.9620    -0.6420 C.3   1 <1>   0.2090 
  5 C        4.0170    -1.1240    -0.2500 C.3   1 <1>   0.2090 
  6 C        2.1240    -2.7640    -0.8220 C.3   1 <1>  -0.0170 
  7 N        4.1590     0.3520    -0.3660 N.pl3 1 <1>  -0.8380 
  8 C        2.7410    -3.9200    -0.0470 C.ar  1 <1>   0.1660 
  9 C        5.3010     1.0720    -0.2390 C.ar  1 <1>   0.4100 
 10 N        4.0060    -4.2070    -0.3150 N.ar  1 <1>  -0.6200 
 11 C        1.9750    -4.6190     0.8850 C.ar  1 <1>   0.1600 
 12 N        5.2070     2.3840    -0.3230 N.ar  1 <1>  -0.6200 
 13 C        6.5410     0.4390    -0.0270 C.ar  1 <1>  -0.1500 
 14 C        4.4420    -5.2360     0.3950 C.ar  1 <1>   0.1600 
 15 N        2.4130    -5.6420     1.5990 N.ar  1 <1>  -0.6200 
 16 C        6.3080     3.1120    -0.2000 C.ar  1 <1>   0.7710 
 17 C        7.6560     1.1950     0.1040 C.ar  1 <1>   0.2180 
 18 C        3.6720    -5.9290     1.3200 C.ar  1 <1>   0.1600 
 19 N        7.5030     2.5370     0.0150 N.ar  1 <1>  -0.1790 
 20 N        6.2350     4.4690    -0.2840 N.pl3 1 <1>  -0.8380 
 21 C        9.0460     0.6180     0.3420 C.3   1 <1>  -0.0170 
 22 C        7.3750     5.4350    -0.3420 C.3   1 <1>   0.2090 
 23 C        4.9160     5.1840    -0.3100 C.3   1 <1>   0.2090 
 24 C        9.9990     0.9100    -0.8250 C.3   1 <1>  -0.2400 
 25 C        7.3350     6.3330     0.8980 C.3   1 <1>  -0.1600 
 26 C        4.8180     6.0950     0.9190 C.3   1 <1>  -0.1600 
 27 C        5.9960     7.0770     1.0020 C.3   1 <1>  -0.1600 
 28 H        0.0110    -0.6770    -0.9090 H     1 <1>   0.4000 
 29 H        1.9280    -0.3740    -2.0550 H     1 <1>   0.0800 
 30 H        2.1930    -1.3460     0.7970 H     1 <1>   0.0800 
 31 H        2.4740     1.4600     0.2460 H     1 <1>   0.0800 
 32 H        2.8840     1.6590    -1.4600 H     1 <1>   0.0800 
 33 H        4.4740    -1.5890    -1.1080 H     1 <1>   0.0800 
 34 H        4.4810    -1.4920     0.6490 H     1 <1>   0.0800 
 35 H        2.4480    -2.8250    -1.8470 H     1 <1>   0.0800 
 36 H        1.0540    -2.8640    -0.8160 H     1 <1>   0.0800 
 37 H        0.9550    -4.3210     1.0490 H     1 <1>   0.1500 
 38 H        6.5790    -0.6320     0.0260 H     1 <1>   0.1500 
 39 H        5.4590    -5.5480     0.2370 H     1 <1>   0.1500 
 40 H        4.1160    -6.7540     1.8490 H     1 <1>   0.1500 
 41 H        8.2790     3.1730     0.1230 H     1 <1>   0.4570 
 42 H        9.4540     1.0170     1.2550 H     1 <1>   0.0800 
 43 H        8.9710    -0.4490     0.4660 H     1 <1>   0.0800 
 44 H        8.3260     4.9390    -0.4030 H     1 <1>   0.0800 
 45 H        7.2720     6.0460    -1.2250 H     1 <1>   0.0800 
 46 H        4.8480     5.7760    -1.2080 H     1 <1>   0.0800 
 47 H        4.0810     4.5040    -0.3070 H     1 <1>   0.0800 
 48 H       10.1670     1.9650    -0.9450 H     1 <1>   0.0800 
 49 H        9.6010     0.5140    -1.7440 H     1 <1>   0.0800 
 50 H       10.9500     0.4390    -0.6440 H     1 <1>   0.0800 
 51 H        7.4850     5.7350     1.7800 H     1 <1>   0.0800 
 52 H        8.1350     7.0500     0.8470 H     1 <1>   0.0800 
 53 H        3.8940     6.6450     0.8780 H     1 <1>   0.0800 
 54 H        4.7900     5.4820     1.8030 H     1 <1>   0.0800 
 55 H        5.9200     7.7890     0.1980 H     1 <1>   0.0800 
 56 H        5.9500     7.6230     1.9300 H     1 <1>   0.0800 
@<TRIPOS>BOND
  1   1   2  1   
  2   1  28  1   
  3   2   3  1   
  4   2   4  1   
  5   2  29  1   
  6   3   5  1   
  7   3   6  1   
  8   3  30  1   
  9   4   7  1   
 10   4  31  1   
 11   4  32  1   
 12   5   7  1   
 13   5  33  1   
 14   5  34  1   
 15   6   8  1   
 16   6  35  1   
 17   6  36  1   
 18   7   9  1   
 19   8  10  ar  
 20   8  11  ar  
 21   9  12  ar  
 22   9  13  ar  
 23  10  14  ar  
 24  11  15  ar  
 25  11  37  1   
 26  12  16  ar  
 27  13  17  ar  
 28  13  38  1   
 29  14  18  ar  
 30  14  39  1   
 31  15  18  ar  
 32  16  19  ar  
 33  16  20  1   
 34  17  19  ar  
 35  17  21  1   
 36  18  40  1   
 37  19  41  1   
 38  20  22  1   
 39  20  23  1   
 40  21  24  1   
 41  21  42  1   
 42  21  43  1   
 43  22  25  1   
 44  22  44  1   
 45  22  45  1   
 46  23  26  1   
 47  23  46  1   
 48  23  47  1   
 49  24  48  1   
 50  24  49  1   
 51  24  50  1   
 52  25  27  1   
 53  25  51  1   
 54  25  52  1   
 55  26  27  1   
 56  26  53  1   
 57  26  54  1   
 58  27  55  1   
 59  27  56  1   
@<TRIPOS>SUBSTRUCTURE
  1 ****   9 GROUP 4 **** **** 0

# MOE 2024.06 (io_trps.svl 2023.06)
