@<TRIPOS>MOLECULE
NONAME
44 47 1 0 0 
SMALL
USER_CHARGES


@<TRIPOS>ATOM
  1 S       -2.9120    -0.8910    -3.0160 S.3   1 <1>  -0.2420 
  2 C       -2.8750    -1.3640    -1.3170 C.2   1 <1>   0.6510 
  3 C       -2.5400     0.7960    -2.6110 C.2   1 <1>  -0.0490 
  4 N       -3.0960    -2.5760    -0.9170 N.2   1 <1>  -0.6210 
  5 N       -2.6020    -0.2660    -0.5460 N.am  1 <1>  -0.2290 
  6 C       -2.4160     0.9240    -1.2840 C.2   1 <1>  -0.0410 
  7 C       -3.0410    -2.7760     0.4390 C.2   1 <1>   0.0330 
  8 C       -2.5540    -0.4420     0.8150 C.2   1 <1>   0.6160 
  9 C       -2.7840    -1.7550     1.2990 C.2   1 <1>  -0.1360 
 10 C       -3.2990    -4.2070     0.9180 C.3   1 <1>   0.4810 
 11 O       -2.3320     0.4950     1.5620 O.2   1 <1>  -0.5700 
 12 N       -4.3100    -4.8280     0.0110 N.4   1 <1>  -0.9590 
 13 C       -5.7020    -4.9090     0.5500 C.3   1 <1>   0.4230 
 14 C       -3.7930    -6.1330    -0.5070 C.3   1 <1>   0.2630 
 15 C       -6.6820    -5.1840    -0.5930 C.3   1 <1>  -0.1600 
 16 C       -6.2120    -3.5580     1.0610 C.3   1 <1>  -0.1600 
 17 C       -6.9210    -3.8230    -1.2660 C.3   1 <1>  -0.0800 
 18 C       -6.6290    -2.7690    -0.1890 C.3   1 <1>  -0.0800 
 19 C       -8.3690    -3.5930    -1.7260 C.3   1 <1>  -0.1600 
 20 C       -7.9140    -1.9440    -0.0170 C.3   1 <1>  -0.1600 
 21 C       -9.0410    -2.7640    -0.6360 C.3   1 <1>   0.2000 
 22 O       -9.5320    -3.6230     0.3230 O.3   1 <1>  -0.6800 
 23 H       -2.4590     1.4930    -3.4290 H     1 <1>   0.1500 
 24 H       -2.1920     1.8300    -0.7410 H     1 <1>   0.1500 
 25 H       -2.7370    -1.8740     2.3660 H     1 <1>   0.1500 
 26 H       -3.6390    -4.2160     1.9400 H     1 <1>   0.0800 
 27 H       -2.3730    -4.7540     0.8600 H     1 <1>   0.0800 
 28 H       -4.3320    -4.1570    -0.7800 H     1 <1>   0.4500 
 29 H       -5.7640    -5.6670     1.3160 H     1 <1>   0.0800 
 30 H       -3.7560    -6.8640     0.2840 H     1 <1>   0.0800 
 31 H       -2.8010    -6.0050    -0.9090 H     1 <1>   0.0800 
 32 H       -4.4250    -6.5080    -1.2940 H     1 <1>   0.0800 
 33 H       -6.3540    -5.9270    -1.2950 H     1 <1>   0.0800 
 34 H       -7.6010    -5.5400    -0.1620 H     1 <1>   0.0800 
 35 H       -7.0820    -3.7480     1.6650 H     1 <1>   0.0800 
 36 H       -5.5210    -3.0150     1.6770 H     1 <1>   0.0800 
 37 H       -6.2460    -3.7010    -2.0970 H     1 <1>   0.0800 
 38 H       -5.8250    -2.1270    -0.5080 H     1 <1>   0.0800 
 39 H       -8.9070    -4.5000    -1.9430 H     1 <1>   0.0800 
 40 H       -8.3490    -2.9980    -2.6220 H     1 <1>   0.0800 
 41 H       -7.8150    -1.0400    -0.5930 H     1 <1>   0.0800 
 42 H       -8.1210    -1.6650     1.0020 H     1 <1>   0.0800 
 43 H       -9.8570    -2.1610    -1.0000 H     1 <1>   0.0800 
 44 H       -8.8170    -4.1940     0.6450 H     1 <1>   0.4000 
@<TRIPOS>BOND
  1   1   2  1   
  2   1   3  1   
  3   2   4  2   
  4   2   5  1   
  5   3   6  2   
  6   3  23  1   
  7   4   7  1   
  8   5   6  1   
  9   5   8  am  
 10   6  24  1   
 11   7   9  2   
 12   7  10  1   
 13   8   9  1   
 14   8  11  2   
 15   9  25  1   
 16  10  12  1   
 17  10  26  1   
 18  10  27  1   
 19  12  13  1   
 20  12  14  1   
 21  12  28  1   
 22  13  15  1   
 23  13  16  1   
 24  13  29  1   
 25  14  30  1   
 26  14  31  1   
 27  14  32  1   
 28  15  17  1   
 29  15  33  1   
 30  15  34  1   
 31  16  18  1   
 32  16  35  1   
 33  16  36  1   
 34  17  18  1   
 35  17  19  1   
 36  17  37  1   
 37  18  20  1   
 38  18  38  1   
 39  19  21  1   
 40  19  39  1   
 41  19  40  1   
 42  20  21  1   
 43  20  41  1   
 44  20  42  1   
 45  21  22  1   
 46  21  43  1   
 47  22  44  1   
@<TRIPOS>SUBSTRUCTURE
  1 ****   4 GROUP 4 **** **** 0

# MOE 2024.06 (io_trps.svl 2023.06)
