@<TRIPOS>MOLECULE
NONAME
46 48 1 0 0 
SMALL
USER_CHARGES


@<TRIPOS>ATOM
  1 O        0.5480    -0.2400    -1.3510 O.2   1 <1>  -0.5700 
  2 C        1.5680    -0.8150    -1.0490 C.2   1 <1>   0.5690 
  3 N        2.7450    -0.1370    -0.8610 N.am  1 <1>  -0.6600 
  4 C        1.5160    -2.3340    -0.8980 C.3   1 <1>  -0.0990 
  5 C        2.7460     1.3590    -0.8540 C.3   1 <1>   0.1400 
  6 C        4.0650    -0.8120    -0.6680 C.3   1 <1>   0.1400 
  7 C        0.1290    -2.8690    -0.4940 C.3   1 <1>  -0.1600 
  8 C        3.7670     1.9100     0.1540 C.3   1 <1>  -0.0800 
  9 C        5.2140     0.1320    -1.0210 C.3   1 <1>  -0.1600 
 10 C        0.1340    -4.3980    -0.3610 C.3   1 <1>   0.0960 
 11 C        5.2020     1.3710    -0.1160 C.3   1 <1>   0.2800 
 12 C        3.6850     3.4520     0.1950 C.3   1 <1>  -0.1600 
 13 N       -1.1680    -4.8970     0.1200 N.pl3 1 <1>   0.3140 
 14 O        5.7280     0.9720     1.0950 O.3   1 <1>  -0.6800 
 15 C        6.1440     2.4590    -0.6580 C.3   1 <1>  -0.1600 
 16 C        4.8880     4.0570     0.9300 C.3   1 <1>  -0.1600 
 17 N       -1.3090    -5.4460     1.3400 N.2   1 <1>  -0.7070 
 18 C       -2.3370    -4.8950    -0.5520 C.2   1 <1>  -0.3020 
 19 C        6.2200     3.7140     0.2370 C.3   1 <1>  -0.1600 
 20 C       -2.5630    -5.7730     1.4160 C.2   1 <1>   0.1390 
 21 C       -3.2610    -5.4520     0.2580 C.2   1 <1>  -0.1500 
 22 H        1.8100    -2.7670    -1.8360 H     1 <1>   0.0800 
 23 H        2.2200    -2.6370    -0.1460 H     1 <1>   0.0800 
 24 H        2.9790     1.7100    -1.8450 H     1 <1>   0.0800 
 25 H        1.7650     1.7230    -0.5970 H     1 <1>   0.0800 
 26 H        4.1580    -1.1180     0.3610 H     1 <1>   0.0800 
 27 H        4.1230    -1.6850    -1.2940 H     1 <1>   0.0800 
 28 H       -0.5970    -2.5770    -1.2340 H     1 <1>   0.0800 
 29 H       -0.1550    -2.4300     0.4480 H     1 <1>   0.0800 
 30 H        3.4460     1.5500     1.1180 H     1 <1>   0.0800 
 31 H        5.1100     0.4240    -2.0510 H     1 <1>   0.0800 
 32 H        6.1550    -0.3800    -0.9260 H     1 <1>   0.0800 
 33 H        0.8860    -4.7050     0.3440 H     1 <1>   0.0800 
 34 H        0.3440    -4.8580    -1.3090 H     1 <1>   0.0800 
 35 H        3.6590     3.8480    -0.8070 H     1 <1>   0.0800 
 36 H        2.7740     3.7500     0.6860 H     1 <1>   0.0800 
 37 H        5.8280     1.7640     1.6550 H     1 <1>   0.4000 
 38 H        7.1300     2.0530    -0.8040 H     1 <1>   0.0800 
 39 H        5.7820     2.7570    -1.6260 H     1 <1>   0.0800 
 40 H        4.7790     5.1260     0.9900 H     1 <1>   0.0800 
 41 H        4.8990     3.6800     1.9390 H     1 <1>   0.0800 
 42 H       -2.4440    -4.5020    -1.5460 H     1 <1>   0.1500 
 43 H        6.9780     3.5760     0.9890 H     1 <1>   0.0800 
 44 H        6.5280     4.5460    -0.3730 H     1 <1>   0.0800 
 45 H       -3.0020    -6.2390     2.2820 H     1 <1>   0.1500 
 46 H       -4.3070    -5.6230     0.0780 H     1 <1>   0.1500 
@<TRIPOS>BOND
  1   1   2  2   
  2   2   3  am  
  3   2   4  1   
  4   3   5  1   
  5   3   6  1   
  6   4   7  1   
  7   4  22  1   
  8   4  23  1   
  9   5   8  1   
 10   5  24  1   
 11   5  25  1   
 12   6   9  1   
 13   6  26  1   
 14   6  27  1   
 15   7  10  1   
 16   7  28  1   
 17   7  29  1   
 18   8  11  1   
 19   8  12  1   
 20   8  30  1   
 21   9  11  1   
 22   9  31  1   
 23   9  32  1   
 24  10  13  1   
 25  10  33  1   
 26  10  34  1   
 27  11  14  1   
 28  11  15  1   
 29  12  16  1   
 30  12  35  1   
 31  12  36  1   
 32  13  17  1   
 33  13  18  1   
 34  14  37  1   
 35  15  19  1   
 36  15  38  1   
 37  15  39  1   
 38  16  19  1   
 39  16  40  1   
 40  16  41  1   
 41  17  20  2   
 42  18  21  2   
 43  18  42  1   
 44  19  43  1   
 45  19  44  1   
 46  20  21  1   
 47  20  45  1   
 48  21  46  1   
@<TRIPOS>SUBSTRUCTURE
  1 ****   2 GROUP 4 **** **** 0

# MOE 2024.06 (io_trps.svl 2023.06)
