@<TRIPOS>MOLECULE
NONAME
45 47 1 0 0 
SMALL
USER_CHARGES


@<TRIPOS>ATOM
  1 N       -1.5080    -0.5230    -0.1840 N.ar  1 <1>  -0.6200 
  2 C       -2.0380     0.6880    -0.2720 C.ar  1 <1>   0.4100 
  3 C       -0.3620    -0.5320     0.4870 C.ar  1 <1>   0.1600 
  4 N       -3.2660     0.7340    -0.9600 N.pl3 1 <1>  -0.8380 
  5 C       -1.4420     1.8530     0.3330 C.ar  1 <1>   0.4100 
  6 C        0.2140     0.5840     1.0610 C.ar  1 <1>   0.1600 
  7 C       -3.5470    -0.2920    -2.0090 C.3   1 <1>   0.2090 
  8 C       -4.4450     1.0660    -0.1120 C.3   1 <1>   0.2090 
  9 N       -0.3070     1.8000     1.0110 N.ar  1 <1>  -0.6200 
 10 N       -2.0290     3.1280     0.2430 N.pl3 1 <1>  -0.8380 
 11 C       -4.1570    -1.5640    -1.3790 C.3   1 <1>   0.3430 
 12 C       -5.0340    -0.2190     0.5080 C.3   1 <1>   0.3430 
 13 C       -2.0410     3.7390    -1.1120 C.3   1 <1>   0.1290 
 14 C       -1.7510     4.1220     1.3210 C.3   1 <1>   0.1290 
 15 N       -5.3760    -1.2740    -0.5240 N.4   1 <1>  -0.9590 
 16 C       -5.8820    -2.4990     0.1800 C.3   1 <1>   0.3430 
 17 C       -6.4500    -3.5670    -0.7660 C.3   1 <1>   0.0960 
 18 N       -6.9610    -4.6940     0.0320 N.pl3 1 <1>   0.3140 
 19 N       -6.6470    -4.8630     1.3090 N.2   1 <1>  -0.7070 
 20 C       -7.7730    -5.6850    -0.3440 C.2   1 <1>   0.0360 
 21 C       -7.2910    -5.9440     1.6130 C.2   1 <1>   0.3660 
 22 N       -8.0060    -6.4930     0.6240 N.2   1 <1>  -0.5650 
 23 H        0.1410    -1.4770     0.5850 H     1 <1>   0.1500 
 24 H        1.1460     0.4790     1.5880 H     1 <1>   0.1500 
 25 H       -2.6320    -0.5460    -2.5190 H     1 <1>   0.0800 
 26 H       -4.2200     0.1190    -2.7400 H     1 <1>   0.0800 
 27 H       -5.1850     1.5700    -0.7070 H     1 <1>   0.0800 
 28 H       -4.1560     1.7360     0.6800 H     1 <1>   0.0800 
 29 H       -3.3950    -2.0250    -0.7710 H     1 <1>   0.0800 
 30 H       -4.4090    -2.2530    -2.1670 H     1 <1>   0.0800 
 31 H       -5.9120     0.0400     1.0760 H     1 <1>   0.0800 
 32 H       -4.3020    -0.6140     1.1950 H     1 <1>   0.0800 
 33 H       -2.1230     2.9790    -1.8690 H     1 <1>   0.0800 
 34 H       -1.1300     4.2880    -1.2750 H     1 <1>   0.0800 
 35 H       -2.8790     4.4080    -1.2030 H     1 <1>   0.0800 
 36 H       -1.7930     3.6400     2.2830 H     1 <1>   0.0800 
 37 H       -2.4840     4.9090     1.2950 H     1 <1>   0.0800 
 38 H       -0.7690     4.5430     1.1880 H     1 <1>   0.0800 
 39 H       -6.1070    -0.8750    -1.1270 H     1 <1>   0.4500 
 40 H       -6.6610    -2.2160     0.8710 H     1 <1>   0.0800 
 41 H       -5.0810    -2.9370     0.7550 H     1 <1>   0.0800 
 42 H       -5.6850    -3.9440    -1.4170 H     1 <1>   0.0800 
 43 H       -7.2620    -3.1660    -1.3430 H     1 <1>   0.0800 
 44 H       -8.1740    -5.7830    -1.3370 H     1 <1>   0.1500 
 45 H       -7.2700    -6.3970     2.5930 H     1 <1>   0.1500 
@<TRIPOS>BOND
  1   1   2  ar  
  2   1   3  ar  
  3   2   4  1   
  4   2   5  ar  
  5   3   6  ar  
  6   3  23  1   
  7   4   7  1   
  8   4   8  1   
  9   5   9  ar  
 10   5  10  1   
 11   6   9  ar  
 12   6  24  1   
 13   7  11  1   
 14   7  25  1   
 15   7  26  1   
 16   8  12  1   
 17   8  27  1   
 18   8  28  1   
 19  10  13  1   
 20  10  14  1   
 21  11  15  1   
 22  11  29  1   
 23  11  30  1   
 24  12  15  1   
 25  12  31  1   
 26  12  32  1   
 27  13  33  1   
 28  13  34  1   
 29  13  35  1   
 30  14  36  1   
 31  14  37  1   
 32  14  38  1   
 33  15  16  1   
 34  15  39  1   
 35  16  17  1   
 36  16  40  1   
 37  16  41  1   
 38  17  18  1   
 39  17  42  1   
 40  17  43  1   
 41  18  19  1   
 42  18  20  1   
 43  19  21  2   
 44  20  22  2   
 45  20  44  1   
 46  21  22  1   
 47  21  45  1   
@<TRIPOS>SUBSTRUCTURE
  1 ****  12 GROUP 4 **** **** 0

# MOE 2024.06 (io_trps.svl 2023.06)
