@<TRIPOS>MOLECULE
NONAME
47 50 1 0 0 
SMALL
USER_CHARGES


@<TRIPOS>ATOM
  1 O       -2.4060     0.0740     0.3980 O.2   1 <1>  -0.5700 
  2 C       -2.5910     0.9910    -0.3880 C.2   1 <1>   0.5440 
  3 N       -3.4870     0.7240    -1.4040 N.am  1 <1>  -0.6600 
  4 C       -1.9580     2.3020    -0.2030 C.ar  1 <1>   0.3960 
  5 C       -4.8810     1.2320    -1.2250 C.3   1 <1>   0.1400 
  6 C       -3.4590    -0.6270    -2.0530 C.3   1 <1>   0.1400 
  7 N       -2.5330     3.3950    -0.7370 N.ar  1 <1>  -0.6200 
  8 C       -0.7790     2.3900     0.5330 C.ar  1 <1>  -0.1500 
  9 C       -5.6840     0.2910    -0.2850 C.3   1 <1>   0.4230 
 10 C       -4.4920    -1.5910    -1.4200 C.3   1 <1>   0.3430 
 11 C       -1.9220     4.5510    -0.5430 C.ar  1 <1>   0.1600 
 12 C       -0.1560     3.6010     0.7320 C.ar  1 <1>   0.0830 
 13 N       -4.9990    -1.0500    -0.1110 N.4   1 <1>  -0.9590 
 14 C       -7.1390     0.1110    -0.7740 C.3   1 <1>   0.1200 
 15 C       -0.7520     4.7140     0.1700 C.ar  1 <1>  -0.1500 
 16 O        0.9840     3.6180     1.4530 O.3   1 <1>  -0.3630 
 17 C       -5.8300    -1.9730     0.7140 C.3   1 <1>   0.5180 
 18 O       -7.8380    -0.7720     0.0600 O.3   1 <1>  -0.5600 
 19 C        1.6890     4.8150     1.6970 C.3   1 <1>   0.0400 
 20 C       -5.1620    -3.3500     0.7980 C.3   1 <1>  -0.1950 
 21 C       -7.2780    -2.0540     0.1810 C.3   1 <1>   0.1200 
 22 C       -5.1410    -4.0960     2.0970 C.3   1 <1>  -0.2000 
 23 C       -3.8660    -3.5450     1.5260 C.3   1 <1>  -0.2000 
 24 H       -4.8700     2.2250    -0.8100 H     1 <1>   0.0800 
 25 H       -5.3530     1.2970    -2.1910 H     1 <1>   0.0800 
 26 H       -3.6490    -0.5270    -3.1080 H     1 <1>   0.0800 
 27 H       -2.4740    -1.0520    -1.9470 H     1 <1>   0.0800 
 28 H       -0.3410     1.5050     0.9560 H     1 <1>   0.1500 
 29 H       -5.7340     0.7710     0.6780 H     1 <1>   0.0800 
 30 H       -4.0190    -2.5480    -1.2730 H     1 <1>   0.0800 
 31 H       -5.3140    -1.7310    -2.1010 H     1 <1>   0.0800 
 32 H       -2.3810     5.4240    -0.9790 H     1 <1>   0.1500 
 33 H       -4.1260    -0.8430     0.4160 H     1 <1>   0.4500 
 34 H       -7.1710    -0.2700    -1.7800 H     1 <1>   0.0800 
 35 H       -7.6570     1.0540    -0.7500 H     1 <1>   0.0800 
 36 H       -0.3300     5.6950     0.2740 H     1 <1>   0.1500 
 37 H       -5.8810    -1.5740     1.7140 H     1 <1>   0.0800 
 38 H        2.5560     4.5780     2.2860 H     1 <1>   0.0800 
 39 H        1.0530     5.4920     2.2400 H     1 <1>   0.0800 
 40 H        1.9920     5.2410     0.7570 H     1 <1>   0.0800 
 41 H       -5.3410    -3.9540    -0.0750 H     1 <1>   0.1000 
 42 H       -7.8890    -2.6130     0.8680 H     1 <1>   0.0800 
 43 H       -7.3130    -2.5390    -0.7790 H     1 <1>   0.0800 
 44 H       -5.5280    -3.6420     2.9940 H     1 <1>   0.1000 
 45 H       -5.2790    -5.1650     2.0920 H     1 <1>   0.1000 
 46 H       -3.1420    -4.2420     1.1390 H     1 <1>   0.1000 
 47 H       -3.3990    -2.7180     2.0360 H     1 <1>   0.1000 
@<TRIPOS>BOND
  1   1   2  2   
  2   2   3  am  
  3   2   4  1   
  4   3   5  1   
  5   3   6  1   
  6   4   7  ar  
  7   4   8  ar  
  8   5   9  1   
  9   5  24  1   
 10   5  25  1   
 11   6  10  1   
 12   6  26  1   
 13   6  27  1   
 14   7  11  ar  
 15   8  12  ar  
 16   8  28  1   
 17   9  13  1   
 18   9  14  1   
 19   9  29  1   
 20  10  13  1   
 21  10  30  1   
 22  10  31  1   
 23  11  15  ar  
 24  11  32  1   
 25  12  15  ar  
 26  12  16  1   
 27  13  17  1   
 28  13  33  1   
 29  14  18  1   
 30  14  34  1   
 31  14  35  1   
 32  15  36  1   
 33  16  19  1   
 34  17  20  1   
 35  17  21  1   
 36  17  37  1   
 37  18  21  1   
 38  19  38  1   
 39  19  39  1   
 40  19  40  1   
 41  20  22  1   
 42  20  23  1   
 43  20  41  1   
 44  21  42  1   
 45  21  43  1   
 46  22  23  1   
 47  22  44  1   
 48  22  45  1   
 49  23  46  1   
 50  23  47  1   
@<TRIPOS>SUBSTRUCTURE
  1 ****   2 GROUP 4 **** **** 0

# MOE 2024.06 (io_trps.svl 2023.06)
