@<TRIPOS>MOLECULE
NONAME
43 45 1 0 0 
SMALL
USER_CHARGES


@<TRIPOS>ATOM
  1 O       -0.4490    -1.1970     0.0140 O.2   1 <1>  -0.5700 
  2 C        0.7330    -1.4640    -0.0510 C.2   1 <1>   0.6900 
  3 N        1.3280    -2.3990     0.7800 N.am  1 <1>  -0.4690 
  4 N        1.5050    -0.8340    -0.9760 N.am  1 <1>  -0.4900 
  5 C        2.6790    -2.7050     0.6460 C.2   1 <1>  -0.0410 
  6 C        0.5240    -3.0990     1.8320 C.3   1 <1>   0.2010 
  7 C        2.8320    -1.0870    -1.1330 C.2   1 <1>   0.6160 
  8 C        3.4220    -2.0680    -0.2870 C.2   1 <1>  -0.1360 
  9 C        0.3830    -4.5960     1.5670 C.2   1 <1>   0.5690 
 10 O        3.4500    -0.4760    -1.9790 O.2   1 <1>  -0.5700 
 11 O        1.1740    -5.3360     2.1050 O.2   1 <1>  -0.5700 
 12 N       -0.6060    -5.0820     0.7530 N.am  1 <1>  -0.6600 
 13 C       -1.5960    -4.2840    -0.0160 C.3   1 <1>   0.1400 
 14 C       -0.8160    -6.5320     0.5320 C.3   1 <1>   0.1400 
 15 C       -2.3960    -5.3110    -0.8190 C.3   1 <1>   0.2000 
 16 C       -2.2070    -6.6400    -0.0910 C.3   1 <1>  -0.0800 
 17 O       -3.7420    -4.9860    -0.8740 O.3   1 <1>  -0.6800 
 18 C       -2.3810    -7.8630    -1.0040 C.3   1 <1>   0.0210 
 19 C       -2.0610    -9.1470    -0.2630 C.2   1 <1>   0.1080 
 20 N       -2.7090    -9.5300     0.7930 N.2   1 <1>  -0.7070 
 21 C       -1.0520   -10.0380    -0.6130 C.2   1 <1>  -0.1500 
 22 N       -2.1250   -10.6900     1.1480 N.pl3 1 <1>   0.3000 
 23 C       -1.1170   -11.0170     0.3130 C.2   1 <1>  -0.3320 
 24 C       -0.2640   -12.2650     0.4530 C.3   1 <1>  -0.0600 
 25 H        1.0720    -0.1390    -1.5730 H     1 <1>   0.3700 
 26 H        3.0890    -3.4580     1.3030 H     1 <1>   0.1500 
 27 H        1.0160    -2.9710     2.7790 H     1 <1>   0.0800 
 28 H       -0.4530    -2.6620     1.9190 H     1 <1>   0.0800 
 29 H        4.4670    -2.2630    -0.4350 H     1 <1>   0.1500 
 30 H       -2.2320    -3.7430     0.6620 H     1 <1>   0.0800 
 31 H       -1.0950    -3.6030    -0.6810 H     1 <1>   0.0800 
 32 H       -0.0600    -6.8960    -0.1430 H     1 <1>   0.0800 
 33 H       -0.7580    -7.0800     1.4590 H     1 <1>   0.0800 
 34 H       -2.0180    -5.3560    -1.8260 H     1 <1>   0.0800 
 35 H       -2.9090    -6.7100     0.7230 H     1 <1>   0.0800 
 36 H       -4.1480    -5.0760     0.0100 H     1 <1>   0.4000 
 37 H       -1.7390    -7.7790    -1.8620 H     1 <1>   0.0800 
 38 H       -3.3980    -7.9090    -1.3500 H     1 <1>   0.0800 
 39 H       -0.3790    -9.9420    -1.4460 H     1 <1>   0.1500 
 40 H       -2.4360   -11.2310     1.9630 H     1 <1>   0.2700 
 41 H        0.4700   -12.3010    -0.3320 H     1 <1>   0.0800 
 42 H       -0.8790   -13.1450     0.3880 H     1 <1>   0.0800 
 43 H        0.2470   -12.2610     1.4000 H     1 <1>   0.0800 
@<TRIPOS>BOND
  1   1   2  2   
  2   2   3  am  
  3   2   4  am  
  4   3   5  1   
  5   3   6  1   
  6   4   7  am  
  7   4  25  1   
  8   5   8  2   
  9   5  26  1   
 10   6   9  1   
 11   6  27  1   
 12   6  28  1   
 13   7   8  1   
 14   7  10  2   
 15   8  29  1   
 16   9  11  2   
 17   9  12  am  
 18  12  13  1   
 19  12  14  1   
 20  13  15  1   
 21  13  30  1   
 22  13  31  1   
 23  14  16  1   
 24  14  32  1   
 25  14  33  1   
 26  15  16  1   
 27  15  17  1   
 28  15  34  1   
 29  16  18  1   
 30  16  35  1   
 31  17  36  1   
 32  18  19  1   
 33  18  37  1   
 34  18  38  1   
 35  19  20  2   
 36  19  21  1   
 37  20  22  1   
 38  21  23  2   
 39  21  39  1   
 40  22  23  1   
 41  22  40  1   
 42  23  24  1   
 43  24  41  1   
 44  24  42  1   
 45  24  43  1   
@<TRIPOS>SUBSTRUCTURE
  1 ****  12 GROUP 4 **** **** 0

# MOE 2024.06 (io_trps.svl 2023.06)
