@<TRIPOS>MOLECULE
NONAME
47 50 1 0 0 
SMALL
USER_CHARGES


@<TRIPOS>ATOM
  1 O        2.8010    -1.2110    -3.2090 O.2   1 <1>  -0.5700 
  2 C        3.1250    -1.4720    -2.0800 C.2   1 <1>   0.5690 
  3 N        4.4260    -1.4910    -1.7340 N.am  1 <1>  -0.7300 
  4 C        2.0670    -1.7890    -1.0530 C.3   1 <1>  -0.0990 
  5 C        4.9680    -1.8450    -0.3970 C.3   1 <1>   0.1400 
  6 C        2.1960    -3.2230    -0.5450 C.3   1 <1>   0.1200 
  7 C        4.5950    -3.2730     0.0820 C.3   1 <1>   0.2800 
  8 O        3.2230    -3.3590     0.4000 O.3   1 <1>  -0.5600 
  9 C        4.9970    -4.3400    -0.9660 C.3   1 <1>  -0.1600 
 10 C        5.2920    -3.5500     1.4350 C.3   1 <1>  -0.1600 
 11 C        5.2360    -5.7020    -0.3210 C.3   1 <1>   0.1400 
 12 C        6.6170    -4.3020     1.2940 C.3   1 <1>   0.1400 
 13 N        6.4160    -5.6100     0.5930 N.am  1 <1>  -0.6600 
 14 C        7.3060    -6.6570     0.6780 C.2   1 <1>   0.5690 
 15 O        7.1060    -7.7050     0.1090 O.2   1 <1>  -0.5700 
 16 C        8.5800    -6.5630     1.4920 C.3   1 <1>   0.1570 
 17 N        9.4700    -5.5340     0.9370 N.pl3 1 <1>   0.3140 
 18 N        9.8450    -4.4560     1.6680 N.2   1 <1>  -0.7070 
 19 C       10.0190    -5.5100    -0.3150 C.ar  1 <1>  -0.1520 
 20 C       10.6240    -3.7780     0.8920 C.2   1 <1>   0.1390 
 21 C       10.7850    -4.3650    -0.3720 C.ar  1 <1>   0.0000 
 22 C        9.9260    -6.3690    -1.4170 C.ar  1 <1>  -0.1500 
 23 C       11.4870    -4.0510    -1.5440 C.ar  1 <1>  -0.1500 
 24 C       10.6160    -6.0530    -2.5640 C.ar  1 <1>  -0.1500 
 25 C       11.3990    -4.8920    -2.6270 C.ar  1 <1>  -0.1500 
 26 H        5.0940    -1.2690    -2.4750 H     1 <1>   0.3700 
 27 H        1.1070    -1.6770    -1.5230 H     1 <1>   0.0800 
 28 H        2.1160    -1.0940    -0.2360 H     1 <1>   0.0800 
 29 H        4.6220    -1.1270     0.3270 H     1 <1>   0.0800 
 30 H        6.0410    -1.7670    -0.4410 H     1 <1>   0.0800 
 31 H        2.3270    -3.9200    -1.3520 H     1 <1>   0.0800 
 32 H        1.2860    -3.4880    -0.0360 H     1 <1>   0.0800 
 33 H        5.9180    -4.0480    -1.4380 H     1 <1>   0.0800 
 34 H        4.2790    -4.4240    -1.7560 H     1 <1>   0.0800 
 35 H        4.6530    -4.1540     2.0560 H     1 <1>   0.0800 
 36 H        5.4650    -2.6310     1.9630 H     1 <1>   0.0800 
 37 H        5.4170    -6.4350    -1.0890 H     1 <1>   0.0800 
 38 H        4.3690    -6.0070     0.2400 H     1 <1>   0.0800 
 39 H        7.0320    -4.4680     2.2730 H     1 <1>   0.0800 
 40 H        7.3140    -3.7050     0.7300 H     1 <1>   0.0800 
 41 H        9.0930    -7.5050     1.4680 H     1 <1>   0.0800 
 42 H        8.3480    -6.3210     2.5100 H     1 <1>   0.0800 
 43 H       11.1040    -2.8580     1.1790 H     1 <1>   0.1500 
 44 H        9.3230    -7.2600    -1.3640 H     1 <1>   0.1500 
 45 H       12.0850    -3.1570    -1.5770 H     1 <1>   0.1500 
 46 H       10.5610    -6.6960    -3.4250 H     1 <1>   0.1500 
 47 H       11.9290    -4.6700    -3.5370 H     1 <1>   0.1500 
@<TRIPOS>BOND
  1   1   2  2   
  2   2   3  am  
  3   2   4  1   
  4   3   5  1   
  5   3  26  1   
  6   4   6  1   
  7   4  27  1   
  8   4  28  1   
  9   5   7  1   
 10   5  29  1   
 11   5  30  1   
 12   6   8  1   
 13   6  31  1   
 14   6  32  1   
 15   7   8  1   
 16   7   9  1   
 17   7  10  1   
 18   9  11  1   
 19   9  33  1   
 20   9  34  1   
 21  10  12  1   
 22  10  35  1   
 23  10  36  1   
 24  11  13  1   
 25  11  37  1   
 26  11  38  1   
 27  12  13  1   
 28  12  39  1   
 29  12  40  1   
 30  13  14  am  
 31  14  15  2   
 32  14  16  1   
 33  16  17  1   
 34  16  41  1   
 35  16  42  1   
 36  17  18  1   
 37  17  19  1   
 38  18  20  2   
 39  19  21  ar  
 40  19  22  ar  
 41  20  21  1   
 42  20  43  1   
 43  21  23  ar  
 44  22  24  ar  
 45  22  44  1   
 46  23  25  ar  
 47  23  45  1   
 48  24  25  ar  
 49  24  46  1   
 50  25  47  1   
@<TRIPOS>SUBSTRUCTURE
  1 ****  12 GROUP 4 **** **** 0

# MOE 2024.06 (io_trps.svl 2023.06)
