@<TRIPOS>MOLECULE
NONAME
52 56 1 0 0 
SMALL
USER_CHARGES


@<TRIPOS>ATOM
  1 O       -0.4030     1.3180    -1.0370 O.co2 1 <1>  -0.9030 
  2 C       -0.3070     2.5270    -1.2920 C.2   1 <1>   0.9770 
  3 O        0.7720     3.0020    -1.6730 O.co2 1 <1>  -0.9030 
  4 C       -1.4640     3.3770    -1.1410 C.ar  1 <1>  -0.1860 
  5 C       -1.3750     4.7490    -1.4320 C.ar  1 <1>   0.1530 
  6 C       -2.6800     2.8670    -0.7080 C.ar  1 <1>  -0.1170 
  7 N       -2.3610     5.6260    -1.3330 N.ar  1 <1>  -0.5840 
  8 C       -3.7140     3.7680    -0.5990 C.ar  1 <1>   0.3030 
  9 C       -3.5020     5.0940    -0.9180 C.ar  1 <1>   0.6150 
 10 N       -5.0300     3.6640    -0.2130 N.pl3 1 <1>  -0.7040 
 11 N       -4.6870     5.7710    -0.7170 N.pl3 1 <1>  -0.7670 
 12 C       -5.5980     4.8670    -0.3060 C.cat 1 <1>   1.0680 
 13 C       -4.6830     7.2500    -0.6980 C.3   1 <1>   0.3480 
 14 N       -6.9070     5.0490    -0.0170 N.pl3 1 <1>  -0.5960 
 15 C       -4.3310     7.7250     0.7090 C.3   1 <1>  -0.2470 
 16 C       -7.8210     5.9990    -0.7400 C.3   1 <1>   0.1600 
 17 C       -7.6750     4.0770     0.8220 C.3   1 <1>   0.1600 
 18 C       -8.7480     6.7860     0.2150 C.3   1 <1>   0.1360 
 19 C       -8.5550     4.8170     1.8330 C.3   1 <1>  -0.1670 
 20 C       -9.7530     7.6040    -0.5750 C.ar  1 <1>   0.1590 
 21 C       -9.5030     5.8090     1.1410 C.3   1 <1>  -0.1670 
 22 C       -8.0200     7.8860     1.0330 C.3   1 <1>  -0.1670 
 23 N      -10.4260     7.1780    -1.6170 N.ar  1 <1>  -0.6240 
 24 C       -9.8820     8.8640    -0.0690 C.ar  1 <1>  -0.1510 
 25 C       -8.9870     9.0790     1.1240 C.3   1 <1>  -0.0250 
 26 C      -11.2420     8.0860    -2.1360 C.ar  1 <1>   0.7160 
 27 C      -10.7660     9.7150    -0.6870 C.ar  1 <1>   0.1530 
 28 N      -11.4610     9.3290    -1.7340 N.ar  1 <1>  -0.6240 
 29 N      -11.9560     7.6900    -3.1910 N.pl3 1 <1>  -0.9030 
 30 H       -0.4160     5.1180    -1.7670 H     1 <1>   0.1430 
 31 H       -2.7930     1.8220    -0.4730 H     1 <1>   0.1430 
 32 H       -5.4990     2.7980     0.0330 H     1 <1>   0.4450 
 33 H       -5.6280     7.6520    -0.9980 H     1 <1>   0.0720 
 34 H       -3.9500     7.6230    -1.3950 H     1 <1>   0.0720 
 35 H       -5.0340     7.3500     1.4300 H     1 <1>   0.0720 
 36 H       -4.3510     8.7990     0.7400 H     1 <1>   0.0720 
 37 H       -3.3390     7.4030     0.9740 H     1 <1>   0.0720 
 38 H       -8.4500     5.4110    -1.3890 H     1 <1>   0.0720 
 39 H       -7.2860     6.6690    -1.3820 H     1 <1>   0.0720 
 40 H       -7.0120     3.4250     1.3650 H     1 <1>   0.0720 
 41 H       -8.2980     3.4730     0.1830 H     1 <1>   0.0720 
 42 H       -7.9310     5.3260     2.5460 H     1 <1>   0.0720 
 43 H       -9.1410     4.0990     2.3800 H     1 <1>   0.0720 
 44 H      -10.2130     5.2530     0.5510 H     1 <1>   0.0720 
 45 H      -10.0640     6.3560     1.8790 H     1 <1>   0.0720 
 46 H       -7.1590     8.2230     0.4900 H     1 <1>   0.0720 
 47 H       -7.7040     7.5580     2.0070 H     1 <1>   0.0720 
 48 H       -8.4680    10.0210     1.0730 H     1 <1>   0.0720 
 49 H       -9.5710     9.0310     2.0270 H     1 <1>   0.0720 
 50 H      -10.9050    10.7180    -0.3210 H     1 <1>   0.1430 
 51 H      -12.7640     8.2700    -3.3990 H     1 <1>   0.3940 
 52 H      -12.0810     6.6870    -3.2830 H     1 <1>   0.3940 
@<TRIPOS>BOND
  1   1   2  ar  
  2   2   3  ar  
  3   2   4  1   
  4   4   5  ar  
  5   4   6  ar  
  6   5   7  ar  
  7   5  30  1   
  8   6   8  ar  
  9   6  31  1   
 10   7   9  ar  
 11   8   9  ar  
 12   8  10  1   
 13   9  11  1   
 14  10  12  ar  
 15  10  32  1   
 16  11  12  ar  
 17  11  13  1   
 18  12  14  ar  
 19  13  15  1   
 20  13  33  1   
 21  13  34  1   
 22  14  16  1   
 23  14  17  1   
 24  15  35  1   
 25  15  36  1   
 26  15  37  1   
 27  16  18  1   
 28  16  38  1   
 29  16  39  1   
 30  17  19  1   
 31  17  40  1   
 32  17  41  1   
 33  18  20  1   
 34  18  21  1   
 35  18  22  1   
 36  19  21  1   
 37  19  42  1   
 38  19  43  1   
 39  20  23  ar  
 40  20  24  ar  
 41  21  44  1   
 42  21  45  1   
 43  22  25  1   
 44  22  46  1   
 45  22  47  1   
 46  23  26  ar  
 47  24  25  1   
 48  24  27  ar  
 49  25  48  1   
 50  25  49  1   
 51  26  28  ar  
 52  26  29  1   
 53  27  28  ar  
 54  27  50  1   
 55  29  51  1   
 56  29  52  1   
@<TRIPOS>SUBSTRUCTURE
  1 ****  14 GROUP 4 **** **** 0

# MOE 2024.06 (io_trps.svl 2023.06)
