@<TRIPOS>MOLECULE
NONAME
41 43 1 0 0 
SMALL
USER_CHARGES


@<TRIPOS>ATOM
  1 S       -0.4520    -0.3620    -0.0870 S.3   1 <1>  -0.0800 
  2 C       -1.5630    -0.9180    -1.2840 C.2   1 <1>   0.4420 
  3 C       -0.5600     1.2280    -0.7870 C.2   1 <1>   0.3250 
  4 N       -1.9270     0.0220    -2.0760 N.2   1 <1>  -0.3380 
  5 N       -1.9060    -2.2510    -1.2360 N.am  1 <1>  -0.4940 
  6 N       -1.3610     1.2280    -1.7950 N.2   1 <1>  -0.3380 
  7 C        0.1960     2.3270    -0.2280 C.ar  1 <1>   0.0530 
  8 C       -2.7720    -2.9520    -2.0260 C.2   1 <1>   0.5690 
  9 C        1.0340     2.1990     0.8840 C.ar  1 <1>  -0.1500 
 10 C        0.1080     3.5970    -0.8030 C.ar  1 <1>  -0.1500 
 11 O       -3.3840    -2.4720    -2.9430 O.2   1 <1>  -0.5700 
 12 C       -2.9690    -4.4250    -1.7200 C.3   1 <1>  -0.0990 
 13 C        1.7390     3.2750     1.3890 C.ar  1 <1>  -0.1500 
 14 C        0.8110     4.6760    -0.3020 C.ar  1 <1>  -0.1500 
 15 C       -3.5680    -4.6850    -0.3240 C.3   1 <1>  -0.0800 
 16 C        1.6320     4.5230     0.8010 C.ar  1 <1>  -0.1430 
 17 C       -3.7170    -6.1950    -0.0750 C.3   1 <1>   0.1200 
 18 C       -4.9310    -3.9900    -0.1490 C.3   1 <1>  -0.1600 
 19 C        2.4080     5.7050     1.3530 C.3   1 <1>  -0.0970 
 20 O       -4.2540    -6.4030     1.1940 O.3   1 <1>  -0.5600 
 21 C       -5.5550    -4.3960     1.1930 C.3   1 <1>  -0.1600 
 22 C       -5.5520    -5.9200     1.3630 C.3   1 <1>   0.1200 
 23 H       -1.4680    -2.7790    -0.4890 H     1 <1>   0.3700 
 24 H        1.1470     1.2490     1.3740 H     1 <1>   0.1500 
 25 H       -0.5250     3.7410    -1.6620 H     1 <1>   0.1500 
 26 H       -2.0190    -4.9200    -1.8090 H     1 <1>   0.0800 
 27 H       -3.6200    -4.8410    -2.4700 H     1 <1>   0.0800 
 28 H        2.3760     3.1400     2.2460 H     1 <1>   0.1500 
 29 H        0.7170     5.6380    -0.7760 H     1 <1>   0.1500 
 30 H       -2.8900    -4.3060     0.4210 H     1 <1>   0.0800 
 31 H       -2.7590    -6.6830    -0.1050 H     1 <1>   0.0800 
 32 H       -4.3670    -6.6530    -0.8020 H     1 <1>   0.0800 
 33 H       -5.5920    -4.2850    -0.9470 H     1 <1>   0.0800 
 34 H       -4.8250    -2.9200    -0.1850 H     1 <1>   0.0800 
 35 H        2.5520     5.5990     2.4130 H     1 <1>   0.0800 
 36 H        1.8740     6.6220     1.1750 H     1 <1>   0.0800 
 37 H        3.3690     5.7650     0.8760 H     1 <1>   0.0800 
 38 H       -6.5640    -4.0300     1.2520 H     1 <1>   0.0800 
 39 H       -4.9980    -3.9590     2.0030 H     1 <1>   0.0800 
 40 H       -5.8770    -6.1910     2.3520 H     1 <1>   0.0800 
 41 H       -6.1930    -6.3960     0.6410 H     1 <1>   0.0800 
@<TRIPOS>BOND
  1   1   2  1   
  2   1   3  1   
  3   2   4  2   
  4   2   5  1   
  5   3   6  2   
  6   3   7  1   
  7   4   6  1   
  8   5   8  am  
  9   5  23  1   
 10   7   9  ar  
 11   7  10  ar  
 12   8  11  2   
 13   8  12  1   
 14   9  13  ar  
 15   9  24  1   
 16  10  14  ar  
 17  10  25  1   
 18  12  15  1   
 19  12  26  1   
 20  12  27  1   
 21  13  16  ar  
 22  13  28  1   
 23  14  16  ar  
 24  14  29  1   
 25  15  17  1   
 26  15  18  1   
 27  15  30  1   
 28  16  19  1   
 29  17  20  1   
 30  17  31  1   
 31  17  32  1   
 32  18  21  1   
 33  18  33  1   
 34  18  34  1   
 35  19  35  1   
 36  19  36  1   
 37  19  37  1   
 38  20  22  1   
 39  21  22  1   
 40  21  38  1   
 41  21  39  1   
 42  22  40  1   
 43  22  41  1   
@<TRIPOS>SUBSTRUCTURE
  1 ****   2 GROUP 4 **** **** 0

# MOE 2024.06 (io_trps.svl 2023.06)
