@<TRIPOS>MOLECULE
NONAME
52 54 1 0 0 
SMALL
USER_CHARGES


@<TRIPOS>ATOM
  1 O       -0.4190     0.4370    -1.7920 O.2   1 <1>  -0.5700 
  2 C       -1.3730     1.1300    -1.4930 C.2   1 <1>   0.5440 
  3 N       -2.4930     0.5400    -0.9430 N.am  1 <1>  -0.6600 
  4 C       -1.2930     2.5580    -1.7220 C.ar  1 <1>   0.0860 
  5 C       -2.6480    -0.9420    -0.8870 C.3   1 <1>   0.1400 
  6 C       -3.5400     1.2890    -0.1920 C.3   1 <1>   0.1400 
  7 C       -0.2700     3.3290    -1.2070 C.ar  1 <1>  -0.1500 
  8 C       -2.2280     3.2510    -2.4790 C.ar  1 <1>  -0.1500 
  9 C       -2.6450    -1.4090     0.5720 C.3   1 <1>  -0.1600 
 10 C       -3.5500     0.8370     1.2730 C.3   1 <1>  -0.1600 
 11 C       -0.2210     4.6970    -1.4330 C.ar  1 <1>   0.4100 
 12 C       -2.1020     4.6140    -2.6530 C.ar  1 <1>   0.1600 
 13 C       -3.7150    -0.6830     1.3990 C.3   1 <1>  -0.1600 
 14 N       -1.1300     5.3500    -2.1460 N.ar  1 <1>  -0.6200 
 15 N        0.8150     5.4260    -0.8990 N.pl3 1 <1>  -0.8690 
 16 C        1.0720     6.8220    -1.3050 C.3   1 <1>   0.2090 
 17 C        2.1950     7.3850    -0.4420 C.3   1 <1>  -0.1600 
 18 C        2.4530     8.8590    -0.7780 C.3   1 <1>   0.0960 
 19 N        3.5650     9.3900     0.0330 N.pl3 1 <1>   0.3140 
 20 N        4.8340     9.3140    -0.4040 N.2   1 <1>  -0.7070 
 21 C        3.4980     9.9820     1.2490 C.2   1 <1>  -0.3320 
 22 C        5.5440     9.8560     0.5340 C.2   1 <1>   0.1080 
 23 C        4.7640    10.2940     1.5960 C.2   1 <1>  -0.1500 
 24 C        2.2220    10.2260     2.0370 C.3   1 <1>  -0.0600 
 25 C        7.0460     9.9770     0.4430 C.3   1 <1>  -0.0590 
 26 H       -1.8530    -1.4300    -1.4250 H     1 <1>   0.0800 
 27 H       -3.5780    -1.2130    -1.3560 H     1 <1>   0.0800 
 28 H       -4.4990     1.0940    -0.6400 H     1 <1>   0.0800 
 29 H       -3.3610     2.3490    -0.2280 H     1 <1>   0.0800 
 30 H        0.4980     2.8610    -0.6220 H     1 <1>   0.1500 
 31 H       -3.0460     2.7180    -2.9290 H     1 <1>   0.1500 
 32 H       -1.6710    -1.2220     0.9890 H     1 <1>   0.0800 
 33 H       -2.8170    -2.4700     0.6050 H     1 <1>   0.0800 
 34 H       -4.3500     1.3320     1.7930 H     1 <1>   0.0800 
 35 H       -2.6250     1.1390     1.7330 H     1 <1>   0.0800 
 36 H       -2.8400     5.1300    -3.2430 H     1 <1>   0.1500 
 37 H       -3.6350    -0.9740     2.4330 H     1 <1>   0.0800 
 38 H       -4.6920    -0.9680     1.0470 H     1 <1>   0.0800 
 39 H        1.6630     4.8940    -0.6960 H     1 <1>   0.4000 
 40 H        0.1730     7.4020    -1.1690 H     1 <1>   0.0800 
 41 H        1.3440     6.8470    -2.3470 H     1 <1>   0.0800 
 42 H        3.0960     6.8240    -0.6190 H     1 <1>   0.0800 
 43 H        1.9210     7.3000     0.5950 H     1 <1>   0.0800 
 44 H        1.5760     9.4510    -0.5930 H     1 <1>   0.0800 
 45 H        2.7230     8.9610    -1.8140 H     1 <1>   0.0800 
 46 H        5.1220    10.7730     2.4890 H     1 <1>   0.1500 
 47 H        1.7220     9.2950     2.2360 H     1 <1>   0.0800 
 48 H        1.5610    10.8710     1.4850 H     1 <1>   0.0800 
 49 H        2.4530    10.6970     2.9760 H     1 <1>   0.0800 
 50 H        7.3050    10.5470    -0.4300 H     1 <1>   0.0800 
 51 H        7.4790     8.9980     0.3620 H     1 <1>   0.0800 
 52 H        7.4370    10.4670     1.3150 H     1 <1>   0.0800 
@<TRIPOS>BOND
  1   1   2  2   
  2   2   3  am  
  3   2   4  1   
  4   3   5  1   
  5   3   6  1   
  6   4   7  ar  
  7   4   8  ar  
  8   5   9  1   
  9   5  26  1   
 10   5  27  1   
 11   6  10  1   
 12   6  28  1   
 13   6  29  1   
 14   7  11  ar  
 15   7  30  1   
 16   8  12  ar  
 17   8  31  1   
 18   9  13  1   
 19   9  32  1   
 20   9  33  1   
 21  10  13  1   
 22  10  34  1   
 23  10  35  1   
 24  11  14  ar  
 25  11  15  1   
 26  12  14  ar  
 27  12  36  1   
 28  13  37  1   
 29  13  38  1   
 30  15  16  1   
 31  15  39  1   
 32  16  17  1   
 33  16  40  1   
 34  16  41  1   
 35  17  18  1   
 36  17  42  1   
 37  17  43  1   
 38  18  19  1   
 39  18  44  1   
 40  18  45  1   
 41  19  20  1   
 42  19  21  1   
 43  20  22  2   
 44  21  23  2   
 45  21  24  1   
 46  22  23  1   
 47  22  25  1   
 48  23  46  1   
 49  24  47  1   
 50  24  48  1   
 51  24  49  1   
 52  25  50  1   
 53  25  51  1   
 54  25  52  1   
@<TRIPOS>SUBSTRUCTURE
  1 ****  15 GROUP 4 **** **** 0

# MOE 2024.06 (io_trps.svl 2023.06)
