@<TRIPOS>MOLECULE
NONAME
52 54 1 0 0 
SMALL
USER_CHARGES


@<TRIPOS>ATOM
  1 O       -0.5390     2.8060     0.1040 O.2   1 <1>  -0.5700 
  2 C        0.3030     2.0850    -0.3760 C.2   1 <1>   0.5690 
  3 N       -0.0780     1.1110    -1.2310 N.am  1 <1>  -0.8000 
  4 C        1.7920     2.2920    -0.0070 C.3   1 <1>   0.3500 
  5 N        2.0600     3.6840     0.4730 N.pl3 1 <1>  -0.8690 
  6 C        2.2420     1.3040     1.0770 C.3   1 <1>  -0.0170 
  7 C        3.0890     4.5120     0.2530 C.ar  1 <1>   0.4100 
  8 C        2.2380    -0.1240     0.5510 C.ar  1 <1>  -0.1430 
  9 N        2.8760     5.7570     0.6000 N.ar  1 <1>  -0.6200 
 10 C        4.3080     4.0870    -0.3040 C.ar  1 <1>  -0.1500 
 11 C        1.1810    -0.9740     0.8460 C.ar  1 <1>  -0.1500 
 12 C        3.2850    -0.5830    -0.2370 C.ar  1 <1>  -0.1500 
 13 C        3.8460     6.6410     0.4090 C.ar  1 <1>   0.7710 
 14 C        5.2880     5.0020    -0.4990 C.ar  1 <1>   0.2180 
 15 C        1.1620    -2.2630     0.3460 C.ar  1 <1>  -0.1500 
 16 C        3.2700    -1.8730    -0.7380 C.ar  1 <1>  -0.1500 
 17 N        5.0230     6.2790    -0.1330 N.ar  1 <1>  -0.1790 
 18 N        3.6540     7.9430     0.7570 N.pl3 1 <1>  -0.8380 
 19 C        6.6450     4.6730    -1.0960 C.3   1 <1>  -0.0970 
 20 C        2.2040    -2.7070    -0.4470 C.ar  1 <1>   0.0830 
 21 C        2.3030     8.4550     1.1680 C.3   1 <1>   0.2090 
 22 C        4.6760     9.0350     0.7850 C.3   1 <1>   0.2090 
 23 O        2.1700    -3.9580    -0.9280 O.3   1 <1>  -0.5330 
 24 C        1.8580     9.5400     0.1810 C.3   1 <1>  -0.1600 
 25 C        4.2850    10.1160    -0.2260 C.3   1 <1>  -0.1600 
 26 C        2.8860    10.6750     0.0710 C.3   1 <1>  -0.1600 
 27 H       -1.0710     0.9960    -1.4380 H     1 <1>   0.3700 
 28 H        0.5280     0.3380    -1.5180 H     1 <1>   0.3700 
 29 H        2.3690     2.1190    -0.8970 H     1 <1>   0.0800 
 30 H        1.1950     4.1140     0.8360 H     1 <1>   0.4000 
 31 H        3.2360     1.5520     1.4010 H     1 <1>   0.0800 
 32 H        1.5870     1.3870     1.9270 H     1 <1>   0.0800 
 33 H        4.4340     3.0530    -0.5590 H     1 <1>   0.1500 
 34 H        0.3640    -0.6370     1.4630 H     1 <1>   0.1500 
 35 H        4.1190     0.0570    -0.4640 H     1 <1>   0.1500 
 36 H        0.3450    -2.9270     0.5680 H     1 <1>   0.1500 
 37 H        4.0830    -2.2230    -1.3480 H     1 <1>   0.1500 
 38 H        5.6830     7.0320    -0.2700 H     1 <1>   0.4570 
 39 H        6.7070     3.6260    -1.3370 H     1 <1>   0.0800 
 40 H        7.4300     4.9020    -0.3970 H     1 <1>   0.0800 
 41 H        6.8050     5.2340    -2.0010 H     1 <1>   0.0800 
 42 H        1.5590     7.6770     1.1890 H     1 <1>   0.0800 
 43 H        2.3660     8.8690     2.1600 H     1 <1>   0.0800 
 44 H        4.7000     9.4670     1.7730 H     1 <1>   0.0800 
 45 H        5.6650     8.6740     0.5690 H     1 <1>   0.0800 
 46 H        2.9650    -4.2010    -1.4350 H     1 <1>   0.4500 
 47 H        1.7060     9.0890    -0.7840 H     1 <1>   0.0800 
 48 H        0.9130     9.9420     0.5020 H     1 <1>   0.0800 
 49 H        5.0020    10.9180    -0.1890 H     1 <1>   0.0800 
 50 H        4.3050     9.7040    -1.2200 H     1 <1>   0.0800 
 51 H        2.9100    11.2220     0.9990 H     1 <1>   0.0800 
 52 H        2.5910    11.3600    -0.7060 H     1 <1>   0.0800 
@<TRIPOS>BOND
  1   1   2  2   
  2   2   3  am  
  3   2   4  1   
  4   3  27  1   
  5   3  28  1   
  6   4   5  1   
  7   4   6  1   
  8   4  29  1   
  9   5   7  1   
 10   5  30  1   
 11   6   8  1   
 12   6  31  1   
 13   6  32  1   
 14   7   9  ar  
 15   7  10  ar  
 16   8  11  ar  
 17   8  12  ar  
 18   9  13  ar  
 19  10  14  ar  
 20  10  33  1   
 21  11  15  ar  
 22  11  34  1   
 23  12  16  ar  
 24  12  35  1   
 25  13  17  ar  
 26  13  18  1   
 27  14  17  ar  
 28  14  19  1   
 29  15  20  ar  
 30  15  36  1   
 31  16  20  ar  
 32  16  37  1   
 33  17  38  1   
 34  18  21  1   
 35  18  22  1   
 36  19  39  1   
 37  19  40  1   
 38  19  41  1   
 39  20  23  1   
 40  21  24  1   
 41  21  42  1   
 42  21  43  1   
 43  22  25  1   
 44  22  44  1   
 45  22  45  1   
 46  23  46  1   
 47  24  26  1   
 48  24  47  1   
 49  24  48  1   
 50  25  26  1   
 51  25  49  1   
 52  25  50  1   
 53  26  51  1   
 54  26  52  1   
@<TRIPOS>SUBSTRUCTURE
  1 ****   5 GROUP 4 **** **** 0

# MOE 2024.06 (io_trps.svl 2023.06)
