@<TRIPOS>MOLECULE
NONAME
50 52 1 0 0 
SMALL
USER_CHARGES


@<TRIPOS>ATOM
  1 O       -0.1060     1.6190    -0.8020 O.2   1 <1>  -0.5700 
  2 C       -0.0580     2.8210    -0.8560 C.2   1 <1>   0.5690 
  3 N        0.2340     3.5520     0.2410 N.am  1 <1>  -0.7300 
  4 C       -0.3600     3.5450    -2.1710 C.3   1 <1>   0.1810 
  5 C        0.2510     5.0360     0.2660 C.3   1 <1>   0.3640 
  6 O        0.1270     4.8700    -2.1830 O.3   1 <1>  -0.5600 
  7 C       -0.5570     5.5100     1.4710 C.ar  1 <1>  -0.1440 
  8 C       -0.2700     5.6510    -1.0610 C.3   1 <1>   0.2610 
  9 C       -0.0660     6.5360     2.2670 C.ar  1 <1>  -0.1500 
 10 C       -1.7850     4.9420     1.7910 C.ar  1 <1>  -0.1500 
 11 C        0.2530     7.0850    -1.1990 C.2   1 <1>   0.5690 
 12 C       -0.7850     6.9880     3.3590 C.ar  1 <1>  -0.1500 
 13 C       -2.5030     5.3910     2.8860 C.ar  1 <1>  -0.1500 
 14 O       -0.2100     7.9610    -0.5090 O.2   1 <1>  -0.5700 
 15 N        1.2540     7.3520    -2.0830 N.am  1 <1>  -0.7300 
 16 C       -2.0040     6.4140     3.6710 C.ar  1 <1>  -0.1500 
 17 C        1.8520     8.6920    -2.2950 C.3   1 <1>   0.1400 
 18 C        3.1060     8.8480    -1.4320 C.3   1 <1>   0.0200 
 19 C        3.3080    10.3070    -1.0700 C.2   1 <1>   0.0060 
 20 N        4.0150    11.1280    -1.7660 N.2   1 <1>  -0.3380 
 21 N        2.7700    10.9060     0.0010 N.pl3 1 <1>   0.0480 
 22 N        3.9540    12.3130    -1.1550 N.2   1 <1>  -0.3380 
 23 C        3.2120    12.1580    -0.1150 C.2   1 <1>   0.0360 
 24 C        1.9340    10.3430     1.0810 C.3   1 <1>   0.0960 
 25 C        2.8340     9.7870     2.1830 C.3   1 <1>   0.1200 
 26 O        2.0280     9.1840     3.1420 O.3   1 <1>  -0.5600 
 27 C        2.7310     8.6420     4.2140 C.3   1 <1>   0.0400 
 28 H        0.3830     3.0700     1.1290 H     1 <1>   0.3700 
 29 H       -1.4220     3.5700    -2.3320 H     1 <1>   0.0800 
 30 H        0.1030     3.0150    -2.9830 H     1 <1>   0.0800 
 31 H        1.2730     5.3450     0.3970 H     1 <1>   0.0800 
 32 H       -1.3450     5.6880    -1.0460 H     1 <1>   0.0800 
 33 H        0.8760     7.0060     2.0410 H     1 <1>   0.1500 
 34 H       -2.1930     4.1460     1.1930 H     1 <1>   0.1500 
 35 H       -0.3940     7.7920     3.9590 H     1 <1>   0.1500 
 36 H       -3.4520     4.9450     3.1270 H     1 <1>   0.1500 
 37 H        1.5490     6.5940    -2.7080 H     1 <1>   0.3700 
 38 H       -2.5630     6.7660     4.5200 H     1 <1>   0.1500 
 39 H        2.0940     8.8340    -3.3340 H     1 <1>   0.0800 
 40 H        1.1300     9.4440    -2.0200 H     1 <1>   0.0800 
 41 H        3.9610     8.4940    -1.9780 H     1 <1>   0.0800 
 42 H        3.0160     8.2680    -0.5320 H     1 <1>   0.0800 
 43 H        2.9720    12.9370     0.5860 H     1 <1>   0.1500 
 44 H        1.3030    11.1170     1.4780 H     1 <1>   0.0800 
 45 H        1.3160     9.5610     0.6800 H     1 <1>   0.0800 
 46 H        3.3910    10.5810     2.6510 H     1 <1>   0.0800 
 47 H        3.5040     9.0440     1.7870 H     1 <1>   0.0800 
 48 H        2.0220     8.2020     4.8930 H     1 <1>   0.0800 
 49 H        3.2750     9.4230     4.7160 H     1 <1>   0.0800 
 50 H        3.4040     7.8820     3.8530 H     1 <1>   0.0800 
@<TRIPOS>BOND
  1   1   2  2   
  2   2   3  am  
  3   2   4  1   
  4   3   5  1   
  5   3  28  1   
  6   4   6  1   
  7   4  29  1   
  8   4  30  1   
  9   5   7  1   
 10   5   8  1   
 11   5  31  1   
 12   6   8  1   
 13   7   9  ar  
 14   7  10  ar  
 15   8  11  1   
 16   8  32  1   
 17   9  12  ar  
 18   9  33  1   
 19  10  13  ar  
 20  10  34  1   
 21  11  14  2   
 22  11  15  am  
 23  12  16  ar  
 24  12  35  1   
 25  13  16  ar  
 26  13  36  1   
 27  15  17  1   
 28  15  37  1   
 29  16  38  1   
 30  17  18  1   
 31  17  39  1   
 32  17  40  1   
 33  18  19  1   
 34  18  41  1   
 35  18  42  1   
 36  19  20  2   
 37  19  21  1   
 38  20  22  1   
 39  21  23  1   
 40  21  24  1   
 41  22  23  2   
 42  23  43  1   
 43  24  25  1   
 44  24  44  1   
 45  24  45  1   
 46  25  26  1   
 47  25  46  1   
 48  25  47  1   
 49  26  27  1   
 50  27  48  1   
 51  27  49  1   
 52  27  50  1   
@<TRIPOS>SUBSTRUCTURE
  1 ****  14 GROUP 4 **** **** 0

# MOE 2024.06 (io_trps.svl 2023.06)
