@<TRIPOS>MOLECULE
NONAME
35 37 1 0 0 
SMALL
USER_CHARGES


@<TRIPOS>ATOM
  1 S        0.1870    -0.0740    -1.6060 S.3   1 <1>  -0.0800 
  2 C        0.9680    -1.2350    -0.5550 C.2   1 <1>  -0.1400 
  3 C        1.6280     0.9290    -1.6070 C.2   1 <1>  -0.1100 
  4 C        2.2240    -0.8640    -0.2590 C.2   1 <1>  -0.1810 
  5 C        0.2270    -2.4730    -0.0990 C.3   1 <1>   0.0200 
  6 C        2.6090     0.3870    -0.8540 C.2   1 <1>  -0.1810 
  7 C        3.1090    -1.7220     0.6340 C.3   1 <1>   0.0210 
  8 C        1.0090    -3.1340     1.0510 C.3   1 <1>  -0.1600 
  9 C        3.9920     0.9760    -0.6260 C.3   1 <1>   0.3900 
 10 C        2.5290    -3.1440     0.7850 C.3   1 <1>  -0.1600 
 11 N        4.0120     2.4000    -1.0040 N.pl3 1 <1>  -0.8690 
 12 C        5.0850     3.1810    -0.7210 C.ar  1 <1>   0.4100 
 13 N        4.8130     4.2750    -0.0540 N.ar  1 <1>  -0.6200 
 14 C        6.3730     2.8620    -1.1010 C.ar  1 <1>  -0.1500 
 15 C        5.8500     5.0380     0.2360 C.ar  1 <1>   0.4770 
 16 C        7.3680     3.7290    -0.7440 C.ar  1 <1>   0.1600 
 17 N        7.1210     4.8320    -0.0640 N.ar  1 <1>  -0.6200 
 18 C        5.5560     6.3050     1.0040 C.3   1 <1>  -0.0970 
 19 H        1.5930     1.8350    -2.1860 H     1 <1>   0.1500 
 20 H        0.1430    -3.1510    -0.9300 H     1 <1>   0.0800 
 21 H       -0.7620    -2.2100     0.2320 H     1 <1>   0.0800 
 22 H        3.1760    -1.2560     1.6010 H     1 <1>   0.0800 
 23 H        4.0980    -1.7910     0.2180 H     1 <1>   0.0800 
 24 H        0.6520    -4.1390     1.1940 H     1 <1>   0.0800 
 25 H        0.8210    -2.5850     1.9570 H     1 <1>   0.0800 
 26 H        4.7140     0.4320    -1.2090 H     1 <1>   0.0800 
 27 H        4.2510     0.8920     0.4160 H     1 <1>   0.0800 
 28 H        3.0360    -3.6530     1.5860 H     1 <1>   0.0800 
 29 H        2.7150    -3.6920    -0.1230 H     1 <1>   0.0800 
 30 H        3.1420     2.8550    -0.7190 H     1 <1>   0.4000 
 31 H        6.5730     1.9720    -1.6610 H     1 <1>   0.1500 
 32 H        8.3900     3.5280    -1.0160 H     1 <1>   0.1500 
 33 H        4.5430     6.3030     1.3610 H     1 <1>   0.0800 
 34 H        5.7000     7.1510     0.3600 H     1 <1>   0.0800 
 35 H        6.2220     6.3810     1.8420 H     1 <1>   0.0800 
@<TRIPOS>BOND
  1   1   2  1   
  2   1   3  1   
  3   2   4  2   
  4   2   5  1   
  5   3   6  2   
  6   3  19  1   
  7   4   6  1   
  8   4   7  1   
  9   5   8  1   
 10   5  20  1   
 11   5  21  1   
 12   6   9  1   
 13   7  10  1   
 14   7  22  1   
 15   7  23  1   
 16   8  10  1   
 17   8  24  1   
 18   8  25  1   
 19   9  11  1   
 20   9  26  1   
 21   9  27  1   
 22  10  28  1   
 23  10  29  1   
 24  11  12  1   
 25  11  30  1   
 26  12  13  ar  
 27  12  14  ar  
 28  13  15  ar  
 29  14  16  ar  
 30  14  31  1   
 31  15  17  ar  
 32  15  18  1   
 33  16  17  ar  
 34  16  32  1   
 35  18  33  1   
 36  18  34  1   
 37  18  35  1   
@<TRIPOS>SUBSTRUCTURE
  1 ****   9 GROUP 4 **** **** 0

# MOE 2024.06 (io_trps.svl 2023.06)
