@<TRIPOS>MOLECULE
NONAME
44 46 1 0 0 
SMALL
USER_CHARGES


@<TRIPOS>ATOM
  1 O       -1.6000     0.7590    -2.5060 O.2   1 <1>  -0.5700 
  2 C       -1.9670     1.1550    -1.4240 C.2   1 <1>   0.5690 
  3 N       -2.4180     0.2790    -0.4720 N.am  1 <1>  -0.6600 
  4 C       -1.9250     2.6540    -1.1650 C.3   1 <1>   0.0820 
  5 C       -2.7930     0.5780     0.9370 C.3   1 <1>   0.1400 
  6 C       -2.4840    -1.1840    -0.7170 C.3   1 <1>   0.1400 
  7 C       -0.9250     3.0550    -0.0860 C.2   1 <1>  -0.1810 
  8 C       -2.6290    -0.7580     1.6620 C.3   1 <1>   0.2000 
  9 C       -2.9900    -1.7950     0.5940 C.3   1 <1>  -0.0800 
 10 C        0.3370     2.6440     0.1240 C.2   1 <1>  -0.0400 
 11 C       -1.1390     3.9650     0.9520 C.2   1 <1>   0.1080 
 12 O       -1.2950    -0.8950     2.0110 O.3   1 <1>  -0.6800 
 13 C       -2.4700    -3.2210     0.8570 C.3   1 <1>  -0.0170 
 14 O        0.7850     3.2510     1.1900 O.3   1 <1>  -0.0190 
 15 C        1.2540     1.6820    -0.6050 C.3   1 <1>  -0.0600 
 16 N       -0.1010     4.0540     1.7010 N.2   1 <1>  -0.4100 
 17 C       -2.4050     4.7590     1.1990 C.3   1 <1>  -0.0590 
 18 C       -2.9460    -4.1800    -0.2230 C.ar  1 <1>  -0.1430 
 19 C       -2.1550    -4.5200    -1.3020 C.ar  1 <1>  -0.1500 
 20 C       -4.1990    -4.7580    -0.1810 C.ar  1 <1>  -0.1500 
 21 C       -2.6430    -5.3920    -2.2610 C.ar  1 <1>   0.1600 
 22 C       -4.5900    -5.6190    -1.1920 C.ar  1 <1>   0.1600 
 23 N       -3.8420    -5.9490    -2.2320 N.ar  1 <1>  -0.6200 
 24 H       -1.6660     3.1580    -2.0780 H     1 <1>   0.0800 
 25 H       -2.9140     2.9680    -0.8920 H     1 <1>   0.0800 
 26 H       -2.1740     1.3360     1.3830 H     1 <1>   0.0800 
 27 H       -3.8240     0.8850     0.9670 H     1 <1>   0.0800 
 28 H       -3.1470    -1.4050    -1.5370 H     1 <1>   0.0800 
 29 H       -1.4970    -1.5420    -0.9550 H     1 <1>   0.0800 
 30 H       -3.2260    -0.8350     2.5540 H     1 <1>   0.0800 
 31 H       -4.0630    -1.8360     0.5320 H     1 <1>   0.0800 
 32 H       -0.7410    -0.5940     1.2630 H     1 <1>   0.4000 
 33 H       -2.8230    -3.5590     1.8150 H     1 <1>   0.0800 
 34 H       -1.3940    -3.2280     0.8920 H     1 <1>   0.0800 
 35 H        0.7990     1.3250    -1.5100 H     1 <1>   0.0800 
 36 H        1.4810     0.8450     0.0290 H     1 <1>   0.0800 
 37 H        2.1700     2.1820    -0.8600 H     1 <1>   0.0800 
 38 H       -2.6550     5.3300     0.3240 H     1 <1>   0.0800 
 39 H       -2.2560     5.4360     2.0210 H     1 <1>   0.0800 
 40 H       -3.2140     4.0960     1.4390 H     1 <1>   0.0800 
 41 H       -1.1640    -4.1160    -1.4090 H     1 <1>   0.1500 
 42 H       -4.8740    -4.5470     0.6280 H     1 <1>   0.1500 
 43 H       -2.0120    -5.6450    -3.0960 H     1 <1>   0.1500 
 44 H       -5.5710    -6.0610    -1.1420 H     1 <1>   0.1500 
@<TRIPOS>BOND
  1   1   2  2   
  2   2   3  am  
  3   2   4  1   
  4   3   5  1   
  5   3   6  1   
  6   4   7  1   
  7   4  24  1   
  8   4  25  1   
  9   5   8  1   
 10   5  26  1   
 11   5  27  1   
 12   6   9  1   
 13   6  28  1   
 14   6  29  1   
 15   7  10  2   
 16   7  11  1   
 17   8   9  1   
 18   8  12  1   
 19   8  30  1   
 20   9  13  1   
 21   9  31  1   
 22  10  14  1   
 23  10  15  1   
 24  11  16  2   
 25  11  17  1   
 26  12  32  1   
 27  13  18  1   
 28  13  33  1   
 29  13  34  1   
 30  14  16  1   
 31  15  35  1   
 32  15  36  1   
 33  15  37  1   
 34  17  38  1   
 35  17  39  1   
 36  17  40  1   
 37  18  19  ar  
 38  18  20  ar  
 39  19  21  ar  
 40  19  41  1   
 41  20  22  ar  
 42  20  42  1   
 43  21  23  ar  
 44  21  43  1   
 45  22  23  ar  
 46  22  44  1   
@<TRIPOS>SUBSTRUCTURE
  1 ****   3 GROUP 4 **** **** 0

# MOE 2024.06 (io_trps.svl 2023.06)
