@<TRIPOS>MOLECULE
NONAME
63 65 1 0 0 
SMALL
USER_CHARGES


@<TRIPOS>ATOM
  1 O        1.1750    -0.3590    -0.9670 O.2   1 <1>  -0.5700 
  2 C        1.1090    -1.4160    -0.3870 C.2   1 <1>   0.5690 
  3 N        2.1410    -2.3020    -0.3310 N.am  1 <1>  -0.7300 
  4 C       -0.1870    -1.7900     0.3280 C.3   1 <1>   0.1810 
  5 C        3.4830    -2.2580    -0.9640 C.3   1 <1>   0.3000 
  6 O       -0.0900    -3.0570     0.9440 O.3   1 <1>  -0.5600 
  7 C        4.2250    -3.5640    -0.5260 C.3   1 <1>   0.2000 
  8 C        4.2520    -1.0240    -0.4540 C.3   1 <1>  -0.1600 
  9 C        3.2600    -2.1490    -2.4850 C.3   1 <1>  -0.2400 
 10 C       -1.2490    -3.4440     1.6120 C.3   1 <1>   0.0400 
 11 O        3.9630    -4.6350    -1.3900 O.3   1 <1>  -0.6800 
 12 C        5.7630    -3.4140    -0.2900 C.3   1 <1>   0.2800 
 13 C        5.0640    -1.3520     0.7970 C.3   1 <1>   0.1200 
 14 O        6.0760    -2.2680     0.4720 O.3   1 <1>  -0.5600 
 15 C        6.5710    -3.2730    -1.5920 C.3   1 <1>  -0.1600 
 16 C        6.2980    -4.6160     0.5230 C.3   1 <1>  -0.1600 
 17 C        8.0640    -3.0680    -1.3190 C.3   1 <1>   0.3430 
 18 C        7.6910    -5.0980     0.1010 C.3   1 <1>   0.3430 
 19 N        8.5900    -3.9620    -0.2350 N.4   1 <1>  -0.9590 
 20 C        8.9500    -3.1600     0.9680 C.3   1 <1>   0.5230 
 21 C       10.1830    -2.3500     0.6270 C.2   1 <1>  -0.0400 
 22 O       11.2210    -2.9820     0.1100 O.3   1 <1>  -0.2800 
 23 C       10.4410    -1.0290     0.7390 C.2   1 <1>  -0.1500 
 24 C       12.1650    -2.0900    -0.1150 C.2   1 <1>  -0.0400 
 25 C       11.7430    -0.8600     0.2530 C.2   1 <1>  -0.1500 
 26 C       13.4800    -2.5730    -0.7060 C.3   1 <1>   0.0200 
 27 C       14.4850    -1.4330    -0.9210 C.3   1 <1>  -0.1600 
 28 C       15.8000    -1.9460    -1.5180 C.3   1 <1>  -0.2400 
 29 H        1.9120    -3.1540     0.1910 H     1 <1>   0.3700 
 30 H       -0.9890    -1.8140    -0.3880 H     1 <1>   0.0800 
 31 H       -0.3980    -1.0540     1.0820 H     1 <1>   0.0800 
 32 H        3.8160    -3.8560     0.4260 H     1 <1>   0.0800 
 33 H        3.5810    -0.2120    -0.2420 H     1 <1>   0.0800 
 34 H        4.9320    -0.6680    -1.2060 H     1 <1>   0.0800 
 35 H        4.1800    -2.2690    -3.0230 H     1 <1>   0.0800 
 36 H        2.8600    -1.1830    -2.7370 H     1 <1>   0.0800 
 37 H        2.5720    -2.8990    -2.8280 H     1 <1>   0.0800 
 38 H       -1.0790    -4.4150     2.0440 H     1 <1>   0.0800 
 39 H       -2.0640    -3.4990     0.9100 H     1 <1>   0.0800 
 40 H       -1.4660    -2.7340     2.3910 H     1 <1>   0.0800 
 41 H        3.0100    -4.6530    -1.6180 H     1 <1>   0.4000 
 42 H        4.4420    -1.7740     1.5680 H     1 <1>   0.0800 
 43 H        5.5360    -0.4640     1.1820 H     1 <1>   0.0800 
 44 H        6.4360    -4.1460    -2.2050 H     1 <1>   0.0800 
 45 H        6.2210    -2.4360    -2.1630 H     1 <1>   0.0800 
 46 H        6.2870    -4.3830     1.5730 H     1 <1>   0.0800 
 47 H        5.6440    -5.4600     0.3970 H     1 <1>   0.0800 
 48 H        8.2200    -2.0390    -1.0370 H     1 <1>   0.0800 
 49 H        8.6140    -3.2400    -2.2300 H     1 <1>   0.0800 
 50 H        7.5830    -5.7220    -0.7720 H     1 <1>   0.0800 
 51 H        8.1220    -5.7020     0.8840 H     1 <1>   0.0800 
 52 H        9.5030    -4.3210    -0.5550 H     1 <1>   0.4500 
 53 H        8.1430    -2.5110     1.2590 H     1 <1>   0.0800 
 54 H        9.1840    -3.8150     1.7900 H     1 <1>   0.0800 
 55 H        9.8180    -0.2360     1.1150 H     1 <1>   0.1500 
 56 H       12.2690     0.0780     0.2030 H     1 <1>   0.1500 
 57 H       13.9060    -3.3040    -0.0420 H     1 <1>   0.0800 
 58 H       13.2790    -3.0540    -1.6470 H     1 <1>   0.0800 
 59 H       14.0580    -0.7000    -1.5840 H     1 <1>   0.0800 
 60 H       14.6880    -0.9540     0.0220 H     1 <1>   0.0800 
 61 H       15.6260    -2.4090    -2.4730 H     1 <1>   0.0800 
 62 H       16.2580    -2.6640    -0.8610 H     1 <1>   0.0800 
 63 H       16.4840    -1.1270    -1.6560 H     1 <1>   0.0800 
@<TRIPOS>BOND
  1   1   2  2   
  2   2   3  am  
  3   2   4  1   
  4   3   5  1   
  5   3  29  1   
  6   4   6  1   
  7   4  30  1   
  8   4  31  1   
  9   5   7  1   
 10   5   8  1   
 11   5   9  1   
 12   6  10  1   
 13   7  11  1   
 14   7  12  1   
 15   7  32  1   
 16   8  13  1   
 17   8  33  1   
 18   8  34  1   
 19   9  35  1   
 20   9  36  1   
 21   9  37  1   
 22  10  38  1   
 23  10  39  1   
 24  10  40  1   
 25  11  41  1   
 26  12  14  1   
 27  12  15  1   
 28  12  16  1   
 29  13  14  1   
 30  13  42  1   
 31  13  43  1   
 32  15  17  1   
 33  15  44  1   
 34  15  45  1   
 35  16  18  1   
 36  16  46  1   
 37  16  47  1   
 38  17  19  1   
 39  17  48  1   
 40  17  49  1   
 41  18  19  1   
 42  18  50  1   
 43  18  51  1   
 44  19  20  1   
 45  19  52  1   
 46  20  21  1   
 47  20  53  1   
 48  20  54  1   
 49  21  22  1   
 50  21  23  2   
 51  22  24  1   
 52  23  25  1   
 53  23  55  1   
 54  24  25  2   
 55  24  26  1   
 56  25  56  1   
 57  26  27  1   
 58  26  57  1   
 59  26  58  1   
 60  27  28  1   
 61  27  59  1   
 62  27  60  1   
 63  28  61  1   
 64  28  62  1   
 65  28  63  1   
@<TRIPOS>SUBSTRUCTURE
  1 ****  14 GROUP 4 **** **** 0

# MOE 2024.06 (io_trps.svl 2023.06)
