@<TRIPOS>MOLECULE
NONAME
45 47 1 0 0 
SMALL
USER_CHARGES


@<TRIPOS>ATOM
  1 O       -1.2440     0.5760     2.4610 O.2   1 <1>  -0.5700 
  2 C       -1.8380     0.9970     1.4870 C.2   1 <1>   0.5440 
  3 N       -2.7710     0.1900     0.8820 N.am  1 <1>  -0.6600 
  4 C       -1.5860     2.3360     0.9910 C.ar  1 <1>   0.0860 
  5 C       -3.8030     0.6490    -0.0760 C.3   1 <1>   0.1400 
  6 C       -3.0090    -1.2220     1.2710 C.3   1 <1>   0.1400 
  7 C       -0.8310     2.5890    -0.1630 C.ar  1 <1>  -0.1440 
  8 C       -2.1230     3.4240     1.6770 C.ar  1 <1>  -0.1500 
  9 C       -4.9450    -0.3500     0.1050 C.3   1 <1>   0.2000 
 10 C       -4.2480    -1.6640     0.4730 C.3   1 <1>  -0.0800 
 11 C       -0.6500     3.8910    -0.6020 C.ar  1 <1>  -0.1500 
 12 C       -0.1770     1.4550    -0.9500 C.3   1 <1>  -0.0160 
 13 C       -1.9400     4.7200     1.2330 C.ar  1 <1>  -0.1500 
 14 O       -5.7030     0.0480     1.1930 O.3   1 <1>  -0.6800 
 15 C       -3.8710    -2.4550    -0.7960 C.3   1 <1>  -0.0170 
 16 C       -1.2030     4.9540     0.0880 C.ar  1 <1>  -0.1500 
 17 C        1.1540     1.0530    -0.3100 C.3   1 <1>  -0.2400 
 18 C       -3.2650    -3.8090    -0.4670 C.ar  1 <1>   0.1670 
 19 N       -1.9460    -3.8960    -0.5250 N.ar  1 <1>  -0.6200 
 20 C       -4.0980    -4.8680    -0.1330 C.ar  1 <1>  -0.1500 
 21 C       -1.4340    -5.0810    -0.2330 C.ar  1 <1>   0.1600 
 22 C       -3.5520    -6.0970     0.1680 C.ar  1 <1>  -0.1500 
 23 C       -2.1790    -6.1960     0.1140 C.ar  1 <1>  -0.1500 
 24 H       -4.1220     1.6590     0.1230 H     1 <1>   0.0800 
 25 H       -3.4080     0.5850    -1.0740 H     1 <1>   0.0800 
 26 H       -2.1390    -1.8190     1.0560 H     1 <1>   0.0800 
 27 H       -3.2060    -1.2660     2.3290 H     1 <1>   0.0800 
 28 H       -2.6900     3.2420     2.5730 H     1 <1>   0.1500 
 29 H       -5.5920    -0.4190    -0.7520 H     1 <1>   0.0800 
 30 H       -4.8900    -2.2800     1.0790 H     1 <1>   0.0800 
 31 H       -0.0680     4.0870    -1.4860 H     1 <1>   0.1500 
 32 H       -0.8250     0.5980    -0.9950 H     1 <1>   0.0800 
 33 H        0.0010     1.7690    -1.9630 H     1 <1>   0.0800 
 34 H       -2.3660     5.5440     1.7780 H     1 <1>   0.1500 
 35 H       -5.0990     0.2220     1.9440 H     1 <1>   0.4000 
 36 H       -3.1730    -1.8920    -1.3920 H     1 <1>   0.0800 
 37 H       -4.7510    -2.6140    -1.3930 H     1 <1>   0.0800 
 38 H       -1.0560     5.9610    -0.2630 H     1 <1>   0.1500 
 39 H        0.9930     0.6990     0.6940 H     1 <1>   0.0800 
 40 H        1.8210     1.8960    -0.2740 H     1 <1>   0.0800 
 41 H        1.6160     0.2670    -0.8790 H     1 <1>   0.0800 
 42 H       -5.1640    -4.7330    -0.1060 H     1 <1>   0.1500 
 43 H       -0.3620    -5.1690    -0.2720 H     1 <1>   0.1500 
 44 H       -4.1680    -6.9390     0.4320 H     1 <1>   0.1500 
 45 H       -1.6870    -7.1250     0.3370 H     1 <1>   0.1500 
@<TRIPOS>BOND
  1   1   2  2   
  2   2   3  am  
  3   2   4  1   
  4   3   5  1   
  5   3   6  1   
  6   4   7  ar  
  7   4   8  ar  
  8   5   9  1   
  9   5  24  1   
 10   5  25  1   
 11   6  10  1   
 12   6  26  1   
 13   6  27  1   
 14   7  11  ar  
 15   7  12  1   
 16   8  13  ar  
 17   8  28  1   
 18   9  10  1   
 19   9  14  1   
 20   9  29  1   
 21  10  15  1   
 22  10  30  1   
 23  11  16  ar  
 24  11  31  1   
 25  12  17  1   
 26  12  32  1   
 27  12  33  1   
 28  13  16  ar  
 29  13  34  1   
 30  14  35  1   
 31  15  18  1   
 32  15  36  1   
 33  15  37  1   
 34  16  38  1   
 35  17  39  1   
 36  17  40  1   
 37  17  41  1   
 38  18  19  ar  
 39  18  20  ar  
 40  19  21  ar  
 41  20  22  ar  
 42  20  42  1   
 43  21  23  ar  
 44  21  43  1   
 45  22  23  ar  
 46  22  44  1   
 47  23  45  1   
@<TRIPOS>SUBSTRUCTURE
  1 ****   3 GROUP 4 **** **** 0

# MOE 2024.06 (io_trps.svl 2023.06)
