@<TRIPOS>MOLECULE
NONAME
43 45 1 0 0 
SMALL
USER_CHARGES


@<TRIPOS>ATOM
  1 S        0.1510    -0.3050    -0.4180 S.3   1 <1>  -0.0800 
  2 C       -1.4820    -0.8340    -0.1630 C.2   1 <1>   0.4420 
  3 C       -0.4170     1.3130    -0.1930 C.2   1 <1>   0.1980 
  4 N       -2.2760     0.1510     0.0560 N.2   1 <1>  -0.3380 
  5 N       -1.7080    -2.1900    -0.2260 N.am  1 <1>  -0.4940 
  6 N       -1.6630     1.3710     0.0380 N.2   1 <1>  -0.3380 
  7 C        0.5710     2.4530    -0.2850 C.3   1 <1>   0.0200 
  8 C       -2.8690    -2.9030    -0.0770 C.2   1 <1>   0.7150 
  9 C       -0.1810     3.7750    -0.0830 C.3   1 <1>   0.3430 
 10 O       -3.9130    -2.3220     0.1410 O.2   1 <1>  -0.5700 
 11 C       -2.8230    -4.3420    -0.1860 C.2   1 <1>  -0.0450 
 12 N        0.7010     4.9820    -0.2200 N.4   1 <1>  -0.9590 
 13 S       -1.2750    -5.1000    -0.5920 S.3   1 <1>  -0.0800 
 14 C       -3.7620    -5.3200    -0.0570 C.2   1 <1>  -0.1810 
 15 C        1.6900     5.1030     0.9000 C.3   1 <1>   0.2630 
 16 C       -0.1480     6.2140    -0.2840 C.3   1 <1>   0.2630 
 17 C       -1.9640    -6.7030    -0.5680 C.2   1 <1>  -0.1100 
 18 C       -3.2730    -6.6500    -0.2660 C.2   1 <1>  -0.1810 
 19 C       -5.2360    -5.0630     0.2420 C.3   1 <1>   0.0210 
 20 C       -4.1690    -7.8710    -0.1280 C.3   1 <1>   0.0210 
 21 C       -5.9910    -6.3300     0.6670 C.3   1 <1>  -0.1600 
 22 C       -5.6520    -7.5070    -0.2550 C.3   1 <1>  -0.1600 
 23 H       -0.8960    -2.7700    -0.4130 H     1 <1>   0.3700 
 24 H        1.0320     2.4330    -1.2560 H     1 <1>   0.0800 
 25 H        1.3180     2.3190     0.4740 H     1 <1>   0.0800 
 26 H       -0.6470     3.7690     0.8900 H     1 <1>   0.0800 
 27 H       -0.9710     3.8240    -0.8160 H     1 <1>   0.0800 
 28 H        1.2160     4.9140    -1.1120 H     1 <1>   0.4500 
 29 H        1.1780     5.1620     1.8470 H     1 <1>   0.0800 
 30 H        2.2870     5.9920     0.7770 H     1 <1>   0.0800 
 31 H        2.3490     4.2510     0.9170 H     1 <1>   0.0800 
 32 H       -0.7130     6.3280     0.6280 H     1 <1>   0.0800 
 33 H       -0.8380     6.1510    -1.1100 H     1 <1>   0.0800 
 34 H        0.4680     7.0880    -0.4180 H     1 <1>   0.0800 
 35 H       -1.3100    -7.5300    -0.7780 H     1 <1>   0.1500 
 36 H       -5.6920    -4.6680    -0.6490 H     1 <1>   0.0800 
 37 H       -5.3320    -4.3190     1.0130 H     1 <1>   0.0800 
 38 H       -3.9990    -8.3060     0.8410 H     1 <1>   0.0800 
 39 H       -3.9070    -8.6040    -0.8710 H     1 <1>   0.0800 
 40 H       -7.0500    -6.1370     0.6440 H     1 <1>   0.0800 
 41 H       -5.7220    -6.5790     1.6790 H     1 <1>   0.0800 
 42 H       -6.2540    -8.3610     0.0030 H     1 <1>   0.0800 
 43 H       -5.8700    -7.2400    -1.2750 H     1 <1>   0.0800 
@<TRIPOS>BOND
  1   1   2  1   
  2   1   3  1   
  3   2   4  2   
  4   2   5  1   
  5   3   6  2   
  6   3   7  1   
  7   4   6  1   
  8   5   8  am  
  9   5  23  1   
 10   7   9  1   
 11   7  24  1   
 12   7  25  1   
 13   8  10  2   
 14   8  11  1   
 15   9  12  1   
 16   9  26  1   
 17   9  27  1   
 18  11  13  1   
 19  11  14  2   
 20  12  15  1   
 21  12  16  1   
 22  12  28  1   
 23  13  17  1   
 24  14  18  1   
 25  14  19  1   
 26  15  29  1   
 27  15  30  1   
 28  15  31  1   
 29  16  32  1   
 30  16  33  1   
 31  16  34  1   
 32  17  18  2   
 33  17  35  1   
 34  18  20  1   
 35  19  21  1   
 36  19  36  1   
 37  19  37  1   
 38  20  22  1   
 39  20  38  1   
 40  20  39  1   
 41  21  22  1   
 42  21  40  1   
 43  21  41  1   
 44  22  42  1   
 45  22  43  1   
@<TRIPOS>SUBSTRUCTURE
  1 ****   5 GROUP 4 **** **** 0

# MOE 2024.06 (io_trps.svl 2023.06)
