@<TRIPOS>MOLECULE
NONAME
55 57 1 0 0 
SMALL
USER_CHARGES


@<TRIPOS>ATOM
  1 O       -0.2100     1.9180    -2.1840 O.2   1 <1>  -0.5700 
  2 C       -0.3820     3.0350    -1.7660 C.2   1 <1>   0.5690 
  3 N       -1.1770     3.2630    -0.7000 N.am  1 <1>  -0.7300 
  4 C        0.2760     4.2270    -2.4580 C.3   1 <1>   0.1810 
  5 C       -1.4910     4.6160    -0.1760 C.3   1 <1>   0.3640 
  6 O        0.4230     5.3260    -1.5880 O.3   1 <1>  -0.5600 
  7 C       -3.0100     4.7860    -0.2030 C.ar  1 <1>  -0.1440 
  8 C       -0.7840     5.7590    -0.9610 C.3   1 <1>   0.2610 
  9 C       -3.7510     4.4550    -1.3290 C.ar  1 <1>  -0.1500 
 10 C       -3.6750     5.2860     0.9050 C.ar  1 <1>  -0.1500 
 11 C       -0.4930     6.9330    -0.0160 C.2   1 <1>   0.5690 
 12 C       -5.1260     4.6110    -1.3640 C.ar  1 <1>   0.0830 
 13 C       -5.0480     5.4570     0.8860 C.ar  1 <1>  -0.1500 
 14 O       -1.3760     7.3650     0.6870 O.2   1 <1>  -0.5700 
 15 N        0.7700     7.4370     0.0120 N.am  1 <1>  -0.7300 
 16 O       -5.7120     4.2310    -2.5360 O.3   1 <1>  -0.3630 
 17 C       -5.7940     5.1340    -0.2450 C.ar  1 <1>   0.0830 
 18 C        1.3610     8.4630     0.8900 C.3   1 <1>   0.3000 
 19 C       -7.0160     3.6940    -2.5600 C.3   1 <1>   0.0400 
 20 O       -7.1430     5.3350    -0.2820 O.3   1 <1>  -0.3630 
 21 C        1.3450     7.9500     2.3330 C.3   1 <1>  -0.1600 
 22 C        2.8600     8.4780     0.5790 C.3   1 <1>  -0.1600 
 23 C        0.6380     9.8070     0.6470 C.3   1 <1>  -0.1600 
 24 C       -7.8020     6.1360     0.6740 C.3   1 <1>   0.0400 
 25 C        2.4650     6.9050     2.4140 C.3   1 <1>  -0.1600 
 26 C        3.4430     7.2450     1.2810 C.3   1 <1>  -0.1600 
 27 C        1.2080    11.0460     1.3620 C.3   1 <1>  -0.2400 
 28 H       -1.6770     2.4750    -0.2860 H     1 <1>   0.3700 
 29 H       -0.3170     4.5320    -3.3010 H     1 <1>   0.0800 
 30 H        1.2550     3.9450    -2.8010 H     1 <1>   0.0800 
 31 H       -1.1560     4.6530     0.8470 H     1 <1>   0.0800 
 32 H       -1.4380     6.1170    -1.7350 H     1 <1>   0.0800 
 33 H       -3.2680     4.0610    -2.2050 H     1 <1>   0.1500 
 34 H       -3.1260     5.5590     1.7900 H     1 <1>   0.1500 
 35 H       -5.5140     5.8500     1.7690 H     1 <1>   0.1500 
 36 H        1.4530     6.9490    -0.5720 H     1 <1>   0.3700 
 37 H       -7.1350     3.1450    -3.4760 H     1 <1>   0.0800 
 38 H       -7.7240     4.5020    -2.5270 H     1 <1>   0.0800 
 39 H       -7.1430     3.0390    -1.7160 H     1 <1>   0.0800 
 40 H        1.5870     8.7540     3.0020 H     1 <1>   0.0800 
 41 H        0.3880     7.5530     2.6200 H     1 <1>   0.0800 
 42 H        3.0610     8.4910    -0.4780 H     1 <1>   0.0800 
 43 H        3.3140     9.3460     1.0200 H     1 <1>   0.0800 
 44 H        0.6370    10.0040    -0.4100 H     1 <1>   0.0800 
 45 H       -0.3870     9.7000     0.9560 H     1 <1>   0.0800 
 46 H       -8.8250     6.2520     0.3640 H     1 <1>   0.0800 
 47 H       -7.3210     7.0980     0.7160 H     1 <1>   0.0800 
 48 H       -7.7660     5.6430     1.6290 H     1 <1>   0.0800 
 49 H        2.9470     6.9300     3.3760 H     1 <1>   0.0800 
 50 H        2.0570     5.9210     2.2540 H     1 <1>   0.0800 
 51 H        3.5000     6.4180     0.5930 H     1 <1>   0.0800 
 52 H        4.4300     7.4480     1.6610 H     1 <1>   0.0800 
 53 H        2.1980    11.2770     1.0130 H     1 <1>   0.0800 
 54 H        1.2330    10.9040     2.4270 H     1 <1>   0.0800 
 55 H        0.5810    11.8950     1.1560 H     1 <1>   0.0800 
@<TRIPOS>BOND
  1   1   2  2   
  2   2   3  am  
  3   2   4  1   
  4   3   5  1   
  5   3  28  1   
  6   4   6  1   
  7   4  29  1   
  8   4  30  1   
  9   5   7  1   
 10   5   8  1   
 11   5  31  1   
 12   6   8  1   
 13   7   9  ar  
 14   7  10  ar  
 15   8  11  1   
 16   8  32  1   
 17   9  12  ar  
 18   9  33  1   
 19  10  13  ar  
 20  10  34  1   
 21  11  14  2   
 22  11  15  am  
 23  12  16  1   
 24  12  17  ar  
 25  13  17  ar  
 26  13  35  1   
 27  15  18  1   
 28  15  36  1   
 29  16  19  1   
 30  17  20  1   
 31  18  21  1   
 32  18  22  1   
 33  18  23  1   
 34  19  37  1   
 35  19  38  1   
 36  19  39  1   
 37  20  24  1   
 38  21  25  1   
 39  21  40  1   
 40  21  41  1   
 41  22  26  1   
 42  22  42  1   
 43  22  43  1   
 44  23  27  1   
 45  23  44  1   
 46  23  45  1   
 47  24  46  1   
 48  24  47  1   
 49  24  48  1   
 50  25  26  1   
 51  25  49  1   
 52  25  50  1   
 53  26  51  1   
 54  26  52  1   
 55  27  53  1   
 56  27  54  1   
 57  27  55  1   
@<TRIPOS>SUBSTRUCTURE
  1 ****   8 GROUP 4 **** **** 0

# MOE 2024.06 (io_trps.svl 2023.06)
