@<TRIPOS>MOLECULE
NONAME
65 69 1 0 0 
SMALL
USER_CHARGES


@<TRIPOS>ATOM
  1 O        0.3190    -0.1260     0.0740 O.2   1 <1>  -0.5700 
  2 C       -0.8170     0.3070     0.0620 C.2   1 <1>   0.7160 
  3 N       -1.8320    -0.5990     0.0230 N.am  1 <1>  -0.7300 
  4 C       -1.1040     1.7120     0.0680 C.2   1 <1>  -0.0860 
  5 C       -1.6890    -2.0550    -0.0470 C.3   1 <1>   0.2200 
  6 C       -2.3760     2.2920    -0.0480 C.2   1 <1>   0.3720 
  7 C       -0.2810     2.7950     0.1480 C.2   1 <1>   0.0870 
  8 C       -1.6490    -2.4800    -1.5130 C.3   1 <1>  -0.1600 
  9 C       -2.8590    -2.7110     0.6820 C.3   1 <1>  -0.1600 
 10 N       -2.3090     3.5750    -0.0470 N.2   1 <1>  -0.4100 
 11 N       -3.5910     1.5990    -0.1540 N.pl3 1 <1>  -0.8210 
 12 O       -1.0410     3.8580     0.0690 O.3   1 <1>  -0.0190 
 13 C        1.1430     2.9670     0.2910 C.ar  1 <1>   0.0530 
 14 C       -1.5880    -3.9990    -1.6260 C.3   1 <1>   0.3430 
 15 C       -2.7890    -4.2300     0.5430 C.3   1 <1>   0.3430 
 16 C       -4.3150     1.8960    -1.4290 C.3   1 <1>   0.2090 
 17 C       -4.5100     1.8760     0.9950 C.3   1 <1>   0.2090 
 18 C        1.8160     3.9350    -0.4560 C.ar  1 <1>  -0.1500 
 19 C        1.8990     2.2030     1.1800 C.ar  1 <1>  -0.1500 
 20 N       -2.7390    -4.6000    -0.8980 N.4   1 <1>  -0.9590 
 21 C       -5.6350     1.1060    -1.5050 C.3   1 <1>   0.1200 
 22 C       -5.8230     1.0870     0.8460 C.3   1 <1>   0.1200 
 23 C        3.1790     4.1280    -0.3280 C.ar  1 <1>  -0.1500 
 24 C        3.2630     2.3890     1.3120 C.ar  1 <1>  -0.1500 
 25 C       -2.8590    -6.0740    -1.1330 C.3   1 <1>   0.3430 
 26 O       -6.4380     1.3570    -0.3840 O.3   1 <1>  -0.5600 
 27 C        3.9070     3.3530     0.5570 C.ar  1 <1>  -0.1500 
 28 C       -4.3470    -6.4910    -1.1700 C.3   1 <1>   0.2000 
 29 O       -5.1190    -5.3940    -1.5740 O.3   1 <1>  -0.5600 
 30 C       -4.9390    -6.9260     0.1740 C.3   1 <1>  -0.1600 
 31 C       -6.4210    -5.5530    -1.1160 C.3   1 <1>   0.1200 
 32 C       -6.2640    -6.1790     0.2620 C.3   1 <1>  -0.1600 
 33 H       -2.7710    -0.1820    -0.0630 H     1 <1>   0.3700 
 34 H       -0.7650    -2.3400     0.4320 H     1 <1>   0.0800 
 35 H       -0.7740    -2.0620    -1.9780 H     1 <1>   0.0800 
 36 H       -2.5160    -2.1160    -2.0350 H     1 <1>   0.0800 
 37 H       -3.7950    -2.3620     0.2830 H     1 <1>   0.0800 
 38 H       -2.8170    -2.4540     1.7250 H     1 <1>   0.0800 
 39 H       -0.6610    -4.3560    -1.2040 H     1 <1>   0.0800 
 40 H       -1.6190    -4.2820    -2.6670 H     1 <1>   0.0800 
 41 H       -3.6590    -4.6660     1.0060 H     1 <1>   0.0800 
 42 H       -1.9100    -4.6000     1.0470 H     1 <1>   0.0800 
 43 H       -3.6910     1.6340    -2.2660 H     1 <1>   0.0800 
 44 H       -4.5320     2.9500    -1.4940 H     1 <1>   0.0800 
 45 H       -4.7350     2.9290     1.0410 H     1 <1>   0.0800 
 46 H       -4.0270     1.6000     1.9160 H     1 <1>   0.0800 
 47 H        1.2590     4.5430    -1.1460 H     1 <1>   0.1500 
 48 H        1.4130     1.4520     1.7760 H     1 <1>   0.1500 
 49 H       -3.6200    -4.2470    -1.3250 H     1 <1>   0.4500 
 50 H       -5.4390     0.0500    -1.5570 H     1 <1>   0.0800 
 51 H       -6.1920     1.3990    -2.3770 H     1 <1>   0.0800 
 52 H       -6.5130     1.3660     1.6220 H     1 <1>   0.0800 
 53 H       -5.6370     0.0300     0.9110 H     1 <1>   0.0800 
 54 H        3.6750     4.8800    -0.9170 H     1 <1>   0.1500 
 55 H        3.8240     1.7830     2.0010 H     1 <1>   0.1500 
 56 H       -2.3250    -6.6350    -0.3840 H     1 <1>   0.0800 
 57 H       -2.4310    -6.3170    -2.0910 H     1 <1>   0.0800 
 58 H        4.9680     3.4980     0.6580 H     1 <1>   0.1500 
 59 H       -4.4910    -7.2770    -1.8930 H     1 <1>   0.0800 
 60 H       -4.3030    -6.6850     1.0050 H     1 <1>   0.0800 
 61 H       -5.1000    -7.9910     0.1700 H     1 <1>   0.0800 
 62 H       -6.9380    -6.2160    -1.7910 H     1 <1>   0.0800 
 63 H       -6.9150    -4.5970    -1.0870 H     1 <1>   0.0800 
 64 H       -6.2170    -5.4030     1.0060 H     1 <1>   0.0800 
 65 H       -7.0910    -6.8300     0.4900 H     1 <1>   0.0800 
@<TRIPOS>BOND
  1   1   2  2   
  2   2   3  am  
  3   2   4  1   
  4   3   5  1   
  5   3  33  1   
  6   4   6  1   
  7   4   7  2   
  8   5   8  1   
  9   5   9  1   
 10   5  34  1   
 11   6  10  2   
 12   6  11  1   
 13   7  12  1   
 14   7  13  1   
 15   8  14  1   
 16   8  35  1   
 17   8  36  1   
 18   9  15  1   
 19   9  37  1   
 20   9  38  1   
 21  10  12  1   
 22  11  16  1   
 23  11  17  1   
 24  13  18  ar  
 25  13  19  ar  
 26  14  20  1   
 27  14  39  1   
 28  14  40  1   
 29  15  20  1   
 30  15  41  1   
 31  15  42  1   
 32  16  21  1   
 33  16  43  1   
 34  16  44  1   
 35  17  22  1   
 36  17  45  1   
 37  17  46  1   
 38  18  23  ar  
 39  18  47  1   
 40  19  24  ar  
 41  19  48  1   
 42  20  25  1   
 43  20  49  1   
 44  21  26  1   
 45  21  50  1   
 46  21  51  1   
 47  22  26  1   
 48  22  52  1   
 49  22  53  1   
 50  23  27  ar  
 51  23  54  1   
 52  24  27  ar  
 53  24  55  1   
 54  25  28  1   
 55  25  56  1   
 56  25  57  1   
 57  27  58  1   
 58  28  29  1   
 59  28  30  1   
 60  28  59  1   
 61  29  31  1   
 62  30  32  1   
 63  30  60  1   
 64  30  61  1   
 65  31  32  1   
 66  31  62  1   
 67  31  63  1   
 68  32  64  1   
 69  32  65  1   
@<TRIPOS>SUBSTRUCTURE
  1 ****   3 GROUP 4 **** **** 0

# MOE 2024.06 (io_trps.svl 2023.06)
