@<TRIPOS>MOLECULE
NONAME
41 43 1 0 0 
SMALL
USER_CHARGES


@<TRIPOS>ATOM
  1 CL       0.9080     0.1420    -1.5610 Cl    1 <1>  -0.1770 
  2 C        1.5020    -1.0160    -0.3790 C.ar  1 <1>   0.1770 
  3 C        1.0050    -2.3160    -0.2890 C.ar  1 <1>   0.4100 
  4 C        2.5010    -0.6420     0.4770 C.ar  1 <1>   0.1600 
  5 N        1.5180    -3.1540     0.5980 N.ar  1 <1>  -0.6200 
  6 N       -0.0200    -2.8040    -1.0850 N.pl3 1 <1>  -0.8380 
  7 N        3.0040    -1.4720     1.3740 N.ar  1 <1>  -0.6200 
  8 C        2.4760    -2.6850     1.3750 C.ar  1 <1>   0.4770 
  9 C        0.0060    -4.2070    -1.5810 C.3   1 <1>   0.2090 
 10 C       -1.3440    -2.1260    -1.1070 C.3   1 <1>   0.2090 
 11 C        3.0440    -3.6520     2.3860 C.3   1 <1>  -0.0960 
 12 C       -1.0360    -5.0490    -0.8440 C.3   1 <1>  -0.1600 
 13 C       -2.3780    -2.9780    -0.3730 C.3   1 <1>  -0.1600 
 14 C       -2.4170    -4.3960    -0.9390 C.3   1 <1>   0.2000 
 15 O       -3.3300    -5.1170    -0.1770 O.3   1 <1>  -0.5600 
 16 C       -3.9160    -6.2170    -0.8230 C.3   1 <1>   0.2630 
 17 C       -4.9350    -6.9340     0.0630 C.ar  1 <1>   0.1670 
 18 N       -5.6500    -7.8740    -0.5440 N.ar  1 <1>  -0.6200 
 19 C       -5.0790    -6.6090     1.4070 C.ar  1 <1>  -0.1500 
 20 C       -6.5360    -8.5050     0.2110 C.ar  1 <1>   0.1600 
 21 C       -6.0050    -7.2750     2.1800 C.ar  1 <1>  -0.1500 
 22 C       -6.7510    -8.2500     1.5540 C.ar  1 <1>  -0.1500 
 23 H        2.9000     0.3550     0.4270 H     1 <1>   0.1500 
 24 H        0.9860    -4.6330    -1.4400 H     1 <1>   0.0800 
 25 H       -0.2030    -4.2060    -2.6370 H     1 <1>   0.0800 
 26 H       -1.6440    -1.9740    -2.1300 H     1 <1>   0.0800 
 27 H       -1.2800    -1.1640    -0.6280 H     1 <1>   0.0800 
 28 H        2.3270    -4.4210     2.6080 H     1 <1>   0.0800 
 29 H        3.2880    -3.1320     3.2930 H     1 <1>   0.0800 
 30 H        3.9320    -4.1010     1.9860 H     1 <1>   0.0800 
 31 H       -0.7420    -5.1300     0.1880 H     1 <1>   0.0800 
 32 H       -1.0510    -6.0310    -1.2760 H     1 <1>   0.0800 
 33 H       -3.3460    -2.5230    -0.4710 H     1 <1>   0.0800 
 34 H       -2.1170    -3.0120     0.6700 H     1 <1>   0.0800 
 35 H       -2.7550    -4.3620    -1.9620 H     1 <1>   0.0800 
 36 H       -3.1440    -6.9120    -1.0980 H     1 <1>   0.0800 
 37 H       -4.4140    -5.8660    -1.7090 H     1 <1>   0.0800 
 38 H       -4.4710    -5.8400     1.8490 H     1 <1>   0.1500 
 39 H       -7.1240    -9.2680    -0.2680 H     1 <1>   0.1500 
 40 H       -6.1370    -7.0430     3.2220 H     1 <1>   0.1500 
 41 H       -7.4910    -8.8070     2.0980 H     1 <1>   0.1500 
@<TRIPOS>BOND
  1   1   2  1   
  2   2   3  ar  
  3   2   4  ar  
  4   3   5  ar  
  5   3   6  1   
  6   4   7  ar  
  7   4  23  1   
  8   5   8  ar  
  9   6   9  1   
 10   6  10  1   
 11   7   8  ar  
 12   8  11  1   
 13   9  12  1   
 14   9  24  1   
 15   9  25  1   
 16  10  13  1   
 17  10  26  1   
 18  10  27  1   
 19  11  28  1   
 20  11  29  1   
 21  11  30  1   
 22  12  14  1   
 23  12  31  1   
 24  12  32  1   
 25  13  14  1   
 26  13  33  1   
 27  13  34  1   
 28  14  15  1   
 29  14  35  1   
 30  15  16  1   
 31  16  17  1   
 32  16  36  1   
 33  16  37  1   
 34  17  18  ar  
 35  17  19  ar  
 36  18  20  ar  
 37  19  21  ar  
 38  19  38  1   
 39  20  22  ar  
 40  20  39  1   
 41  21  22  ar  
 42  21  40  1   
 43  22  41  1   
@<TRIPOS>SUBSTRUCTURE
  1 ****  12 GROUP 4 **** **** 0

# MOE 2024.06 (io_trps.svl 2023.06)
