@<TRIPOS>MOLECULE
NONAME
37 38 1 0 0 
SMALL
USER_CHARGES


@<TRIPOS>ATOM
  1 O       -0.2590     1.0220     0.8690 O.2   1 <1>  -0.5700 
  2 C       -0.2440     2.1860     0.5610 C.2   1 <1>   0.5690 
  3 N       -1.1960     3.0330     1.0060 N.am  1 <1>  -0.7300 
  4 C        0.8360     2.7240    -0.3760 C.3   1 <1>   0.1810 
  5 C       -1.3120     4.4500     0.5760 C.3   1 <1>   0.3640 
  6 O        1.0090     4.1160    -0.2410 O.3   1 <1>  -0.5600 
  7 C       -2.6940     4.6350    -0.0510 C.ar  1 <1>  -0.1440 
  8 C       -0.1820     4.8870    -0.4020 C.3   1 <1>   0.2610 
  9 C       -3.2050     3.7160    -0.9600 C.ar  1 <1>  -0.1500 
 10 C       -3.4620     5.7410     0.2850 C.ar  1 <1>  -0.1500 
 11 C        0.1260     6.3770    -0.2010 C.2   1 <1>   0.5690 
 12 C       -4.4590     3.8990    -1.5170 C.ar  1 <1>  -0.1500 
 13 C       -4.7150     5.9250    -0.2710 C.ar  1 <1>  -0.1500 
 14 O       -0.7650     7.1850    -0.3160 O.2   1 <1>  -0.5700 
 15 N        1.4020     6.7380     0.1130 N.am  1 <1>  -0.7300 
 16 C       -5.2160     5.0040    -1.1730 C.ar  1 <1>  -0.1500 
 17 C        1.9660     8.0760     0.3590 C.3   1 <1>   0.2200 
 18 C        1.2930     8.7130     1.5720 C.3   1 <1>  -0.2400 
 19 C        1.8290     8.9400    -0.8930 C.3   1 <1>  -0.2400 
 20 H       -1.9560     2.6600     1.5770 H     1 <1>   0.3700 
 21 H        0.5740     2.5070    -1.3950 H     1 <1>   0.0800 
 22 H        1.7740     2.2520    -0.1470 H     1 <1>   0.0800 
 23 H       -1.2480     5.0630     1.4590 H     1 <1>   0.0800 
 24 H       -0.5170     4.7550    -1.4140 H     1 <1>   0.0800 
 25 H       -2.6350     2.8480    -1.2420 H     1 <1>   0.1500 
 26 H       -3.0850     6.4760     0.9770 H     1 <1>   0.1500 
 27 H       -4.8470     3.1810    -2.2190 H     1 <1>   0.1500 
 28 H       -5.2990     6.7890    -0.0040 H     1 <1>   0.1500 
 29 H        2.0730     5.9650     0.1720 H     1 <1>   0.3700 
 30 H       -6.1900     5.1480    -1.6050 H     1 <1>   0.1500 
 31 H        3.0150     7.9590     0.5760 H     1 <1>   0.0800 
 32 H        0.2500     8.8920     1.3790 H     1 <1>   0.0800 
 33 H        1.7600     9.6540     1.7960 H     1 <1>   0.0800 
 34 H        1.3900     8.0720     2.4290 H     1 <1>   0.0800 
 35 H        0.7940     9.1200    -1.1200 H     1 <1>   0.0800 
 36 H        2.2960     8.4550    -1.7310 H     1 <1>   0.0800 
 37 H        2.3090     9.8880    -0.7370 H     1 <1>   0.0800 
@<TRIPOS>BOND
  1   1   2  2   
  2   2   3  am  
  3   2   4  1   
  4   3   5  1   
  5   3  20  1   
  6   4   6  1   
  7   4  21  1   
  8   4  22  1   
  9   5   7  1   
 10   5   8  1   
 11   5  23  1   
 12   6   8  1   
 13   7   9  ar  
 14   7  10  ar  
 15   8  11  1   
 16   8  24  1   
 17   9  12  ar  
 18   9  25  1   
 19  10  13  ar  
 20  10  26  1   
 21  11  14  2   
 22  11  15  am  
 23  12  16  ar  
 24  12  27  1   
 25  13  16  ar  
 26  13  28  1   
 27  15  17  1   
 28  15  29  1   
 29  16  30  1   
 30  17  18  1   
 31  17  19  1   
 32  17  31  1   
 33  18  32  1   
 34  18  33  1   
 35  18  34  1   
 36  19  35  1   
 37  19  36  1   
 38  19  37  1   
@<TRIPOS>SUBSTRUCTURE
  1 ****   8 GROUP 4 **** **** 0

# MOE 2024.06 (io_trps.svl 2023.06)
