@<TRIPOS>MOLECULE
NONAME
24 24 1 0 0 
SMALL
USER_CHARGES


@<TRIPOS>ATOM
  1 O       -1.0610    -0.7600     0.7510 O.3   1 <1>  -0.3630 
  2 C       -0.6630    -1.9930     0.3700 C.ar  1 <1>   0.3920 
  3 C       -0.9870     0.3620    -0.1030 C.3   1 <1>   0.2000 
  4 N       -0.1270    -2.1640    -0.8350 N.ar  1 <1>  -0.6200 
  5 C       -0.8460    -3.0160     1.2890 C.ar  1 <1>  -0.1500 
  6 C       -0.9300     1.6020     0.7860 C.3   1 <1>  -0.2400 
  7 C       -2.2260     0.3810    -1.0000 C.3   1 <1>  -0.2400 
  8 C        0.2340    -3.4040    -1.1230 C.ar  1 <1>   0.1600 
  9 C       -0.4640    -4.3000     0.9700 C.ar  1 <1>  -0.1500 
 10 C        0.0940    -4.4960    -0.2770 C.ar  1 <1>  -0.1430 
 11 C        0.5390    -5.8860    -0.6960 C.3   1 <1>  -0.0970 
 12 H       -0.0850     0.3010    -0.6900 H     1 <1>   0.0800 
 13 H       -1.2870    -2.7890     2.2410 H     1 <1>   0.1500 
 14 H       -1.8110     1.6640     1.3990 H     1 <1>   0.0800 
 15 H       -0.8680     2.4860     0.1780 H     1 <1>   0.0800 
 16 H       -0.0590     1.5590     1.4140 H     1 <1>   0.0800 
 17 H       -3.1200     0.4100    -0.4040 H     1 <1>   0.0800 
 18 H       -2.2430    -0.4950    -1.6240 H     1 <1>   0.0800 
 19 H       -2.2050     1.2460    -1.6370 H     1 <1>   0.0800 
 20 H        0.6680    -3.5590    -2.0960 H     1 <1>   0.1500 
 21 H       -0.5950    -5.1110     1.6650 H     1 <1>   0.1500 
 22 H        0.9510    -5.8760    -1.6890 H     1 <1>   0.0800 
 23 H       -0.3000    -6.5590    -0.6810 H     1 <1>   0.0800 
 24 H        1.2890    -6.2500    -0.0170 H     1 <1>   0.0800 
@<TRIPOS>BOND
  1   1   2  1   
  2   1   3  1   
  3   2   4  ar  
  4   2   5  ar  
  5   3   6  1   
  6   3   7  1   
  7   3  12  1   
  8   4   8  ar  
  9   5   9  ar  
 10   5  13  1   
 11   6  14  1   
 12   6  15  1   
 13   6  16  1   
 14   7  17  1   
 15   7  18  1   
 16   7  19  1   
 17   8  10  ar  
 18   8  20  1   
 19   9  10  ar  
 20   9  21  1   
 21  10  11  1   
 22  11  22  1   
 23  11  23  1   
 24  11  24  1   
@<TRIPOS>SUBSTRUCTURE
  1 ****   2 GROUP 4 **** **** 0

# MOE 2024.06 (io_trps.svl 2023.06)
