@<TRIPOS>MOLECULE
NONAME
48 50 1 0 0 
SMALL
USER_CHARGES


@<TRIPOS>ATOM
  1 O       -0.2040     0.0540     0.0870 O.2   1 <1>  -0.5700 
  2 C       -1.2290     0.6970     0.2140 C.2   1 <1>   0.5440 
  3 N       -2.4320     0.0270     0.1970 N.am  1 <1>  -0.6600 
  4 C       -1.1600     2.1380     0.3580 C.ar  1 <1>   0.0860 
  5 C       -3.7470     0.6550    -0.0890 C.3   1 <1>   0.1400 
  6 C       -2.5120    -1.4460     0.0400 C.3   1 <1>   0.1400 
  7 C       -1.8500     2.8120     1.3680 C.ar  1 <1>  -0.1500 
  8 C       -0.3880     2.9060    -0.5140 C.ar  1 <1>  -0.1500 
  9 C       -4.6360    -0.4940    -0.5670 C.3   1 <1>   0.2000 
 10 C       -4.0090    -1.7630     0.0060 C.3   1 <1>  -0.0800 
 11 C       -1.7890     4.1880     1.4850 C.ar  1 <1>  -0.1500 
 12 C       -0.3200     4.2830    -0.4040 C.ar  1 <1>  -0.1500 
 13 O       -5.9370    -0.3600    -0.1070 O.3   1 <1>  -0.6800 
 14 C       -4.3710    -3.0200    -0.8030 C.3   1 <1>  -0.0170 
 15 C       -1.0280     4.9360     0.6010 C.ar  1 <1>   0.0830 
 16 C       -3.7870    -4.2770    -0.1800 C.ar  1 <1>   0.1670 
 17 O       -1.0220     6.2760     0.7810 O.3   1 <1>  -0.3630 
 18 N       -2.5330    -4.5620    -0.4870 N.ar  1 <1>  -0.6200 
 19 C       -4.5670    -5.0600     0.6700 C.ar  1 <1>   0.1600 
 20 C       -0.2520     7.1300    -0.0330 C.3   1 <1>   0.1200 
 21 C       -2.1130    -5.6670     0.1070 C.ar  1 <1>   0.1600 
 22 N       -4.1500    -6.1640     1.2670 N.ar  1 <1>  -0.6200 
 23 C       -0.4580     8.5660     0.4520 C.3   1 <1>  -0.1600 
 24 C       -2.8950    -6.4410     0.9560 C.ar  1 <1>   0.1600 
 25 C        0.3510     9.5610    -0.3890 C.3   1 <1>  -0.2400 
 26 H       -4.1370     1.0890     0.8140 H     1 <1>   0.0800 
 27 H       -3.6500     1.4070    -0.8530 H     1 <1>   0.0800 
 28 H       -2.0350    -1.7290    -0.8840 H     1 <1>   0.0800 
 29 H       -2.0170    -1.9460     0.8570 H     1 <1>   0.0800 
 30 H       -2.4320     2.2440     2.0710 H     1 <1>   0.1500 
 31 H        0.1660     2.4020    -1.2870 H     1 <1>   0.1500 
 32 H       -4.6540    -0.5170    -1.6430 H     1 <1>   0.0800 
 33 H       -4.3280    -1.8890     1.0260 H     1 <1>   0.0800 
 34 H       -2.3270     4.6950     2.2660 H     1 <1>   0.1500 
 35 H        0.2870     4.8280    -1.1020 H     1 <1>   0.1500 
 36 H       -5.9530    -0.3290     0.8680 H     1 <1>   0.4000 
 37 H       -4.0080    -2.9270    -1.8120 H     1 <1>   0.0800 
 38 H       -5.4420    -3.1100    -0.8540 H     1 <1>   0.0800 
 39 H       -5.5810    -4.7590     0.8670 H     1 <1>   0.1500 
 40 H        0.7820     6.8440     0.0570 H     1 <1>   0.0800 
 41 H       -0.5840     7.0210    -1.0500 H     1 <1>   0.0800 
 42 H       -1.1000    -5.9740    -0.0860 H     1 <1>   0.1500 
 43 H       -1.5040     8.8140     0.3860 H     1 <1>   0.0800 
 44 H       -0.1510     8.6390     1.4810 H     1 <1>   0.0800 
 45 H       -2.4630    -7.3230     1.3930 H     1 <1>   0.1500 
 46 H        0.0480     9.5170    -1.4200 H     1 <1>   0.0800 
 47 H        1.4020     9.3410    -0.3240 H     1 <1>   0.0800 
 48 H        0.1890    10.5610    -0.0280 H     1 <1>   0.0800 
@<TRIPOS>BOND
  1   1   2  2   
  2   2   3  am  
  3   2   4  1   
  4   3   5  1   
  5   3   6  1   
  6   4   7  ar  
  7   4   8  ar  
  8   5   9  1   
  9   5  26  1   
 10   5  27  1   
 11   6  10  1   
 12   6  28  1   
 13   6  29  1   
 14   7  11  ar  
 15   7  30  1   
 16   8  12  ar  
 17   8  31  1   
 18   9  10  1   
 19   9  13  1   
 20   9  32  1   
 21  10  14  1   
 22  10  33  1   
 23  11  15  ar  
 24  11  34  1   
 25  12  15  ar  
 26  12  35  1   
 27  13  36  1   
 28  14  16  1   
 29  14  37  1   
 30  14  38  1   
 31  15  17  1   
 32  16  18  ar  
 33  16  19  ar  
 34  17  20  1   
 35  18  21  ar  
 36  19  22  ar  
 37  19  39  1   
 38  20  23  1   
 39  20  40  1   
 40  20  41  1   
 41  21  24  ar  
 42  21  42  1   
 43  22  24  ar  
 44  23  25  1   
 45  23  43  1   
 46  23  44  1   
 47  24  45  1   
 48  25  46  1   
 49  25  47  1   
 50  25  48  1   
@<TRIPOS>SUBSTRUCTURE
  1 ****   3 GROUP 4 **** **** 0

# MOE 2024.06 (io_trps.svl 2023.06)
