@<TRIPOS>MOLECULE
NONAME
47 49 1 0 0 
SMALL
USER_CHARGES


@<TRIPOS>ATOM
  1 O        1.1900    -0.5440    -2.0080 O.2   1 <1>  -0.5700 
  2 C        1.8610    -1.2240    -1.2550 C.2   1 <1>   0.7150 
  3 N        3.0850    -0.7500    -0.8520 N.am  1 <1>  -0.6600 
  4 C        1.3830    -2.4880    -0.7670 C.2   1 <1>  -0.2370 
  5 C        3.5890     0.6120    -1.1850 C.3   1 <1>   0.1400 
  6 C        3.8720    -1.3190     0.2610 C.3   1 <1>   0.1400 
  7 N        0.2500    -2.6750    -0.0040 N.pl3 1 <1>   0.0480 
  8 C        1.9700    -3.7140    -0.9550 C.2   1 <1>  -0.1500 
  9 C        4.3810     1.0660     0.0500 C.3   1 <1>   0.4240 
 10 C        4.9460    -0.2700     0.5480 C.3   1 <1>  -0.1600 
 11 C        0.1610    -4.0030     0.2680 C.2   1 <1>  -0.3020 
 12 C       -0.7500    -1.6910     0.5110 C.3   1 <1>   0.1760 
 13 C        1.2000    -4.6670    -0.3020 C.2   1 <1>  -0.1500 
 14 O        3.4720     1.4700     1.0130 O.3   1 <1>  -0.6800 
 15 C        5.4000     2.2060    -0.1950 C.ar  1 <1>  -0.1430 
 16 C       -1.7330    -1.2780    -0.5890 C.3   1 <1>  -0.2400 
 17 C       -0.0910    -0.4740     1.1740 C.3   1 <1>  -0.2400 
 18 C        5.0570     3.4130    -0.8210 C.ar  1 <1>  -0.1430 
 19 C        6.7220     2.0480     0.2250 C.ar  1 <1>  -0.1500 
 20 C        6.0270     4.3810    -1.0420 C.ar  1 <1>  -0.1500 
 21 C        3.6460     3.7640    -1.2820 C.3   1 <1>  -0.0970 
 22 C        7.6780     3.0210     0.0050 C.ar  1 <1>  -0.1500 
 23 C        7.3320     4.1900    -0.6370 C.ar  1 <1>  -0.1500 
 24 H        2.7780     1.2780    -1.4120 H     1 <1>   0.0800 
 25 H        4.2450     0.5450    -2.0350 H     1 <1>   0.0800 
 26 H        4.3090    -2.2610    -0.0220 H     1 <1>   0.0800 
 27 H        3.2360    -1.4590     1.1200 H     1 <1>   0.0800 
 28 H        2.8670    -3.9200    -1.5130 H     1 <1>   0.1500 
 29 H        5.8110    -0.5330    -0.0350 H     1 <1>   0.0800 
 30 H        5.2230    -0.2390     1.5860 H     1 <1>   0.0800 
 31 H       -0.6380    -4.4220     0.8530 H     1 <1>   0.1500 
 32 H       -1.3150    -2.1980     1.2720 H     1 <1>   0.0800 
 33 H        1.4040    -5.7240    -0.2700 H     1 <1>   0.1500 
 34 H        2.7290     0.8390     0.9990 H     1 <1>   0.4000 
 35 H       -1.2370    -0.7290    -1.3680 H     1 <1>   0.0800 
 36 H       -2.5050    -0.6530    -0.1780 H     1 <1>   0.0800 
 37 H       -2.1950    -2.1500    -1.0170 H     1 <1>   0.0800 
 38 H        0.3540     0.1760     0.4440 H     1 <1>   0.0800 
 39 H        0.6540    -0.7920     1.8810 H     1 <1>   0.0800 
 40 H       -0.8360     0.0930     1.7030 H     1 <1>   0.0800 
 41 H        7.0440     1.1650     0.7420 H     1 <1>   0.1500 
 42 H        5.7700     5.3030    -1.5320 H     1 <1>   0.1500 
 43 H        2.9160     3.4520    -0.5580 H     1 <1>   0.0800 
 44 H        3.4390     3.3010    -2.2290 H     1 <1>   0.0800 
 45 H        3.5380     4.8270    -1.3990 H     1 <1>   0.0800 
 46 H        8.6900     2.8680     0.3350 H     1 <1>   0.1500 
 47 H        8.0720     4.9510    -0.8150 H     1 <1>   0.1500 
@<TRIPOS>BOND
  1   1   2  2   
  2   2   3  am  
  3   2   4  1   
  4   3   5  1   
  5   3   6  1   
  6   4   7  1   
  7   4   8  2   
  8   5   9  1   
  9   5  24  1   
 10   5  25  1   
 11   6  10  1   
 12   6  26  1   
 13   6  27  1   
 14   7  11  1   
 15   7  12  1   
 16   8  13  1   
 17   8  28  1   
 18   9  10  1   
 19   9  14  1   
 20   9  15  1   
 21  10  29  1   
 22  10  30  1   
 23  11  13  2   
 24  11  31  1   
 25  12  16  1   
 26  12  17  1   
 27  12  32  1   
 28  13  33  1   
 29  14  34  1   
 30  15  18  ar  
 31  15  19  ar  
 32  16  35  1   
 33  16  36  1   
 34  16  37  1   
 35  17  38  1   
 36  17  39  1   
 37  17  40  1   
 38  18  20  ar  
 39  18  21  1   
 40  19  22  ar  
 41  19  41  1   
 42  20  23  ar  
 43  20  42  1   
 44  21  43  1   
 45  21  44  1   
 46  21  45  1   
 47  22  23  ar  
 48  22  46  1   
 49  23  47  1   
@<TRIPOS>SUBSTRUCTURE
  1 ****   3 GROUP 4 **** **** 0

# MOE 2024.06 (io_trps.svl 2023.06)
