@<TRIPOS>MOLECULE
NONAME
54 57 1 0 0 
SMALL
USER_CHARGES


@<TRIPOS>ATOM
  1 O       -2.3020     0.6280    -2.3000 O.2   1 <1>  -0.5700 
  2 C       -2.1890     1.0430    -1.1610 C.2   1 <1>   0.5440 
  3 N       -2.2510     0.1330    -0.1440 N.am  1 <1>  -0.7300 
  4 C       -1.9910     2.4550    -0.8930 C.ar  1 <1>   0.0860 
  5 C       -2.4440    -1.3250    -0.3150 C.3   1 <1>   0.2200 
  6 C       -1.4830     3.3090    -1.8760 C.ar  1 <1>  -0.1500 
  7 C       -2.2910     3.0310     0.3460 C.ar  1 <1>  -0.1500 
  8 C       -3.8910    -1.6730    -0.0120 C.3   1 <1>  -0.0800 
  9 C       -1.7050    -2.0730     0.7900 C.3   1 <1>   0.1200 
 10 C       -1.2760     4.6530    -1.6360 C.ar  1 <1>  -0.1500 
 11 C       -2.0820     4.3740     0.5880 C.ar  1 <1>  -0.1500 
 12 C       -3.8770    -1.8010     1.5150 C.3   1 <1>   0.1200 
 13 C       -4.3140    -2.9810    -0.7070 C.3   1 <1>  -0.0160 
 14 O       -2.5590    -2.0770     1.8960 O.3   1 <1>  -0.5600 
 15 C       -1.5690     5.2100    -0.3960 C.ar  1 <1>   0.1000 
 16 C       -5.7740    -3.3080    -0.4300 C.ar  1 <1>  -0.1430 
 17 N       -1.3650     6.5560    -0.1300 N.pl3 1 <1>  -0.8380 
 18 C       -6.7990    -2.6220    -1.0490 C.ar  1 <1>  -0.1500 
 19 C       -6.1500    -4.3040     0.4480 C.ar  1 <1>  -0.1500 
 20 C       -0.1670     7.2670    -0.6420 C.3   1 <1>   0.2090 
 21 C       -2.5280     7.4270     0.1770 C.3   1 <1>   0.2090 
 22 C       -8.1140    -2.9500    -0.7630 C.ar  1 <1>   0.1600 
 23 C       -7.4960    -4.5540     0.6640 C.ar  1 <1>   0.1600 
 24 C        0.2660     8.3260     0.3780 C.3   1 <1>  -0.1600 
 25 C       -2.1120     8.4830     1.2050 C.3   1 <1>  -0.1600 
 26 N       -8.4870    -3.8990     0.0810 N.ar  1 <1>  -0.6200 
 27 C       -0.8840     9.2790     0.7360 C.3   1 <1>  -0.1600 
 28 H       -2.1250     0.4320     0.8240 H     1 <1>   0.3700 
 29 H       -2.1270    -1.6330    -1.2970 H     1 <1>   0.0800 
 30 H       -1.2510     2.9020    -2.8450 H     1 <1>   0.1500 
 31 H       -2.6990     2.4240     1.1330 H     1 <1>   0.1500 
 32 H       -4.5520    -0.8850    -0.3280 H     1 <1>   0.0800 
 33 H       -0.7710    -1.6080     1.0530 H     1 <1>   0.0800 
 34 H       -1.5350    -3.0960     0.5060 H     1 <1>   0.0800 
 35 H       -0.8910     5.2820    -2.4150 H     1 <1>   0.1500 
 36 H       -2.3080     4.7970     1.5490 H     1 <1>   0.1500 
 37 H       -4.5180    -2.5840     1.8810 H     1 <1>   0.0800 
 38 H       -4.1570    -0.8690     1.9750 H     1 <1>   0.0800 
 39 H       -3.6930    -3.7970    -0.3810 H     1 <1>   0.0800 
 40 H       -4.1820    -2.8770    -1.7700 H     1 <1>   0.0800 
 41 H       -6.5880    -1.8350    -1.7500 H     1 <1>   0.1500 
 42 H       -5.4130    -4.8880     0.9680 H     1 <1>   0.1500 
 43 H        0.6340     6.5640    -0.7990 H     1 <1>   0.0800 
 44 H       -0.4050     7.7350    -1.5810 H     1 <1>   0.0800 
 45 H       -2.8580     7.9050    -0.7300 H     1 <1>   0.0800 
 46 H       -3.3420     6.8360     0.5620 H     1 <1>   0.0800 
 47 H       -8.9000    -2.4040    -1.2550 H     1 <1>   0.1500 
 48 H       -7.7710    -5.3340     1.3530 H     1 <1>   0.1500 
 49 H        0.6070     7.8220     1.2650 H     1 <1>   0.0800 
 50 H        1.0930     8.8860    -0.0210 H     1 <1>   0.0800 
 51 H       -2.9350     9.1530     1.3790 H     1 <1>   0.0800 
 52 H       -1.8890     7.9870     2.1320 H     1 <1>   0.0800 
 53 H       -1.1470     9.8630    -0.1300 H     1 <1>   0.0800 
 54 H       -0.5700     9.9550     1.5120 H     1 <1>   0.0800 
@<TRIPOS>BOND
  1   1   2  2   
  2   2   3  am  
  3   2   4  1   
  4   3   5  1   
  5   3  28  1   
  6   4   6  ar  
  7   4   7  ar  
  8   5   8  1   
  9   5   9  1   
 10   5  29  1   
 11   6  10  ar  
 12   6  30  1   
 13   7  11  ar  
 14   7  31  1   
 15   8  12  1   
 16   8  13  1   
 17   8  32  1   
 18   9  14  1   
 19   9  33  1   
 20   9  34  1   
 21  10  15  ar  
 22  10  35  1   
 23  11  15  ar  
 24  11  36  1   
 25  12  14  1   
 26  12  37  1   
 27  12  38  1   
 28  13  16  1   
 29  13  39  1   
 30  13  40  1   
 31  15  17  1   
 32  16  18  ar  
 33  16  19  ar  
 34  17  20  1   
 35  17  21  1   
 36  18  22  ar  
 37  18  41  1   
 38  19  23  ar  
 39  19  42  1   
 40  20  24  1   
 41  20  43  1   
 42  20  44  1   
 43  21  25  1   
 44  21  45  1   
 45  21  46  1   
 46  22  26  ar  
 47  22  47  1   
 48  23  26  ar  
 49  23  48  1   
 50  24  27  1   
 51  24  49  1   
 52  24  50  1   
 53  25  27  1   
 54  25  51  1   
 55  25  52  1   
 56  27  53  1   
 57  27  54  1   
@<TRIPOS>SUBSTRUCTURE
  1 ****   2 GROUP 4 **** **** 0

# MOE 2024.06 (io_trps.svl 2023.06)
