@<TRIPOS>MOLECULE
NONAME
50 53 1 0 0 
SMALL
USER_CHARGES


@<TRIPOS>ATOM
  1 O        2.2190    -0.2620     2.7080 O.2   1 <1>  -0.5700 
  2 C        2.1160    -0.7430     1.5960 C.2   1 <1>   0.5440 
  3 N        2.4410     0.0610     0.5160 N.am  1 <1>  -0.6600 
  4 C        1.7110    -2.1260     1.4410 C.ar  1 <1>   0.0860 
  5 C        2.4910     1.5500     0.6830 C.3   1 <1>   0.1400 
  6 C        2.8680    -0.5000    -0.7930 C.3   1 <1>   0.1400 
  7 C        0.7220    -2.5000     0.5440 C.ar  1 <1>  -0.1500 
  8 C        2.3360    -3.1340     2.2040 C.ar  1 <1>  -0.1500 
  9 C        3.9250     2.1280     0.7290 C.3   1 <1>   0.4230 
 10 C        4.2690    -0.0310    -1.2220 C.3   1 <1>  -0.0800 
 11 C        0.3800    -3.8420     0.3750 C.ar  1 <1>   0.0000 
 12 C        2.0110    -4.4610     2.0560 C.ar  1 <1>  -0.1500 
 13 N        4.4930     2.4480    -0.6310 N.4   1 <1>  -0.9590 
 14 C        4.9500     1.2230     1.4580 C.3   1 <1>   0.1200 
 15 C        5.3820    -0.4190    -0.2120 C.3   1 <1>   0.1200 
 16 C        4.2450     1.4330    -1.7000 C.3   1 <1>   0.3430 
 17 C        1.0300    -4.8130     1.1270 C.ar  1 <1>  -0.1520 
 18 C       -0.5480    -4.5240    -0.4450 C.2   1 <1>  -0.1810 
 19 C        4.2220     3.8440    -1.0810 C.3   1 <1>   0.2630 
 20 O        5.8590     0.6610     0.5400 O.3   1 <1>  -0.5600 
 21 N        0.5250    -6.0340     0.7770 N.pl3 1 <1>   0.0330 
 22 C       -0.4340    -5.8490    -0.1810 C.2   1 <1>  -0.3320 
 23 C       -1.4710    -3.8130    -1.4160 C.3   1 <1>  -0.0590 
 24 C       -1.1800    -7.0360    -0.7670 C.3   1 <1>  -0.0600 
 25 H        1.9260     2.0210    -0.1000 H     1 <1>   0.0800 
 26 H        2.0050     1.8130     1.6070 H     1 <1>   0.0800 
 27 H        2.8830    -1.5750    -0.7430 H     1 <1>   0.0800 
 28 H        2.1410    -0.2300    -1.5410 H     1 <1>   0.0800 
 29 H        0.2020    -1.7600    -0.0330 H     1 <1>   0.1500 
 30 H        3.0830    -2.8400     2.9210 H     1 <1>   0.1500 
 31 H        3.8640     3.0440     1.2920 H     1 <1>   0.0800 
 32 H        4.4700    -0.6120    -2.1040 H     1 <1>   0.0800 
 33 H        2.4940    -5.2220     2.6420 H     1 <1>   0.1500 
 34 H        5.5080     2.3330    -0.4410 H     1 <1>   0.4500 
 35 H        4.4960     0.4430     2.0420 H     1 <1>   0.0800 
 36 H        5.5250     1.8280     2.1360 H     1 <1>   0.0800 
 37 H        6.2300    -0.8070    -0.7520 H     1 <1>   0.0800 
 38 H        5.0480    -1.1890     0.4640 H     1 <1>   0.0800 
 39 H        3.2910     1.6260    -2.1630 H     1 <1>   0.0800 
 40 H        5.0010     1.5520    -2.4600 H     1 <1>   0.0800 
 41 H        3.1690     3.9800    -1.2660 H     1 <1>   0.0800 
 42 H        4.7630     4.0560    -1.9890 H     1 <1>   0.0800 
 43 H        4.5350     4.5480    -0.3260 H     1 <1>   0.0800 
 44 H        0.8140    -6.9310     1.1780 H     1 <1>   0.2700 
 45 H       -2.0740    -3.0990    -0.8850 H     1 <1>   0.0800 
 46 H       -2.1220    -4.5080    -1.9110 H     1 <1>   0.0800 
 47 H       -0.8900    -3.2970    -2.1590 H     1 <1>   0.0800 
 48 H       -1.8880    -6.7190    -1.5090 H     1 <1>   0.0800 
 49 H       -1.7120    -7.5560     0.0090 H     1 <1>   0.0800 
 50 H       -0.4860    -7.7140    -1.2310 H     1 <1>   0.0800 
@<TRIPOS>BOND
  1   1   2  2   
  2   2   3  am  
  3   2   4  1   
  4   3   5  1   
  5   3   6  1   
  6   4   7  ar  
  7   4   8  ar  
  8   5   9  1   
  9   5  25  1   
 10   5  26  1   
 11   6  10  1   
 12   6  27  1   
 13   6  28  1   
 14   7  11  ar  
 15   7  29  1   
 16   8  12  ar  
 17   8  30  1   
 18   9  13  1   
 19   9  14  1   
 20   9  31  1   
 21  10  15  1   
 22  10  16  1   
 23  10  32  1   
 24  11  17  ar  
 25  11  18  1   
 26  12  17  ar  
 27  12  33  1   
 28  13  16  1   
 29  13  19  1   
 30  13  34  1   
 31  14  20  1   
 32  14  35  1   
 33  14  36  1   
 34  15  20  1   
 35  15  37  1   
 36  15  38  1   
 37  16  39  1   
 38  16  40  1   
 39  17  21  1   
 40  18  22  2   
 41  18  23  1   
 42  19  41  1   
 43  19  42  1   
 44  19  43  1   
 45  21  22  1   
 46  21  44  1   
 47  22  24  1   
 48  23  45  1   
 49  23  46  1   
 50  23  47  1   
 51  24  48  1   
 52  24  49  1   
 53  24  50  1   
@<TRIPOS>SUBSTRUCTURE
  1 ****   4 GROUP 4 **** **** 0

# MOE 2024.06 (io_trps.svl 2023.06)
