@<TRIPOS>MOLECULE
NONAME
60 63 1 0 0 
SMALL
USER_CHARGES


@<TRIPOS>ATOM
  1 O       -1.9040    -0.7500     0.5010 O.2   1 <1>  -0.5700 
  2 C       -1.2680    -1.7750     0.4430 C.2   1 <1>   0.5690 
  3 N       -1.6300    -2.7790    -0.4270 N.am  1 <1>  -0.6600 
  4 C       -0.0680    -1.9490     1.3710 C.3   1 <1>  -0.0990 
  5 C       -1.1090    -4.1680    -0.3940 C.3   1 <1>   0.1400 
  6 C       -2.6820    -2.5480    -1.4480 C.3   1 <1>   0.1400 
  7 C        0.3650    -0.6660     2.1030 C.3   1 <1>  -0.1600 
  8 C       -2.2730    -5.0980    -0.0450 C.3   1 <1>  -0.1600 
  9 C       -3.8780    -3.4370    -1.1120 C.3   1 <1>  -0.1600 
 10 C        1.5870    -0.9110     2.9930 C.3   1 <1>  -0.2400 
 11 C       -3.4500    -4.9050    -1.0070 C.3   1 <1>   0.4230 
 12 N       -4.5820    -5.7150    -0.5110 N.4   1 <1>  -0.9060 
 13 C       -5.7150    -5.9000    -1.4610 C.3   1 <1>   0.4230 
 14 C       -6.8650    -6.6400    -0.7740 C.3   1 <1>  -0.0800 
 15 C       -5.3080    -6.9580    -2.4790 C.3   1 <1>   0.1200 
 16 C       -6.4650    -8.1190    -0.9170 C.3   1 <1>   0.1200 
 17 C       -7.2140    -6.2220     0.6710 C.3   1 <1>  -0.0170 
 18 O       -5.3210    -8.1210    -1.7200 O.3   1 <1>  -0.5600 
 19 C       -8.4430    -6.9770     1.1620 C.ar  1 <1>  -0.1440 
 20 C       -9.7580    -6.6290     0.7640 C.ar  1 <1>   0.0000 
 21 C       -8.3020    -8.0370     2.0110 C.ar  1 <1>  -0.1500 
 22 C      -10.8230    -7.4280     1.2470 C.ar  1 <1>   0.3100 
 23 C      -10.0820    -5.5400    -0.0800 C.ar  1 <1>  -0.1500 
 24 C       -9.4260    -8.7520     2.4410 C.ar  1 <1>   0.1600 
 25 N      -10.6390    -8.4810     2.0810 N.ar  1 <1>  -0.6200 
 26 C      -12.1360    -7.1260     0.8530 C.ar  1 <1>  -0.1500 
 27 C      -11.3730    -5.2700    -0.4420 C.ar  1 <1>  -0.1500 
 28 C      -12.4150    -6.0730     0.0260 C.ar  1 <1>  -0.1500 
 29 H       -0.3140    -2.6980     2.1010 H     1 <1>   0.0800 
 30 H        0.7610    -2.3000     0.7850 H     1 <1>   0.0800 
 31 H       -0.6990    -4.4150    -1.3600 H     1 <1>   0.0800 
 32 H       -0.3250    -4.2790     0.3350 H     1 <1>   0.0800 
 33 H       -2.9860    -1.5130    -1.4620 H     1 <1>   0.0800 
 34 H       -2.2890    -2.7850    -2.4220 H     1 <1>   0.0800 
 35 H        0.5970     0.0980     1.3790 H     1 <1>   0.0800 
 36 H       -0.4500    -0.3050     2.7080 H     1 <1>   0.0800 
 37 H       -2.5740    -4.8850     0.9660 H     1 <1>   0.0800 
 38 H       -1.9230    -6.1140    -0.0910 H     1 <1>   0.0800 
 39 H       -4.6150    -3.3090    -1.8840 H     1 <1>   0.0800 
 40 H       -4.2920    -3.0930    -0.1790 H     1 <1>   0.0800 
 41 H        2.4230    -1.2460     2.4040 H     1 <1>   0.0800 
 42 H        1.3670    -1.6530     3.7410 H     1 <1>   0.0800 
 43 H        1.8660     0.0010     3.4910 H     1 <1>   0.0800 
 44 H       -3.1480    -5.2500    -1.9840 H     1 <1>   0.0800 
 45 H       -4.9100    -5.3180     0.3730 H     1 <1>   0.4500 
 46 H       -4.2480    -6.6730    -0.3200 H     1 <1>   0.4500 
 47 H       -6.0260    -4.9710    -1.9100 H     1 <1>   0.0800 
 48 H       -7.7430    -6.5010    -1.3800 H     1 <1>   0.0800 
 49 H       -4.3320    -6.8100    -2.9050 H     1 <1>   0.0800 
 50 H       -6.0390    -7.0560    -3.2660 H     1 <1>   0.0800 
 51 H       -7.2360    -8.6920    -1.4070 H     1 <1>   0.0800 
 52 H       -6.2170    -8.5820     0.0230 H     1 <1>   0.0800 
 53 H       -7.4000    -5.1640     0.7280 H     1 <1>   0.0800 
 54 H       -6.3940    -6.4390     1.3330 H     1 <1>   0.0800 
 55 H       -7.3430    -8.3590     2.3720 H     1 <1>   0.1500 
 56 H       -9.3050    -4.8990    -0.4470 H     1 <1>   0.1500 
 57 H       -9.2730    -9.5810     3.1110 H     1 <1>   0.1500 
 58 H      -12.9220    -7.7540     1.2290 H     1 <1>   0.1500 
 59 H      -11.6090    -4.4390    -1.0860 H     1 <1>   0.1500 
 60 H      -13.4270    -5.8530    -0.2680 H     1 <1>   0.1500 
@<TRIPOS>BOND
  1   1   2  2   
  2   2   3  am  
  3   2   4  1   
  4   3   5  1   
  5   3   6  1   
  6   4   7  1   
  7   4  29  1   
  8   4  30  1   
  9   5   8  1   
 10   5  31  1   
 11   5  32  1   
 12   6   9  1   
 13   6  33  1   
 14   6  34  1   
 15   7  10  1   
 16   7  35  1   
 17   7  36  1   
 18   8  11  1   
 19   8  37  1   
 20   8  38  1   
 21   9  11  1   
 22   9  39  1   
 23   9  40  1   
 24  10  41  1   
 25  10  42  1   
 26  10  43  1   
 27  11  12  1   
 28  11  44  1   
 29  12  13  1   
 30  12  45  1   
 31  12  46  1   
 32  13  14  1   
 33  13  15  1   
 34  13  47  1   
 35  14  16  1   
 36  14  17  1   
 37  14  48  1   
 38  15  18  1   
 39  15  49  1   
 40  15  50  1   
 41  16  18  1   
 42  16  51  1   
 43  16  52  1   
 44  17  19  1   
 45  17  53  1   
 46  17  54  1   
 47  19  20  ar  
 48  19  21  ar  
 49  20  22  ar  
 50  20  23  ar  
 51  21  24  ar  
 52  21  55  1   
 53  22  25  ar  
 54  22  26  ar  
 55  23  27  ar  
 56  23  56  1   
 57  24  25  ar  
 58  24  57  1   
 59  26  28  ar  
 60  26  58  1   
 61  27  28  ar  
 62  27  59  1   
 63  28  60  1   
@<TRIPOS>SUBSTRUCTURE
  1 ****  12 GROUP 4 **** **** 0

# MOE 2024.06 (io_trps.svl 2023.06)
