@<TRIPOS>MOLECULE
NONAME
49 52 1 0 0 
SMALL
USER_CHARGES


@<TRIPOS>ATOM
  1 O        0.2240     0.8280    -0.0490 O.2   1 <1>  -0.5700 
  2 C       -0.4160     1.8310    -0.3310 C.2   1 <1>   0.7160 
  3 N       -1.7940     1.6900    -0.4520 N.am  1 <1>  -0.6600 
  4 C        0.3100     3.0870    -0.5310 C.2   1 <1>   0.2030 
  5 C       -2.6930     2.6820    -1.1210 C.3   1 <1>   0.1400 
  6 C       -2.5070     0.4630     0.0070 C.3   1 <1>   0.1400 
  7 N       -0.1360     4.3300    -0.4030 N.2   1 <1>  -0.7070 
  8 C        1.6660     3.1140    -0.8910 C.2   1 <1>  -0.1500 
  9 C       -3.8250     3.1270    -0.1750 C.3   1 <1>   0.1430 
 10 C       -3.6550     0.8460     0.9510 C.3   1 <1>  -0.1600 
 11 N        0.9100     5.1200    -0.6830 N.pl3 1 <1>   0.3000 
 12 C        2.0140     4.4120    -0.9820 C.2   1 <1>  -0.3320 
 13 C       -4.7090     4.1130    -0.9170 C.ar  1 <1>   0.1670 
 14 C       -4.5990     1.8850     0.3170 C.3   1 <1>  -0.1600 
 15 C       -3.2930     3.9830     1.0050 C.3   1 <1>  -0.1600 
 16 C        3.3560     5.0260    -1.3400 C.3   1 <1>   0.0200 
 17 N       -5.5660     3.8110    -1.8640 N.ar  1 <1>  -0.6200 
 18 C       -4.4960     5.3910    -0.4900 C.ar  1 <1>  -0.1430 
 19 C       -3.4450     5.4550     0.5900 C.3   1 <1>  -0.0170 
 20 C        3.9580     5.7570    -0.1360 C.3   1 <1>  -0.1600 
 21 C       -6.2030     4.8580    -2.3660 C.ar  1 <1>   0.7200 
 22 C       -5.2280     6.3940    -1.0780 C.ar  1 <1>   0.1600 
 23 C        5.3290     6.3570    -0.4690 C.3   1 <1>  -0.2400 
 24 N       -6.1000     6.1350    -2.0260 N.ar  1 <1>  -0.6200 
 25 N       -7.0870     4.5880    -3.3270 N.pl3 1 <1>  -0.9000 
 26 H       -3.1320     2.2140    -1.9860 H     1 <1>   0.0800 
 27 H       -2.1520     3.5380    -1.4750 H     1 <1>   0.0800 
 28 H       -1.8350    -0.2040     0.5190 H     1 <1>   0.0800 
 29 H       -2.8970    -0.0540    -0.8530 H     1 <1>   0.0800 
 30 H        2.2720     2.2390    -1.0510 H     1 <1>   0.1500 
 31 H       -3.2370     1.2350     1.8620 H     1 <1>   0.0800 
 32 H       -4.2120    -0.0380     1.2030 H     1 <1>   0.0800 
 33 H        0.8490     6.1450    -0.6630 H     1 <1>   0.2700 
 34 H       -5.0970     1.4310    -0.5230 H     1 <1>   0.0800 
 35 H       -5.3590     2.1760     1.0210 H     1 <1>   0.0800 
 36 H       -2.2760     3.7480     1.2650 H     1 <1>   0.0800 
 37 H       -3.9070     3.8180     1.8730 H     1 <1>   0.0800 
 38 H        3.2330     5.7070    -2.1650 H     1 <1>   0.0800 
 39 H        4.0260     4.2440    -1.6550 H     1 <1>   0.0800 
 40 H       -2.5230     5.8260     0.1770 H     1 <1>   0.0800 
 41 H       -3.7520     6.0710     1.4170 H     1 <1>   0.0800 
 42 H        4.0640     5.0620     0.6810 H     1 <1>   0.0800 
 43 H        3.2970     6.5440     0.1820 H     1 <1>   0.0800 
 44 H       -5.0950     7.4170    -0.7700 H     1 <1>   0.1500 
 45 H        6.0170     5.5830    -0.7620 H     1 <1>   0.0800 
 46 H        5.7300     6.8590     0.3930 H     1 <1>   0.0800 
 47 H        5.2450     7.0690    -1.2710 H     1 <1>   0.0800 
 48 H       -7.7790     5.3130    -3.4870 H     1 <1>   0.4000 
 49 H       -7.4100     3.6260    -3.3580 H     1 <1>   0.4000 
@<TRIPOS>BOND
  1   1   2  2   
  2   2   3  am  
  3   2   4  1   
  4   3   5  1   
  5   3   6  1   
  6   4   7  2   
  7   4   8  1   
  8   5   9  1   
  9   5  26  1   
 10   5  27  1   
 11   6  10  1   
 12   6  28  1   
 13   6  29  1   
 14   7  11  1   
 15   8  12  2   
 16   8  30  1   
 17   9  13  1   
 18   9  14  1   
 19   9  15  1   
 20  10  14  1   
 21  10  31  1   
 22  10  32  1   
 23  11  12  1   
 24  11  33  1   
 25  12  16  1   
 26  13  17  ar  
 27  13  18  ar  
 28  14  34  1   
 29  14  35  1   
 30  15  19  1   
 31  15  36  1   
 32  15  37  1   
 33  16  20  1   
 34  16  38  1   
 35  16  39  1   
 36  17  21  ar  
 37  18  19  1   
 38  18  22  ar  
 39  19  40  1   
 40  19  41  1   
 41  20  23  1   
 42  20  42  1   
 43  20  43  1   
 44  21  24  ar  
 45  21  25  1   
 46  22  24  ar  
 47  22  44  1   
 48  23  45  1   
 49  23  46  1   
 50  23  47  1   
 51  25  48  1   
 52  25  49  1   
@<TRIPOS>SUBSTRUCTURE
  1 ****   5 GROUP 4 **** **** 0

# MOE 2024.06 (io_trps.svl 2023.06)
