@<TRIPOS>MOLECULE
NONAME
57 60 1 0 0 
SMALL
USER_CHARGES


@<TRIPOS>ATOM
  1 O       -1.3500    -0.9020    -0.6550 O.2   1 <1>  -0.5700 
  2 C       -2.2740    -0.1590    -0.3800 C.2   1 <1>   0.5440 
  3 N       -2.0260     0.9260     0.4360 N.am  1 <1>  -0.6600 
  4 C       -3.5900    -0.4480    -0.9010 C.ar  1 <1>   0.0860 
  5 C       -3.0430     1.5180     1.3570 C.3   1 <1>   0.1400 
  6 C       -0.6370     1.4020     0.7170 C.3   1 <1>   0.1400 
  7 C       -4.0510    -1.7610    -0.9620 C.ar  1 <1>   0.1600 
  8 C       -4.4510     0.5380    -1.3740 C.ar  1 <1>  -0.1500 
  9 C       -2.5790     1.4100     2.8210 C.3   1 <1>   0.1200 
 10 C       -0.3170     1.2880     2.2150 C.3   1 <1>   0.1200 
 11 N       -5.2370    -2.1510    -1.3960 N.ar  1 <1>  -0.6200 
 12 C       -5.6850     0.1500    -1.8360 C.ar  1 <1>  -0.1500 
 13 O       -1.2950     1.9410     2.9770 O.3   1 <1>  -0.5600 
 14 C       -6.0520    -1.1940    -1.8280 C.ar  1 <1>   0.4100 
 15 N       -7.2990    -1.5670    -2.2760 N.pl3 1 <1>  -0.8380 
 16 C       -8.5150    -1.0570    -1.5640 C.3   1 <1>   0.2090 
 17 C       -7.5130    -2.9430    -2.8370 C.3   1 <1>   0.2090 
 18 C       -9.0300    -2.0610    -0.5120 C.3   1 <1>   0.2090 
 19 C       -8.0350    -3.9240    -1.7690 C.3   1 <1>   0.2090 
 20 N       -9.2760    -3.4120    -1.1090 N.pl3 1 <1>  -0.8380 
 21 C       -9.9400    -4.3350    -0.2880 C.ar  1 <1>   0.1000 
 22 C       -9.4960    -4.7400     0.9820 C.ar  1 <1>   0.0830 
 23 C      -11.1140    -4.8930    -0.7750 C.ar  1 <1>  -0.1500 
 24 O       -8.3520    -4.2330     1.5130 O.3   1 <1>  -0.3630 
 25 C      -10.2220    -5.6580     1.7250 C.ar  1 <1>  -0.1500 
 26 C      -11.8350    -5.8160    -0.0370 C.ar  1 <1>  -0.1500 
 27 C       -7.2720    -5.1260     1.6300 C.3   1 <1>   0.1200 
 28 C      -11.3900    -6.1990     1.2160 C.ar  1 <1>  -0.1500 
 29 C       -6.0090    -4.3040     1.8700 C.3   1 <1>  -0.2400 
 30 H       -3.9880     1.0150     1.2570 H     1 <1>   0.0800 
 31 H       -3.1860     2.5550     1.1080 H     1 <1>   0.0800 
 32 H       -0.5500     2.4310     0.4150 H     1 <1>   0.0800 
 33 H        0.0830     0.8350     0.1540 H     1 <1>   0.0800 
 34 H       -3.3830    -2.5340    -0.6230 H     1 <1>   0.1500 
 35 H       -4.1470     1.5700    -1.3830 H     1 <1>   0.1500 
 36 H       -2.5660     0.3810     3.1380 H     1 <1>   0.0800 
 37 H       -3.2420     1.9610     3.4630 H     1 <1>   0.0800 
 38 H        0.6300     1.7500     2.4290 H     1 <1>   0.0800 
 39 H       -0.2750     0.2550     2.5130 H     1 <1>   0.0800 
 40 H       -6.3820     0.8700    -2.2210 H     1 <1>   0.1500 
 41 H       -9.2940    -0.8760    -2.2830 H     1 <1>   0.0800 
 42 H       -8.2920    -0.1260    -1.0750 H     1 <1>   0.0800 
 43 H       -6.5930    -3.3190    -3.2480 H     1 <1>   0.0800 
 44 H       -8.2290    -2.8880    -3.6380 H     1 <1>   0.0800 
 45 H       -9.9440    -1.6940    -0.0800 H     1 <1>   0.0800 
 46 H       -8.2960    -2.1350     0.2690 H     1 <1>   0.0800 
 47 H       -7.2670    -4.0680    -1.0310 H     1 <1>   0.0800 
 48 H       -8.2430    -4.8740    -2.2270 H     1 <1>   0.0800 
 49 H      -11.4590    -4.5890    -1.7460 H     1 <1>   0.1500 
 50 H       -9.8780    -5.9440     2.7010 H     1 <1>   0.1500 
 51 H      -12.7420    -6.2320    -0.4380 H     1 <1>   0.1500 
 52 H       -7.1920    -5.6890     0.7160 H     1 <1>   0.0800 
 53 H       -7.4650    -5.7910     2.4530 H     1 <1>   0.0800 
 54 H      -11.9510    -6.9130     1.7940 H     1 <1>   0.1500 
 55 H       -5.8470    -3.6320     1.0460 H     1 <1>   0.0800 
 56 H       -5.1600    -4.9570     1.9540 H     1 <1>   0.0800 
 57 H       -6.1030    -3.7390     2.7800 H     1 <1>   0.0800 
@<TRIPOS>BOND
  1   1   2  2   
  2   2   3  am  
  3   2   4  1   
  4   3   5  1   
  5   3   6  1   
  6   4   7  ar  
  7   4   8  ar  
  8   5   9  1   
  9   5  30  1   
 10   5  31  1   
 11   6  10  1   
 12   6  32  1   
 13   6  33  1   
 14   7  11  ar  
 15   7  34  1   
 16   8  12  ar  
 17   8  35  1   
 18   9  13  1   
 19   9  36  1   
 20   9  37  1   
 21  10  13  1   
 22  10  38  1   
 23  10  39  1   
 24  11  14  ar  
 25  12  14  ar  
 26  12  40  1   
 27  14  15  1   
 28  15  16  1   
 29  15  17  1   
 30  16  18  1   
 31  16  41  1   
 32  16  42  1   
 33  17  19  1   
 34  17  43  1   
 35  17  44  1   
 36  18  20  1   
 37  18  45  1   
 38  18  46  1   
 39  19  20  1   
 40  19  47  1   
 41  19  48  1   
 42  20  21  1   
 43  21  22  ar  
 44  21  23  ar  
 45  22  24  1   
 46  22  25  ar  
 47  23  26  ar  
 48  23  49  1   
 49  24  27  1   
 50  25  28  ar  
 51  25  50  1   
 52  26  28  ar  
 53  26  51  1   
 54  27  29  1   
 55  27  52  1   
 56  27  53  1   
 57  28  54  1   
 58  29  55  1   
 59  29  56  1   
 60  29  57  1   
@<TRIPOS>SUBSTRUCTURE
  1 ****  11 GROUP 4 **** **** 0

# MOE 2024.06 (io_trps.svl 2023.06)
