@<TRIPOS>MOLECULE
NONAME
52 55 1 0 0 
SMALL
USER_CHARGES


@<TRIPOS>ATOM
  1 O        3.8320     3.2220    -2.3440 O.2   1 <1>  -0.5700 
  2 C        3.2490     2.5570    -1.5090 C.2   1 <1>   0.5440 
  3 N        2.6680     3.2130    -0.4480 N.am  1 <1>  -0.6600 
  4 C        3.2250     1.1250    -1.6440 C.ar  1 <1>   0.0860 
  5 C        1.2580     3.0060     0.0540 C.3   1 <1>   0.2200 
  6 C        3.4240     4.3470     0.1660 C.3   1 <1>   0.1400 
  7 C        3.1110     0.5020    -2.8730 C.ar  1 <1>   0.1600 
  8 C        3.3250     0.2710    -0.5610 C.ar  1 <1>   0.1600 
  9 C        0.4340     4.3270     0.1740 C.3   1 <1>   0.1380 
 10 C        0.4180     1.9390    -0.6780 C.3   1 <1>  -0.1600 
 11 C        2.6510     5.0200     1.3080 C.3   1 <1>  -0.1600 
 12 N        3.0680    -0.8010    -3.0180 N.ar  1 <1>  -0.6200 
 13 N        3.2880    -1.0350    -0.6670 N.ar  1 <1>  -0.6200 
 14 C       -0.0950     4.8660    -1.1940 C.2   1 <1>  -0.2760 
 15 C       -0.7320     3.9330     1.1340 C.3   1 <1>   0.1200 
 16 C        1.2570     5.4660     0.8420 C.3   1 <1>  -0.1600 
 17 C       -1.0690     2.0480    -0.3020 C.3   1 <1>   0.1200 
 18 C        3.1570    -1.5100    -1.9020 C.ar  1 <1>   0.7200 
 19 C       -1.3580     5.2240    -1.4760 C.2   1 <1>  -0.2880 
 20 C        0.9390     5.0020    -2.3180 C.3   1 <1>  -0.0220 
 21 O       -1.1940     2.6090     0.9710 O.3   1 <1>  -0.5600 
 22 N        3.1060    -2.8450    -2.0820 N.pl3 1 <1>  -0.8690 
 23 C       -1.8290     5.7210    -2.8390 C.3   1 <1>   0.2580 
 24 C        0.4200     5.8660    -3.4730 C.3   1 <1>   0.1200 
 25 C        3.2240    -3.9090    -1.0550 C.3   1 <1>   0.1290 
 26 O       -0.8680     5.4600    -3.8160 O.3   1 <1>  -0.5600 
 27 H        1.3710     2.6320     1.0590 H     1 <1>   0.0800 
 28 H        4.3660     3.9800     0.5360 H     1 <1>   0.0800 
 29 H        3.6380     5.0780    -0.5960 H     1 <1>   0.0800 
 30 H        3.0500     1.1140    -3.7580 H     1 <1>   0.1500 
 31 H        3.4360     0.6920     0.4240 H     1 <1>   0.1500 
 32 H        0.7490     0.9580    -0.3980 H     1 <1>   0.0800 
 33 H        0.4970     2.0380    -1.7440 H     1 <1>   0.0800 
 34 H        2.5710     4.3400     2.1380 H     1 <1>   0.0800 
 35 H        3.2060     5.8770     1.6480 H     1 <1>   0.0800 
 36 H       -1.5680     4.6000     1.0640 H     1 <1>   0.0800 
 37 H       -0.3820     3.9840     2.1500 H     1 <1>   0.0800 
 38 H        1.3870     6.2750     0.1460 H     1 <1>   0.0800 
 39 H        0.7230     5.8850     1.6780 H     1 <1>   0.0800 
 40 H       -1.5270     1.0740    -0.2830 H     1 <1>   0.0800 
 41 H       -1.6100     2.6620    -1.0000 H     1 <1>   0.0800 
 42 H       -2.1780     5.1990    -0.7840 H     1 <1>   0.1500 
 43 H        1.1840     4.0350    -2.7120 H     1 <1>   0.0800 
 44 H        1.8460     5.4490    -1.9620 H     1 <1>   0.0800 
 45 H        3.0280    -3.1310    -3.0580 H     1 <1>   0.4000 
 46 H       -2.0190     6.7800    -2.8170 H     1 <1>   0.0800 
 47 H       -2.7280     5.2080    -3.1330 H     1 <1>   0.0800 
 48 H        1.0480     5.7510    -4.3390 H     1 <1>   0.0800 
 49 H        0.3900     6.9050    -3.1930 H     1 <1>   0.0800 
 50 H        3.3050    -3.4840    -0.0690 H     1 <1>   0.0800 
 51 H        4.1000    -4.5030    -1.2480 H     1 <1>   0.0800 
 52 H        2.3530    -4.5410    -1.0870 H     1 <1>   0.0800 
@<TRIPOS>BOND
  1   1   2  2   
  2   2   3  am  
  3   2   4  1   
  4   3   5  1   
  5   3   6  1   
  6   4   7  ar  
  7   4   8  ar  
  8   5   9  1   
  9   5  10  1   
 10   5  27  1   
 11   6  11  1   
 12   6  28  1   
 13   6  29  1   
 14   7  12  ar  
 15   7  30  1   
 16   8  13  ar  
 17   8  31  1   
 18   9  14  1   
 19   9  15  1   
 20   9  16  1   
 21  10  17  1   
 22  10  32  1   
 23  10  33  1   
 24  11  16  1   
 25  11  34  1   
 26  11  35  1   
 27  12  18  ar  
 28  13  18  ar  
 29  14  19  2   
 30  14  20  1   
 31  15  21  1   
 32  15  36  1   
 33  15  37  1   
 34  16  38  1   
 35  16  39  1   
 36  17  21  1   
 37  17  40  1   
 38  17  41  1   
 39  18  22  1   
 40  19  23  1   
 41  19  42  1   
 42  20  24  1   
 43  20  43  1   
 44  20  44  1   
 45  22  25  1   
 46  22  45  1   
 47  23  26  1   
 48  23  46  1   
 49  23  47  1   
 50  24  26  1   
 51  24  48  1   
 52  24  49  1   
 53  25  50  1   
 54  25  51  1   
 55  25  52  1   
@<TRIPOS>SUBSTRUCTURE
  1 ****   5 GROUP 4 **** **** 0

# MOE 2024.06 (io_trps.svl 2023.06)
