@<TRIPOS>MOLECULE
NONAME
42 43 1 0 0 
SMALL
USER_CHARGES


@<TRIPOS>ATOM
  1 S        0.0170     0.0710    -0.2070 S.o2  1 <1>   1.3330 
  2 O        0.9780    -0.6100     0.6290 O.2   1 <1>  -0.6500 
  3 O       -1.3740    -0.3150    -0.2110 O.2   1 <1>  -0.6500 
  4 N        0.0860     1.7170     0.1800 N.am  1 <1>  -0.8490 
  5 C        0.6060    -0.0220    -1.8870 C.3   1 <1>  -0.1350 
  6 C        1.4410     2.2820     0.2710 C.3   1 <1>   0.1960 
  7 C       -0.8410     2.5750    -0.5700 C.3   1 <1>   0.1960 
  8 C        1.4100     3.7530     0.7320 C.3   1 <1>   0.2000 
  9 C       -0.7790     4.0270    -0.0650 C.3   1 <1>   0.1200 
 10 O        0.5390     4.4950    -0.0910 O.3   1 <1>  -0.5600 
 11 C        2.8140     4.3760     0.6920 C.3   1 <1>   0.2090 
 12 N        2.7490     5.8340     0.9340 N.pl3 1 <1>  -0.8690 
 13 C        3.8080     6.6320     0.5230 C.ar  1 <1>   0.4100 
 14 N        5.0180     6.1310     0.6970 N.ar  1 <1>  -0.6200 
 15 C        3.5550     7.9170    -0.0630 C.ar  1 <1>   0.4100 
 16 C        5.9640     6.9610     0.2760 C.ar  1 <1>   0.1600 
 17 N        4.5200     8.7220    -0.4780 N.ar  1 <1>  -0.6200 
 18 N        2.2420     8.3880    -0.2190 N.pl3 1 <1>  -0.8380 
 19 C        5.7250     8.2020    -0.2860 C.ar  1 <1>   0.1600 
 20 C        1.9320     9.1810    -1.4390 C.3   1 <1>   0.1290 
 21 C        1.6100     8.9230     1.0140 C.3   1 <1>   0.1290 
 22 H        0.5970    -1.0430    -2.2140 H     1 <1>   0.0800 
 23 H        1.6110     0.3450    -1.9570 H     1 <1>   0.0800 
 24 H       -0.0240     0.5460    -2.5410 H     1 <1>   0.0800 
 25 H        1.9290     2.2260    -0.6860 H     1 <1>   0.0800 
 26 H        2.0190     1.7080     0.9770 H     1 <1>   0.0800 
 27 H       -1.8470     2.2070    -0.4510 H     1 <1>   0.0800 
 28 H       -0.5990     2.5630    -1.6180 H     1 <1>   0.0800 
 29 H        1.0430     3.8030     1.7420 H     1 <1>   0.0800 
 30 H       -1.1520     4.0940     0.9430 H     1 <1>   0.0800 
 31 H       -1.3690     4.6680    -0.6960 H     1 <1>   0.0800 
 32 H        3.2620     4.1970    -0.2700 H     1 <1>   0.0800 
 33 H        3.4370     3.9230     1.4430 H     1 <1>   0.0800 
 34 H        1.8760     6.2140     0.5360 H     1 <1>   0.4000 
 35 H        6.9800     6.6290     0.3890 H     1 <1>   0.1500 
 36 H        6.5630     8.8010    -0.5960 H     1 <1>   0.1500 
 37 H        2.4340     8.7520    -2.2890 H     1 <1>   0.0800 
 38 H        2.2680    10.1960    -1.3130 H     1 <1>   0.0800 
 39 H        0.8720     9.1730    -1.6220 H     1 <1>   0.0800 
 40 H        1.9290     8.3560     1.8720 H     1 <1>   0.0800 
 41 H        0.5390     8.8570     0.9340 H     1 <1>   0.0800 
 42 H        1.8950     9.9510     1.1540 H     1 <1>   0.0800 
@<TRIPOS>BOND
  1   1   2  2   
  2   1   3  2   
  3   1   4  am  
  4   1   5  1   
  5   4   6  1   
  6   4   7  1   
  7   5  22  1   
  8   5  23  1   
  9   5  24  1   
 10   6   8  1   
 11   6  25  1   
 12   6  26  1   
 13   7   9  1   
 14   7  27  1   
 15   7  28  1   
 16   8  10  1   
 17   8  11  1   
 18   8  29  1   
 19   9  10  1   
 20   9  30  1   
 21   9  31  1   
 22  11  12  1   
 23  11  32  1   
 24  11  33  1   
 25  12  13  1   
 26  12  34  1   
 27  13  14  ar  
 28  13  15  ar  
 29  14  16  ar  
 30  15  17  ar  
 31  15  18  1   
 32  16  19  ar  
 33  16  35  1   
 34  17  19  ar  
 35  18  20  1   
 36  18  21  1   
 37  19  36  1   
 38  20  37  1   
 39  20  38  1   
 40  20  39  1   
 41  21  40  1   
 42  21  41  1   
 43  21  42  1   
@<TRIPOS>SUBSTRUCTURE
  1 ****  11 GROUP 4 **** **** 0

# MOE 2024.06 (io_trps.svl 2023.06)
