@<TRIPOS>MOLECULE
NONAME
55 57 1 0 0 
SMALL
USER_CHARGES


@<TRIPOS>ATOM
  1 S       -0.6680     1.9120     2.0790 S.o2  1 <1>   1.3330 
  2 O       -1.8680     2.6220     2.4540 O.2   1 <1>  -0.6500 
  3 O        0.4120     1.7750     3.0250 O.2   1 <1>  -0.6500 
  4 N       -0.0420     2.6910     0.6680 N.am  1 <1>  -0.6930 
  5 C       -1.1130     0.2980     1.4730 C.3   1 <1>  -0.1350 
  6 C        1.2230     2.3670     0.1830 C.ar  1 <1>   0.1990 
  7 C       -1.0210     3.5400    -0.0870 C.3   1 <1>   0.3370 
  8 C        2.3580     2.8120     0.8500 C.ar  1 <1>  -0.1500 
  9 C        1.3900     1.5940    -0.9620 C.ar  1 <1>  -0.1500 
 10 C       -2.1790     2.7240    -0.7250 C.2   1 <1>   0.5690 
 11 C       -0.3150     4.4230    -1.1270 C.3   1 <1>  -0.2400 
 12 C        3.6240     2.5050     0.3860 C.ar  1 <1>  -0.1500 
 13 C        2.6530     1.2840    -1.4320 C.ar  1 <1>  -0.1500 
 14 O       -1.8800     1.8070    -1.4600 O.2   1 <1>  -0.5700 
 15 N       -3.5060     3.0080    -0.4780 N.am  1 <1>  -0.6600 
 16 C        3.7730     1.7410    -0.7590 C.ar  1 <1>  -0.1500 
 17 C       -3.9690     4.1230     0.4100 C.3   1 <1>   0.1400 
 18 C       -4.5750     2.1170    -1.0320 C.3   1 <1>   0.1400 
 19 C       -5.4160     4.4950     0.0910 C.3   1 <1>  -0.1600 
 20 C       -5.7170     1.9660    -0.0270 C.3   1 <1>  -0.1600 
 21 C       -6.3640     3.3120     0.3440 C.3   1 <1>   0.4180 
 22 O       -6.6280     3.2270     1.7220 O.3   1 <1>  -0.5600 
 23 C       -7.6630     3.4960    -0.4410 C.2   1 <1>  -0.2880 
 24 C       -7.6210     4.0580     2.2570 C.3   1 <1>   0.1200 
 25 C       -8.8610     3.6810     0.1200 C.2   1 <1>  -0.2760 
 26 C       -8.9860     3.7490     1.6300 C.3   1 <1>  -0.0220 
 27 C      -10.1610     3.8220    -0.6510 C.3   1 <1>  -0.1020 
 28 H       -1.4860    -0.3040     2.2770 H     1 <1>   0.0800 
 29 H       -0.2560    -0.1860     1.0490 H     1 <1>   0.0800 
 30 H       -1.8740     0.3730     0.7220 H     1 <1>   0.0800 
 31 H       -1.4370     4.2150     0.6340 H     1 <1>   0.0800 
 32 H        2.2390     3.3990     1.7440 H     1 <1>   0.1500 
 33 H        0.5260     1.2330    -1.4880 H     1 <1>   0.1500 
 34 H        0.0820     3.8260    -1.9280 H     1 <1>   0.0800 
 35 H        0.4780     4.9840    -0.6660 H     1 <1>   0.0800 
 36 H       -1.0210     5.1140    -1.5490 H     1 <1>   0.0800 
 37 H        4.4910     2.8580     0.9160 H     1 <1>   0.1500 
 38 H        2.7650     0.6880    -2.3210 H     1 <1>   0.1500 
 39 H        4.7570     1.5010    -1.1230 H     1 <1>   0.1500 
 40 H       -3.3530     4.9920     0.2660 H     1 <1>   0.0800 
 41 H       -3.8980     3.8120     1.4400 H     1 <1>   0.0800 
 42 H       -4.1740     1.1430    -1.2530 H     1 <1>   0.0800 
 43 H       -4.9440     2.5400    -1.9510 H     1 <1>   0.0800 
 44 H       -5.4670     4.7870    -0.9420 H     1 <1>   0.0800 
 45 H       -5.7130     5.3470     0.6710 H     1 <1>   0.0800 
 46 H       -5.3150     1.4990     0.8540 H     1 <1>   0.0800 
 47 H       -6.4620     1.3040    -0.4300 H     1 <1>   0.0800 
 48 H       -7.5160     3.4510    -1.5040 H     1 <1>   0.1500 
 49 H       -7.3490     5.0820     2.0770 H     1 <1>   0.0800 
 50 H       -7.6500     3.8910     3.3190 H     1 <1>   0.0800 
 51 H       -9.6740     4.5260     1.9130 H     1 <1>   0.0800 
 52 H       -9.3590     2.8150     2.0090 H     1 <1>   0.0800 
 53 H      -10.8470     3.0450    -0.3640 H     1 <1>   0.0800 
 54 H       -9.9820     3.7450    -1.7090 H     1 <1>   0.0800 
 55 H      -10.6110     4.7780    -0.4500 H     1 <1>   0.0800 
@<TRIPOS>BOND
  1   1   2  2   
  2   1   3  2   
  3   1   4  am  
  4   1   5  1   
  5   4   6  1   
  6   4   7  1   
  7   5  28  1   
  8   5  29  1   
  9   5  30  1   
 10   6   8  ar  
 11   6   9  ar  
 12   7  10  1   
 13   7  11  1   
 14   7  31  1   
 15   8  12  ar  
 16   8  32  1   
 17   9  13  ar  
 18   9  33  1   
 19  10  14  2   
 20  10  15  am  
 21  11  34  1   
 22  11  35  1   
 23  11  36  1   
 24  12  16  ar  
 25  12  37  1   
 26  13  16  ar  
 27  13  38  1   
 28  15  17  1   
 29  15  18  1   
 30  16  39  1   
 31  17  19  1   
 32  17  40  1   
 33  17  41  1   
 34  18  20  1   
 35  18  42  1   
 36  18  43  1   
 37  19  21  1   
 38  19  44  1   
 39  19  45  1   
 40  20  21  1   
 41  20  46  1   
 42  20  47  1   
 43  21  22  1   
 44  21  23  1   
 45  22  24  1   
 46  23  25  2   
 47  23  48  1   
 48  24  26  1   
 49  24  49  1   
 50  24  50  1   
 51  25  26  1   
 52  25  27  1   
 53  26  51  1   
 54  26  52  1   
 55  27  53  1   
 56  27  54  1   
 57  27  55  1   
@<TRIPOS>SUBSTRUCTURE
  1 ****  15 GROUP 4 **** **** 0

# MOE 2024.06 (io_trps.svl 2023.06)
