@<TRIPOS>MOLECULE
NONAME
45 48 1 0 0 
SMALL
USER_CHARGES


@<TRIPOS>ATOM
  1 O       -2.6100     1.3490    -1.1900 O.2   1 <1>  -0.5700 
  2 C       -2.3550     1.0970    -0.0370 C.2   1 <1>   0.5690 
  3 N       -2.0800    -0.1680     0.3700 N.am  1 <1>  -0.7300 
  4 C       -2.3370     2.2260     0.9630 C.3   1 <1>   0.1570 
  5 C       -1.9460    -1.3440    -0.5250 C.3   1 <1>   0.2200 
  6 N       -0.9900     2.7910     0.9860 N.pl3 1 <1>   0.3140 
  7 C       -3.1410    -2.2830    -0.4000 C.3   1 <1>  -0.0800 
  8 C       -0.8400    -2.2340     0.0220 C.3   1 <1>   0.1200 
  9 N       -0.1740     2.7040     2.0210 N.2   1 <1>  -0.4180 
 10 C       -0.3520     3.4370     0.0130 C.2   1 <1>   0.2700 
 11 C       -2.7900    -3.1060     0.8490 C.3   1 <1>   0.1200 
 12 C       -4.5180    -1.5900    -0.3490 C.3   1 <1>  -0.0170 
 13 O       -1.4270    -2.9070     1.0930 O.3   1 <1>  -0.5600 
 14 N        0.9090     3.2920     1.6650 N.2   1 <1>   0.0000 
 15 N        0.8210     3.7570     0.4180 N.2   1 <1>  -0.3380 
 16 N       -0.8410     3.7210    -1.2520 N.pl3 1 <1>  -0.8840 
 17 C       -5.7490    -2.5050    -0.3340 C.ar  1 <1>  -0.1440 
 18 C       -7.0320    -1.9450    -0.1100 C.ar  1 <1>   0.0000 
 19 C       -5.6920    -3.8560    -0.5350 C.ar  1 <1>  -0.1500 
 20 C       -8.1440    -2.8230    -0.0720 C.ar  1 <1>   0.3100 
 21 C       -7.2790    -0.5630     0.0710 C.ar  1 <1>  -0.1500 
 22 C       -6.8560    -4.6320    -0.4870 C.ar  1 <1>   0.1600 
 23 N       -8.0390    -4.1610    -0.2610 N.ar  1 <1>  -0.6200 
 24 C       -9.4230    -2.2940     0.1660 C.ar  1 <1>  -0.1500 
 25 C       -8.5390    -0.0790     0.2970 C.ar  1 <1>  -0.1500 
 26 C       -9.6270    -0.9540     0.3490 C.ar  1 <1>  -0.1500 
 27 H       -1.8350    -0.3840     1.3430 H     1 <1>   0.3700 
 28 H       -2.5910     1.8690     1.9430 H     1 <1>   0.0800 
 29 H       -3.0300     2.9900     0.6660 H     1 <1>   0.0800 
 30 H       -1.7610    -1.0360    -1.5410 H     1 <1>   0.0800 
 31 H       -3.1170    -2.9380    -1.2520 H     1 <1>   0.0800 
 32 H        0.0170    -1.6800     0.3640 H     1 <1>   0.0800 
 33 H       -0.5370    -2.9670    -0.7060 H     1 <1>   0.0800 
 34 H       -2.9630    -4.1580     0.7030 H     1 <1>   0.0800 
 35 H       -3.3310    -2.7660     1.7160 H     1 <1>   0.0800 
 36 H       -4.5990    -0.9340    -1.1990 H     1 <1>   0.0800 
 37 H       -4.5550    -0.9820     0.5370 H     1 <1>   0.0800 
 38 H       -1.4400     2.9990    -1.6830 H     1 <1>   0.4000 
 39 H       -0.1240     4.0540    -1.9030 H     1 <1>   0.4000 
 40 H       -4.7770    -4.3780    -0.7340 H     1 <1>   0.1500 
 41 H       -6.4640     0.1330     0.0260 H     1 <1>   0.1500 
 42 H       -6.7590    -5.6930    -0.6470 H     1 <1>   0.1500 
 43 H      -10.2440    -2.9860     0.1980 H     1 <1>   0.1500 
 44 H       -8.7110     0.9750     0.4350 H     1 <1>   0.1500 
 45 H      -10.6130    -0.5630     0.5300 H     1 <1>   0.1500 
@<TRIPOS>BOND
  1   1   2  2   
  2   2   3  am  
  3   2   4  1   
  4   3   5  1   
  5   3  27  1   
  6   4   6  1   
  7   4  28  1   
  8   4  29  1   
  9   5   7  1   
 10   5   8  1   
 11   5  30  1   
 12   6   9  1   
 13   6  10  1   
 14   7  11  1   
 15   7  12  1   
 16   7  31  1   
 17   8  13  1   
 18   8  32  1   
 19   8  33  1   
 20   9  14  2   
 21  10  15  2   
 22  10  16  1   
 23  11  13  1   
 24  11  34  1   
 25  11  35  1   
 26  12  17  1   
 27  12  36  1   
 28  12  37  1   
 29  14  15  1   
 30  16  38  1   
 31  16  39  1   
 32  17  18  ar  
 33  17  19  ar  
 34  18  20  ar  
 35  18  21  ar  
 36  19  22  ar  
 37  19  40  1   
 38  20  23  ar  
 39  20  24  ar  
 40  21  25  ar  
 41  21  41  1   
 42  22  23  ar  
 43  22  42  1   
 44  24  26  ar  
 45  24  43  1   
 46  25  26  ar  
 47  25  44  1   
 48  26  45  1   
@<TRIPOS>SUBSTRUCTURE
  1 ****  12 GROUP 4 **** **** 0

# MOE 2024.06 (io_trps.svl 2023.06)
