@<TRIPOS>MOLECULE
NONAME
39 41 1 0 0 
SMALL
USER_CHARGES


@<TRIPOS>ATOM
  1 CL      -2.8110     1.1800    -2.3180 Cl    1 <1>  -0.1230 
  2 C       -2.5060     0.6810    -0.6600 C.2   1 <1>   0.1230 
  3 C       -2.6480    -0.6070    -0.1310 C.2   1 <1>   0.2030 
  4 C       -2.0870     1.4870     0.3330 C.2   1 <1>  -0.3320 
  5 N       -2.3220    -0.5840     1.1560 N.2   1 <1>  -0.7070 
  6 C       -3.0820    -1.7920    -0.8510 C.2   1 <1>   0.7160 
  7 N       -1.9840     0.6930     1.4190 N.pl3 1 <1>   0.3000 
  8 C       -1.7710     2.9730     0.3280 C.3   1 <1>  -0.0600 
  9 O       -3.4490    -1.7750    -2.0120 O.2   1 <1>  -0.5700 
 10 N       -3.0990    -2.9890    -0.1950 N.am  1 <1>  -0.7300 
 11 C       -3.5840    -4.2770    -0.7370 C.3   1 <1>   0.2200 
 12 C       -4.9970    -4.5230    -0.2410 C.3   1 <1>  -0.0800 
 13 C       -2.8120    -5.4360    -0.1080 C.3   1 <1>   0.1200 
 14 C       -4.7370    -5.1490     1.1300 C.3   1 <1>   0.1200 
 15 C       -5.7690    -5.4700    -1.1790 C.3   1 <1>  -0.0160 
 16 O       -3.5210    -5.8300     1.0310 O.3   1 <1>  -0.5600 
 17 C       -7.1940    -5.6870    -0.6940 C.ar  1 <1>  -0.1430 
 18 C       -8.1660    -4.7190    -0.8470 C.ar  1 <1>  -0.1500 
 19 C       -7.5900    -6.8570    -0.0780 C.ar  1 <1>  -0.1500 
 20 C       -9.4490    -4.9580    -0.3840 C.ar  1 <1>   0.1600 
 21 C       -8.9000    -6.9960     0.3480 C.ar  1 <1>   0.1600 
 22 N       -9.8390    -6.0730     0.2120 N.ar  1 <1>  -0.6200 
 23 H       -1.6840     1.0000     2.3540 H     1 <1>   0.2700 
 24 H       -1.9290     3.3860    -0.6540 H     1 <1>   0.0800 
 25 H       -0.7450     3.1390     0.6040 H     1 <1>   0.0800 
 26 H       -2.4090     3.4930     1.0200 H     1 <1>   0.0800 
 27 H       -2.8360    -2.9690     0.7950 H     1 <1>   0.3700 
 28 H       -3.5060    -4.2770    -1.8120 H     1 <1>   0.0800 
 29 H       -5.5460    -3.6020    -0.1480 H     1 <1>   0.0800 
 30 H       -1.8090    -5.1620     0.1690 H     1 <1>   0.0800 
 31 H       -2.7860    -6.2780    -0.7770 H     1 <1>   0.0800 
 32 H       -5.5040    -5.8360     1.4400 H     1 <1>   0.0800 
 33 H       -4.6200    -4.3840     1.8780 H     1 <1>   0.0800 
 34 H       -5.2630    -6.4170    -1.2520 H     1 <1>   0.0800 
 35 H       -5.8030    -5.0430    -2.1660 H     1 <1>   0.0800 
 36 H       -7.9370    -3.7810    -1.3200 H     1 <1>   0.1500 
 37 H       -6.8920    -7.6600     0.0770 H     1 <1>   0.1500 
 38 H      -10.1930    -4.1910    -0.5110 H     1 <1>   0.1500 
 39 H       -9.1910    -7.9150     0.8280 H     1 <1>   0.1500 
@<TRIPOS>BOND
  1   1   2  1   
  2   2   3  1   
  3   2   4  2   
  4   3   5  2   
  5   3   6  1   
  6   4   7  1   
  7   4   8  1   
  8   5   7  1   
  9   6   9  2   
 10   6  10  am  
 11   7  23  1   
 12   8  24  1   
 13   8  25  1   
 14   8  26  1   
 15  10  11  1   
 16  10  27  1   
 17  11  12  1   
 18  11  13  1   
 19  11  28  1   
 20  12  14  1   
 21  12  15  1   
 22  12  29  1   
 23  13  16  1   
 24  13  30  1   
 25  13  31  1   
 26  14  16  1   
 27  14  32  1   
 28  14  33  1   
 29  15  17  1   
 30  15  34  1   
 31  15  35  1   
 32  17  18  ar  
 33  17  19  ar  
 34  18  20  ar  
 35  18  36  1   
 36  19  21  ar  
 37  19  37  1   
 38  20  22  ar  
 39  20  38  1   
 40  21  22  ar  
 41  21  39  1   
@<TRIPOS>SUBSTRUCTURE
  1 ****  12 GROUP 4 **** **** 0

# MOE 2024.06 (io_trps.svl 2023.06)
