@<TRIPOS>MOLECULE
NONAME
38 40 1 0 0 
SMALL
USER_CHARGES


@<TRIPOS>ATOM
  1 F        0.2880    -0.0270     0.0470 F     1 <1>  -0.1900 
  2 C        1.5280    -0.4280    -0.0470 C.ar  1 <1>   0.1900 
  3 C        1.8330    -1.7830     0.1120 C.ar  1 <1>   0.0530 
  4 C        2.4780     0.5400    -0.3140 C.ar  1 <1>  -0.1500 
  5 C        0.8420    -2.8010     0.3970 C.2   1 <1>   0.0870 
  6 C        3.1810    -2.1210    -0.0230 C.ar  1 <1>  -0.1500 
  7 C        3.8040     0.1640    -0.4360 C.ar  1 <1>  -0.1500 
  8 O        1.1250    -4.0750     0.1560 O.3   1 <1>  -0.2800 
  9 C       -0.4180    -2.7360     0.9040 C.2   1 <1>  -0.1500 
 10 C        4.1500    -1.1690    -0.2910 C.ar  1 <1>  -0.1500 
 11 C        0.0920    -4.8230     0.4820 C.2   1 <1>  -0.0400 
 12 C       -0.9050    -4.0430     0.9580 C.2   1 <1>  -0.1500 
 13 C        0.2110    -6.3260     0.2750 C.3   1 <1>   0.5230 
 14 N       -1.1010    -6.9920     0.5280 N.4   1 <1>  -0.9590 
 15 C       -0.9710    -8.5010     0.5430 C.3   1 <1>   0.3170 
 16 C       -2.0790    -6.7700    -0.5650 C.3   1 <1>   0.3430 
 17 C        0.0240    -9.0230    -0.5240 C.2   1 <1>   0.9060 
 18 C       -2.4070    -9.0040     0.2970 C.3   1 <1>  -0.1600 
 19 C       -3.1650    -7.8060    -0.2760 C.3   1 <1>   0.2000 
 20 O        1.1820    -9.2410    -0.1660 O.co2 1 <1>  -0.9000 
 21 O       -0.3250    -9.0050    -1.7110 O.co2 1 <1>  -0.9000 
 22 O       -3.9820    -7.3010     0.7300 O.3   1 <1>  -0.6800 
 23 H        2.1830     1.5680    -0.4250 H     1 <1>   0.1500 
 24 H        3.4780    -3.1500     0.0860 H     1 <1>   0.1500 
 25 H        4.5610     0.9020    -0.6440 H     1 <1>   0.1500 
 26 H       -0.9640    -1.8630     1.2160 H     1 <1>   0.1500 
 27 H        5.1810    -1.4660    -0.3870 H     1 <1>   0.1500 
 28 H       -1.8830    -4.3160     1.3160 H     1 <1>   0.1500 
 29 H        0.9590    -6.7190     0.9430 H     1 <1>   0.0800 
 30 H        0.5350    -6.5270    -0.7350 H     1 <1>   0.0800 
 31 H       -1.5170    -6.6770     1.4090 H     1 <1>   0.4500 
 32 H       -0.6090    -8.8370     1.4980 H     1 <1>   0.0800 
 33 H       -2.4750    -5.7680    -0.5690 H     1 <1>   0.0800 
 34 H       -1.6190    -6.9890    -1.5160 H     1 <1>   0.0800 
 35 H       -2.8400    -9.3650     1.2130 H     1 <1>   0.0800 
 36 H       -2.3940    -9.8150    -0.4110 H     1 <1>   0.0800 
 37 H       -3.7610    -8.0370    -1.1430 H     1 <1>   0.0800 
 38 H       -4.7310    -7.9090     0.8980 H     1 <1>   0.4000 
@<TRIPOS>BOND
  1   1   2  1   
  2   2   3  ar  
  3   2   4  ar  
  4   3   5  1   
  5   3   6  ar  
  6   4   7  ar  
  7   4  23  1   
  8   5   8  1   
  9   5   9  2   
 10   6  10  ar  
 11   6  24  1   
 12   7  10  ar  
 13   7  25  1   
 14   8  11  1   
 15   9  12  1   
 16   9  26  1   
 17  10  27  1   
 18  11  12  2   
 19  11  13  1   
 20  12  28  1   
 21  13  14  1   
 22  13  29  1   
 23  13  30  1   
 24  14  15  1   
 25  14  16  1   
 26  14  31  1   
 27  15  17  1   
 28  15  18  1   
 29  15  32  1   
 30  16  19  1   
 31  16  33  1   
 32  16  34  1   
 33  17  20  ar  
 34  17  21  ar  
 35  18  19  1   
 36  18  35  1   
 37  18  36  1   
 38  19  22  1   
 39  19  37  1   
 40  22  38  1   
@<TRIPOS>SUBSTRUCTURE
  1 ****  11 GROUP 4 **** **** 0

# MOE 2024.06 (io_trps.svl 2023.06)
