@<TRIPOS>MOLECULE
NONAME
48 50 1 0 0 
SMALL
USER_CHARGES


@<TRIPOS>ATOM
  1 CL       0.4730    -1.1480     2.6040 Cl    1 <1>  -0.1770 
  2 C       -0.0650    -2.2270     1.3440 C.ar  1 <1>   0.1770 
  3 C        0.7270    -2.4050     0.2280 C.ar  1 <1>  -0.1500 
  4 C       -1.2740    -2.8770     1.4880 C.ar  1 <1>  -0.1500 
  5 C        0.2890    -3.2670    -0.7720 C.ar  1 <1>   0.0830 
  6 C       -1.7330    -3.7360     0.4910 C.ar  1 <1>   0.0860 
  7 O        0.9850    -3.5130    -1.9080 O.3   1 <1>  -0.3630 
  8 C       -0.9240    -3.9210    -0.6280 C.ar  1 <1>  -0.1500 
  9 C       -3.0090    -4.4130     0.6090 C.2   1 <1>   0.5440 
 10 C        2.2570    -2.9450    -2.1300 C.3   1 <1>   0.0400 
 11 O       -3.0510    -5.6260     0.5270 O.2   1 <1>  -0.5700 
 12 N       -4.1830    -3.7160     0.8040 N.am  1 <1>  -0.6600 
 13 C       -4.3000    -2.2440     0.5860 C.3   1 <1>   0.1400 
 14 C       -5.4470    -4.4550     1.0920 C.3   1 <1>   0.1400 
 15 C       -5.6210    -1.9420    -0.1200 C.3   1 <1>  -0.1600 
 16 C       -6.4980    -3.5120     1.6820 C.3   1 <1>  -0.1600 
 17 C       -6.8500    -2.3380     0.7380 C.3   1 <1>   0.2800 
 18 O       -7.1790    -1.2810     1.5990 O.3   1 <1>  -0.5600 
 19 C       -8.0830    -2.7060    -0.1230 C.3   1 <1>  -0.1600 
 20 C       -7.7630    -0.1140     1.0910 C.3   1 <1>   0.1200 
 21 C       -8.8090    -1.5080    -0.7400 C.3   1 <1>   0.2800 
 22 C       -9.0470    -0.4450     0.3290 C.3   1 <1>  -0.1600 
 23 O       -8.0180    -0.9670    -1.7230 O.3   1 <1>  -0.6800 
 24 C      -10.1110    -1.9230    -1.4220 C.3   1 <1>  -0.2400 
 25 H        1.6580    -1.8760     0.1630 H     1 <1>   0.1500 
 26 H       -1.8630    -2.7200     2.3730 H     1 <1>   0.1500 
 27 H       -1.2500    -4.5920    -1.4030 H     1 <1>   0.1500 
 28 H        2.6200    -3.3000    -3.0780 H     1 <1>   0.0800 
 29 H        2.9220    -3.2590    -1.3450 H     1 <1>   0.0800 
 30 H        2.1640    -1.8740    -2.1530 H     1 <1>   0.0800 
 31 H       -3.4860    -1.8910    -0.0230 H     1 <1>   0.0800 
 32 H       -4.2670    -1.7360     1.5350 H     1 <1>   0.0800 
 33 H       -5.2420    -5.2510     1.7890 H     1 <1>   0.0800 
 34 H       -5.8120    -4.8950     0.1790 H     1 <1>   0.0800 
 35 H       -5.6250    -2.5020    -1.0380 H     1 <1>   0.0800 
 36 H       -5.6350    -0.9050    -0.3870 H     1 <1>   0.0800 
 37 H       -6.0990    -3.1270     2.6040 H     1 <1>   0.0800 
 38 H       -7.3730    -4.0800     1.9350 H     1 <1>   0.0800 
 39 H       -8.7940    -3.2070     0.5070 H     1 <1>   0.0800 
 40 H       -7.8090    -3.4060    -0.8920 H     1 <1>   0.0800 
 41 H       -7.0570     0.4000     0.4660 H     1 <1>   0.0800 
 42 H       -7.9900     0.5220     1.9300 H     1 <1>   0.0800 
 43 H       -9.4510     0.4450    -0.1200 H     1 <1>   0.0800 
 44 H       -9.7710    -0.8070     1.0370 H     1 <1>   0.0800 
 45 H       -7.1500    -0.7460    -1.3450 H     1 <1>   0.4000 
 46 H      -10.7870    -2.3520    -0.7050 H     1 <1>   0.0800 
 47 H       -9.9150    -2.6540    -2.1850 H     1 <1>   0.0800 
 48 H      -10.5860    -1.0680    -1.8680 H     1 <1>   0.0800 
@<TRIPOS>BOND
  1   1   2  1   
  2   2   3  ar  
  3   2   4  ar  
  4   3   5  ar  
  5   3  25  1   
  6   4   6  ar  
  7   4  26  1   
  8   5   7  1   
  9   5   8  ar  
 10   6   8  ar  
 11   6   9  1   
 12   7  10  1   
 13   8  27  1   
 14   9  11  2   
 15   9  12  am  
 16  10  28  1   
 17  10  29  1   
 18  10  30  1   
 19  12  13  1   
 20  12  14  1   
 21  13  15  1   
 22  13  31  1   
 23  13  32  1   
 24  14  16  1   
 25  14  33  1   
 26  14  34  1   
 27  15  17  1   
 28  15  35  1   
 29  15  36  1   
 30  16  17  1   
 31  16  37  1   
 32  16  38  1   
 33  17  18  1   
 34  17  19  1   
 35  18  20  1   
 36  19  21  1   
 37  19  39  1   
 38  19  40  1   
 39  20  22  1   
 40  20  41  1   
 41  20  42  1   
 42  21  22  1   
 43  21  23  1   
 44  21  24  1   
 45  22  43  1   
 46  22  44  1   
 47  23  45  1   
 48  24  46  1   
 49  24  47  1   
 50  24  48  1   
@<TRIPOS>SUBSTRUCTURE
  1 ****  13 GROUP 4 **** **** 0

# MOE 2024.06 (io_trps.svl 2023.06)
