@<TRIPOS>MOLECULE
NONAME
54 56 1 0 0 
SMALL
USER_CHARGES


@<TRIPOS>ATOM
  1 O        1.3120     0.1370     2.3940 O.co2 1 <1>  -0.9000 
  2 C        1.3460    -0.1350     1.1890 C.2   1 <1>   0.9060 
  3 O        0.7220    -1.1060     0.7330 O.co2 1 <1>  -0.9000 
  4 C        2.2620     0.6400     0.2330 C.3   1 <1>  -0.1060 
  5 C        3.3810    -0.3940    -0.0730 C.3   1 <1>   0.2000 
  6 C        2.8760     1.9330     0.8770 C.3   1 <1>  -0.1600 
  7 C        1.4850     1.0380    -1.0600 C.3   1 <1>  -0.0160 
  8 O        2.8880    -1.3980    -0.8910 O.3   1 <1>  -0.6800 
  9 C        4.6610     0.2010    -0.6870 C.3   1 <1>   0.1400 
 10 C        4.3510     1.7740     1.2430 C.3   1 <1>   0.1400 
 11 C        0.4860     2.1840    -0.8950 C.ar  1 <1>  -0.1440 
 12 N        5.0960     1.4670    -0.0100 N.am  1 <1>  -0.6600 
 13 C        0.7140     3.4090    -1.5060 C.ar  1 <1>  -0.1500 
 14 C       -0.6670     2.0110    -0.1450 C.ar  1 <1>  -0.1500 
 15 C        6.1360     2.1710    -0.5720 C.2   1 <1>   0.5690 
 16 C       -0.1910     4.4470    -1.3620 C.ar  1 <1>  -0.1500 
 17 C       -1.5730     3.0470     0.0020 C.ar  1 <1>  -0.1500 
 18 O        7.0700     1.5430    -1.0230 O.2   1 <1>  -0.5700 
 19 C        6.0970     3.7150    -0.8390 C.3   1 <1>   0.0610 
 20 C       -1.3360     4.2670    -0.6060 C.ar  1 <1>  -0.1500 
 21 C        5.6970     4.6170     0.3550 C.3   1 <1>  -0.1600 
 22 C        7.4760     4.2450    -1.3290 C.3   1 <1>  -0.1600 
 23 C        5.0790     3.9580    -1.9720 C.3   1 <1>  -0.2400 
 24 C        6.7200     4.5500     1.5000 C.3   1 <1>  -0.1600 
 25 C        8.5470     4.2260    -0.2230 C.3   1 <1>  -0.1600 
 26 C        8.0960     5.0170     1.0120 C.3   1 <1>  -0.1600 
 27 H        3.6630    -0.8750     0.8490 H     1 <1>   0.0800 
 28 H        2.3220     2.2220     1.7520 H     1 <1>   0.0800 
 29 H        2.8130     2.7630     0.2010 H     1 <1>   0.0800 
 30 H        2.1980     1.3080    -1.8180 H     1 <1>   0.0800 
 31 H        0.9450     0.1880    -1.4420 H     1 <1>   0.0800 
 32 H        2.0050    -1.6510    -0.4980 H     1 <1>   0.4000 
 33 H        4.4840     0.4150    -1.7260 H     1 <1>   0.0800 
 34 H        5.4520    -0.5240    -0.6180 H     1 <1>   0.0800 
 35 H        4.4630     0.9570     1.9370 H     1 <1>   0.0800 
 36 H        4.7280     2.6420     1.7380 H     1 <1>   0.0800 
 37 H        1.5990     3.5570    -2.0960 H     1 <1>   0.1500 
 38 H       -0.8640     1.0630     0.3320 H     1 <1>   0.1500 
 39 H       -0.0030     5.3930    -1.8370 H     1 <1>   0.1500 
 40 H       -2.4590     2.8950     0.5930 H     1 <1>   0.1500 
 41 H       -2.0410     5.0700    -0.4900 H     1 <1>   0.1500 
 42 H        5.6530     5.6380     0.0170 H     1 <1>   0.0800 
 43 H        4.7080     4.3890     0.6980 H     1 <1>   0.0800 
 44 H        7.8200     3.6600    -2.1650 H     1 <1>   0.0800 
 45 H        7.3690     5.2570    -1.6760 H     1 <1>   0.0800 
 46 H        5.0300     4.9990    -2.2360 H     1 <1>   0.0800 
 47 H        4.1000     3.6360    -1.6660 H     1 <1>   0.0800 
 48 H        5.3590     3.3950    -2.8450 H     1 <1>   0.0800 
 49 H        6.3950     5.1760     2.3130 H     1 <1>   0.0800 
 50 H        6.7990     3.5410     1.8680 H     1 <1>   0.0800 
 51 H        8.7520     3.2090     0.0640 H     1 <1>   0.0800 
 52 H        9.4630     4.6440    -0.6040 H     1 <1>   0.0800 
 53 H        8.8200     4.8980     1.8000 H     1 <1>   0.0800 
 54 H        8.0490     6.0630     0.7630 H     1 <1>   0.0800 
@<TRIPOS>BOND
  1   1   2  ar  
  2   2   3  ar  
  3   2   4  1   
  4   4   5  1   
  5   4   6  1   
  6   4   7  1   
  7   5   8  1   
  8   5   9  1   
  9   5  27  1   
 10   6  10  1   
 11   6  28  1   
 12   6  29  1   
 13   7  11  1   
 14   7  30  1   
 15   7  31  1   
 16   8  32  1   
 17   9  12  1   
 18   9  33  1   
 19   9  34  1   
 20  10  12  1   
 21  10  35  1   
 22  10  36  1   
 23  11  13  ar  
 24  11  14  ar  
 25  12  15  am  
 26  13  16  ar  
 27  13  37  1   
 28  14  17  ar  
 29  14  38  1   
 30  15  18  2   
 31  15  19  1   
 32  16  20  ar  
 33  16  39  1   
 34  17  20  ar  
 35  17  40  1   
 36  19  21  1   
 37  19  22  1   
 38  19  23  1   
 39  20  41  1   
 40  21  24  1   
 41  21  42  1   
 42  21  43  1   
 43  22  25  1   
 44  22  44  1   
 45  22  45  1   
 46  23  46  1   
 47  23  47  1   
 48  23  48  1   
 49  24  26  1   
 50  24  49  1   
 51  24  50  1   
 52  25  26  1   
 53  25  51  1   
 54  25  52  1   
 55  26  53  1   
 56  26  54  1   
@<TRIPOS>SUBSTRUCTURE
  1 ****   6 GROUP 4 **** **** 0

# MOE 2024.06 (io_trps.svl 2023.06)
