@<TRIPOS>MOLECULE
NONAME
47 51 1 0 0 
SMALL
USER_CHARGES


@<TRIPOS>ATOM
  1 O       -1.2960     4.4130     2.4360 O.2   1 <1>  -0.5700 
  2 C       -1.0590     3.8650     1.3750 C.2   1 <1>   0.5440 
  3 N       -2.1040     3.3110     0.6630 N.am  1 <1>  -0.6600 
  4 C        0.3070     3.8210     0.8960 C.ar  1 <1>   0.0860 
  5 C       -3.5320     3.6160     0.9930 C.3   1 <1>   0.1400 
  6 C       -1.9460     2.3730    -0.4830 C.3   1 <1>   0.1400 
  7 C        0.6480     4.2940    -0.3620 C.ar  1 <1>  -0.1500 
  8 C        1.3310     3.2990     1.7140 C.ar  1 <1>  -0.1500 
  9 C       -4.2390     4.2470    -0.2200 C.3   1 <1>   0.1440 
 10 C       -2.6240     2.9620    -1.7280 C.3   1 <1>  -0.1600 
 11 C        1.9610     4.2220    -0.8070 C.ar  1 <1>   0.2270 
 12 C        2.6380     3.2290     1.2890 C.ar  1 <1>  -0.1500 
 13 C       -5.6900     4.5000     0.1450 C.ar  1 <1>   0.1670 
 14 C       -4.0950     3.3260    -1.4530 C.3   1 <1>  -0.1600 
 15 C       -3.7130     5.6820    -0.4970 C.3   1 <1>  -0.1600 
 16 N        2.4890     4.6080    -2.0010 N.2   1 <1>  -0.5650 
 17 C        2.9440     3.6950     0.0100 C.ar  1 <1>  -0.1520 
 18 N       -6.6240     3.5790     0.2490 N.ar  1 <1>  -0.6200 
 19 C       -5.9270     5.8220     0.3740 C.ar  1 <1>  -0.1430 
 20 C       -4.6810     6.6540     0.2010 C.3   1 <1>  -0.0170 
 21 C        3.7410     4.3260    -1.8990 C.2   1 <1>   0.0360 
 22 N        4.0890     3.7720    -0.7090 N.pl3 1 <1>   0.0330 
 23 C       -7.8170     4.0460     0.5870 C.ar  1 <1>   0.4770 
 24 C       -7.2020     6.1940     0.7190 C.ar  1 <1>   0.1600 
 25 N       -8.1660     5.3030     0.8280 N.ar  1 <1>  -0.6200 
 26 C       -8.9230     3.0270     0.7150 C.3   1 <1>  -0.0970 
 27 H       -3.5980     4.2840     1.8350 H     1 <1>   0.0800 
 28 H       -4.0310     2.7010     1.2630 H     1 <1>   0.0800 
 29 H       -2.4150     1.4380    -0.2280 H     1 <1>   0.0800 
 30 H       -0.9090     2.1730    -0.6850 H     1 <1>   0.0800 
 31 H       -0.0900     4.7240    -1.0120 H     1 <1>   0.1500 
 32 H        1.0610     2.9540     2.6970 H     1 <1>   0.1500 
 33 H       -2.5770     2.2430    -2.5270 H     1 <1>   0.0800 
 34 H       -2.0830     3.8350    -2.0460 H     1 <1>   0.0800 
 35 H        3.4110     2.8280     1.9230 H     1 <1>   0.1500 
 36 H       -4.5310     3.7930    -2.3180 H     1 <1>   0.0800 
 37 H       -4.6430     2.4180    -1.2690 H     1 <1>   0.0800 
 38 H       -3.7470     5.8790    -1.5540 H     1 <1>   0.0800 
 39 H       -2.7020     5.8250    -0.1590 H     1 <1>   0.0800 
 40 H       -4.8610     7.5310    -0.3950 H     1 <1>   0.0800 
 41 H       -4.2980     6.9380     1.1670 H     1 <1>   0.0800 
 42 H        4.4680     4.5050    -2.6730 H     1 <1>   0.1500 
 43 H        5.0210     3.4760    -0.4120 H     1 <1>   0.2700 
 44 H       -7.4370     7.2270     0.9100 H     1 <1>   0.1500 
 45 H       -8.5540     2.0400     0.5040 H     1 <1>   0.0800 
 46 H       -9.7080     3.2640     0.0230 H     1 <1>   0.0800 
 47 H       -9.3140     3.0490     1.7140 H     1 <1>   0.0800 
@<TRIPOS>BOND
  1   1   2  2   
  2   2   3  am  
  3   2   4  1   
  4   3   5  1   
  5   3   6  1   
  6   4   7  ar  
  7   4   8  ar  
  8   5   9  1   
  9   5  27  1   
 10   5  28  1   
 11   6  10  1   
 12   6  29  1   
 13   6  30  1   
 14   7  11  ar  
 15   7  31  1   
 16   8  12  ar  
 17   8  32  1   
 18   9  13  1   
 19   9  14  1   
 20   9  15  1   
 21  10  14  1   
 22  10  33  1   
 23  10  34  1   
 24  11  16  1   
 25  11  17  ar  
 26  12  17  ar  
 27  12  35  1   
 28  13  18  ar  
 29  13  19  ar  
 30  14  36  1   
 31  14  37  1   
 32  15  20  1   
 33  15  38  1   
 34  15  39  1   
 35  16  21  2   
 36  17  22  1   
 37  18  23  ar  
 38  19  20  1   
 39  19  24  ar  
 40  20  40  1   
 41  20  41  1   
 42  21  22  1   
 43  21  42  1   
 44  22  43  1   
 45  23  25  ar  
 46  23  26  1   
 47  24  25  ar  
 48  24  44  1   
 49  26  45  1   
 50  26  46  1   
 51  26  47  1   
@<TRIPOS>SUBSTRUCTURE
  1 ****   3 GROUP 4 **** **** 0

# MOE 2024.06 (io_trps.svl 2023.06)
