@<TRIPOS>MOLECULE
NONAME
48 50 1 0 0 
SMALL
USER_CHARGES


@<TRIPOS>ATOM
  1 O        0.7770    -1.9210     1.0920 O.3   1 <1>  -0.5600 
  2 C        0.0650    -2.5360     0.0320 C.3   1 <1>   0.2800 
  3 C        0.1130    -1.0120     1.9300 C.3   1 <1>   0.1200 
  4 C       -1.4530    -2.1760     0.0470 C.3   1 <1>   0.2000 
  5 C        0.2540    -4.0560     0.2260 C.3   1 <1>  -0.1600 
  6 C        0.7850    -2.1170    -1.2660 C.3   1 <1>  -0.1600 
  7 C       -0.6330     0.0140     1.0760 C.3   1 <1>  -0.1600 
  8 O       -2.1000    -2.6790    -1.0870 O.3   1 <1>  -0.6800 
  9 C       -1.7490    -0.6600     0.2620 C.3   1 <1>   0.2800 
 10 C        1.6390    -4.5820    -0.1660 C.3   1 <1>   0.3430 
 11 C        2.2730    -2.4900    -1.2960 C.3   1 <1>   0.3430 
 12 O       -2.9020    -0.5950     1.0180 O.3   1 <1>  -0.6800 
 13 C       -2.0560     0.1500    -1.0060 C.3   1 <1>  -0.2400 
 14 N        2.6060    -3.4580    -0.2080 N.4   1 <1>  -0.9590 
 15 C        4.0290    -3.8950    -0.1900 C.3   1 <1>   0.4860 
 16 C        4.9360    -2.6890    -0.1070 C.ar  1 <1>  -0.1440 
 17 C        5.6880    -2.2860    -1.1860 C.ar  1 <1>   0.1600 
 18 C        5.0480    -1.9440     1.0440 C.ar  1 <1>   0.1600 
 19 N        6.4640    -1.2300    -1.1380 N.ar  1 <1>  -0.6200 
 20 N        5.8210    -0.8860     1.1160 N.ar  1 <1>  -0.6200 
 21 C        6.4910    -0.5850     0.0170 C.ar  1 <1>   0.4770 
 22 C        7.3910     0.6260     0.0840 C.3   1 <1>  -0.0970 
 23 H       -0.5630    -1.5540     2.5710 H     1 <1>   0.0800 
 24 H        0.8550    -0.5260     2.5410 H     1 <1>   0.0800 
 25 H       -1.8790    -2.7060     0.8830 H     1 <1>   0.0800 
 26 H        0.0440    -4.3120     1.2490 H     1 <1>   0.0800 
 27 H       -0.4650    -4.5880    -0.3730 H     1 <1>   0.0800 
 28 H        0.3050    -2.5890    -2.1050 H     1 <1>   0.0800 
 29 H        0.6950    -1.0590    -1.4190 H     1 <1>   0.0800 
 30 H        0.0830     0.4760     0.4200 H     1 <1>   0.0800 
 31 H       -1.0360     0.7900     1.7020 H     1 <1>   0.0800 
 32 H       -3.0560    -2.4690    -1.0190 H     1 <1>   0.4000 
 33 H        1.5860    -5.0470    -1.1380 H     1 <1>   0.0800 
 34 H        1.9520    -5.3260     0.5500 H     1 <1>   0.0800 
 35 H        2.8560    -1.5920    -1.1590 H     1 <1>   0.0800 
 36 H        2.5210    -2.9060    -2.2590 H     1 <1>   0.0800 
 37 H       -3.2020     0.3320     1.0890 H     1 <1>   0.4000 
 38 H       -1.2420     0.0870    -1.7020 H     1 <1>   0.0800 
 39 H       -2.2070     1.1880    -0.7670 H     1 <1>   0.0800 
 40 H       -2.9380    -0.2230    -1.4970 H     1 <1>   0.0800 
 41 H        2.4050    -2.9140     0.6540 H     1 <1>   0.4500 
 42 H        4.2060    -4.5320     0.6620 H     1 <1>   0.0800 
 43 H        4.2510    -4.4560    -1.0830 H     1 <1>   0.0800 
 44 H        5.6620    -2.8300    -2.1160 H     1 <1>   0.1500 
 45 H        4.4960    -2.2080     1.9320 H     1 <1>   0.1500 
 46 H        7.3100     1.1920    -0.8250 H     1 <1>   0.0800 
 47 H        8.4070     0.3060     0.2100 H     1 <1>   0.0800 
 48 H        7.1150     1.2530     0.9110 H     1 <1>   0.0800 
@<TRIPOS>BOND
  1   1   2  1   
  2   1   3  1   
  3   2   4  1   
  4   2   5  1   
  5   2   6  1   
  6   3   7  1   
  7   3  23  1   
  8   3  24  1   
  9   4   8  1   
 10   4   9  1   
 11   4  25  1   
 12   5  10  1   
 13   5  26  1   
 14   5  27  1   
 15   6  11  1   
 16   6  28  1   
 17   6  29  1   
 18   7   9  1   
 19   7  30  1   
 20   7  31  1   
 21   8  32  1   
 22   9  12  1   
 23   9  13  1   
 24  10  14  1   
 25  10  33  1   
 26  10  34  1   
 27  11  14  1   
 28  11  35  1   
 29  11  36  1   
 30  12  37  1   
 31  13  38  1   
 32  13  39  1   
 33  13  40  1   
 34  14  15  1   
 35  14  41  1   
 36  15  16  1   
 37  15  42  1   
 38  15  43  1   
 39  16  17  ar  
 40  16  18  ar  
 41  17  19  ar  
 42  17  44  1   
 43  18  20  ar  
 44  18  45  1   
 45  19  21  ar  
 46  20  21  ar  
 47  21  22  1   
 48  22  46  1   
 49  22  47  1   
 50  22  48  1   
@<TRIPOS>SUBSTRUCTURE
  1 ****  11 GROUP 4 **** **** 0

# MOE 2024.06 (io_trps.svl 2023.06)
