@<TRIPOS>MOLECULE
NONAME
44 45 1 0 0 
SMALL
USER_CHARGES


@<TRIPOS>ATOM
  1 O       -1.8880     0.6640    -2.3980 O.2   1 <1>  -0.5700 
  2 C       -2.2210     0.8700    -1.2450 C.2   1 <1>   0.5440 
  3 N       -1.6550     1.9370    -0.5710 N.am  1 <1>  -0.6600 
  4 C       -3.1780    -0.0150    -0.6240 C.ar  1 <1>   0.0860 
  5 C       -1.5750     2.0250     0.9140 C.3   1 <1>   0.0600 
  6 C       -0.8820     2.9850    -1.2930 C.3   1 <1>   0.0600 
  7 C       -3.0720    -1.3930    -0.7900 C.ar  1 <1>   0.1600 
  8 C       -4.2420     0.4420     0.1500 C.ar  1 <1>  -0.1500 
  9 N       -3.8680    -2.3060    -0.2590 N.ar  1 <1>  -0.6200 
 10 C       -5.0820    -0.4910     0.7070 C.ar  1 <1>  -0.1500 
 11 C       -4.8660    -1.8480     0.4880 C.ar  1 <1>   0.4100 
 12 N       -5.7020    -2.7610     1.0630 N.pl3 1 <1>  -0.8690 
 13 C       -5.9110    -4.1280     0.5440 C.3   1 <1>   0.4330 
 14 C       -7.3790    -4.2770     0.1120 C.ar  1 <1>   0.1670 
 15 C       -5.5220    -5.1170     1.6530 C.3   1 <1>  -0.1600 
 16 N       -8.3260    -3.8780     0.9620 N.ar  1 <1>  -0.6200 
 17 C       -7.6540    -4.8060    -1.1410 C.ar  1 <1>  -0.1500 
 18 C       -5.6230    -6.5880     1.2190 C.3   1 <1>  -0.2400 
 19 C       -9.5740    -4.0260     0.5460 C.ar  1 <1>   0.1600 
 20 C       -8.9600    -4.9500    -1.5570 C.ar  1 <1>  -0.1500 
 21 C       -9.9470    -4.5460    -0.6840 C.ar  1 <1>  -0.1430 
 22 C      -11.4090    -4.6770    -1.0760 C.3   1 <1>  -0.0970 
 23 H       -1.8520     1.0910     1.3710 H     1 <1>   0.0800 
 24 H       -2.2320     2.8010     1.2670 H     1 <1>   0.0800 
 25 H       -0.5660     2.2580     1.2100 H     1 <1>   0.0800 
 26 H       -1.1350     2.9870    -2.3400 H     1 <1>   0.0800 
 27 H        0.1710     2.7910    -1.1930 H     1 <1>   0.0800 
 28 H       -1.1080     3.9550    -0.8860 H     1 <1>   0.0800 
 29 H       -2.2660    -1.7540    -1.4060 H     1 <1>   0.1500 
 30 H       -4.3940     1.4960     0.2970 H     1 <1>   0.1500 
 31 H       -5.9120    -0.1900     1.3160 H     1 <1>   0.1500 
 32 H       -6.5980    -2.4230     1.4270 H     1 <1>   0.4000 
 33 H       -5.2770    -4.3030    -0.3070 H     1 <1>   0.0800 
 34 H       -6.1600    -4.9550     2.5040 H     1 <1>   0.0800 
 35 H       -4.5080    -4.9110     1.9460 H     1 <1>   0.0800 
 36 H       -6.8520    -5.1050    -1.7910 H     1 <1>   0.1500 
 37 H       -6.6390    -6.8420     0.9720 H     1 <1>   0.0800 
 38 H       -5.3010    -7.2270     2.0220 H     1 <1>   0.0800 
 39 H       -4.9980    -6.7730     0.3630 H     1 <1>   0.0800 
 40 H      -10.3440    -3.7120     1.2280 H     1 <1>   0.1500 
 41 H       -9.1950    -5.3600    -2.5240 H     1 <1>   0.1500 
 42 H      -12.0380    -4.1270    -0.4000 H     1 <1>   0.0800 
 43 H      -11.7010    -5.7120    -1.0550 H     1 <1>   0.0800 
 44 H      -11.5600    -4.2930    -2.0690 H     1 <1>   0.0800 
@<TRIPOS>BOND
  1   1   2  2   
  2   2   3  am  
  3   2   4  1   
  4   3   5  1   
  5   3   6  1   
  6   4   7  ar  
  7   4   8  ar  
  8   5  23  1   
  9   5  24  1   
 10   5  25  1   
 11   6  26  1   
 12   6  27  1   
 13   6  28  1   
 14   7   9  ar  
 15   7  29  1   
 16   8  10  ar  
 17   8  30  1   
 18   9  11  ar  
 19  10  11  ar  
 20  10  31  1   
 21  11  12  1   
 22  12  13  1   
 23  12  32  1   
 24  13  14  1   
 25  13  15  1   
 26  13  33  1   
 27  14  16  ar  
 28  14  17  ar  
 29  15  18  1   
 30  15  34  1   
 31  15  35  1   
 32  16  19  ar  
 33  17  20  ar  
 34  17  36  1   
 35  18  37  1   
 36  18  38  1   
 37  18  39  1   
 38  19  21  ar  
 39  19  40  1   
 40  20  21  ar  
 41  20  41  1   
 42  21  22  1   
 43  22  42  1   
 44  22  43  1   
 45  22  44  1   
@<TRIPOS>SUBSTRUCTURE
  1 ****  11 GROUP 4 **** **** 0

# MOE 2024.06 (io_trps.svl 2023.06)
