@<TRIPOS>MOLECULE
NONAME
48 51 1 0 0 
SMALL
USER_CHARGES


@<TRIPOS>ATOM
  1 S       -0.4410    -0.8130     0.0770 S.3   1 <1>  -0.0800 
  2 C       -1.9190    -0.7850    -0.8750 C.ar  1 <1>   0.2970 
  3 C       -1.0620     0.4140     1.1800 C.2   1 <1>  -0.1400 
  4 N       -2.0720    -1.5300    -1.9480 N.ar  1 <1>  -0.5670 
  5 C       -2.8290     0.0980    -0.3420 C.ar  1 <1>   0.0000 
  6 C       -2.3070     0.7900     0.8240 C.2   1 <1>  -0.1810 
  7 C       -0.1090     0.8200     2.2890 C.3   1 <1>  -0.0600 
  8 C       -3.2460    -1.3490    -2.5160 C.ar  1 <1>   0.4700 
  9 C       -4.0470     0.1480    -1.0350 C.ar  1 <1>   0.4100 
 10 C       -3.1210     1.8600     1.5350 C.3   1 <1>  -0.0590 
 11 N       -4.2380    -0.5600    -2.1370 N.ar  1 <1>  -0.6200 
 12 N       -5.1210     0.8970    -0.6070 N.pl3 1 <1>  -0.8380 
 13 C       -5.9790     0.3280     0.4720 C.3   1 <1>   0.2090 
 14 C       -5.7950     1.8380    -1.5520 C.3   1 <1>   0.2090 
 15 C       -7.2420    -0.4080    -0.0620 C.3   1 <1>   0.0000 
 16 C       -7.3210     1.6650    -1.5490 C.3   1 <1>  -0.1600 
 17 C       -8.3160    -0.3680     1.0500 C.3   1 <1>   0.2000 
 18 C       -7.6990     0.1840    -1.4250 C.3   1 <1>  -0.1600 
 19 C       -6.9580    -1.9160    -0.1850 C.3   1 <1>  -0.1600 
 20 O       -9.5640    -0.7460     0.5420 O.3   1 <1>  -0.5600 
 21 C       -7.8710    -1.4450     2.0470 C.3   1 <1>  -0.1600 
 22 C       -7.1340    -2.5080     1.2200 C.3   1 <1>  -0.1600 
 23 C      -10.6630    -0.2650     1.2480 C.3   1 <1>   0.0400 
 24 H       -0.5570     1.5450     2.9420 H     1 <1>   0.0800 
 25 H        0.7830     1.2440     1.8630 H     1 <1>   0.0800 
 26 H        0.1600    -0.0430     2.8690 H     1 <1>   0.0800 
 27 H       -3.4270    -1.9230    -3.4100 H     1 <1>   0.1500 
 28 H       -3.5020     2.5650     0.8190 H     1 <1>   0.0800 
 29 H       -2.5230     2.3990     2.2460 H     1 <1>   0.0800 
 30 H       -3.9430     1.4100     2.0570 H     1 <1>   0.0800 
 31 H       -5.3910    -0.3390     1.0790 H     1 <1>   0.0800 
 32 H       -6.2810     1.1470     1.1010 H     1 <1>   0.0800 
 33 H       -5.5430     2.8490    -1.2850 H     1 <1>   0.0800 
 34 H       -5.4270     1.6620    -2.5490 H     1 <1>   0.0800 
 35 H       -7.7480     2.2220    -0.7340 H     1 <1>   0.0800 
 36 H       -7.7190     2.0690    -2.4620 H     1 <1>   0.0800 
 37 H       -8.3980     0.6090     1.4940 H     1 <1>   0.0800 
 38 H       -7.1980    -0.3460    -2.2170 H     1 <1>   0.0800 
 39 H       -8.7540     0.0560    -1.5830 H     1 <1>   0.0800 
 40 H       -7.6920    -2.3590    -0.8360 H     1 <1>   0.0800 
 41 H       -5.9810    -2.1140    -0.5890 H     1 <1>   0.0800 
 42 H       -7.1860    -1.0110     2.7520 H     1 <1>   0.0800 
 43 H       -8.6990    -1.8660     2.5900 H     1 <1>   0.0800 
 44 H       -6.1780    -2.7300     1.6620 H     1 <1>   0.0800 
 45 H       -7.7120    -3.4150     1.1650 H     1 <1>   0.0800 
 46 H      -11.5530    -0.6490     0.7810 H     1 <1>   0.0800 
 47 H      -10.6680     0.8100     1.2050 H     1 <1>   0.0800 
 48 H      -10.6150    -0.6040     2.2680 H     1 <1>   0.0800 
@<TRIPOS>BOND
  1   1   2  1   
  2   1   3  1   
  3   2   4  ar  
  4   2   5  ar  
  5   3   6  2   
  6   3   7  1   
  7   4   8  ar  
  8   5   6  1   
  9   5   9  ar  
 10   6  10  1   
 11   7  24  1   
 12   7  25  1   
 13   7  26  1   
 14   8  11  ar  
 15   8  27  1   
 16   9  11  ar  
 17   9  12  1   
 18  10  28  1   
 19  10  29  1   
 20  10  30  1   
 21  12  13  1   
 22  12  14  1   
 23  13  15  1   
 24  13  31  1   
 25  13  32  1   
 26  14  16  1   
 27  14  33  1   
 28  14  34  1   
 29  15  17  1   
 30  15  18  1   
 31  15  19  1   
 32  16  18  1   
 33  16  35  1   
 34  16  36  1   
 35  17  20  1   
 36  17  21  1   
 37  17  37  1   
 38  18  38  1   
 39  18  39  1   
 40  19  22  1   
 41  19  40  1   
 42  19  41  1   
 43  20  23  1   
 44  21  22  1   
 45  21  42  1   
 46  21  43  1   
 47  22  44  1   
 48  22  45  1   
 49  23  46  1   
 50  23  47  1   
 51  23  48  1   
@<TRIPOS>SUBSTRUCTURE
  1 ****  12 GROUP 4 **** **** 0

# MOE 2024.06 (io_trps.svl 2023.06)
