@<TRIPOS>MOLECULE
NONAME
42 43 1 0 0 
SMALL
USER_CHARGES


@<TRIPOS>ATOM
  1 S        2.0970     0.5390     0.7590 S.o2  1 <1>   1.3330 
  2 O        3.0700     1.2880     1.5170 O.2   1 <1>  -0.6500 
  3 O        2.3250    -0.8440     0.4180 O.2   1 <1>  -0.6500 
  4 N        1.7830     1.3830    -0.7260 N.am  1 <1>  -0.6930 
  5 C        0.5180     0.6520     1.5720 C.3   1 <1>  -0.1350 
  6 C        1.5540     2.7490    -0.7790 C.ar  1 <1>   0.1990 
  7 C        1.6600     0.5620    -1.9560 C.3   1 <1>   0.1160 
  8 C        2.4920     3.6610    -0.3100 C.ar  1 <1>  -0.1500 
  9 C        0.3670     3.2510    -1.3030 C.ar  1 <1>  -0.1500 
 10 C        2.2530     5.0200    -0.3560 C.ar  1 <1>  -0.1500 
 11 C        0.1300     4.6110    -1.3520 C.ar  1 <1>  -0.1500 
 12 C        1.0660     5.5360    -0.8840 C.ar  1 <1>   0.0860 
 13 C        0.8040     6.9610    -0.9480 C.2   1 <1>   0.5440 
 14 O       -0.3310     7.3900    -1.0170 O.2   1 <1>  -0.5700 
 15 N        1.8250     7.8650    -0.9460 N.am  1 <1>  -0.7300 
 16 C        1.6520     9.3390    -0.8980 C.3   1 <1>   0.3200 
 17 C        2.7240     9.9770    -0.0290 C.2   1 <1>   0.2980 
 18 O        2.6000     9.9050     1.2720 O.3   1 <1>  -0.0190 
 19 N        3.7640    10.5790    -0.4500 N.2   1 <1>  -0.5650 
 20 N        3.6570    10.5100     1.7220 N.2   1 <1>  -0.4100 
 21 C        4.3360    10.8890     0.7110 C.2   1 <1>   0.3350 
 22 C        5.6600    11.6450     0.7870 C.3   1 <1>   0.3010 
 23 O        6.7420    10.7980     0.5030 O.3   1 <1>  -0.5600 
 24 C        7.9830    11.4240     0.5480 C.3   1 <1>   0.0400 
 25 H        0.5560     0.1470     2.5170 H     1 <1>   0.0800 
 26 H       -0.2420     0.1990     0.9680 H     1 <1>   0.0800 
 27 H        0.2630     1.6800     1.7410 H     1 <1>   0.0800 
 28 H        2.5560    -0.0210    -2.0890 H     1 <1>   0.0800 
 29 H        1.5270     1.1920    -2.8180 H     1 <1>   0.0800 
 30 H        0.8210    -0.1060    -1.8690 H     1 <1>   0.0800 
 31 H        3.4210     3.2970     0.0930 H     1 <1>   0.1500 
 32 H       -0.3760     2.5660    -1.6690 H     1 <1>   0.1500 
 33 H        3.0010     5.6880     0.0330 H     1 <1>   0.1500 
 34 H       -0.7980     4.9760    -1.7590 H     1 <1>   0.1500 
 35 H        2.7960     7.5490    -0.9860 H     1 <1>   0.3700 
 36 H        0.6810     9.5890    -0.5070 H     1 <1>   0.0800 
 37 H        1.7280     9.7310    -1.8960 H     1 <1>   0.0800 
 38 H        5.7890    12.0410     1.7780 H     1 <1>   0.0800 
 39 H        5.6540    12.4470     0.0710 H     1 <1>   0.0800 
 40 H        8.7350    10.6900     0.3190 H     1 <1>   0.0800 
 41 H        8.1500    11.8150     1.5370 H     1 <1>   0.0800 
 42 H        8.0120    12.2120    -0.1840 H     1 <1>   0.0800 
@<TRIPOS>BOND
  1   1   2  2   
  2   1   3  2   
  3   1   4  am  
  4   1   5  1   
  5   4   6  1   
  6   4   7  1   
  7   5  25  1   
  8   5  26  1   
  9   5  27  1   
 10   6   8  ar  
 11   6   9  ar  
 12   7  28  1   
 13   7  29  1   
 14   7  30  1   
 15   8  10  ar  
 16   8  31  1   
 17   9  11  ar  
 18   9  32  1   
 19  10  12  ar  
 20  10  33  1   
 21  11  12  ar  
 22  11  34  1   
 23  12  13  1   
 24  13  14  2   
 25  13  15  am  
 26  15  16  1   
 27  15  35  1   
 28  16  17  1   
 29  16  36  1   
 30  16  37  1   
 31  17  18  1   
 32  17  19  2   
 33  18  20  1   
 34  19  21  1   
 35  20  21  2   
 36  21  22  1   
 37  22  23  1   
 38  22  38  1   
 39  22  39  1   
 40  23  24  1   
 41  24  40  1   
 42  24  41  1   
 43  24  42  1   
@<TRIPOS>SUBSTRUCTURE
  1 ****  10 GROUP 4 **** **** 0

# MOE 2024.06 (io_trps.svl 2023.06)
