@<TRIPOS>MOLECULE
NONAME
47 50 1 0 0 
SMALL
USER_CHARGES


@<TRIPOS>ATOM
  1 O        0.8340    -0.2870     0.9970 O.3   1 <1>  -0.5600 
  2 C        1.9280    -0.8990     0.3490 C.3   1 <1>   0.4240 
  3 C       -0.4430    -0.5770     0.5320 C.3   1 <1>   0.1200 
  4 C        1.6170    -2.3750    -0.0340 C.ar  1 <1>  -0.1440 
  5 C        3.0570    -0.8160     1.3910 C.3   1 <1>  -0.1600 
  6 C        2.2610    -0.0260    -0.8770 C.3   1 <1>  -0.1600 
  7 C       -0.7320    -2.0390     0.8320 C.3   1 <1>  -0.0160 
  8 C        2.5710    -3.2100    -0.6320 C.ar  1 <1>   0.0820 
  9 C        0.3490    -2.9020     0.2150 C.ar  1 <1>  -0.1440 
 10 C        3.3890     0.6340     1.7420 C.3   1 <1>   0.2090 
 11 C        2.6190     1.4060    -0.4770 C.3   1 <1>   0.2090 
 12 O        3.8060    -2.7100    -0.9090 O.3   1 <1>  -0.3630 
 13 C        2.2510    -4.5310    -0.9410 C.ar  1 <1>  -0.1500 
 14 C        0.0440    -4.2160    -0.0960 C.ar  1 <1>  -0.1500 
 15 N        3.7560     1.3640     0.4920 N.pl3 1 <1>  -0.8380 
 16 C        4.7710    -3.4350    -1.6400 C.3   1 <1>   0.0400 
 17 C        0.9940    -5.0320    -0.6720 C.ar  1 <1>  -0.1500 
 18 C        4.9500     1.9660     0.2590 C.ar  1 <1>   0.4100 
 19 N        4.9700     2.9970    -0.5680 N.ar  1 <1>  -0.6200 
 20 C        6.1310     1.5040     0.8740 C.ar  1 <1>  -0.1500 
 21 C        6.1190     3.5990    -0.7740 C.ar  1 <1>   0.7710 
 22 C        7.2980     2.1480     0.6380 C.ar  1 <1>   0.2110 
 23 N        7.2700     3.2150    -0.1970 N.ar  1 <1>  -0.1790 
 24 N        6.0980     4.6390    -1.6030 N.pl3 1 <1>  -0.9000 
 25 H       -0.4960    -0.3760    -0.5230 H     1 <1>   0.0800 
 26 H       -1.1370     0.0600     1.0510 H     1 <1>   0.0800 
 27 H        3.9510    -1.2800     1.0290 H     1 <1>   0.0800 
 28 H        2.7540    -1.3460     2.2740 H     1 <1>   0.0800 
 29 H        1.4360    -0.0220    -1.5620 H     1 <1>   0.0800 
 30 H        3.1000    -0.4310    -1.4060 H     1 <1>   0.0800 
 31 H       -1.6940    -2.2980     0.4280 H     1 <1>   0.0800 
 32 H       -0.7570    -2.1900     1.8960 H     1 <1>   0.0800 
 33 H        4.1800     0.6700     2.4670 H     1 <1>   0.0800 
 34 H        2.5290     1.1080     2.1850 H     1 <1>   0.0800 
 35 H        1.7730     1.8880    -0.0170 H     1 <1>   0.0800 
 36 H        2.8790     1.9620    -1.3610 H     1 <1>   0.0800 
 37 H        2.9660    -5.1920    -1.3900 H     1 <1>   0.1500 
 38 H       -0.9360    -4.6110     0.1090 H     1 <1>   0.1500 
 39 H        5.6280    -2.8020    -1.7820 H     1 <1>   0.0800 
 40 H        4.3560    -3.7070    -2.5950 H     1 <1>   0.0800 
 41 H        5.0520    -4.3080    -1.0780 H     1 <1>   0.0800 
 42 H        0.7550    -6.0540    -0.9120 H     1 <1>   0.1500 
 43 H        6.0890     0.6390     1.5080 H     1 <1>   0.1500 
 44 H        8.2340     1.8430     1.0800 H     1 <1>   0.1500 
 45 H        8.1010     3.7520    -0.4220 H     1 <1>   0.4570 
 46 H        6.8630     5.2440    -1.9030 H     1 <1>   0.4000 
 47 H        5.1890     4.8900    -2.0080 H     1 <1>   0.4000 
@<TRIPOS>BOND
  1   1   2  1   
  2   1   3  1   
  3   2   4  1   
  4   2   5  1   
  5   2   6  1   
  6   3   7  1   
  7   3  25  1   
  8   3  26  1   
  9   4   8  ar  
 10   4   9  ar  
 11   5  10  1   
 12   5  27  1   
 13   5  28  1   
 14   6  11  1   
 15   6  29  1   
 16   6  30  1   
 17   7   9  1   
 18   7  31  1   
 19   7  32  1   
 20   8  12  1   
 21   8  13  ar  
 22   9  14  ar  
 23  10  15  1   
 24  10  33  1   
 25  10  34  1   
 26  11  15  1   
 27  11  35  1   
 28  11  36  1   
 29  12  16  1   
 30  13  17  ar  
 31  13  37  1   
 32  14  17  ar  
 33  14  38  1   
 34  15  18  1   
 35  16  39  1   
 36  16  40  1   
 37  16  41  1   
 38  17  42  1   
 39  18  19  ar  
 40  18  20  ar  
 41  19  21  ar  
 42  20  22  ar  
 43  20  43  1   
 44  21  23  ar  
 45  21  24  1   
 46  22  23  ar  
 47  22  44  1   
 48  23  45  1   
 49  24  46  1   
 50  24  47  1   
@<TRIPOS>SUBSTRUCTURE
  1 ****   6 GROUP 4 **** **** 0

# MOE 2024.06 (io_trps.svl 2023.06)
