@<TRIPOS>MOLECULE
NONAME
44 46 1 0 0 
SMALL
USER_CHARGES


@<TRIPOS>ATOM
  1 F        0.7870     0.1500     0.2010 F     1 <1>  -0.1900 
  2 C        1.5980    -0.8720     0.2320 C.ar  1 <1>   0.1900 
  3 C        1.1560    -2.0510     0.7980 C.ar  1 <1>  -0.1500 
  4 C        2.8630    -0.7370    -0.3050 C.ar  1 <1>  -0.1500 
  5 C        2.0130    -3.1430     0.8210 C.ar  1 <1>  -0.1440 
  6 C        3.7220    -1.8230    -0.2710 C.ar  1 <1>  -0.1440 
  7 C        3.2930    -3.0180     0.2910 C.ar  1 <1>  -0.1500 
  8 C        1.5500    -4.4570     1.4180 C.3   1 <1>   0.4870 
  9 C        5.1240    -1.7040    -0.8450 C.3   1 <1>  -0.0970 
 10 N        1.2710    -5.4100     0.3080 N.4   1 <1>  -0.9590 
 11 C        0.0650    -4.9740    -0.4680 C.3   1 <1>   0.3430 
 12 C        0.9690    -6.7740     0.8490 C.3   1 <1>   0.3430 
 13 C       -1.0980    -5.8080     0.0750 C.3   1 <1>   0.2000 
 14 C       -0.4430    -7.1520     0.3770 C.3   1 <1>  -0.0800 
 15 O       -1.5140    -5.2500     1.2800 O.3   1 <1>  -0.6800 
 16 C       -0.4060    -8.0660    -0.8650 C.3   1 <1>  -0.0170 
 17 C        0.4490    -9.2970    -0.6080 C.ar  1 <1>  -0.1430 
 18 C        0.0800   -10.2610     0.3090 C.ar  1 <1>  -0.1500 
 19 C        1.6390    -9.5130    -1.2760 C.ar  1 <1>  -0.1500 
 20 C        0.9050   -11.3520     0.5250 C.ar  1 <1>   0.1600 
 21 C        2.3910   -10.6400    -0.9860 C.ar  1 <1>   0.1600 
 22 N        2.0560   -11.5560    -0.0940 N.ar  1 <1>  -0.6200 
 23 H        0.1610    -2.0940     1.2070 H     1 <1>   0.1500 
 24 H        3.1610     0.2030    -0.7350 H     1 <1>   0.1500 
 25 H        3.9750    -3.8500     0.3160 H     1 <1>   0.1500 
 26 H        0.6610    -4.3040     2.0090 H     1 <1>   0.0800 
 27 H        2.3240    -4.8480     2.0590 H     1 <1>   0.0800 
 28 H        5.8210    -2.2800    -0.2640 H     1 <1>   0.0800 
 29 H        5.4490    -0.6780    -0.8370 H     1 <1>   0.0800 
 30 H        5.1370    -2.0600    -1.8600 H     1 <1>   0.0800 
 31 H        2.0950    -5.4170    -0.3060 H     1 <1>   0.4500 
 32 H       -0.1340    -3.9200    -0.3690 H     1 <1>   0.0800 
 33 H        0.2060    -5.2050    -1.5100 H     1 <1>   0.0800 
 34 H        1.6980    -7.4960     0.5190 H     1 <1>   0.0800 
 35 H        0.9790    -6.7480     1.9270 H     1 <1>   0.0800 
 36 H       -1.9370    -5.8550    -0.6000 H     1 <1>   0.0800 
 37 H       -0.9660    -7.6710     1.1610 H     1 <1>   0.0800 
 38 H       -2.3790    -5.6180     1.5630 H     1 <1>   0.4000 
 39 H       -0.0170    -7.5370    -1.7180 H     1 <1>   0.0800 
 40 H       -1.4050    -8.3830    -1.1120 H     1 <1>   0.0800 
 41 H       -0.8410   -10.1860     0.8580 H     1 <1>   0.1500 
 42 H        1.9950    -8.8280    -2.0230 H     1 <1>   0.1500 
 43 H        0.6050   -12.0970     1.2430 H     1 <1>   0.1500 
 44 H        3.3150   -10.7990    -1.5160 H     1 <1>   0.1500 
@<TRIPOS>BOND
  1   1   2  1   
  2   2   3  ar  
  3   2   4  ar  
  4   3   5  ar  
  5   3  23  1   
  6   4   6  ar  
  7   4  24  1   
  8   5   7  ar  
  9   5   8  1   
 10   6   7  ar  
 11   6   9  1   
 12   7  25  1   
 13   8  10  1   
 14   8  26  1   
 15   8  27  1   
 16   9  28  1   
 17   9  29  1   
 18   9  30  1   
 19  10  11  1   
 20  10  12  1   
 21  10  31  1   
 22  11  13  1   
 23  11  32  1   
 24  11  33  1   
 25  12  14  1   
 26  12  34  1   
 27  12  35  1   
 28  13  14  1   
 29  13  15  1   
 30  13  36  1   
 31  14  16  1   
 32  14  37  1   
 33  15  38  1   
 34  16  17  1   
 35  16  39  1   
 36  16  40  1   
 37  17  18  ar  
 38  17  19  ar  
 39  18  20  ar  
 40  18  41  1   
 41  19  21  ar  
 42  19  42  1   
 43  20  22  ar  
 44  20  43  1   
 45  21  22  ar  
 46  21  44  1   
@<TRIPOS>SUBSTRUCTURE
  1 ****  10 GROUP 4 **** **** 0

# MOE 2024.06 (io_trps.svl 2023.06)
