@<TRIPOS>MOLECULE
NONAME
50 52 1 0 0 
SMALL
USER_CHARGES


@<TRIPOS>ATOM
  1 F        2.9880    -0.4810     2.2490 F     1 <1>  -0.1900 
  2 C        3.0170     0.6230     1.5300 C.ar  1 <1>   0.1900 
  3 C        3.4170     0.6210     0.1940 C.ar  1 <1>   0.4100 
  4 C        2.6580     1.8030     2.1190 C.ar  1 <1>   0.1600 
  5 N        3.4470     1.7610    -0.4740 N.ar  1 <1>  -0.6200 
  6 N        3.7960    -0.5260    -0.5030 N.pl3 1 <1>  -0.8380 
  7 N        2.6780     2.9420     1.4540 N.ar  1 <1>  -0.6200 
  8 C        3.0690     2.8430     0.1860 C.ar  1 <1>   0.7200 
  9 C        2.9800    -1.7680    -0.4250 C.3   1 <1>   0.1290 
 10 C        4.6840    -0.4290    -1.6950 C.3   1 <1>   0.1290 
 11 N        3.1060     3.9730    -0.5590 N.pl3 1 <1>  -0.8690 
 12 C        3.1910     5.3350    -0.0150 C.3   1 <1>   0.2890 
 13 C        2.5700     6.3030    -1.0190 C.3   1 <1>  -0.1600 
 14 C        4.6560     5.6830     0.2460 C.3   1 <1>  -0.1600 
 15 C        2.7090     7.7450    -0.5300 C.3   1 <1>   0.1400 
 16 C        4.7930     7.1290     0.7260 C.3   1 <1>   0.1400 
 17 N        4.1440     8.0460    -0.2540 N.am  1 <1>  -0.6600 
 18 C        4.8270     9.0210    -0.9580 C.2   1 <1>   0.5440 
 19 O        4.2990     9.5330    -1.9270 O.2   1 <1>  -0.5700 
 20 C        6.1640     9.4410    -0.5820 C.ar  1 <1>   0.0860 
 21 C        7.2250     9.3350    -1.4770 C.ar  1 <1>  -0.1500 
 22 C        6.4360     9.9630     0.6820 C.ar  1 <1>  -0.1500 
 23 C        8.5070     9.7150    -1.1220 C.ar  1 <1>  -0.1500 
 24 C        7.7160    10.3440     1.0430 C.ar  1 <1>  -0.1500 
 25 C        8.7610    10.2180     0.1430 C.ar  1 <1>  -0.1430 
 26 C       10.1670    10.6370     0.5330 C.3   1 <1>  -0.0970 
 27 H        2.3500     1.8150     3.1490 H     1 <1>   0.1500 
 28 H        2.0680    -1.5890     0.1180 H     1 <1>   0.0800 
 29 H        3.5420    -2.5370     0.0770 H     1 <1>   0.0800 
 30 H        2.7240    -2.1050    -1.4140 H     1 <1>   0.0800 
 31 H        5.3870     0.3750    -1.5670 H     1 <1>   0.0800 
 32 H        4.0920    -0.2390    -2.5730 H     1 <1>   0.0800 
 33 H        5.2310    -1.3470    -1.8220 H     1 <1>   0.0800 
 34 H        3.5600     3.8230    -1.4560 H     1 <1>   0.4000 
 35 H        2.6390     5.3950     0.9090 H     1 <1>   0.0800 
 36 H        1.5280     6.0710    -1.1440 H     1 <1>   0.0800 
 37 H        3.0580     6.2150    -1.9740 H     1 <1>   0.0800 
 38 H        5.2300     5.5590    -0.6540 H     1 <1>   0.0800 
 39 H        5.0500     5.0230     0.9970 H     1 <1>   0.0800 
 40 H        2.1440     7.8820     0.3760 H     1 <1>   0.0800 
 41 H        2.3100     8.4180    -1.2700 H     1 <1>   0.0800 
 42 H        5.8370     7.3580     0.8420 H     1 <1>   0.0800 
 43 H        4.3150     7.2440     1.6840 H     1 <1>   0.0800 
 44 H        7.0310     8.9510    -2.4640 H     1 <1>   0.1500 
 45 H        5.6280    10.0710     1.3840 H     1 <1>   0.1500 
 46 H        9.3060     9.6200    -1.8370 H     1 <1>   0.1500 
 47 H        7.8960    10.7430     2.0260 H     1 <1>   0.1500 
 48 H       10.8950    10.0320     0.0230 H     1 <1>   0.0800 
 49 H       10.3140    10.5230     1.5920 H     1 <1>   0.0800 
 50 H       10.3250    11.6670     0.2690 H     1 <1>   0.0800 
@<TRIPOS>BOND
  1   1   2  1   
  2   2   3  ar  
  3   2   4  ar  
  4   3   5  ar  
  5   3   6  1   
  6   4   7  ar  
  7   4  27  1   
  8   5   8  ar  
  9   6   9  1   
 10   6  10  1   
 11   7   8  ar  
 12   8  11  1   
 13   9  28  1   
 14   9  29  1   
 15   9  30  1   
 16  10  31  1   
 17  10  32  1   
 18  10  33  1   
 19  11  12  1   
 20  11  34  1   
 21  12  13  1   
 22  12  14  1   
 23  12  35  1   
 24  13  15  1   
 25  13  36  1   
 26  13  37  1   
 27  14  16  1   
 28  14  38  1   
 29  14  39  1   
 30  15  17  1   
 31  15  40  1   
 32  15  41  1   
 33  16  17  1   
 34  16  42  1   
 35  16  43  1   
 36  17  18  am  
 37  18  19  2   
 38  18  20  1   
 39  20  21  ar  
 40  20  22  ar  
 41  21  23  ar  
 42  21  44  1   
 43  22  24  ar  
 44  22  45  1   
 45  23  25  ar  
 46  23  46  1   
 47  24  25  ar  
 48  24  47  1   
 49  25  26  1   
 50  26  48  1   
 51  26  49  1   
 52  26  50  1   
@<TRIPOS>SUBSTRUCTURE
  1 ****  14 GROUP 4 **** **** 0

# MOE 2024.06 (io_trps.svl 2023.06)
