@<TRIPOS>MOLECULE
NONAME
45 46 1 0 0 
SMALL
USER_CHARGES


@<TRIPOS>ATOM
  1 O       -1.2720     0.5240     0.9550 O.3   1 <1>  -0.6800 
  2 C       -1.5010    -0.7030     0.3540 C.3   1 <1>   0.2800 
  3 C       -3.0540    -0.9110     0.2460 C.3   1 <1>   0.2890 
  4 C       -0.8890    -1.7780     1.2940 C.3   1 <1>  -0.0220 
  5 C       -0.8430    -0.6790    -1.0540 C.3   1 <1>  -0.0220 
  6 N       -3.4100    -2.1510    -0.5010 N.pl3 1 <1>  -0.8690 
  7 C       -3.8230     0.2250    -0.4400 C.3   1 <1>  -0.2400 
  8 C        0.4590    -1.5430     1.9980 C.2   1 <1>  -0.2880 
  9 C        0.6670    -0.4860    -1.1120 C.2   1 <1>  -0.2880 
 10 C       -3.8200    -3.3470     0.0570 C.ar  1 <1>   0.4100 
 11 C        1.3370    -0.5340     1.9350 C.2   1 <1>  -0.3000 
 12 C        1.2810     0.5880    -1.6180 C.2   1 <1>  -0.3000 
 13 N       -3.7390    -3.4760     1.3650 N.ar  1 <1>  -0.3100 
 14 C       -4.3050    -4.3800    -0.7850 C.ar  1 <1>   0.0000 
 15 N       -4.1270    -4.5970     1.9570 N.ar  1 <1>  -0.3100 
 16 C       -4.7240    -5.5600    -0.1520 C.ar  1 <1>   0.0000 
 17 C       -4.3890    -4.3040    -2.1940 C.ar  1 <1>  -0.1500 
 18 C       -4.5970    -5.5870     1.2510 C.ar  1 <1>   0.1670 
 19 C       -5.2290    -6.6160    -0.9470 C.ar  1 <1>  -0.1500 
 20 C       -4.8780    -5.3410    -2.9400 C.ar  1 <1>  -0.1500 
 21 C       -5.0190    -6.8220     2.0300 C.3   1 <1>  -0.0970 
 22 C       -5.3060    -6.5110    -2.3080 C.ar  1 <1>  -0.1500 
 23 H       -0.3900     0.4680     1.3740 H     1 <1>   0.4000 
 24 H       -3.4390    -0.9860     1.2490 H     1 <1>   0.0800 
 25 H       -0.8280    -2.7010     0.7450 H     1 <1>   0.0800 
 26 H       -1.5990    -1.9570     2.0820 H     1 <1>   0.0800 
 27 H       -1.3000     0.1010    -1.6330 H     1 <1>   0.0800 
 28 H       -1.0610    -1.6050    -1.5540 H     1 <1>   0.0800 
 29 H       -3.6390    -1.9880    -1.4800 H     1 <1>   0.4000 
 30 H       -3.5410     0.3310    -1.4700 H     1 <1>   0.0800 
 31 H       -3.6290     1.1540     0.0650 H     1 <1>   0.0800 
 32 H       -4.8790     0.0330    -0.3800 H     1 <1>   0.0800 
 33 H        0.6680    -2.3790     2.6450 H     1 <1>   0.1500 
 34 H        1.2110    -1.3220    -0.7030 H     1 <1>   0.1500 
 35 H        2.2480    -0.5210     2.5090 H     1 <1>   0.1500 
 36 H        1.2640     0.3510     1.3280 H     1 <1>   0.1500 
 37 H        2.3510     0.7050    -1.6550 H     1 <1>   0.1500 
 38 H        0.7690     1.4380    -2.0340 H     1 <1>   0.1500 
 39 H       -4.0590    -3.4130    -2.6930 H     1 <1>   0.1500 
 40 H       -5.5600    -7.5220    -0.4740 H     1 <1>   0.1500 
 41 H       -4.9390    -5.2720    -4.0130 H     1 <1>   0.1500 
 42 H       -4.8530    -6.6780     3.0830 H     1 <1>   0.0800 
 43 H       -4.4440    -7.6710     1.7090 H     1 <1>   0.0800 
 44 H       -6.0640    -7.0140     1.8750 H     1 <1>   0.0800 
 45 H       -5.6910    -7.3190    -2.9070 H     1 <1>   0.1500 
@<TRIPOS>BOND
  1   1   2  1   
  2   1  23  1   
  3   2   3  1   
  4   2   4  1   
  5   2   5  1   
  6   3   6  1   
  7   3   7  1   
  8   3  24  1   
  9   4   8  1   
 10   4  25  1   
 11   4  26  1   
 12   5   9  1   
 13   5  27  1   
 14   5  28  1   
 15   6  10  1   
 16   6  29  1   
 17   7  30  1   
 18   7  31  1   
 19   7  32  1   
 20   8  11  2   
 21   8  33  1   
 22   9  12  2   
 23   9  34  1   
 24  10  13  ar  
 25  10  14  ar  
 26  11  35  1   
 27  11  36  1   
 28  12  37  1   
 29  12  38  1   
 30  13  15  ar  
 31  14  16  ar  
 32  14  17  ar  
 33  15  18  ar  
 34  16  18  ar  
 35  16  19  ar  
 36  17  20  ar  
 37  17  39  1   
 38  18  21  1   
 39  19  22  ar  
 40  19  40  1   
 41  20  22  ar  
 42  20  41  1   
 43  21  42  1   
 44  21  43  1   
 45  21  44  1   
 46  22  45  1   
@<TRIPOS>SUBSTRUCTURE
  1 ****   6 GROUP 4 **** **** 0

# MOE 2024.06 (io_trps.svl 2023.06)
