@<TRIPOS>MOLECULE
NONAME
56 59 1 0 0 
SMALL
USER_CHARGES


@<TRIPOS>ATOM
  1 O        0.3000     1.0370    -1.4750 O.3   1 <1>  -0.6800 
  2 C        0.0390     2.0490    -0.5730 C.3   1 <1>   0.2000 
  3 C       -1.0800     2.9270    -1.1300 C.3   1 <1>  -0.1600 
  4 C        1.3230     2.8490    -0.3710 C.3   1 <1>  -0.1600 
  5 C       -1.3220     4.1260    -0.2110 C.3   1 <1>   0.2090 
  6 C        1.0660     4.0460     0.5440 C.3   1 <1>   0.2090 
  7 N       -0.0480     4.8650    -0.0020 N.pl3 1 <1>  -0.8380 
  8 C       -0.1020     6.1990     0.3520 C.ar  1 <1>   0.4100 
  9 N       -1.1350     6.6060     1.0680 N.ar  1 <1>  -0.6200 
 10 C        0.8910     7.0730    -0.0200 C.ar  1 <1>  -0.1500 
 11 C       -1.1250     7.8830     1.3930 C.ar  1 <1>   0.4700 
 12 C        0.7920     8.3840     0.3750 C.ar  1 <1>   0.4100 
 13 N       -0.2300     8.8040     1.0960 N.ar  1 <1>  -0.6200 
 14 N        1.7600     9.2940     0.0210 N.pl3 1 <1>  -0.8690 
 15 C        1.6460    10.7490     0.2320 C.3   1 <1>   0.2890 
 16 C        0.9770    11.3810    -0.9870 C.3   1 <1>  -0.1600 
 17 C        3.0430    11.3240     0.4540 C.3   1 <1>  -0.1600 
 18 C        0.9290    12.9000    -0.8370 C.3   1 <1>   0.2090 
 19 C        2.9730    12.8440     0.5920 C.3   1 <1>   0.2090 
 20 N        2.3040    13.4100    -0.6050 N.pl3 1 <1>  -0.8380 
 21 C        2.5010    14.7670    -0.8300 C.ar  1 <1>   0.1000 
 22 C        1.9250    15.7330    -0.0120 C.ar  1 <1>  -0.1500 
 23 C        3.2910    15.1770    -1.8940 C.ar  1 <1>  -0.1500 
 24 C        2.1300    17.0820    -0.2470 C.ar  1 <1>  -0.1440 
 25 C        3.5030    16.5220    -2.1380 C.ar  1 <1>  -0.1500 
 26 C        2.9230    17.4730    -1.3150 C.ar  1 <1>  -0.1500 
 27 C        1.5000    18.1340     0.6470 C.3   1 <1>  -0.0970 
 28 H       -0.5130     0.5330    -1.6640 H     1 <1>   0.4000 
 29 H       -0.2660     1.5970     0.3560 H     1 <1>   0.0800 
 30 H       -1.9900     2.3620    -1.2130 H     1 <1>   0.0800 
 31 H       -0.8080     3.2960    -2.1040 H     1 <1>   0.0800 
 32 H        1.6830     3.2100    -1.3180 H     1 <1>   0.0800 
 33 H        2.0760     2.2210     0.0680 H     1 <1>   0.0800 
 34 H       -1.7000     3.7970     0.7430 H     1 <1>   0.0800 
 35 H       -2.0510     4.7820    -0.6550 H     1 <1>   0.0800 
 36 H        1.9600     4.6400     0.6260 H     1 <1>   0.0800 
 37 H        0.7980     3.7050     1.5300 H     1 <1>   0.0800 
 38 H        1.7160     6.7330    -0.6080 H     1 <1>   0.1500 
 39 H       -1.9620     8.2190     1.9810 H     1 <1>   0.1500 
 40 H        2.3760     9.0380    -0.7510 H     1 <1>   0.4000 
 41 H        1.0500    10.9470     1.1070 H     1 <1>   0.0800 
 42 H       -0.0240    11.0030    -1.0820 H     1 <1>   0.0800 
 43 H        1.5250    11.1400    -1.8800 H     1 <1>   0.0800 
 44 H        3.6810    11.0840    -0.3760 H     1 <1>   0.0800 
 45 H        3.4650    10.9060     1.3490 H     1 <1>   0.0800 
 46 H        0.2990    13.1710    -0.0070 H     1 <1>   0.0800 
 47 H        0.5280    13.3460    -1.7310 H     1 <1>   0.0800 
 48 H        3.9660    13.2520     0.6740 H     1 <1>   0.0800 
 49 H        2.4190    13.1130     1.4750 H     1 <1>   0.0800 
 50 H        1.3150    15.4120     0.8100 H     1 <1>   0.1500 
 51 H        3.7340    14.4290    -2.5230 H     1 <1>   0.1500 
 52 H        4.1170    16.8270    -2.9650 H     1 <1>   0.1500 
 53 H        3.0910    18.5180    -1.5090 H     1 <1>   0.1500 
 54 H        0.8830    17.6780     1.4000 H     1 <1>   0.0800 
 55 H        0.8910    18.7960     0.0590 H     1 <1>   0.0800 
 56 H        2.2690    18.7070     1.1340 H     1 <1>   0.0800 
@<TRIPOS>BOND
  1   1   2  1   
  2   1  28  1   
  3   2   3  1   
  4   2   4  1   
  5   2  29  1   
  6   3   5  1   
  7   3  30  1   
  8   3  31  1   
  9   4   6  1   
 10   4  32  1   
 11   4  33  1   
 12   5   7  1   
 13   5  34  1   
 14   5  35  1   
 15   6   7  1   
 16   6  36  1   
 17   6  37  1   
 18   7   8  1   
 19   8   9  ar  
 20   8  10  ar  
 21   9  11  ar  
 22  10  12  ar  
 23  10  38  1   
 24  11  13  ar  
 25  11  39  1   
 26  12  13  ar  
 27  12  14  1   
 28  14  15  1   
 29  14  40  1   
 30  15  16  1   
 31  15  17  1   
 32  15  41  1   
 33  16  18  1   
 34  16  42  1   
 35  16  43  1   
 36  17  19  1   
 37  17  44  1   
 38  17  45  1   
 39  18  20  1   
 40  18  46  1   
 41  18  47  1   
 42  19  20  1   
 43  19  48  1   
 44  19  49  1   
 45  20  21  1   
 46  21  22  ar  
 47  21  23  ar  
 48  22  24  ar  
 49  22  50  1   
 50  23  25  ar  
 51  23  51  1   
 52  24  26  ar  
 53  24  27  1   
 54  25  26  ar  
 55  25  52  1   
 56  26  53  1   
 57  27  54  1   
 58  27  55  1   
 59  27  56  1   
@<TRIPOS>SUBSTRUCTURE
  1 ****  14 GROUP 4 **** **** 0

# MOE 2024.06 (io_trps.svl 2023.06)
