@<TRIPOS>MOLECULE
NONAME
47 50 1 0 0 
SMALL
USER_CHARGES


@<TRIPOS>ATOM
  1 O       -2.1410     0.4680    -0.7430 O.co2 1 <1>  -0.9000 
  2 C       -2.7430     0.2070     0.3020 C.2   1 <1>   0.9060 
  3 O       -2.3050     0.4690     1.4260 O.co2 1 <1>  -0.9000 
  4 C       -3.9840    -0.6840     0.2140 C.3   1 <1>   0.2370 
  5 N       -3.6760    -2.1710     0.1620 N.4   1 <1>  -0.9590 
  6 C       -2.9150    -2.6100     1.3900 C.3   1 <1>   0.4230 
  7 C       -3.0600    -2.5270    -1.1440 C.3   1 <1>   0.3430 
  8 C       -1.3700    -2.5520     1.2800 C.3   1 <1>   0.1200 
  9 C       -3.3950    -4.0360     1.7720 C.3   1 <1>   0.2090 
 10 C       -2.3600    -3.8960    -1.1780 C.3   1 <1>  -0.0800 
 11 O       -0.8400    -3.7120     0.7000 O.3   1 <1>  -0.5600 
 12 N       -3.9970    -4.7940     0.6110 N.pl3 1 <1>  -0.8380 
 13 C       -0.9100    -3.7750    -0.6820 C.3   1 <1>   0.1200 
 14 C       -3.1240    -5.0990    -0.5690 C.3   1 <1>   0.2090 
 15 C       -5.3710    -4.9500     0.5180 C.ar  1 <1>   0.4100 
 16 N       -6.0840    -3.8470     0.6190 N.ar  1 <1>  -0.3100 
 17 C       -5.9540    -6.2220     0.2900 C.ar  1 <1>   0.0000 
 18 N       -7.3960    -3.8770     0.4400 N.ar  1 <1>  -0.3100 
 19 C       -7.3400    -6.2450     0.0790 C.ar  1 <1>   0.0000 
 20 C       -5.2460    -7.4440     0.2780 C.ar  1 <1>  -0.1500 
 21 C       -8.0000    -5.0040     0.1770 C.ar  1 <1>   0.1670 
 22 C       -7.9620    -7.4850    -0.1980 C.ar  1 <1>  -0.1500 
 23 C       -5.8730    -8.6310     0.0180 C.ar  1 <1>  -0.1500 
 24 C       -9.5050    -4.9260    -0.0210 C.3   1 <1>  -0.0970 
 25 C       -7.2470    -8.6500    -0.2310 C.ar  1 <1>  -0.1500 
 26 H       -4.5310    -0.3920    -0.6630 H     1 <1>   0.0800 
 27 H       -4.5880    -0.4700     1.0770 H     1 <1>   0.0800 
 28 H       -4.5530    -2.7220     0.2190 H     1 <1>   0.4500 
 29 H       -3.1820    -1.9470     2.1970 H     1 <1>   0.0800 
 30 H       -3.8320    -2.5140    -1.8950 H     1 <1>   0.0800 
 31 H       -2.3400    -1.7690    -1.4130 H     1 <1>   0.0800 
 32 H       -0.9640    -2.4970     2.2740 H     1 <1>   0.0800 
 33 H       -1.0250    -1.6840     0.7450 H     1 <1>   0.0800 
 34 H       -4.1390    -3.9380     2.5430 H     1 <1>   0.0800 
 35 H       -2.5870    -4.6070     2.1970 H     1 <1>   0.0800 
 36 H       -2.2530    -4.1230    -2.2230 H     1 <1>   0.0800 
 37 H       -0.4230    -2.9050    -1.0920 H     1 <1>   0.0800 
 38 H       -0.3490    -4.6440    -0.9810 H     1 <1>   0.0800 
 39 H       -2.4170    -5.8610    -0.2850 H     1 <1>   0.0800 
 40 H       -3.7450    -5.5210    -1.3410 H     1 <1>   0.0800 
 41 H       -4.1920    -7.4330     0.4870 H     1 <1>   0.1500 
 42 H       -9.0200    -7.5170    -0.3840 H     1 <1>   0.1500 
 43 H       -5.3240    -9.5580     0.0060 H     1 <1>   0.1500 
 44 H      -10.0030    -5.5360     0.7110 H     1 <1>   0.0800 
 45 H       -9.7650    -5.2660    -1.0070 H     1 <1>   0.0800 
 46 H       -9.8500    -3.9140     0.0920 H     1 <1>   0.0800 
 47 H       -7.7280    -9.5900    -0.4400 H     1 <1>   0.1500 
@<TRIPOS>BOND
  1   1   2  ar  
  2   2   3  ar  
  3   2   4  1   
  4   4   5  1   
  5   4  26  1   
  6   4  27  1   
  7   5   6  1   
  8   5   7  1   
  9   5  28  1   
 10   6   8  1   
 11   6   9  1   
 12   6  29  1   
 13   7  10  1   
 14   7  30  1   
 15   7  31  1   
 16   8  11  1   
 17   8  32  1   
 18   8  33  1   
 19   9  12  1   
 20   9  34  1   
 21   9  35  1   
 22  10  13  1   
 23  10  14  1   
 24  10  36  1   
 25  11  13  1   
 26  12  14  1   
 27  12  15  1   
 28  13  37  1   
 29  13  38  1   
 30  14  39  1   
 31  14  40  1   
 32  15  16  ar  
 33  15  17  ar  
 34  16  18  ar  
 35  17  19  ar  
 36  17  20  ar  
 37  18  21  ar  
 38  19  21  ar  
 39  19  22  ar  
 40  20  23  ar  
 41  20  41  1   
 42  21  24  1   
 43  22  25  ar  
 44  22  42  1   
 45  23  25  ar  
 46  23  43  1   
 47  24  44  1   
 48  24  45  1   
 49  24  46  1   
 50  25  47  1   
@<TRIPOS>SUBSTRUCTURE
  1 ****  12 GROUP 4 **** **** 0

# MOE 2024.06 (io_trps.svl 2023.06)
