@<TRIPOS>MOLECULE
NONAME
42 43 1 0 0 
SMALL
USER_CHARGES


@<TRIPOS>ATOM
  1 O        2.6740    -0.9100    -2.0640 O.2   1 <1>  -0.5700 
  2 C        2.2740    -1.5200    -1.0980 C.2   1 <1>   0.5690 
  3 N        1.8580    -0.8990     0.0440 N.am  1 <1>  -0.4940 
  4 C        2.1660    -3.0540    -1.1630 C.3   1 <1>   0.2610 
  5 C        1.7230     0.4580     0.3400 C.2   1 <1>   0.2040 
  6 O        2.1910    -3.6070     0.1480 O.3   1 <1>  -0.3630 
  7 C        3.3020    -3.7230    -1.9470 C.3   1 <1>  -0.2400 
  8 O        0.6460     0.8460     0.9780 O.3   1 <1>  -0.0190 
  9 C        2.4850     1.5520     0.1250 C.2   1 <1>  -0.1810 
 10 C        1.1760    -4.4370     0.4930 C.ar  1 <1>   0.0830 
 11 N        0.6300     2.1370     1.1790 N.2   1 <1>  -0.4100 
 12 C        1.7210     2.5860     0.6710 C.2   1 <1>   0.1080 
 13 C        3.8550     1.6750    -0.5270 C.3   1 <1>   0.0210 
 14 C       -0.1190    -3.9610     0.7150 C.ar  1 <1>   0.0830 
 15 C        1.4640    -5.7830     0.6430 C.ar  1 <1>  -0.1500 
 16 C        2.0830     4.0560     0.6900 C.3   1 <1>  -0.0590 
 17 C        4.9310     2.0210     0.5050 C.3   1 <1>  -0.2400 
 18 O       -0.3420    -2.6230     0.5860 O.3   1 <1>  -0.3630 
 19 C       -1.1190    -4.8640     1.0650 C.ar  1 <1>  -0.1500 
 20 C        0.4630    -6.6710     0.9940 C.ar  1 <1>  -0.1500 
 21 C       -1.5870    -2.0420     0.9100 C.3   1 <1>   0.0400 
 22 C       -0.8270    -6.2120     1.2020 C.ar  1 <1>  -0.1500 
 23 H        1.3570    -1.5290     0.6800 H     1 <1>   0.3700 
 24 H        1.2240    -3.2990    -1.6220 H     1 <1>   0.0800 
 25 H        4.2500    -3.4830    -1.5000 H     1 <1>   0.0800 
 26 H        3.3040    -3.3670    -2.9610 H     1 <1>   0.0800 
 27 H        3.1670    -4.7890    -1.9600 H     1 <1>   0.0800 
 28 H        3.8220     2.4250    -1.2970 H     1 <1>   0.0800 
 29 H        4.1260     0.7470    -0.9910 H     1 <1>   0.0800 
 30 H        2.4690    -6.1300     0.4850 H     1 <1>   0.1500 
 31 H        2.6090     4.3230    -0.2070 H     1 <1>   0.0800 
 32 H        2.6990     4.2660     1.5430 H     1 <1>   0.0800 
 33 H        1.1890     4.6490     0.7540 H     1 <1>   0.0800 
 34 H        4.7360     2.9750     0.9580 H     1 <1>   0.0800 
 35 H        5.8960     2.0570     0.0310 H     1 <1>   0.0800 
 36 H        4.9540     1.2710     1.2760 H     1 <1>   0.0800 
 37 H       -2.1280    -4.5410     1.2370 H     1 <1>   0.1500 
 38 H        0.6870    -7.7180     1.1070 H     1 <1>   0.1500 
 39 H       -1.5060    -0.9780     0.7720 H     1 <1>   0.0800 
 40 H       -1.8170    -2.2590     1.9380 H     1 <1>   0.0800 
 41 H       -2.3410    -2.4370     0.2530 H     1 <1>   0.0800 
 42 H       -1.6040    -6.9050     1.4730 H     1 <1>   0.1500 
@<TRIPOS>BOND
  1   1   2  2   
  2   2   3  am  
  3   2   4  1   
  4   3   5  1   
  5   3  23  1   
  6   4   6  1   
  7   4   7  1   
  8   4  24  1   
  9   5   8  1   
 10   5   9  2   
 11   6  10  1   
 12   7  25  1   
 13   7  26  1   
 14   7  27  1   
 15   8  11  1   
 16   9  12  1   
 17   9  13  1   
 18  10  14  ar  
 19  10  15  ar  
 20  11  12  2   
 21  12  16  1   
 22  13  17  1   
 23  13  28  1   
 24  13  29  1   
 25  14  18  1   
 26  14  19  ar  
 27  15  20  ar  
 28  15  30  1   
 29  16  31  1   
 30  16  32  1   
 31  16  33  1   
 32  17  34  1   
 33  17  35  1   
 34  17  36  1   
 35  18  21  1   
 36  19  22  ar  
 37  19  37  1   
 38  20  22  ar  
 39  20  38  1   
 40  21  39  1   
 41  21  40  1   
 42  21  41  1   
 43  22  42  1   
@<TRIPOS>SUBSTRUCTURE
  1 ****   3 GROUP 4 **** **** 0

# MOE 2024.06 (io_trps.svl 2023.06)
