@<TRIPOS>MOLECULE
NONAME
41 42 1 0 0 
SMALL
USER_CHARGES


@<TRIPOS>ATOM
  1 S       -0.2240     0.4550    -0.9280 S.3   1 <1>  -0.0800 
  2 C        0.8510    -0.8960    -0.6370 C.2   1 <1>   0.1980 
  3 C        1.1270     1.5330    -0.7390 C.2   1 <1>  -0.1100 
  4 N        2.0620    -0.5640    -0.4270 N.2   1 <1>  -0.5650 
  5 C        0.2550    -2.2900    -0.6680 C.3   1 <1>   0.0200 
  6 C        2.2330     0.8140    -0.4820 C.2   1 <1>   0.0460 
  7 C       -0.6000    -2.5710     0.5760 C.3   1 <1>  -0.1600 
  8 C        3.6420     1.3490    -0.2470 C.3   1 <1>   0.3900 
  9 C       -1.1780    -3.9910     0.5550 C.3   1 <1>  -0.2400 
 10 N        3.6550     2.8360    -0.1530 N.pl3 1 <1>  -0.8690 
 11 C        4.8170     3.5620    -0.0080 C.ar  1 <1>   0.4100 
 12 N        5.9380     2.8570    -0.1160 N.ar  1 <1>  -0.6200 
 13 C        4.7910     4.9450     0.2560 C.ar  1 <1>   0.0860 
 14 C        7.0770     3.4900     0.0720 C.ar  1 <1>   0.1670 
 15 C        3.5660     5.7090     0.3020 C.2   1 <1>   0.5440 
 16 C        6.0070     5.5770     0.4700 C.ar  1 <1>  -0.1500 
 17 C        7.1710     4.8440     0.3790 C.ar  1 <1>  -0.1440 
 18 C        8.3210     2.6300    -0.0590 C.3   1 <1>  -0.0970 
 19 O        3.4120     6.6160     1.0920 O.2   1 <1>  -0.5700 
 20 N        2.5380     5.4930    -0.5540 N.am  1 <1>  -0.8000 
 21 C        8.5050     5.5400     0.6150 C.3   1 <1>  -0.0970 
 22 H        0.9460     2.5860    -0.8450 H     1 <1>   0.1500 
 23 H        1.0600    -3.0020    -0.7180 H     1 <1>   0.0800 
 24 H       -0.3390    -2.3950    -1.5580 H     1 <1>   0.0800 
 25 H       -1.4070    -1.8610     0.6280 H     1 <1>   0.0800 
 26 H        0.0080    -2.4460     1.4560 H     1 <1>   0.0800 
 27 H        4.2780     1.0310    -1.0550 H     1 <1>   0.0800 
 28 H        4.0290     0.9350     0.6680 H     1 <1>   0.0800 
 29 H       -1.8070    -4.1310    -0.3070 H     1 <1>   0.0800 
 30 H       -1.7690    -4.1590     1.4390 H     1 <1>   0.0800 
 31 H       -0.3870    -4.7200     0.5310 H     1 <1>   0.0800 
 32 H        2.8400     3.2020     0.3460 H     1 <1>   0.4000 
 33 H        6.0230     6.6280     0.7000 H     1 <1>   0.1500 
 34 H        8.0790     1.6950    -0.5320 H     1 <1>   0.0800 
 35 H        8.7230     2.4250     0.9160 H     1 <1>   0.0800 
 36 H        9.0620     3.1250    -0.6570 H     1 <1>   0.0800 
 37 H        1.7480     6.1390    -0.5550 H     1 <1>   0.3700 
 38 H        2.6130     4.8300    -1.3290 H     1 <1>   0.3700 
 39 H        9.0780     5.0070     1.3530 H     1 <1>   0.0800 
 40 H        8.3580     6.5450     0.9700 H     1 <1>   0.0800 
 41 H        9.0660     5.5840    -0.3010 H     1 <1>   0.0800 
@<TRIPOS>BOND
  1   1   2  1   
  2   1   3  1   
  3   2   4  2   
  4   2   5  1   
  5   3   6  2   
  6   3  22  1   
  7   4   6  1   
  8   5   7  1   
  9   5  23  1   
 10   5  24  1   
 11   6   8  1   
 12   7   9  1   
 13   7  25  1   
 14   7  26  1   
 15   8  10  1   
 16   8  27  1   
 17   8  28  1   
 18   9  29  1   
 19   9  30  1   
 20   9  31  1   
 21  10  11  1   
 22  10  32  1   
 23  11  12  ar  
 24  11  13  ar  
 25  12  14  ar  
 26  13  15  1   
 27  13  16  ar  
 28  14  17  ar  
 29  14  18  1   
 30  15  19  2   
 31  15  20  am  
 32  16  17  ar  
 33  16  33  1   
 34  17  21  1   
 35  18  34  1   
 36  18  35  1   
 37  18  36  1   
 38  20  37  1   
 39  20  38  1   
 40  21  39  1   
 41  21  40  1   
 42  21  41  1   
@<TRIPOS>SUBSTRUCTURE
  1 ****  10 GROUP 4 **** **** 0

# MOE 2024.06 (io_trps.svl 2023.06)
