@<TRIPOS>MOLECULE
NONAME
49 51 1 0 0 
SMALL
USER_CHARGES


@<TRIPOS>ATOM
  1 O       -1.9770    -0.6820    -0.6080 O.2   1 <1>  -0.5700 
  2 C       -1.9920     0.4940    -0.2530 C.2   1 <1>   0.5440 
  3 N       -3.1810     0.9540     0.2700 N.am  1 <1>  -0.6600 
  4 C       -0.8240     1.3230    -0.4220 C.ar  1 <1>   0.0860 
  5 C       -3.3700     0.6880     1.7200 C.3   1 <1>   0.1400 
  6 C       -3.6490     2.3060    -0.1280 C.3   1 <1>   0.1400 
  7 C       -0.4300     2.3750     0.4400 C.ar  1 <1>  -0.1710 
  8 C        0.0290     1.1130    -1.5020 C.ar  1 <1>  -0.1500 
  9 C       -4.7110     0.0060     2.0280 C.3   1 <1>   0.1400 
 10 C       -5.1760     2.3710    -0.2570 C.3   1 <1>  -0.1600 
 11 O       -1.0570     2.6660     1.4910 O.3   1 <1>  -0.8290 
 12 C        0.7270     3.1140     0.1140 C.ar  1 <1>   0.1600 
 13 C        1.1380     1.9000    -1.7090 C.ar  1 <1>   0.1600 
 14 N       -5.8720     0.5150     1.2220 N.am  1 <1>  -0.6600 
 15 C       -5.9400     1.9850     1.0170 C.3   1 <1>   0.1400 
 16 N        1.5030     2.9120    -0.9210 N.ar  1 <1>  -0.6200 
 17 C       -6.7440    -0.3190     0.5550 C.2   1 <1>   0.5440 
 18 O       -7.8730     0.0790     0.3230 O.2   1 <1>  -0.5700 
 19 C       -6.3620    -1.6440     0.1320 C.ar  1 <1>   0.0860 
 20 C       -7.1860    -2.7380     0.3740 C.ar  1 <1>   0.1600 
 21 C       -5.1700    -1.8980    -0.5350 C.ar  1 <1>  -0.1500 
 22 N       -6.9210    -3.9970     0.0680 N.ar  1 <1>  -0.6200 
 23 C       -4.8750    -3.1960    -0.8650 C.ar  1 <1>  -0.1500 
 24 C       -5.7580    -4.2250    -0.5400 C.ar  1 <1>   0.4100 
 25 N       -5.4480    -5.5380    -0.8430 N.pl3 1 <1>  -0.8380 
 26 C       -6.5230    -6.5580    -0.9750 C.3   1 <1>   0.1290 
 27 C       -4.0810    -6.0770    -0.6150 C.3   1 <1>   0.1290 
 28 H       -3.2980     1.6130     2.2650 H     1 <1>   0.0800 
 29 H       -2.5670     0.0660     2.0780 H     1 <1>   0.0800 
 30 H       -3.2020     2.5710    -1.0710 H     1 <1>   0.0800 
 31 H       -3.3120     3.0290     0.5970 H     1 <1>   0.0800 
 32 H       -0.1940     0.3160    -2.1850 H     1 <1>   0.1500 
 33 H       -4.9290     0.1480     3.0710 H     1 <1>   0.0800 
 34 H       -4.5860    -1.0500     1.8780 H     1 <1>   0.0800 
 35 H       -5.4950     1.7490    -1.0740 H     1 <1>   0.0800 
 36 H       -5.4350     3.3820    -0.5070 H     1 <1>   0.0800 
 37 H        0.9740     3.9070     0.7950 H     1 <1>   0.1500 
 38 H        1.7690     1.7060    -2.5570 H     1 <1>   0.1500 
 39 H       -6.9700     2.2810     0.9150 H     1 <1>   0.0800 
 40 H       -5.5330     2.4990     1.8710 H     1 <1>   0.0800 
 41 H       -8.1270    -2.5460     0.8610 H     1 <1>   0.1500 
 42 H       -4.4980    -1.0920    -0.7790 H     1 <1>   0.1500 
 43 H       -3.9610    -3.4220    -1.3790 H     1 <1>   0.1500 
 44 H       -7.4150    -6.1030    -1.3720 H     1 <1>   0.0800 
 45 H       -6.7460    -6.9750    -0.0090 H     1 <1>   0.0800 
 46 H       -6.2100    -7.3400    -1.6430 H     1 <1>   0.0800 
 47 H       -3.4590    -5.3430    -0.1320 H     1 <1>   0.0800 
 48 H       -3.6390    -6.3480    -1.5580 H     1 <1>   0.0800 
 49 H       -4.1310    -6.9470     0.0160 H     1 <1>   0.0800 
@<TRIPOS>BOND
  1   1   2  2   
  2   2   3  am  
  3   2   4  1   
  4   3   5  1   
  5   3   6  1   
  6   4   7  ar  
  7   4   8  ar  
  8   5   9  1   
  9   5  28  1   
 10   5  29  1   
 11   6  10  1   
 12   6  30  1   
 13   6  31  1   
 14   7  11  1   
 15   7  12  ar  
 16   8  13  ar  
 17   8  32  1   
 18   9  14  1   
 19   9  33  1   
 20   9  34  1   
 21  10  15  1   
 22  10  35  1   
 23  10  36  1   
 24  12  16  ar  
 25  12  37  1   
 26  13  16  ar  
 27  13  38  1   
 28  14  15  1   
 29  14  17  am  
 30  15  39  1   
 31  15  40  1   
 32  17  18  2   
 33  17  19  1   
 34  19  20  ar  
 35  19  21  ar  
 36  20  22  ar  
 37  20  41  1   
 38  21  23  ar  
 39  21  42  1   
 40  22  24  ar  
 41  23  24  ar  
 42  23  43  1   
 43  24  25  1   
 44  25  26  1   
 45  25  27  1   
 46  26  44  1   
 47  26  45  1   
 48  26  46  1   
 49  27  47  1   
 50  27  48  1   
 51  27  49  1   
@<TRIPOS>SUBSTRUCTURE
  1 ****   3 GROUP 4 **** **** 0

# MOE 2024.06 (io_trps.svl 2023.06)
