@<TRIPOS>MOLECULE
NONAME
36 36 1 0 0 
SMALL
USER_CHARGES


@<TRIPOS>ATOM
  1 O       -1.3130    -0.1500    -0.4620 O.2   1 <1>  -0.5700 
  2 C       -2.2600     0.6020    -0.5660 C.2   1 <1>   0.5690 
  3 N       -3.4040     0.3850     0.1580 N.am  1 <1>  -0.6600 
  4 C       -2.1230     1.7820    -1.5390 C.3   1 <1>   0.2010 
  5 C       -3.3620    -0.5010     1.3550 C.3   1 <1>   0.3200 
  6 C       -4.7820     0.7730    -0.2760 C.3   1 <1>   0.1400 
  7 N       -1.0990     2.7800    -1.0940 N.am  1 <1>  -0.7300 
  8 C       -3.6210    -1.9400     0.9460 C.2   1 <1>   0.0060 
  9 C       -5.3270     1.9940     0.4780 C.3   1 <1>   0.1200 
 10 C       -1.1470     3.4380     0.0890 C.2   1 <1>   0.5690 
 11 N       -4.6420    -2.6530     1.3070 N.2   1 <1>  -0.5650 
 12 N       -2.7630    -2.5940     0.1360 N.pl3 1 <1>   0.0330 
 13 O       -4.6640     3.1450     0.0860 O.3   1 <1>  -0.6800 
 14 O       -2.0920     3.3480     0.8340 O.2   1 <1>  -0.5700 
 15 C        0.0330     4.3070     0.4830 C.3   1 <1>  -0.0990 
 16 C       -4.4330    -3.8380     0.7000 C.2   1 <1>   0.0770 
 17 C       -3.2910    -3.8210    -0.0210 C.2   1 <1>  -0.3020 
 18 C        1.2550     3.4810     0.9150 C.3   1 <1>  -0.2400 
 19 H       -3.0630     2.2850    -1.6560 H     1 <1>   0.0800 
 20 H       -1.8370     1.3930    -2.4980 H     1 <1>   0.0800 
 21 H       -4.1030    -0.1900     2.0690 H     1 <1>   0.0800 
 22 H       -2.3980    -0.4310     1.8270 H     1 <1>   0.0800 
 23 H       -5.4410    -0.0600    -0.0970 H     1 <1>   0.0800 
 24 H       -4.8050     0.9660    -1.3330 H     1 <1>   0.0800 
 25 H       -0.2240     2.7750    -1.6190 H     1 <1>   0.3700 
 26 H       -5.2240     1.8790     1.5420 H     1 <1>   0.0800 
 27 H       -6.3680     2.1310     0.2410 H     1 <1>   0.0800 
 28 H       -1.9110    -2.1800    -0.2680 H     1 <1>   0.2700 
 29 H       -3.7340     3.1600     0.4490 H     1 <1>   0.4000 
 30 H       -0.2700     4.9440     1.2950 H     1 <1>   0.0800 
 31 H        0.2930     4.9380    -0.3470 H     1 <1>   0.0800 
 32 H       -5.1280    -4.6530     0.8150 H     1 <1>   0.1500 
 33 H       -2.8380    -4.5900    -0.6200 H     1 <1>   0.1500 
 34 H        0.9990     2.8580     1.7540 H     1 <1>   0.0800 
 35 H        2.0600     4.1340     1.2040 H     1 <1>   0.0800 
 36 H        1.5920     2.8510     0.1110 H     1 <1>   0.0800 
@<TRIPOS>BOND
  1   1   2  2   
  2   2   3  am  
  3   2   4  1   
  4   3   5  1   
  5   3   6  1   
  6   4   7  1   
  7   4  19  1   
  8   4  20  1   
  9   5   8  1   
 10   5  21  1   
 11   5  22  1   
 12   6   9  1   
 13   6  23  1   
 14   6  24  1   
 15   7  10  am  
 16   7  25  1   
 17   8  11  2   
 18   8  12  1   
 19   9  13  1   
 20   9  26  1   
 21   9  27  1   
 22  10  14  2   
 23  10  15  1   
 24  11  16  1   
 25  12  17  1   
 26  12  28  1   
 27  13  29  1   
 28  15  18  1   
 29  15  30  1   
 30  15  31  1   
 31  16  17  2   
 32  16  32  1   
 33  17  33  1   
 34  18  34  1   
 35  18  35  1   
 36  18  36  1   
@<TRIPOS>SUBSTRUCTURE
  1 ****   3 GROUP 4 **** **** 0

# MOE 2024.06 (io_trps.svl 2023.06)
