@<TRIPOS>MOLECULE
NONAME
41 42 1 0 0 
SMALL
USER_CHARGES


@<TRIPOS>ATOM
  1 S        0.1740    -0.4630    -0.3180 S.3   1 <1>  -0.0800 
  2 C       -0.4510     1.1350    -0.1580 C.2   1 <1>   0.4340 
  3 C       -1.4480    -1.0120    -0.0250 C.2   1 <1>   0.4420 
  4 S        0.7130     2.4770    -0.3440 S.3   1 <1>  -0.2860 
  5 N       -1.6960     1.1970     0.0810 N.2   1 <1>  -0.3380 
  6 N       -2.2730    -0.0430     0.1580 N.2   1 <1>  -0.3380 
  7 N       -1.6370    -2.3770    -0.0250 N.am  1 <1>  -0.4940 
  8 C       -0.3370     3.9800    -0.1050 C.3   1 <1>   0.0700 
  9 C       -2.7750    -3.1070     0.1730 C.2   1 <1>   0.7150 
 10 C        0.5560     5.2090    -0.2420 C.3   1 <1>   0.1200 
 11 O       -3.8300    -2.5490     0.3890 O.2   1 <1>  -0.5700 
 12 C       -2.6740    -4.5370     0.1150 C.2   1 <1>  -0.2370 
 13 O       -0.2300     6.3420    -0.0620 O.3   1 <1>  -0.5600 
 14 N       -3.7100    -5.4030     0.2910 N.pl3 1 <1>   0.3140 
 15 C       -1.5880    -5.3320    -0.1140 C.2   1 <1>  -0.1500 
 16 C        0.4720     7.5380    -0.1640 C.3   1 <1>   0.0400 
 17 N       -3.3240    -6.6820     0.1830 N.2   1 <1>  -0.7070 
 18 C       -5.1240    -5.0960     0.5710 C.3   1 <1>   0.0160 
 19 C       -2.0500    -6.6340    -0.0600 C.2   1 <1>   0.1080 
 20 C       -1.2080    -7.8890    -0.2550 C.3   1 <1>   0.1010 
 21 C       -0.1160    -7.9890     0.8170 C.3   1 <1>  -0.2400 
 22 C       -0.5920    -7.9240    -1.6590 C.3   1 <1>  -0.2400 
 23 H       -0.8120    -2.9390    -0.1960 H     1 <1>   0.3700 
 24 H       -0.7710     3.9160     0.8770 H     1 <1>   0.0800 
 25 H       -1.1010     3.9620    -0.8610 H     1 <1>   0.0800 
 26 H        0.9970     5.2440    -1.2230 H     1 <1>   0.0800 
 27 H        1.3260     5.1990     0.5120 H     1 <1>   0.0800 
 28 H       -0.5680    -5.0560    -0.3030 H     1 <1>   0.1500 
 29 H       -0.2210     8.3470    -0.0110 H     1 <1>   0.0800 
 30 H        0.9070     7.6140    -1.1460 H     1 <1>   0.0800 
 31 H        1.2360     7.5680     0.5930 H     1 <1>   0.0800 
 32 H       -5.1920    -4.5500     1.4930 H     1 <1>   0.0800 
 33 H       -5.6780    -6.0120     0.6530 H     1 <1>   0.0800 
 34 H       -5.5230    -4.5050    -0.2320 H     1 <1>   0.0800 
 35 H       -1.8600    -8.7400    -0.1520 H     1 <1>   0.0800 
 36 H        0.5740    -7.1700     0.7370 H     1 <1>   0.0800 
 37 H        0.4250    -8.9120     0.7120 H     1 <1>   0.0800 
 38 H       -0.5670    -7.9670     1.7940 H     1 <1>   0.0800 
 39 H        0.0870    -7.1030    -1.7990 H     1 <1>   0.0800 
 40 H       -1.3720    -7.8560    -2.3970 H     1 <1>   0.0800 
 41 H       -0.0590    -8.8460    -1.8090 H     1 <1>   0.0800 
@<TRIPOS>BOND
  1   1   2  1   
  2   1   3  1   
  3   2   4  1   
  4   2   5  2   
  5   3   6  2   
  6   3   7  1   
  7   4   8  1   
  8   5   6  1   
  9   7   9  am  
 10   7  23  1   
 11   8  10  1   
 12   8  24  1   
 13   8  25  1   
 14   9  11  2   
 15   9  12  1   
 16  10  13  1   
 17  10  26  1   
 18  10  27  1   
 19  12  14  1   
 20  12  15  2   
 21  13  16  1   
 22  14  17  1   
 23  14  18  1   
 24  15  19  1   
 25  15  28  1   
 26  16  29  1   
 27  16  30  1   
 28  16  31  1   
 29  17  19  2   
 30  18  32  1   
 31  18  33  1   
 32  18  34  1   
 33  19  20  1   
 34  20  21  1   
 35  20  22  1   
 36  20  35  1   
 37  21  36  1   
 38  21  37  1   
 39  21  38  1   
 40  22  39  1   
 41  22  40  1   
 42  22  41  1   
@<TRIPOS>SUBSTRUCTURE
  1 ****   7 GROUP 4 **** **** 0

# MOE 2024.06 (io_trps.svl 2023.06)
