@<TRIPOS>MOLECULE
NONAME
52 54 1 0 0 
SMALL
USER_CHARGES


@<TRIPOS>ATOM
  1 F       -0.0400     3.4410    -1.7760 F     1 <1>  -0.3400 
  2 C       -1.1420     4.1070    -2.0930 C.3   1 <1>   1.2000 
  3 F       -0.7980     5.3820    -2.1850 F     1 <1>  -0.3400 
  4 F       -1.4730     3.7210    -3.3170 F     1 <1>  -0.3400 
  5 C       -2.2580     3.8740    -1.0940 C.2   1 <1>  -0.3320 
  6 N       -2.1470     4.1170     0.2310 N.pl3 1 <1>   0.3140 
  7 C       -3.5070     3.3940    -1.3040 C.2   1 <1>  -0.1500 
  8 N       -3.2850     3.7870     0.8710 N.2   1 <1>  -0.7070 
  9 C       -0.9880     4.6180     1.0130 C.3   1 <1>   0.0960 
 10 C       -4.0910     3.3660    -0.0470 C.2   1 <1>   0.1080 
 11 C       -0.9030     6.1570     1.0560 C.3   1 <1>  -0.0800 
 12 C       -5.4960     2.9010     0.2590 C.3   1 <1>  -0.0590 
 13 C        0.4110     6.5580     1.7420 C.3   1 <1>   0.2090 
 14 C       -2.1210     6.7870     1.7620 C.3   1 <1>  -0.2400 
 15 N        0.6400     8.0080     1.5710 N.pl3 1 <1>  -0.8690 
 16 C        1.8440     8.6210     1.3160 C.ar  1 <1>   0.4100 
 17 N        2.9020     7.8190     1.2010 N.ar  1 <1>  -0.6200 
 18 C        1.9070    10.0200     1.1880 C.ar  1 <1>   0.0860 
 19 C        4.0620     8.4030     0.9760 C.ar  1 <1>   0.1600 
 20 C        0.7110    10.8200     1.2770 C.2   1 <1>   0.5440 
 21 C        3.1470    10.5980     0.9580 C.ar  1 <1>  -0.1500 
 22 C        4.2400     9.7690     0.8510 C.ar  1 <1>  -0.1500 
 23 O        0.0220    10.7850     2.2830 O.2   1 <1>  -0.5700 
 24 N        0.3150    11.6270     0.2320 N.am  1 <1>  -0.6600 
 25 C       -0.9360    12.4200     0.2640 C.3   1 <1>   0.1400 
 26 C        0.7850    11.4450    -1.1610 C.3   1 <1>   0.1400 
 27 C       -1.4170    12.4400    -1.1810 C.3   1 <1>  -0.1600 
 28 C       -0.1440    12.3050    -2.0110 C.3   1 <1>  -0.1600 
 29 H       -3.9720     3.0880    -2.2250 H     1 <1>   0.1500 
 30 H       -0.0890     4.2100     0.5920 H     1 <1>   0.0800 
 31 H       -1.0800     4.2380     2.0140 H     1 <1>   0.0800 
 32 H       -0.8580     6.5260     0.0480 H     1 <1>   0.0800 
 33 H       -5.9950     2.5890    -0.6390 H     1 <1>   0.0800 
 34 H       -6.0480     3.7040     0.7100 H     1 <1>   0.0800 
 35 H       -5.4570     2.0760     0.9460 H     1 <1>   0.0800 
 36 H        1.2260     6.0080     1.3020 H     1 <1>   0.0800 
 37 H        0.3760     6.3250     2.7930 H     1 <1>   0.0800 
 38 H       -2.1970     6.4360     2.7760 H     1 <1>   0.0800 
 39 H       -3.0310     6.5320     1.2470 H     1 <1>   0.0800 
 40 H       -2.0440     7.8590     1.7740 H     1 <1>   0.0800 
 41 H       -0.0890     8.6200     1.9660 H     1 <1>   0.4000 
 42 H        4.9220     7.7600     0.8880 H     1 <1>   0.1500 
 43 H        3.2410    11.6670     0.8690 H     1 <1>   0.1500 
 44 H        5.2220    10.1710     0.6720 H     1 <1>   0.1500 
 45 H       -0.7080    13.4160     0.6030 H     1 <1>   0.0800 
 46 H       -1.6690    11.9770     0.9170 H     1 <1>   0.0800 
 47 H        0.6900    10.4070    -1.4340 H     1 <1>   0.0800 
 48 H        1.8090    11.7580    -1.2680 H     1 <1>   0.0800 
 49 H       -1.9650    13.3380    -1.4070 H     1 <1>   0.0800 
 50 H       -2.0540    11.5890    -1.3460 H     1 <1>   0.0800 
 51 H       -0.3280    11.8640    -2.9740 H     1 <1>   0.0800 
 52 H        0.3050    13.2730    -2.1490 H     1 <1>   0.0800 
@<TRIPOS>BOND
  1   1   2  1   
  2   2   3  1   
  3   2   4  1   
  4   2   5  1   
  5   5   6  1   
  6   5   7  2   
  7   6   8  1   
  8   6   9  1   
  9   7  10  1   
 10   7  29  1   
 11   8  10  2   
 12   9  11  1   
 13   9  30  1   
 14   9  31  1   
 15  10  12  1   
 16  11  13  1   
 17  11  14  1   
 18  11  32  1   
 19  12  33  1   
 20  12  34  1   
 21  12  35  1   
 22  13  15  1   
 23  13  36  1   
 24  13  37  1   
 25  14  38  1   
 26  14  39  1   
 27  14  40  1   
 28  15  16  1   
 29  15  41  1   
 30  16  17  ar  
 31  16  18  ar  
 32  17  19  ar  
 33  18  20  1   
 34  18  21  ar  
 35  19  22  ar  
 36  19  42  1   
 37  20  23  2   
 38  20  24  am  
 39  21  22  ar  
 40  21  43  1   
 41  22  44  1   
 42  24  25  1   
 43  24  26  1   
 44  25  27  1   
 45  25  45  1   
 46  25  46  1   
 47  26  28  1   
 48  26  47  1   
 49  26  48  1   
 50  27  28  1   
 51  27  49  1   
 52  27  50  1   
 53  28  51  1   
 54  28  52  1   
@<TRIPOS>SUBSTRUCTURE
  1 ****  11 GROUP 4 **** **** 0

# MOE 2024.06 (io_trps.svl 2023.06)
