@<TRIPOS>MOLECULE
NONAME
52 55 1 0 0 
SMALL
USER_CHARGES


@<TRIPOS>ATOM
  1 O       -1.4820     0.1950     2.7390 O.2   1 <1>  -0.5700 
  2 C       -1.9210     0.7970     1.7770 C.2   1 <1>   0.5440 
  3 N       -3.0810     0.3450     1.1940 N.am  1 <1>  -0.6600 
  4 C       -1.2240     1.9620     1.2800 C.ar  1 <1>   0.0860 
  5 C       -3.8030     1.0280     0.0890 C.3   1 <1>   0.1400 
  6 C       -3.5110    -1.0700     1.2970 C.3   1 <1>   0.1400 
  7 C       -0.6190     2.0080     0.0130 C.ar  1 <1>   0.0820 
  8 C       -1.1550     3.1040     2.0770 C.ar  1 <1>  -0.1500 
  9 C       -4.9140     0.0540    -0.3030 C.3   1 <1>   0.2000 
 10 C       -4.3440    -1.3270     0.0320 C.3   1 <1>  -0.0800 
 11 O       -0.6110     0.9340    -0.8130 O.3   1 <1>  -0.3630 
 12 C       -0.0160     3.1760    -0.4460 C.ar  1 <1>  -0.1430 
 13 C       -0.5430     4.2580     1.6300 C.ar  1 <1>  -0.1500 
 14 O       -6.0060     0.2780     0.5200 O.3   1 <1>  -0.6800 
 15 C       -3.4810    -1.8520    -1.1350 C.3   1 <1>  -0.0170 
 16 C        0.0360    -0.2520    -0.3910 C.3   1 <1>   0.0400 
 17 C        0.0200     4.2960     0.3670 C.ar  1 <1>  -0.1500 
 18 C        0.6130     3.2320    -1.8320 C.3   1 <1>  -0.0970 
 19 C       -2.8720    -3.2120    -0.8380 C.ar  1 <1>   0.1670 
 20 N       -1.6150    -3.2520    -0.5190 N.ar  1 <1>  -0.6200 
 21 C       -3.6890    -4.3510    -0.9210 C.ar  1 <1>  -0.1500 
 22 C       -1.0700    -4.4630    -0.2390 C.ar  1 <1>   0.3100 
 23 C       -3.1670    -5.5800    -0.6520 C.ar  1 <1>  -0.1500 
 24 C       -1.8120    -5.6630    -0.2950 C.ar  1 <1>   0.0000 
 25 C        0.2840    -4.5300     0.1260 C.ar  1 <1>  -0.1500 
 26 C       -1.1690    -6.8800     0.0090 C.ar  1 <1>  -0.1500 
 27 C        0.8900    -5.7230     0.4180 C.ar  1 <1>  -0.1500 
 28 C        0.1540    -6.9110     0.3580 C.ar  1 <1>  -0.1500 
 29 H       -4.1940     1.9810     0.4000 H     1 <1>   0.0800 
 30 H       -3.1370     1.1680    -0.7430 H     1 <1>   0.0800 
 31 H       -2.6600    -1.7260     1.3780 H     1 <1>   0.0800 
 32 H       -4.1180    -1.1840     2.1780 H     1 <1>   0.0800 
 33 H       -1.5920     3.0740     3.0600 H     1 <1>   0.1500 
 34 H       -5.2330     0.1610    -1.3260 H     1 <1>   0.0800 
 35 H       -5.1300    -2.0340     0.2280 H     1 <1>   0.0800 
 36 H       -0.5040     5.1290     2.2620 H     1 <1>   0.1500 
 37 H       -5.6900     0.3380     1.4450 H     1 <1>   0.4000 
 38 H       -2.6880    -1.1570    -1.3510 H     1 <1>   0.0800 
 39 H       -4.0850    -1.9330    -2.0200 H     1 <1>   0.0800 
 40 H        0.2350    -0.8530    -1.2590 H     1 <1>   0.0800 
 41 H       -0.6060    -0.7980     0.2760 H     1 <1>   0.0800 
 42 H        0.9570     0.0050     0.1020 H     1 <1>   0.0800 
 43 H        0.4880     5.2030     0.0260 H     1 <1>   0.1500 
 44 H        1.0020     4.2110    -2.0450 H     1 <1>   0.0800 
 45 H       -0.1230     2.9860    -2.5760 H     1 <1>   0.0800 
 46 H        1.4170     2.5210    -1.8940 H     1 <1>   0.0800 
 47 H       -4.7220    -4.2390    -1.1960 H     1 <1>   0.1500 
 48 H       -3.7610    -6.4750    -0.7050 H     1 <1>   0.1500 
 49 H        0.8310    -3.6070     0.1690 H     1 <1>   0.1500 
 50 H       -1.7400    -7.7900    -0.0380 H     1 <1>   0.1500 
 51 H        1.9290    -5.7610     0.6970 H     1 <1>   0.1500 
 52 H        0.6430    -7.8420     0.5900 H     1 <1>   0.1500 
@<TRIPOS>BOND
  1   1   2  2   
  2   2   3  am  
  3   2   4  1   
  4   3   5  1   
  5   3   6  1   
  6   4   7  ar  
  7   4   8  ar  
  8   5   9  1   
  9   5  29  1   
 10   5  30  1   
 11   6  10  1   
 12   6  31  1   
 13   6  32  1   
 14   7  11  1   
 15   7  12  ar  
 16   8  13  ar  
 17   8  33  1   
 18   9  10  1   
 19   9  14  1   
 20   9  34  1   
 21  10  15  1   
 22  10  35  1   
 23  11  16  1   
 24  12  17  ar  
 25  12  18  1   
 26  13  17  ar  
 27  13  36  1   
 28  14  37  1   
 29  15  19  1   
 30  15  38  1   
 31  15  39  1   
 32  16  40  1   
 33  16  41  1   
 34  16  42  1   
 35  17  43  1   
 36  18  44  1   
 37  18  45  1   
 38  18  46  1   
 39  19  20  ar  
 40  19  21  ar  
 41  20  22  ar  
 42  21  23  ar  
 43  21  47  1   
 44  22  24  ar  
 45  22  25  ar  
 46  23  24  ar  
 47  23  48  1   
 48  24  26  ar  
 49  25  27  ar  
 50  25  49  1   
 51  26  28  ar  
 52  26  50  1   
 53  27  28  ar  
 54  27  51  1   
 55  28  52  1   
@<TRIPOS>SUBSTRUCTURE
  1 ****   6 GROUP 4 **** **** 0

# MOE 2024.06 (io_trps.svl 2023.06)
