@<TRIPOS>MOLECULE
NONAME
48 50 1 0 0 
SMALL
USER_CHARGES


@<TRIPOS>ATOM
  1 S       -0.0530     0.5450    -2.3240 S.o2  1 <1>   1.4470 
  2 O        0.3800     1.9190    -2.4620 O.2   1 <1>  -0.6500 
  3 O       -0.2940    -0.2470    -3.5110 O.2   1 <1>  -0.6500 
  4 N       -1.4920     0.5620    -1.4260 N.am  1 <1>  -0.8490 
  5 C        1.0920    -0.3600    -1.2420 C.ar  1 <1>  -0.0090 
  6 C       -1.4130     1.4750    -0.2830 C.3   1 <1>   0.1960 
  7 C       -2.6390     0.9120    -2.2690 C.3   1 <1>   0.1960 
  8 C        2.3230     0.1730    -0.8810 C.ar  1 <1>  -0.1500 
  9 C        0.7630    -1.6140    -0.7460 C.ar  1 <1>  -0.1500 
 10 C       -2.6620     1.3220     0.5870 C.3   1 <1>  -0.1600 
 11 C       -3.9370     0.7570    -1.4740 C.3   1 <1>  -0.1600 
 12 C        3.1930    -0.5190    -0.0550 C.ar  1 <1>  -0.1500 
 13 C        1.6260    -2.3130     0.0800 C.ar  1 <1>  -0.1500 
 14 C       -3.9420     1.6290    -0.2090 C.3   1 <1>   0.2800 
 15 C        2.8580    -1.7750     0.4370 C.ar  1 <1>  -0.1430 
 16 O       -3.8970     2.9610    -0.6610 O.3   1 <1>  -0.5600 
 17 C       -5.2210     1.3830     0.6310 C.3   1 <1>  -0.1600 
 18 C        3.8180    -2.5470     1.3600 C.3   1 <1>   1.1640 
 19 C       -4.2220     3.9700     0.2520 C.3   1 <1>   0.1200 
 20 C       -6.2860     2.4640     0.4290 C.3   1 <1>   0.2800 
 21 F        3.7190    -3.8640     1.2190 F     1 <1>  -0.3400 
 22 F        3.5830    -2.2900     2.6390 F     1 <1>  -0.3400 
 23 F        5.0930    -2.2460     1.1460 F     1 <1>  -0.3400 
 24 C       -5.6810     3.8410     0.7210 C.3   1 <1>  -0.1600 
 25 O       -6.6480     2.4570    -0.8910 O.3   1 <1>  -0.6800 
 26 C       -7.5530     2.2010     1.2360 C.3   1 <1>  -0.2400 
 27 H       -1.3250     2.4940    -0.6250 H     1 <1>   0.0800 
 28 H       -0.5440     1.2430     0.3100 H     1 <1>   0.0800 
 29 H       -2.6810     0.2570    -3.1230 H     1 <1>   0.0800 
 30 H       -2.5390     1.9250    -2.6290 H     1 <1>   0.0800 
 31 H        2.6070     1.1440    -1.2540 H     1 <1>   0.1500 
 32 H       -0.1870    -2.0480    -1.0150 H     1 <1>   0.1500 
 33 H       -2.5860     1.9610     1.4450 H     1 <1>   0.0800 
 34 H       -2.7010     0.3090     0.9470 H     1 <1>   0.0800 
 35 H       -4.0420    -0.2780    -1.2030 H     1 <1>   0.0800 
 36 H       -4.7710     1.0090    -2.1010 H     1 <1>   0.0800 
 37 H        4.1370    -0.0650     0.2010 H     1 <1>   0.1500 
 38 H        1.3280    -3.2840     0.4430 H     1 <1>   0.1500 
 39 H       -4.9580     1.3710     1.6730 H     1 <1>   0.0800 
 40 H       -5.6360     0.4150     0.4180 H     1 <1>   0.0800 
 41 H       -4.0720     4.9160    -0.2400 H     1 <1>   0.0800 
 42 H       -3.5450     3.9120     1.0850 H     1 <1>   0.0800 
 43 H       -6.2840     4.6090     0.2690 H     1 <1>   0.0800 
 44 H       -5.6970     4.0200     1.7800 H     1 <1>   0.0800 
 45 H       -5.8480     2.7100    -1.3990 H     1 <1>   0.4000 
 46 H       -7.3320     2.1890     2.2870 H     1 <1>   0.0800 
 47 H       -7.9760     1.2500     0.9650 H     1 <1>   0.0800 
 48 H       -8.2780     2.9730     1.0490 H     1 <1>   0.0800 
@<TRIPOS>BOND
  1   1   2  2   
  2   1   3  2   
  3   1   4  am  
  4   1   5  1   
  5   4   6  1   
  6   4   7  1   
  7   5   8  ar  
  8   5   9  ar  
  9   6  10  1   
 10   6  27  1   
 11   6  28  1   
 12   7  11  1   
 13   7  29  1   
 14   7  30  1   
 15   8  12  ar  
 16   8  31  1   
 17   9  13  ar  
 18   9  32  1   
 19  10  14  1   
 20  10  33  1   
 21  10  34  1   
 22  11  14  1   
 23  11  35  1   
 24  11  36  1   
 25  12  15  ar  
 26  12  37  1   
 27  13  15  ar  
 28  13  38  1   
 29  14  16  1   
 30  14  17  1   
 31  15  18  1   
 32  16  19  1   
 33  17  20  1   
 34  17  39  1   
 35  17  40  1   
 36  18  21  1   
 37  18  22  1   
 38  18  23  1   
 39  19  24  1   
 40  19  41  1   
 41  19  42  1   
 42  20  24  1   
 43  20  25  1   
 44  20  26  1   
 45  24  43  1   
 46  24  44  1   
 47  25  45  1   
 48  26  46  1   
 49  26  47  1   
 50  26  48  1   
@<TRIPOS>SUBSTRUCTURE
  1 ****   6 GROUP 4 **** **** 0

# MOE 2024.06 (io_trps.svl 2023.06)
