@<TRIPOS>MOLECULE
NONAME
52 54 1 0 0 
SMALL
USER_CHARGES


@<TRIPOS>ATOM
  1 O       -0.0430     3.1340     2.1460 O.co2 1 <1>  -0.9000 
  2 C       -0.7420     2.3380     1.5120 C.2   1 <1>   0.9060 
  3 O       -1.5840     1.6170     2.0460 O.co2 1 <1>  -0.9000 
  4 C       -0.6490     2.3270     0.0040 C.3   1 <1>  -0.1860 
  5 C       -2.0030     2.6060    -0.6480 C.3   1 <1>   0.2000 
  6 C        0.3690     3.3760    -0.4440 C.3   1 <1>   0.3430 
  7 O       -2.8950     1.6440    -0.2470 O.3   1 <1>  -0.6800 
  8 C       -2.5580     3.9830    -0.2630 C.3   1 <1>  -0.1600 
  9 N       -0.2360     4.7450    -0.6860 N.4   1 <1>  -0.9590 
 10 C       -1.4570     4.9640     0.1500 C.3   1 <1>   0.3430 
 11 C        0.7420     5.8560    -0.4810 C.3   1 <1>   0.4230 
 12 C        1.8130     5.8160    -1.5730 C.3   1 <1>  -0.1600 
 13 C        1.3640     5.8720     0.9250 C.3   1 <1>  -0.1600 
 14 C        2.7460     7.0150    -1.4230 C.3   1 <1>   0.2090 
 15 C        2.3110     7.0590     1.0600 C.3   1 <1>   0.2090 
 16 N        3.2910     7.0030    -0.0490 N.pl3 1 <1>  -0.8380 
 17 C        4.5460     7.5610     0.1850 C.ar  1 <1>   0.1000 
 18 C        4.9160     8.7880    -0.3560 C.ar  1 <1>  -0.1500 
 19 C        5.4580     6.8870     0.9860 C.ar  1 <1>  -0.1500 
 20 C        6.1660     9.3290    -0.1080 C.ar  1 <1>  -0.1430 
 21 C        6.7120     7.4140     1.2430 C.ar  1 <1>  -0.1430 
 22 C        7.0610     8.6370     0.6930 C.ar  1 <1>  -0.1500 
 23 C        6.5680    10.6680    -0.6990 C.3   1 <1>  -0.0970 
 24 C        7.6960     6.6620     2.1200 C.3   1 <1>  -0.0970 
 25 H       -0.2950     1.3560    -0.2830 H     1 <1>   0.0800 
 26 H       -1.9170     2.5300    -1.7190 H     1 <1>   0.0800 
 27 H        0.8350     3.0390    -1.3540 H     1 <1>   0.0800 
 28 H        1.1420     3.4280     0.3030 H     1 <1>   0.0800 
 29 H       -2.6910     1.4360     0.7140 H     1 <1>   0.4000 
 30 H       -3.1130     4.3860    -1.0900 H     1 <1>   0.0800 
 31 H       -3.2330     3.8880     0.5710 H     1 <1>   0.0800 
 32 H       -0.5430     4.7720    -1.6620 H     1 <1>   0.4500 
 33 H       -1.2110     4.8040     1.1890 H     1 <1>   0.0800 
 34 H       -1.8150     5.9740     0.0460 H     1 <1>   0.0800 
 35 H        0.2120     6.7870    -0.5980 H     1 <1>   0.0800 
 36 H        2.4070     4.9230    -1.4950 H     1 <1>   0.0800 
 37 H        1.3600     5.8530    -2.5460 H     1 <1>   0.0800 
 38 H        0.6060     5.9480     1.6830 H     1 <1>   0.0800 
 39 H        1.9370     4.9850     1.1180 H     1 <1>   0.0800 
 40 H        2.2170     7.9370    -1.5920 H     1 <1>   0.0800 
 41 H        3.5550     6.9460    -2.1320 H     1 <1>   0.0800 
 42 H        2.8250     7.0140     2.0060 H     1 <1>   0.0800 
 43 H        1.7690     7.9890     1.0130 H     1 <1>   0.0800 
 44 H        4.2150     9.3210    -0.9670 H     1 <1>   0.1500 
 45 H        5.1700     5.9400     1.4010 H     1 <1>   0.1500 
 46 H        8.0320     9.0540     0.8890 H     1 <1>   0.1500 
 47 H        7.4220    10.5410    -1.3390 H     1 <1>   0.0800 
 48 H        6.8220    11.3530     0.0900 H     1 <1>   0.0800 
 49 H        5.7660    11.0910    -1.2750 H     1 <1>   0.0800 
 50 H        8.7040     6.8430     1.7940 H     1 <1>   0.0800 
 51 H        7.5090     5.6040     2.0730 H     1 <1>   0.0800 
 52 H        7.5940     6.9880     3.1400 H     1 <1>   0.0800 
@<TRIPOS>BOND
  1   1   2  ar  
  2   2   3  ar  
  3   2   4  1   
  4   4   5  1   
  5   4   6  1   
  6   4  25  1   
  7   5   7  1   
  8   5   8  1   
  9   5  26  1   
 10   6   9  1   
 11   6  27  1   
 12   6  28  1   
 13   7  29  1   
 14   8  10  1   
 15   8  30  1   
 16   8  31  1   
 17   9  10  1   
 18   9  11  1   
 19   9  32  1   
 20  10  33  1   
 21  10  34  1   
 22  11  12  1   
 23  11  13  1   
 24  11  35  1   
 25  12  14  1   
 26  12  36  1   
 27  12  37  1   
 28  13  15  1   
 29  13  38  1   
 30  13  39  1   
 31  14  16  1   
 32  14  40  1   
 33  14  41  1   
 34  15  16  1   
 35  15  42  1   
 36  15  43  1   
 37  16  17  1   
 38  17  18  ar  
 39  17  19  ar  
 40  18  20  ar  
 41  18  44  1   
 42  19  21  ar  
 43  19  45  1   
 44  20  22  ar  
 45  20  23  1   
 46  21  22  ar  
 47  21  24  1   
 48  22  46  1   
 49  23  47  1   
 50  23  48  1   
 51  23  49  1   
 52  24  50  1   
 53  24  51  1   
 54  24  52  1   
@<TRIPOS>SUBSTRUCTURE
  1 ****  13 GROUP 4 **** **** 0

# MOE 2024.06 (io_trps.svl 2023.06)
