@<TRIPOS>MOLECULE
NONAME
49 52 1 0 0 
SMALL
USER_CHARGES


@<TRIPOS>ATOM
  1 S       -1.3170     0.3340     0.3240 S.3   1 <1>  -0.0800 
  2 C        0.1450     1.2360     0.7410 C.ar  1 <1>   0.0400 
  3 C       -0.4280    -0.6990    -0.8010 C.2   1 <1>  -0.1400 
  4 C        1.2270     0.7390     0.0300 C.ar  1 <1>   0.0000 
  5 C        0.2400     2.2840     1.6370 C.ar  1 <1>  -0.1500 
  6 C        0.8720    -0.3530    -0.8350 C.2   1 <1>  -0.1500 
  7 C       -1.2130    -1.7710    -1.5230 C.3   1 <1>   0.5230 
  8 C        2.4690     1.3330     0.2350 C.ar  1 <1>  -0.1500 
  9 C        1.4840     2.8590     1.8270 C.ar  1 <1>  -0.1500 
 10 N       -1.6750    -2.7400    -0.5010 N.4   1 <1>  -0.9590 
 11 C        2.5900     2.3840     1.1280 C.ar  1 <1>  -0.1500 
 12 C       -1.3080    -4.1450    -0.9140 C.3   1 <1>   0.3430 
 13 C       -3.1270    -2.5130    -0.1990 C.3   1 <1>   0.3430 
 14 C       -1.7720    -5.2410     0.0630 C.3   1 <1>   0.1400 
 15 C       -3.4740    -3.0060     1.2110 C.3   1 <1>  -0.1600 
 16 N       -3.2570    -5.2440     0.1440 N.am  1 <1>  -0.6600 
 17 C       -3.8110    -4.5010     1.3050 C.3   1 <1>   0.1400 
 18 C       -3.9850    -5.6480    -0.9600 C.2   1 <1>   0.5690 
 19 O       -3.4060    -6.1160    -1.9150 O.2   1 <1>  -0.5700 
 20 C       -5.5100    -5.4540    -1.0910 C.3   1 <1>   0.2610 
 21 O       -5.9110    -4.1350    -0.8140 O.3   1 <1>  -0.5600 
 22 C       -6.3690    -6.3350    -0.1810 C.3   1 <1>  -0.1600 
 23 C       -7.2710    -4.1300    -0.5290 C.3   1 <1>   0.1200 
 24 C       -7.5280    -5.4310     0.2240 C.3   1 <1>  -0.1600 
 25 H       -0.6270     2.6370     2.1660 H     1 <1>   0.1500 
 26 H        1.6380    -0.8120    -1.4370 H     1 <1>   0.1500 
 27 H       -0.5710    -2.2560    -2.2400 H     1 <1>   0.0800 
 28 H       -2.0480    -1.3350    -2.0490 H     1 <1>   0.0800 
 29 H        3.3300     0.9740    -0.3010 H     1 <1>   0.1500 
 30 H        1.6000     3.6780     2.5170 H     1 <1>   0.1500 
 31 H       -1.1500    -2.4980     0.3490 H     1 <1>   0.4500 
 32 H        3.5510     2.8430     1.2870 H     1 <1>   0.1500 
 33 H       -0.2380    -4.2160    -1.0180 H     1 <1>   0.0800 
 34 H       -1.7410    -4.3610    -1.8780 H     1 <1>   0.0800 
 35 H       -3.7520    -2.9990    -0.9310 H     1 <1>   0.0800 
 36 H       -3.3350    -1.4560    -0.2390 H     1 <1>   0.0800 
 37 H       -1.3350    -5.0930     1.0350 H     1 <1>   0.0800 
 38 H       -1.4410    -6.1990    -0.3030 H     1 <1>   0.0800 
 39 H       -4.3440    -2.4680     1.5430 H     1 <1>   0.0800 
 40 H       -2.6850    -2.7600     1.8980 H     1 <1>   0.0800 
 41 H       -4.8780    -4.6220     1.3510 H     1 <1>   0.0800 
 42 H       -3.4140    -4.9130     2.2170 H     1 <1>   0.0800 
 43 H       -5.7830    -5.6460    -2.1140 H     1 <1>   0.0800 
 44 H       -5.8150    -6.6610     0.6810 H     1 <1>   0.0800 
 45 H       -6.7070    -7.2030    -0.7200 H     1 <1>   0.0800 
 46 H       -7.8080    -4.1100    -1.4640 H     1 <1>   0.0800 
 47 H       -7.5130    -3.2580     0.0540 H     1 <1>   0.0800 
 48 H       -7.5130    -5.2470     1.2840 H     1 <1>   0.0800 
 49 H       -8.4830    -5.8480    -0.0440 H     1 <1>   0.0800 
@<TRIPOS>BOND
  1   1   2  1   
  2   1   3  1   
  3   2   4  ar  
  4   2   5  ar  
  5   3   6  2   
  6   3   7  1   
  7   4   6  1   
  8   4   8  ar  
  9   5   9  ar  
 10   5  25  1   
 11   6  26  1   
 12   7  10  1   
 13   7  27  1   
 14   7  28  1   
 15   8  11  ar  
 16   8  29  1   
 17   9  11  ar  
 18   9  30  1   
 19  10  12  1   
 20  10  13  1   
 21  10  31  1   
 22  11  32  1   
 23  12  14  1   
 24  12  33  1   
 25  12  34  1   
 26  13  15  1   
 27  13  35  1   
 28  13  36  1   
 29  14  16  1   
 30  14  37  1   
 31  14  38  1   
 32  15  17  1   
 33  15  39  1   
 34  15  40  1   
 35  16  17  1   
 36  16  18  am  
 37  17  41  1   
 38  17  42  1   
 39  18  19  2   
 40  18  20  1   
 41  20  21  1   
 42  20  22  1   
 43  20  43  1   
 44  21  23  1   
 45  22  24  1   
 46  22  44  1   
 47  22  45  1   
 48  23  24  1   
 49  23  46  1   
 50  23  47  1   
 51  24  48  1   
 52  24  49  1   
@<TRIPOS>SUBSTRUCTURE
  1 ****  10 GROUP 4 **** **** 0

# MOE 2024.06 (io_trps.svl 2023.06)
