@<TRIPOS>MOLECULE
NONAME
62 64 1 0 0 
SMALL
USER_CHARGES


@<TRIPOS>ATOM
  1 O       -3.4260     1.8580    -1.9040 O.2   1 <1>  -0.5700 
  2 C       -3.0050     0.9820    -1.1860 C.2   1 <1>   0.5690 
  3 N       -3.4130    -0.3250    -1.3450 N.am  1 <1>  -0.6600 
  4 C       -1.9980     1.4210    -0.1130 C.3   1 <1>  -0.0190 
  5 C       -2.9590    -1.4820    -0.4780 C.3   1 <1>   0.3640 
  6 C       -4.5050    -0.5920    -2.3360 C.3   1 <1>   0.1400 
  7 C       -2.4000     2.7110     0.6240 C.3   1 <1>  -0.1600 
  8 C       -0.6010     1.6330    -0.7200 C.3   1 <1>  -0.1600 
  9 C       -1.4400    -1.6310    -0.6130 C.ar  1 <1>  -0.1430 
 10 C       -3.6340    -2.8660    -0.7320 C.3   1 <1>   0.2000 
 11 C       -4.6880    -2.0750    -2.6610 C.3   1 <1>   0.1200 
 12 C       -1.3630     3.0690     1.6910 C.3   1 <1>   0.3430 
 13 C        0.4160     1.9450     0.3710 C.3   1 <1>   0.3430 
 14 C       -0.6340    -1.5360     0.5120 C.ar  1 <1>  -0.1500 
 15 C       -0.8420    -1.8140    -1.8520 C.ar  1 <1>  -0.1500 
 16 O       -4.8170    -2.7860    -1.4750 O.3   1 <1>  -0.5600 
 17 C       -3.9930    -3.5770     0.5820 C.3   1 <1>   0.1200 
 18 N        0.0000     3.1920     1.0850 N.4   1 <1>  -0.9590 
 19 C        0.7440    -1.5420     0.3990 C.ar  1 <1>   0.0820 
 20 C        0.5370    -1.8590    -1.9720 C.ar  1 <1>  -0.1500 
 21 O       -2.8810    -3.6790     1.4150 O.3   1 <1>  -0.6800 
 22 C        0.9900     3.5840     2.1420 C.3   1 <1>   0.3430 
 23 O        1.4530    -1.3300     1.5340 O.3   1 <1>  -0.3630 
 24 C        1.3480    -1.7000    -0.8520 C.ar  1 <1>   0.0820 
 25 C        2.3710     3.9450     1.5750 C.3   1 <1>   0.1200 
 26 C        2.2260    -2.4130     2.0060 C.3   1 <1>   0.0400 
 27 O        2.7080    -1.6620    -0.9310 O.3   1 <1>  -0.3630 
 28 O        3.1340     4.4490     2.6140 O.3   1 <1>  -0.6800 
 29 C        3.3890    -2.0210    -2.1140 C.3   1 <1>   0.0400 
 30 H       -1.9480     0.6660     0.6420 H     1 <1>   0.0800 
 31 H       -3.1840    -1.2120     0.5390 H     1 <1>   0.0800 
 32 H       -5.4300    -0.2090    -1.9420 H     1 <1>   0.0800 
 33 H       -4.2970    -0.0610    -3.2500 H     1 <1>   0.0800 
 34 H       -3.3570     2.5690     1.0940 H     1 <1>   0.0800 
 35 H       -2.5030     3.5260    -0.0720 H     1 <1>   0.0800 
 36 H       -0.6250     2.4310    -1.4430 H     1 <1>   0.0800 
 37 H       -0.2850     0.7530    -1.2440 H     1 <1>   0.0800 
 38 H       -2.9650    -3.4990    -1.2870 H     1 <1>   0.0800 
 39 H       -3.8550    -2.4600    -3.2240 H     1 <1>   0.0800 
 40 H       -5.5890    -2.2170    -3.2320 H     1 <1>   0.0800 
 41 H       -1.3520     2.3000     2.4470 H     1 <1>   0.0800 
 42 H       -1.6420     3.9990     2.1620 H     1 <1>   0.0800 
 43 H        1.3890     2.0720    -0.0760 H     1 <1>   0.0800 
 44 H        0.4700     1.1180     1.0630 H     1 <1>   0.0800 
 45 H       -1.0680    -1.4370     1.4920 H     1 <1>   0.1500 
 46 H       -1.4510    -1.9040    -2.7360 H     1 <1>   0.1500 
 47 H       -4.3640    -4.5690     0.3890 H     1 <1>   0.0800 
 48 H       -4.7420    -3.0130     1.1100 H     1 <1>   0.0800 
 49 H       -0.0520     3.9450     0.3860 H     1 <1>   0.4500 
 50 H        0.9580    -1.9990    -2.9500 H     1 <1>   0.1500 
 51 H       -2.2810    -4.3900     1.1100 H     1 <1>   0.4000 
 52 H        0.6170     4.4440     2.6740 H     1 <1>   0.0800 
 53 H        1.1060     2.7770     2.8470 H     1 <1>   0.0800 
 54 H        2.2940     4.7100     0.8210 H     1 <1>   0.0800 
 55 H        2.8740     3.0770     1.1850 H     1 <1>   0.0800 
 56 H        2.6030    -2.1590     2.9800 H     1 <1>   0.0800 
 57 H        3.0460    -2.5870     1.3340 H     1 <1>   0.0800 
 58 H        1.6020    -3.2870     2.0700 H     1 <1>   0.0800 
 59 H        4.0430     4.6780     2.3220 H     1 <1>   0.4000 
 60 H        4.4440    -2.0020    -1.9120 H     1 <1>   0.0800 
 61 H        3.1540    -1.3090    -2.8850 H     1 <1>   0.0800 
 62 H        3.0910    -3.0140    -2.4020 H     1 <1>   0.0800 
@<TRIPOS>BOND
  1   1   2  2   
  2   2   3  am  
  3   2   4  1   
  4   3   5  1   
  5   3   6  1   
  6   4   7  1   
  7   4   8  1   
  8   4  30  1   
  9   5   9  1   
 10   5  10  1   
 11   5  31  1   
 12   6  11  1   
 13   6  32  1   
 14   6  33  1   
 15   7  12  1   
 16   7  34  1   
 17   7  35  1   
 18   8  13  1   
 19   8  36  1   
 20   8  37  1   
 21   9  14  ar  
 22   9  15  ar  
 23  10  16  1   
 24  10  17  1   
 25  10  38  1   
 26  11  16  1   
 27  11  39  1   
 28  11  40  1   
 29  12  18  1   
 30  12  41  1   
 31  12  42  1   
 32  13  18  1   
 33  13  43  1   
 34  13  44  1   
 35  14  19  ar  
 36  14  45  1   
 37  15  20  ar  
 38  15  46  1   
 39  17  21  1   
 40  17  47  1   
 41  17  48  1   
 42  18  22  1   
 43  18  49  1   
 44  19  23  1   
 45  19  24  ar  
 46  20  24  ar  
 47  20  50  1   
 48  21  51  1   
 49  22  25  1   
 50  22  52  1   
 51  22  53  1   
 52  23  26  1   
 53  24  27  1   
 54  25  28  1   
 55  25  54  1   
 56  25  55  1   
 57  26  56  1   
 58  26  57  1   
 59  26  58  1   
 60  27  29  1   
 61  28  59  1   
 62  29  60  1   
 63  29  61  1   
 64  29  62  1   
@<TRIPOS>SUBSTRUCTURE
  1 ****  14 GROUP 4 **** **** 0

# MOE 2024.06 (io_trps.svl 2023.06)
