@<TRIPOS>MOLECULE
NONAME
38 41 1 0 0 
SMALL
USER_CHARGES


@<TRIPOS>ATOM
  1 O        1.0690    -0.1010     1.3890 O.3   1 <1>  -0.6800 
  2 C        1.4470    -0.1350     0.0480 C.3   1 <1>   0.2000 
  3 C        2.2510    -1.4080    -0.2510 C.3   1 <1>  -0.0800 
  4 C        2.4260     1.0130    -0.2390 C.3   1 <1>   0.2090 
  5 C        3.6930    -1.0320     0.0900 C.3   1 <1>   0.2090 
  6 C        1.7750    -2.6940     0.4480 C.3   1 <1>  -0.0170 
  7 N        3.7870     0.4150    -0.1960 N.pl3 1 <1>  -0.8380 
  8 C        2.6150    -3.8890     0.0240 C.ar  1 <1>  -0.1440 
  9 C        4.9420     1.1570     0.0010 C.ar  1 <1>   0.4100 
 10 C        2.3480    -4.5950    -1.1310 C.ar  1 <1>  -0.1500 
 11 C        3.6930    -4.3230     0.7690 C.ar  1 <1>  -0.1500 
 12 N        6.0130     0.4900     0.3920 N.ar  1 <1>  -0.6200 
 13 C        5.0120     2.5550    -0.2040 C.ar  1 <1>   0.2270 
 14 C        3.1500    -5.6700    -1.4770 C.ar  1 <1>   0.1600 
 15 C        4.4320    -5.4100     0.3330 C.ar  1 <1>   0.1600 
 16 C        7.1320     1.1990     0.5830 C.ar  1 <1>   0.4700 
 17 N        4.1140     3.5190    -0.6100 N.2   1 <1>  -0.5650 
 18 C        6.2300     3.1400     0.0350 C.ar  1 <1>   0.1050 
 19 N        4.1860    -6.0940    -0.7720 N.ar  1 <1>  -0.6200 
 20 N        7.3250     2.4880     0.4340 N.ar  1 <1>  -0.5670 
 21 C        4.7950     4.6130    -0.5990 C.2   1 <1>   0.0360 
 22 N        6.0870     4.4530    -0.2160 N.pl3 1 <1>   0.0330 
 23 H        0.4100    -0.7930     1.5800 H     1 <1>   0.4000 
 24 H        0.5580    -0.0510    -0.5530 H     1 <1>   0.0800 
 25 H        2.2190    -1.5670    -1.3140 H     1 <1>   0.0800 
 26 H        2.3230     1.8020     0.4860 H     1 <1>   0.0800 
 27 H        2.2560     1.4080    -1.2250 H     1 <1>   0.0800 
 28 H        4.4010    -1.5860    -0.5040 H     1 <1>   0.0800 
 29 H        3.8930    -1.1920     1.1350 H     1 <1>   0.0800 
 30 H        0.7450    -2.8800     0.2000 H     1 <1>   0.0800 
 31 H        1.8410    -2.5820     1.5170 H     1 <1>   0.0800 
 32 H        1.5270    -4.3200    -1.7670 H     1 <1>   0.1500 
 33 H        3.9680    -3.8270     1.6820 H     1 <1>   0.1500 
 34 H        2.9270    -6.2100    -2.3820 H     1 <1>   0.1500 
 35 H        5.2700    -5.7340     0.9260 H     1 <1>   0.1500 
 36 H        7.9850     0.6230     0.9020 H     1 <1>   0.1500 
 37 H        4.3990     5.5790    -0.8650 H     1 <1>   0.1500 
 38 H        6.8230     5.1550    -0.1280 H     1 <1>   0.2700 
@<TRIPOS>BOND
  1   1   2  1   
  2   1  23  1   
  3   2   3  1   
  4   2   4  1   
  5   2  24  1   
  6   3   5  1   
  7   3   6  1   
  8   3  25  1   
  9   4   7  1   
 10   4  26  1   
 11   4  27  1   
 12   5   7  1   
 13   5  28  1   
 14   5  29  1   
 15   6   8  1   
 16   6  30  1   
 17   6  31  1   
 18   7   9  1   
 19   8  10  ar  
 20   8  11  ar  
 21   9  12  ar  
 22   9  13  ar  
 23  10  14  ar  
 24  10  32  1   
 25  11  15  ar  
 26  11  33  1   
 27  12  16  ar  
 28  13  17  1   
 29  13  18  ar  
 30  14  19  ar  
 31  14  34  1   
 32  15  19  ar  
 33  15  35  1   
 34  16  20  ar  
 35  16  36  1   
 36  17  21  2   
 37  18  20  ar  
 38  18  22  1   
 39  21  22  1   
 40  21  37  1   
 41  22  38  1   
@<TRIPOS>SUBSTRUCTURE
  1 ****   5 GROUP 4 **** **** 0

# MOE 2024.06 (io_trps.svl 2023.06)
