@<TRIPOS>MOLECULE
NONAME
50 52 1 0 0 
SMALL
USER_CHARGES


@<TRIPOS>ATOM
  1 O       -0.8500     0.2290    -0.9610 O.2   1 <1>  -0.5700 
  2 C       -1.6450     0.8580    -0.2930 C.2   1 <1>   0.5440 
  3 N       -2.6760     0.1850     0.3230 N.am  1 <1>  -0.6600 
  4 C       -1.5000     2.2890    -0.1860 C.ar  1 <1>   0.0860 
  5 C       -2.6580    -1.3060     0.4690 C.3   1 <1>   0.1400 
  6 C       -4.0490     0.7600     0.4880 C.3   1 <1>   0.1400 
  7 C       -1.7430     2.9790     0.9850 C.ar  1 <1>   0.1600 
  8 C       -1.1030     3.0660    -1.2560 C.ar  1 <1>   0.1600 
  9 C       -3.7460    -1.9570    -0.4000 C.3   1 <1>   0.3440 
 10 C       -5.0790    -0.0050    -0.3760 C.3   1 <1>   0.2000 
 11 N       -1.6450     4.2870     1.0860 N.ar  1 <1>  -0.6200 
 12 N       -0.9920     4.3760    -1.1920 N.ar  1 <1>  -0.6200 
 13 O       -4.9910    -1.3780    -0.1080 O.3   1 <1>  -0.5600 
 14 C       -3.8040    -3.4610    -0.1480 C.ar  1 <1>  -0.1430 
 15 C       -6.5380     0.4430    -0.1240 C.3   1 <1>  -0.0800 
 16 C       -1.2700     4.9190    -0.0160 C.ar  1 <1>   0.4770 
 17 C       -3.0170    -4.3110    -0.9130 C.ar  1 <1>  -0.1500 
 18 C       -4.6160    -4.0030     0.8400 C.ar  1 <1>  -0.1500 
 19 C       -7.5290    -0.3640    -0.9800 C.3   1 <1>  -0.2400 
 20 C       -6.7470     1.9400    -0.4090 C.3   1 <1>  -0.2400 
 21 C       -1.1400     6.4300     0.0800 C.3   1 <1>  -0.0170 
 22 C       -3.0400    -5.6770    -0.6940 C.ar  1 <1>  -0.1500 
 23 C       -4.6400    -5.3690     1.0600 C.ar  1 <1>  -0.1500 
 24 C        0.2690     6.8640     0.5110 C.3   1 <1>  -0.2400 
 25 C       -3.8510    -6.2080     0.2930 C.ar  1 <1>  -0.1500 
 26 H       -1.6980    -1.7060     0.1920 H     1 <1>   0.0800 
 27 H       -2.8310    -1.5650     1.4980 H     1 <1>   0.0800 
 28 H       -4.3380     0.6980     1.5230 H     1 <1>   0.0800 
 29 H       -4.0540     1.7950     0.2000 H     1 <1>   0.0800 
 30 H       -2.0290     2.4300     1.8660 H     1 <1>   0.1500 
 31 H       -0.8740     2.5850    -2.1920 H     1 <1>   0.1500 
 32 H       -3.5330    -1.7800    -1.4400 H     1 <1>   0.0800 
 33 H       -4.8470     0.1420    -1.4170 H     1 <1>   0.0800 
 34 H       -6.7680     0.2650     0.9140 H     1 <1>   0.0800 
 35 H       -2.3800    -3.9120    -1.6830 H     1 <1>   0.1500 
 36 H       -5.2360    -3.3590     1.4400 H     1 <1>   0.1500 
 37 H       -7.3210    -0.2310    -2.0280 H     1 <1>   0.0800 
 38 H       -8.5390    -0.0490    -0.7860 H     1 <1>   0.0800 
 39 H       -7.4600    -1.4130    -0.7500 H     1 <1>   0.0800 
 40 H       -6.4620     2.1770    -1.4200 H     1 <1>   0.0800 
 41 H       -6.1760     2.5500     0.2670 H     1 <1>   0.0800 
 42 H       -7.7840     2.2000    -0.2810 H     1 <1>   0.0800 
 43 H       -1.3700     6.8620    -0.8770 H     1 <1>   0.0800 
 44 H       -1.8600     6.7990     0.7880 H     1 <1>   0.0800 
 45 H       -2.4260    -6.3280    -1.2920 H     1 <1>   0.1500 
 46 H       -5.2740    -5.7780     1.8270 H     1 <1>   0.1500 
 47 H        0.9960     6.5130    -0.2000 H     1 <1>   0.0800 
 48 H        0.5030     6.4500     1.4770 H     1 <1>   0.0800 
 49 H        0.3280     7.9360     0.5680 H     1 <1>   0.0800 
 50 H       -3.8690    -7.2700     0.4630 H     1 <1>   0.1500 
@<TRIPOS>BOND
  1   1   2  2   
  2   2   3  am  
  3   2   4  1   
  4   3   5  1   
  5   3   6  1   
  6   4   7  ar  
  7   4   8  ar  
  8   5   9  1   
  9   5  26  1   
 10   5  27  1   
 11   6  10  1   
 12   6  28  1   
 13   6  29  1   
 14   7  11  ar  
 15   7  30  1   
 16   8  12  ar  
 17   8  31  1   
 18   9  13  1   
 19   9  14  1   
 20   9  32  1   
 21  10  13  1   
 22  10  15  1   
 23  10  33  1   
 24  11  16  ar  
 25  12  16  ar  
 26  14  17  ar  
 27  14  18  ar  
 28  15  19  1   
 29  15  20  1   
 30  15  34  1   
 31  16  21  1   
 32  17  22  ar  
 33  17  35  1   
 34  18  23  ar  
 35  18  36  1   
 36  19  37  1   
 37  19  38  1   
 38  19  39  1   
 39  20  40  1   
 40  20  41  1   
 41  20  42  1   
 42  21  24  1   
 43  21  43  1   
 44  21  44  1   
 45  22  25  ar  
 46  22  45  1   
 47  23  25  ar  
 48  23  46  1   
 49  24  47  1   
 50  24  48  1   
 51  24  49  1   
 52  25  50  1   
@<TRIPOS>SUBSTRUCTURE
  1 ****   3 GROUP 4 **** **** 0

# MOE 2024.06 (io_trps.svl 2023.06)
