@<TRIPOS>MOLECULE
NONAME
45 49 1 0 0 
SMALL
USER_CHARGES


@<TRIPOS>ATOM
  1 S       -1.6710     1.6690     1.5020 S.3   1 <1>  -0.0800 
  2 C       -2.7610     0.9500     0.3350 C.ar  1 <1>   0.0400 
  3 C       -1.1990     2.8590     0.2950 C.2   1 <1>   0.2280 
  4 C       -2.6630     1.6700    -0.8410 C.ar  1 <1>   0.2270 
  5 C       -3.5940    -0.1400     0.4950 C.ar  1 <1>  -0.1500 
  6 N       -1.7780     2.7430    -0.8310 N.2   1 <1>  -0.5650 
  7 C       -3.4410     1.2670    -1.9160 C.ar  1 <1>  -0.1500 
  8 C       -4.3890    -0.5420    -0.5770 C.ar  1 <1>   0.0860 
  9 C       -4.2850     0.1760    -1.7800 C.ar  1 <1>  -0.1500 
 10 C       -5.2840    -1.6740    -0.4440 C.2   1 <1>   0.5440 
 11 O       -4.8220    -2.7490    -0.1110 O.2   1 <1>  -0.5700 
 12 N       -6.6430    -1.5690    -0.6630 N.am  1 <1>  -0.6600 
 13 C       -7.3730    -0.2700    -0.8080 C.3   1 <1>   0.1400 
 14 C       -7.5170    -2.7850    -0.6170 C.3   1 <1>   0.1400 
 15 C       -8.3570    -0.0500     0.3620 C.3   1 <1>   0.1430 
 16 C       -8.9860    -2.4370    -0.3210 C.3   1 <1>  -0.1600 
 17 C       -9.3170     1.0510    -0.0590 C.ar  1 <1>   0.1670 
 18 C       -9.0860    -1.3600     0.7700 C.3   1 <1>  -0.1600 
 19 C       -7.6410     0.5950     1.5780 C.3   1 <1>  -0.1600 
 20 N      -10.3140     0.9160    -0.9010 N.ar  1 <1>  -0.6200 
 21 C       -9.0060     2.2390     0.5370 C.ar  1 <1>  -0.1430 
 22 C       -7.8060     2.1180     1.4420 C.3   1 <1>  -0.0170 
 23 C      -10.9930     2.0330    -1.1170 C.ar  1 <1>   0.7200 
 24 C       -9.7890     3.3290     0.2410 C.ar  1 <1>   0.1600 
 25 N      -10.8010     3.2340    -0.5920 N.ar  1 <1>  -0.6200 
 26 N      -12.0220     1.9290    -1.9590 N.pl3 1 <1>  -0.9000 
 27 H       -0.4670     3.5880     0.5980 H     1 <1>   0.1500 
 28 H       -3.6270    -0.6760     1.4270 H     1 <1>   0.1500 
 29 H       -3.3720     1.8110    -2.8410 H     1 <1>   0.1500 
 30 H       -4.8810    -0.1410    -2.6190 H     1 <1>   0.1500 
 31 H       -7.9240    -0.2980    -1.7340 H     1 <1>   0.0800 
 32 H       -6.6970     0.5620    -0.8660 H     1 <1>   0.0800 
 33 H       -7.1560    -3.4420     0.1570 H     1 <1>   0.0800 
 34 H       -7.4440    -3.3100    -1.5540 H     1 <1>   0.0800 
 35 H       -9.5020    -3.3270    -0.0070 H     1 <1>   0.0800 
 36 H       -9.4640    -2.0900    -1.2210 H     1 <1>   0.0800 
 37 H      -10.1190    -1.1550     0.9930 H     1 <1>   0.0800 
 38 H       -8.6360    -1.7640     1.6600 H     1 <1>   0.0800 
 39 H       -6.6070     0.3030     1.6460 H     1 <1>   0.0800 
 40 H       -8.1350     0.2950     2.4860 H     1 <1>   0.0800 
 41 H       -6.9450     2.5550     0.9660 H     1 <1>   0.0800 
 42 H       -7.9740     2.5850     2.3970 H     1 <1>   0.0800 
 43 H       -9.5840     4.2860     0.6900 H     1 <1>   0.1500 
 44 H      -12.7130     2.6700    -1.8870 H     1 <1>   0.4000 
 45 H      -12.3720     0.9860    -2.0980 H     1 <1>   0.4000 
@<TRIPOS>BOND
  1   1   2  1   
  2   1   3  1   
  3   2   4  ar  
  4   2   5  ar  
  5   3   6  2   
  6   3  27  1   
  7   4   6  1   
  8   4   7  ar  
  9   5   8  ar  
 10   5  28  1   
 11   7   9  ar  
 12   7  29  1   
 13   8   9  ar  
 14   8  10  1   
 15   9  30  1   
 16  10  11  2   
 17  10  12  am  
 18  12  13  1   
 19  12  14  1   
 20  13  15  1   
 21  13  31  1   
 22  13  32  1   
 23  14  16  1   
 24  14  33  1   
 25  14  34  1   
 26  15  17  1   
 27  15  18  1   
 28  15  19  1   
 29  16  18  1   
 30  16  35  1   
 31  16  36  1   
 32  17  20  ar  
 33  17  21  ar  
 34  18  37  1   
 35  18  38  1   
 36  19  22  1   
 37  19  39  1   
 38  19  40  1   
 39  20  23  ar  
 40  21  22  1   
 41  21  24  ar  
 42  22  41  1   
 43  22  42  1   
 44  23  25  ar  
 45  23  26  1   
 46  24  25  ar  
 47  24  43  1   
 48  26  44  1   
 49  26  45  1   
@<TRIPOS>SUBSTRUCTURE
  1 ****  13 GROUP 4 **** **** 0

# MOE 2024.06 (io_trps.svl 2023.06)
