@<TRIPOS>MOLECULE
NONAME
54 57 1 0 0 
SMALL
USER_CHARGES


@<TRIPOS>ATOM
  1 S        1.1000    -0.5790     1.6290 S.3   1 <1>  -0.0800 
  2 C        1.4870    -1.1050     0.0010 C.2   1 <1>  -0.1400 
  3 C        1.3950     1.0960     1.2100 C.2   1 <1>  -0.1100 
  4 C        1.7990    -0.0450    -0.7710 C.2   1 <1>  -0.1500 
  5 C        1.4300    -2.5990    -0.2630 C.3   1 <1>   0.5230 
  6 C        1.7540     1.2180    -0.0870 C.2   1 <1>  -0.1810 
  7 N        0.0780    -3.1060     0.0790 N.4   1 <1>  -0.9590 
  8 C        2.1230     2.4920    -0.8410 C.3   1 <1>   0.5240 
  9 C       -1.0420    -2.5710    -0.7430 C.3   1 <1>   0.3430 
 10 C       -0.0670    -4.5900     0.0750 C.3   1 <1>   0.3430 
 11 N        1.8790     3.6960    -0.0060 N.4   1 <1>  -0.9590 
 12 C       -2.1950    -3.5250    -0.4320 C.3   1 <1>   0.2000 
 13 C       -1.4930    -4.8870    -0.4140 C.3   1 <1>  -0.0800 
 14 C        0.4420     4.0300     0.1590 C.3   1 <1>   0.3430 
 15 C        2.5220     4.9210    -0.5380 C.3   1 <1>   0.3430 
 16 O       -2.6570    -3.2180     0.8440 O.3   1 <1>  -0.6800 
 17 C       -2.1810    -6.0070     0.3890 C.3   1 <1>  -0.0170 
 18 C        0.4450     5.4840     0.6080 C.3   1 <1>  -0.1600 
 19 C        1.7900     6.0600     0.1570 C.3   1 <1>  -0.1600 
 20 C       -1.3120    -7.2540     0.3940 C.ar  1 <1>  -0.1430 
 21 C       -0.6150    -7.6540     1.5180 C.ar  1 <1>  -0.1500 
 22 C       -1.1690    -8.0480    -0.7270 C.ar  1 <1>  -0.1500 
 23 C        0.1850    -8.7830     1.4610 C.ar  1 <1>   0.1600 
 24 C       -0.3420    -9.1580    -0.6790 C.ar  1 <1>   0.1600 
 25 N        0.3460    -9.5340     0.3850 N.ar  1 <1>  -0.6200 
 26 H        1.2670     1.8060     2.0090 H     1 <1>   0.1500 
 27 H        2.0780    -0.1030    -1.8110 H     1 <1>   0.1500 
 28 H        2.1690    -3.0910     0.3490 H     1 <1>   0.0800 
 29 H        1.6540    -2.8010    -1.2980 H     1 <1>   0.0800 
 30 H       -0.1410    -2.7910     1.0380 H     1 <1>   0.4500 
 31 H        1.5470     2.5560    -1.7500 H     1 <1>   0.0800 
 32 H        3.1660     2.4410    -1.1080 H     1 <1>   0.0800 
 33 H       -1.2900    -1.5560    -0.4770 H     1 <1>   0.0800 
 34 H       -0.7960    -2.6260    -1.7900 H     1 <1>   0.0800 
 35 H        0.6490    -5.0530    -0.5860 H     1 <1>   0.0800 
 36 H        0.0780    -4.9770     1.0710 H     1 <1>   0.0800 
 37 H        2.2730     3.5170     0.9250 H     1 <1>   0.4500 
 38 H       -3.0070    -3.4500    -1.1360 H     1 <1>   0.0800 
 39 H       -1.4060    -5.2210    -1.4340 H     1 <1>   0.0800 
 40 H       -0.0650     3.9490    -0.7900 H     1 <1>   0.0800 
 41 H       -0.0420     3.3890     0.8790 H     1 <1>   0.0800 
 42 H        3.5810     4.9430    -0.3320 H     1 <1>   0.0800 
 43 H        2.3610     4.9900    -1.6030 H     1 <1>   0.0800 
 44 H       -3.5320    -3.6280     1.0160 H     1 <1>   0.4000 
 45 H       -3.1370    -6.2400    -0.0480 H     1 <1>   0.0800 
 46 H       -2.3530    -5.6980     1.4060 H     1 <1>   0.0800 
 47 H       -0.3850     6.0140     0.1710 H     1 <1>   0.0800 
 48 H        0.3540     5.5360     1.6800 H     1 <1>   0.0800 
 49 H        2.3590     6.3960     1.0070 H     1 <1>   0.0800 
 50 H        1.6640     6.8920    -0.5160 H     1 <1>   0.0800 
 51 H       -0.6850    -7.1080     2.4410 H     1 <1>   0.1500 
 52 H       -1.6920    -7.8230    -1.6390 H     1 <1>   0.1500 
 53 H        0.7210    -9.0850     2.3450 H     1 <1>   0.1500 
 54 H       -0.2410    -9.7690    -1.5610 H     1 <1>   0.1500 
@<TRIPOS>BOND
  1   1   2  1   
  2   1   3  1   
  3   2   4  2   
  4   2   5  1   
  5   3   6  2   
  6   3  26  1   
  7   4   6  1   
  8   4  27  1   
  9   5   7  1   
 10   5  28  1   
 11   5  29  1   
 12   6   8  1   
 13   7   9  1   
 14   7  10  1   
 15   7  30  1   
 16   8  11  1   
 17   8  31  1   
 18   8  32  1   
 19   9  12  1   
 20   9  33  1   
 21   9  34  1   
 22  10  13  1   
 23  10  35  1   
 24  10  36  1   
 25  11  14  1   
 26  11  15  1   
 27  11  37  1   
 28  12  13  1   
 29  12  16  1   
 30  12  38  1   
 31  13  17  1   
 32  13  39  1   
 33  14  18  1   
 34  14  40  1   
 35  14  41  1   
 36  15  19  1   
 37  15  42  1   
 38  15  43  1   
 39  16  44  1   
 40  17  20  1   
 41  17  45  1   
 42  17  46  1   
 43  18  19  1   
 44  18  47  1   
 45  18  48  1   
 46  19  49  1   
 47  19  50  1   
 48  20  21  ar  
 49  20  22  ar  
 50  21  23  ar  
 51  21  51  1   
 52  22  24  ar  
 53  22  52  1   
 54  23  25  ar  
 55  23  53  1   
 56  24  25  ar  
 57  24  54  1   
@<TRIPOS>SUBSTRUCTURE
  1 ****   7 GROUP 4 **** **** 0

# MOE 2024.06 (io_trps.svl 2023.06)
