@<TRIPOS>MOLECULE
NONAME
49 51 1 0 0 
SMALL
USER_CHARGES


@<TRIPOS>ATOM
  1 O       -0.6250     0.2600     0.4700 O.3   1 <1>  -0.5600 
  2 C        0.0150    -0.8910     0.0070 C.3   1 <1>   0.2800 
  3 C       -1.8920     0.6210    -0.0060 C.3   1 <1>   0.1200 
  4 C       -0.7100    -1.5180    -1.2120 C.3   1 <1>  -0.1600 
  5 C        0.1110    -1.8310     1.2170 C.3   1 <1>  -0.1600 
  6 C        1.4310    -0.4410    -0.3740 C.3   1 <1>  -0.1600 
  7 C       -2.7970    -0.6090    -0.0630 C.3   1 <1>  -0.1600 
  8 C       -2.2370    -1.6400    -1.0480 C.3   1 <1>   0.2800 
  9 C        1.0420    -3.0100     0.9540 C.3   1 <1>   0.3430 
 10 C        2.3510    -1.6280    -0.6370 C.3   1 <1>   0.3430 
 11 O       -2.7800    -1.3690    -2.2800 O.3   1 <1>  -0.6800 
 12 C       -2.6990    -3.0590    -0.7110 C.3   1 <1>  -0.2400 
 13 N        2.3930    -2.5100     0.5700 N.4   1 <1>  -0.9590 
 14 C        3.3610    -3.6340     0.4100 C.3   1 <1>   0.4860 
 15 C        4.7470    -3.0730     0.1720 C.ar  1 <1>  -0.1430 
 16 C        5.4610    -2.5170     1.2210 C.ar  1 <1>   0.1600 
 17 C        5.3220    -3.0960    -1.0860 C.ar  1 <1>  -0.1500 
 18 N        6.6550    -1.9730     1.1130 N.ar  1 <1>  -0.6200 
 19 C        6.5760    -2.5400    -1.2110 C.ar  1 <1>  -0.1500 
 20 C        7.2010    -1.9890    -0.0930 C.ar  1 <1>   0.3930 
 21 O        8.4240    -1.4240    -0.1510 O.3   1 <1>  -0.3630 
 22 C        9.2400    -1.4650    -1.3010 C.3   1 <1>   0.0400 
 23 H       -1.7760     1.0690    -0.9780 H     1 <1>   0.0800 
 24 H       -2.2950     1.3570     0.6680 H     1 <1>   0.0800 
 25 H       -0.2990    -2.4800    -1.4470 H     1 <1>   0.0800 
 26 H       -0.5040    -0.8880    -2.0600 H     1 <1>   0.0800 
 27 H       -0.8600    -2.2020     1.4810 H     1 <1>   0.0800 
 28 H        0.4800    -1.2830     2.0660 H     1 <1>   0.0800 
 29 H        1.8490     0.1560     0.4180 H     1 <1>   0.0800 
 30 H        1.3930     0.1760    -1.2540 H     1 <1>   0.0800 
 31 H       -3.7980    -0.3290    -0.3390 H     1 <1>   0.0800 
 32 H       -2.8500    -1.0240     0.9270 H     1 <1>   0.0800 
 33 H        0.6360    -3.6210     0.1630 H     1 <1>   0.0800 
 34 H        1.1100    -3.6130     1.8460 H     1 <1>   0.0800 
 35 H        3.3400    -1.2610    -0.8630 H     1 <1>   0.0800 
 36 H        1.9940    -2.1840    -1.4890 H     1 <1>   0.0800 
 37 H       -2.6950    -0.4210    -2.4890 H     1 <1>   0.4000 
 38 H       -2.3230    -3.3780     0.2400 H     1 <1>   0.0800 
 39 H       -2.3650    -3.7510    -1.4640 H     1 <1>   0.0800 
 40 H       -3.7740    -3.0910    -0.6710 H     1 <1>   0.0800 
 41 H        2.7360    -1.9200     1.3400 H     1 <1>   0.4500 
 42 H        3.0730    -4.2560    -0.4220 H     1 <1>   0.0800 
 43 H        3.3730    -4.2430     1.3000 H     1 <1>   0.0800 
 44 H        5.0370    -2.5100     2.2110 H     1 <1>   0.1500 
 45 H        4.8290    -3.5260    -1.9420 H     1 <1>   0.1500 
 46 H        7.0580    -2.5360    -2.1690 H     1 <1>   0.1500 
 47 H       10.1770    -0.9970    -1.0590 H     1 <1>   0.0800 
 48 H        8.7570    -0.9220    -2.0940 H     1 <1>   0.0800 
 49 H        9.4060    -2.4910    -1.5780 H     1 <1>   0.0800 
@<TRIPOS>BOND
  1   1   2  1   
  2   1   3  1   
  3   2   4  1   
  4   2   5  1   
  5   2   6  1   
  6   3   7  1   
  7   3  23  1   
  8   3  24  1   
  9   4   8  1   
 10   4  25  1   
 11   4  26  1   
 12   5   9  1   
 13   5  27  1   
 14   5  28  1   
 15   6  10  1   
 16   6  29  1   
 17   6  30  1   
 18   7   8  1   
 19   7  31  1   
 20   7  32  1   
 21   8  11  1   
 22   8  12  1   
 23   9  13  1   
 24   9  33  1   
 25   9  34  1   
 26  10  13  1   
 27  10  35  1   
 28  10  36  1   
 29  11  37  1   
 30  12  38  1   
 31  12  39  1   
 32  12  40  1   
 33  13  14  1   
 34  13  41  1   
 35  14  15  1   
 36  14  42  1   
 37  14  43  1   
 38  15  16  ar  
 39  15  17  ar  
 40  16  18  ar  
 41  16  44  1   
 42  17  19  ar  
 43  17  45  1   
 44  18  20  ar  
 45  19  20  ar  
 46  19  46  1   
 47  20  21  1   
 48  21  22  1   
 49  22  47  1   
 50  22  48  1   
 51  22  49  1   
@<TRIPOS>SUBSTRUCTURE
  1 ****  10 GROUP 4 **** **** 0

# MOE 2024.06 (io_trps.svl 2023.06)
