@<TRIPOS>MOLECULE
NONAME
38 39 1 0 0 
SMALL
USER_CHARGES


@<TRIPOS>ATOM
  1 O        0.0580     0.3800    -0.7050 O.2   1 <1>  -0.5700 
  2 C        0.7150     1.3520    -0.3940 C.2   1 <1>   0.7800 
  3 O        0.1370     2.5450    -0.2220 O.3   1 <1>  -0.4300 
  4 N        2.0590     1.3050    -0.1990 N.am  1 <1>  -0.6600 
  5 C       -1.2310     2.8620    -0.3630 C.3   1 <1>   0.2800 
  6 C        2.9220     0.0960    -0.3350 C.3   1 <1>   0.4810 
  7 C        2.8500     2.5110     0.1750 C.3   1 <1>   0.3210 
  8 C       -1.6880     2.6170    -1.8060 C.3   1 <1>  -0.2400 
  9 C       -1.3260     4.3570    -0.0530 C.3   1 <1>  -0.2400 
 10 C       -2.0670     2.0810     0.6570 C.3   1 <1>  -0.2400 
 11 C        4.3030     0.6460    -0.0020 C.2   1 <1>   0.1080 
 12 C        2.5230    -0.9740     0.6840 C.3   1 <1>  -0.2400 
 13 C        2.8980    -0.4300    -1.7720 C.3   1 <1>  -0.2400 
 14 C        4.2550     1.9880     0.2840 C.2   1 <1>  -0.1810 
 15 N        5.5020     0.1470     0.0710 N.2   1 <1>  -0.7070 
 16 C        5.5240     2.3550     0.5640 C.2   1 <1>  -0.0680 
 17 N        6.2650     1.2200     0.4170 N.pl3 1 <1>   0.3000 
 18 N        6.0120     3.6190     0.9200 N.pl3 1 <1>  -0.8840 
 19 H        2.5110     2.9040     1.1170 H     1 <1>   0.0800 
 20 H        2.7790     3.2600    -0.5940 H     1 <1>   0.0800 
 21 H       -1.0380     3.1230    -2.4960 H     1 <1>   0.0800 
 22 H       -2.6870     2.9890    -1.9430 H     1 <1>   0.0800 
 23 H       -1.6990     1.5680    -2.0370 H     1 <1>   0.0800 
 24 H       -0.7260     4.9210    -0.7440 H     1 <1>   0.0800 
 25 H       -0.9870     4.5520     0.9480 H     1 <1>   0.0800 
 26 H       -2.3440     4.6920    -0.1370 H     1 <1>   0.0800 
 27 H       -2.0780     1.0310     0.4280 H     1 <1>   0.0800 
 28 H       -3.0840     2.4260     0.6400 H     1 <1>   0.0800 
 29 H       -1.6750     2.2220     1.6480 H     1 <1>   0.0800 
 30 H        2.5200    -0.5570     1.6740 H     1 <1>   0.0800 
 31 H        3.2380    -1.7760     0.6560 H     1 <1>   0.0800 
 32 H        1.5530    -1.3760     0.4580 H     1 <1>   0.0800 
 33 H        3.1520     0.3580    -2.4570 H     1 <1>   0.0800 
 34 H        1.9310    -0.8250    -2.0200 H     1 <1>   0.0800 
 35 H        3.6230    -1.2160    -1.8760 H     1 <1>   0.0800 
 36 H        7.2820     1.1620     0.5230 H     1 <1>   0.2700 
 37 H        6.7620     3.6320     1.6210 H     1 <1>   0.4000 
 38 H        5.2910     4.3040     1.1670 H     1 <1>   0.4000 
@<TRIPOS>BOND
  1   1   2  2   
  2   2   3  1   
  3   2   4  am  
  4   3   5  1   
  5   4   6  1   
  6   4   7  1   
  7   5   8  1   
  8   5   9  1   
  9   5  10  1   
 10   6  11  1   
 11   6  12  1   
 12   6  13  1   
 13   7  14  1   
 14   7  19  1   
 15   7  20  1   
 16   8  21  1   
 17   8  22  1   
 18   8  23  1   
 19   9  24  1   
 20   9  25  1   
 21   9  26  1   
 22  10  27  1   
 23  10  28  1   
 24  10  29  1   
 25  11  14  1   
 26  11  15  2   
 27  12  30  1   
 28  12  31  1   
 29  12  32  1   
 30  13  33  1   
 31  13  34  1   
 32  13  35  1   
 33  14  16  2   
 34  15  17  1   
 35  16  17  1   
 36  16  18  1   
 37  17  36  1   
 38  18  37  1   
 39  18  38  1   
@<TRIPOS>SUBSTRUCTURE
  1 ****   4 GROUP 4 **** **** 0

# MOE 2024.06 (io_trps.svl 2023.06)
