@<TRIPOS>MOLECULE
NONAME
53 55 1 0 0 
SMALL
USER_CHARGES


@<TRIPOS>ATOM
  1 O        1.1410    -0.9470    -1.8280 O.2   1 <1>  -0.5700 
  2 C        1.8180    -1.2290    -0.8650 C.2   1 <1>   0.5690 
  3 N        2.4280    -0.3010    -0.0720 N.am  1 <1>  -0.4930 
  4 C        1.9980    -2.7150    -0.5170 C.3   1 <1>   0.1710 
  5 C        2.4690     1.1070    -0.2290 C.2   1 <1>   0.0630 
  6 N        0.8180    -3.3950     0.0990 N.3   1 <1>  -0.8100 
  7 C        3.6180     1.9010    -0.1950 C.2   1 <1>   0.1080 
  8 C        1.4550     1.9810    -0.4190 C.2   1 <1>  -0.3320 
  9 C       -0.3230    -3.4300    -0.8500 C.3   1 <1>   0.2780 
 10 C        0.4530    -2.7830     1.3870 C.3   1 <1>   0.0300 
 11 N        3.3530     3.1580    -0.3500 N.2   1 <1>  -0.7070 
 12 C        5.0330     1.4020    -0.0070 C.3   1 <1>  -0.0590 
 13 N        2.0170     3.2140    -0.4990 N.pl3 1 <1>   0.3140 
 14 C       -0.0400     1.7190    -0.5310 C.3   1 <1>  -0.0600 
 15 C       -1.4490    -4.3580    -0.3840 C.2   1 <1>   0.1820 
 16 C        1.3360     4.5050    -0.7330 C.3   1 <1>   0.0960 
 17 N       -1.2460    -5.6800    -0.0230 N.pl3 1 <1>  -0.6290 
 18 C       -2.7680    -4.0940    -0.2500 C.2   1 <1>   0.1820 
 19 C        0.9220     5.1650     0.5880 C.3   1 <1>  -0.2400 
 20 C       -2.4470    -6.1910     0.3230 C.cat 1 <1>   0.7910 
 21 C       -0.1070    -6.4510     0.0610 C.2   1 <1>   0.2290 
 22 N       -3.3800    -5.2360     0.1860 N.pl3 1 <1>  -0.7000 
 23 C       -3.5690    -2.8300    -0.4980 C.3   1 <1>  -0.0720 
 24 C       -2.5610    -7.5260     0.7450 C.2   1 <1>  -0.1410 
 25 C       -0.1940    -7.7490     0.4730 C.2   1 <1>  -0.1500 
 26 C       -1.4410    -8.3100     0.8210 C.2   1 <1>  -0.1500 
 27 H        3.0090    -0.6460     0.6890 H     1 <1>   0.3700 
 28 H        2.8370    -2.8150     0.1490 H     1 <1>   0.0800 
 29 H        2.2610    -3.2310    -1.4240 H     1 <1>   0.0800 
 30 H        0.0250    -3.7870    -1.8040 H     1 <1>   0.0800 
 31 H       -0.7070    -2.4360    -0.9940 H     1 <1>   0.0800 
 32 H        1.3060    -2.7730     2.0440 H     1 <1>   0.0800 
 33 H       -0.3240    -3.3560     1.8640 H     1 <1>   0.0800 
 34 H        0.1060    -1.7720     1.2490 H     1 <1>   0.0800 
 35 H        5.1770     0.4830    -0.5420 H     1 <1>   0.0800 
 36 H        5.2280     1.2490     1.0380 H     1 <1>   0.0800 
 37 H        5.7240     2.1330    -0.3860 H     1 <1>   0.0800 
 38 H       -0.2630     0.6970    -0.2880 H     1 <1>   0.0800 
 39 H       -0.3700     1.9080    -1.5370 H     1 <1>   0.0800 
 40 H       -0.5840     2.3520     0.1460 H     1 <1>   0.0800 
 41 H        0.4780     4.3370    -1.3560 H     1 <1>   0.0800 
 42 H        2.0180     5.1470    -1.2620 H     1 <1>   0.0800 
 43 H        0.2370     4.5350     1.1260 H     1 <1>   0.0800 
 44 H        0.4450     6.1080     0.3930 H     1 <1>   0.0800 
 45 H        1.7930     5.3410     1.1960 H     1 <1>   0.0800 
 46 H        0.8370    -5.9970    -0.2020 H     1 <1>   0.1500 
 47 H       -4.3750    -5.3620     0.3830 H     1 <1>   0.4500 
 48 H       -2.9350    -2.0300    -0.8350 H     1 <1>   0.0800 
 49 H       -4.0560    -2.5200     0.4090 H     1 <1>   0.0800 
 50 H       -4.3170    -3.0110    -1.2490 H     1 <1>   0.0800 
 51 H       -3.5320    -7.9050     1.0030 H     1 <1>   0.1500 
 52 H        0.6870    -8.3640     0.5410 H     1 <1>   0.1500 
 53 H       -1.4860    -9.3390     1.1420 H     1 <1>   0.1500 
@<TRIPOS>BOND
  1   1   2  2   
  2   2   3  am  
  3   2   4  1   
  4   3   5  1   
  5   3  27  1   
  6   4   6  1   
  7   4  28  1   
  8   4  29  1   
  9   5   7  1   
 10   5   8  2   
 11   6   9  1   
 12   6  10  1   
 13   7  11  2   
 14   7  12  1   
 15   8  13  1   
 16   8  14  1   
 17   9  15  1   
 18   9  30  1   
 19   9  31  1   
 20  10  32  1   
 21  10  33  1   
 22  10  34  1   
 23  11  13  1   
 24  12  35  1   
 25  12  36  1   
 26  12  37  1   
 27  13  16  1   
 28  14  38  1   
 29  14  39  1   
 30  14  40  1   
 31  15  17  1   
 32  15  18  2   
 33  16  19  1   
 34  16  41  1   
 35  16  42  1   
 36  17  20  ar  
 37  17  21  1   
 38  18  22  1   
 39  18  23  1   
 40  19  43  1   
 41  19  44  1   
 42  19  45  1   
 43  20  22  ar  
 44  20  24  1   
 45  21  25  2   
 46  21  46  1   
 47  22  47  1   
 48  23  48  1   
 49  23  49  1   
 50  23  50  1   
 51  24  26  2   
 52  24  51  1   
 53  25  26  1   
 54  25  52  1   
 55  26  53  1   
@<TRIPOS>SUBSTRUCTURE
  1 ****   6 GROUP 4 **** **** 0

# MOE 2024.06 (io_trps.svl 2023.06)
