@<TRIPOS>MOLECULE
NONAME
41 42 1 0 0 
SMALL
USER_CHARGES


@<TRIPOS>ATOM
  1 O        0.2840    -0.5080     1.2190 O.2   1 <1>  -0.5700 
  2 C        0.1770    -1.4280     0.4260 C.2   1 <1>   0.7800 
  3 O       -0.9240    -1.5810    -0.3070 O.3   1 <1>  -0.4300 
  4 N        1.1790    -2.3310     0.2260 N.am  1 <1>  -0.6600 
  5 C       -2.2010    -1.0540    -0.0530 C.3   1 <1>   0.2800 
  6 C        0.9810    -3.6790    -0.4250 C.3   1 <1>   0.1140 
  7 C        2.4550    -2.2910     0.9600 C.3   1 <1>   0.1400 
  8 C       -3.1130    -1.7260    -1.0800 C.3   1 <1>  -0.2400 
  9 C       -2.2030     0.4620    -0.2750 C.3   1 <1>  -0.2400 
 10 C       -2.6560    -1.4450     1.3580 C.3   1 <1>  -0.2400 
 11 C       -0.3330    -4.4510    -0.1330 C.2   1 <1>   0.9060 
 12 C        2.2180    -4.4820     0.0060 C.3   1 <1>  -0.1600 
 13 C        3.2800    -3.4410     0.3660 C.3   1 <1>   0.0000 
 14 O       -0.7030    -4.6400     1.0370 O.co2 1 <1>  -0.9000 
 15 O       -0.9610    -4.9280    -1.0900 O.co2 1 <1>  -0.9000 
 16 C        4.0850    -2.9630    -0.8490 C.3   1 <1>  -0.1600 
 17 C        4.3630    -3.9480     1.3180 C.3   1 <1>  -0.1600 
 18 C        5.3900    -2.3980    -0.2790 C.3   1 <1>  -0.1600 
 19 C        5.5420    -2.9910     1.1280 C.3   1 <1>  -0.1600 
 20 H        1.0200    -3.5290    -1.4870 H     1 <1>   0.0800 
 21 H        2.2500    -2.4680     2.0020 H     1 <1>   0.0800 
 22 H        2.9340    -1.3350     0.8450 H     1 <1>   0.0800 
 23 H       -2.7920    -1.4870    -2.0770 H     1 <1>   0.0800 
 24 H       -4.1290    -1.4040    -0.9540 H     1 <1>   0.0800 
 25 H       -3.0730    -2.7960    -0.9540 H     1 <1>   0.0800 
 26 H       -1.8080     0.6930    -1.2480 H     1 <1>   0.0800 
 27 H       -1.6150     0.9590     0.4730 H     1 <1>   0.0800 
 28 H       -3.2060     0.8400    -0.2110 H     1 <1>   0.0800 
 29 H       -2.5540    -2.5090     1.4910 H     1 <1>   0.0800 
 30 H       -3.6850    -1.1780     1.5040 H     1 <1>   0.0800 
 31 H       -2.0710    -0.9430     2.1060 H     1 <1>   0.0800 
 32 H        2.5270    -5.1670    -0.7610 H     1 <1>   0.0800 
 33 H        1.9620    -5.0510     0.8840 H     1 <1>   0.0800 
 34 H        3.5480    -2.2360    -1.4350 H     1 <1>   0.0800 
 35 H        4.3180    -3.8050    -1.4780 H     1 <1>   0.0800 
 36 H        4.6610    -4.9370     1.0150 H     1 <1>   0.0800 
 37 H        4.0270    -3.9860     2.3400 H     1 <1>   0.0800 
 38 H        5.3280    -1.3250    -0.2150 H     1 <1>   0.0800 
 39 H        6.2230    -2.6610    -0.9070 H     1 <1>   0.0800 
 40 H        6.4800    -3.5060     1.2420 H     1 <1>   0.0800 
 41 H        5.4870    -2.2010     1.8570 H     1 <1>   0.0800 
@<TRIPOS>BOND
  1   1   2  2   
  2   2   3  1   
  3   2   4  am  
  4   3   5  1   
  5   4   6  1   
  6   4   7  1   
  7   5   8  1   
  8   5   9  1   
  9   5  10  1   
 10   6  11  1   
 11   6  12  1   
 12   6  20  1   
 13   7  13  1   
 14   7  21  1   
 15   7  22  1   
 16   8  23  1   
 17   8  24  1   
 18   8  25  1   
 19   9  26  1   
 20   9  27  1   
 21   9  28  1   
 22  10  29  1   
 23  10  30  1   
 24  10  31  1   
 25  11  14  ar  
 26  11  15  ar  
 27  12  13  1   
 28  12  32  1   
 29  12  33  1   
 30  13  16  1   
 31  13  17  1   
 32  16  18  1   
 33  16  34  1   
 34  16  35  1   
 35  17  19  1   
 36  17  36  1   
 37  17  37  1   
 38  18  19  1   
 39  18  38  1   
 40  18  39  1   
 41  19  40  1   
 42  19  41  1   
@<TRIPOS>SUBSTRUCTURE
  1 ****   4 GROUP 4 **** **** 0

# MOE 2024.06 (io_trps.svl 2023.06)
