@<TRIPOS>MOLECULE
NONAME
51 55 1 0 0 
SMALL
USER_CHARGES


@<TRIPOS>ATOM
  1 S       -0.0370     0.4330    -0.6810 S.3   1 <1>  -0.0800 
  2 C        0.9210    -1.0510    -0.4910 C.ar  1 <1>   0.0400 
  3 C        1.2960     1.2460    -1.4980 C.2   1 <1>  -0.1100 
  4 C        0.5910    -2.2620     0.1010 C.ar  1 <1>   0.4100 
  5 C        2.1690    -0.8700    -1.0270 C.ar  1 <1>   0.2560 
  6 C        2.3630     0.4310    -1.5950 C.2   1 <1>  -0.1500 
  7 N        1.4970    -3.2230     0.1490 N.ar  1 <1>  -0.6200 
  8 N       -0.6520    -2.5260     0.6470 N.pl3 1 <1>  -0.8380 
  9 N        3.0800    -1.8370    -0.9910 N.ar  1 <1>  -0.5660 
 10 C        2.6760    -2.9460    -0.4010 C.ar  1 <1>   0.4700 
 11 C       -1.8860    -2.3980    -0.1670 C.3   1 <1>   0.2090 
 12 C       -0.7980    -3.3790     1.8570 C.3   1 <1>   0.2090 
 13 C       -2.3500    -3.7890    -0.5960 C.3   1 <1>  -0.1600 
 14 C       -1.2660    -4.7750     1.4480 C.3   1 <1>  -0.1600 
 15 C       -2.5490    -4.7230     0.6080 C.3   1 <1>   0.4240 
 16 O       -3.5250    -4.1550     1.4530 O.3   1 <1>  -0.5600 
 17 C       -2.9500    -6.1420     0.1490 C.ar  1 <1>  -0.1430 
 18 C       -4.8640    -4.3840     1.1380 C.3   1 <1>   0.1200 
 19 C       -4.1880    -6.6840     0.4800 C.ar  1 <1>  -0.1430 
 20 C       -2.0750    -6.9080    -0.6150 C.ar  1 <1>  -0.1500 
 21 C       -5.1620    -5.8700     1.3080 C.3   1 <1>  -0.0170 
 22 C       -4.5390    -7.9560     0.0560 C.ar  1 <1>  -0.1500 
 23 C       -2.4130    -8.1840    -1.0320 C.ar  1 <1>   0.0830 
 24 C       -3.6690    -8.7070    -0.7120 C.ar  1 <1>   0.0830 
 25 O       -1.4860    -8.8770    -1.7380 O.3   1 <1>  -0.3630 
 26 O       -4.0910    -9.9280    -1.1250 O.3   1 <1>  -0.3630 
 27 C       -0.9350   -10.0050    -1.0950 C.3   1 <1>   0.0400 
 28 C       -4.2470   -10.1010    -2.5160 C.3   1 <1>   0.0400 
 29 H        1.1310     2.2600    -1.8180 H     1 <1>   0.1500 
 30 H        3.3070     0.6750    -2.0470 H     1 <1>   0.1500 
 31 H        3.4010    -3.7420    -0.3560 H     1 <1>   0.1500 
 32 H       -1.6990    -1.8020    -1.0420 H     1 <1>   0.0800 
 33 H       -2.6490    -1.9130     0.4190 H     1 <1>   0.0800 
 34 H       -1.5170    -2.9280     2.5200 H     1 <1>   0.0800 
 35 H        0.1420    -3.4440     2.3790 H     1 <1>   0.0800 
 36 H       -1.6010    -4.2010    -1.2460 H     1 <1>   0.0800 
 37 H       -3.2570    -3.7170    -1.1650 H     1 <1>   0.0800 
 38 H       -1.4380    -5.3740     2.3220 H     1 <1>   0.0800 
 39 H       -0.4740    -5.2350     0.8890 H     1 <1>   0.0800 
 40 H       -5.0510    -4.0630     0.1290 H     1 <1>   0.0800 
 41 H       -5.4650    -3.8000     1.8120 H     1 <1>   0.0800 
 42 H       -1.1110    -6.5260    -0.8950 H     1 <1>   0.1500 
 43 H       -6.1720    -6.0660     0.9950 H     1 <1>   0.0800 
 44 H       -5.0690    -6.1380     2.3450 H     1 <1>   0.0800 
 45 H       -5.4950    -8.3760     0.3120 H     1 <1>   0.1500 
 46 H       -0.1640   -10.4090    -1.7260 H     1 <1>   0.0800 
 47 H       -1.7060   -10.7390    -0.9420 H     1 <1>   0.0800 
 48 H       -0.5190    -9.6980    -0.1520 H     1 <1>   0.0800 
 49 H       -4.7060   -11.0580    -2.6870 H     1 <1>   0.0800 
 50 H       -3.2830   -10.0680    -2.9910 H     1 <1>   0.0800 
 51 H       -4.8770    -9.3160    -2.8950 H     1 <1>   0.0800 
@<TRIPOS>BOND
  1   1   2  1   
  2   1   3  1   
  3   2   4  ar  
  4   2   5  ar  
  5   3   6  2   
  6   3  29  1   
  7   4   7  ar  
  8   4   8  1   
  9   5   6  1   
 10   5   9  ar  
 11   6  30  1   
 12   7  10  ar  
 13   8  11  1   
 14   8  12  1   
 15   9  10  ar  
 16  10  31  1   
 17  11  13  1   
 18  11  32  1   
 19  11  33  1   
 20  12  14  1   
 21  12  34  1   
 22  12  35  1   
 23  13  15  1   
 24  13  36  1   
 25  13  37  1   
 26  14  15  1   
 27  14  38  1   
 28  14  39  1   
 29  15  16  1   
 30  15  17  1   
 31  16  18  1   
 32  17  19  ar  
 33  17  20  ar  
 34  18  21  1   
 35  18  40  1   
 36  18  41  1   
 37  19  21  1   
 38  19  22  ar  
 39  20  23  ar  
 40  20  42  1   
 41  21  43  1   
 42  21  44  1   
 43  22  24  ar  
 44  22  45  1   
 45  23  24  ar  
 46  23  25  1   
 47  24  26  1   
 48  25  27  1   
 49  26  28  1   
 50  27  46  1   
 51  27  47  1   
 52  27  48  1   
 53  28  49  1   
 54  28  50  1   
 55  28  51  1   
@<TRIPOS>SUBSTRUCTURE
  1 ****  13 GROUP 4 **** **** 0

# MOE 2024.06 (io_trps.svl 2023.06)
