@<TRIPOS>MOLECULE
NONAME
55 59 1 0 0 
SMALL
USER_CHARGES


@<TRIPOS>ATOM
  1 O       -0.7230     0.5790    -1.0140 O.2   1 <1>  -0.5700 
  2 C       -1.2510     1.4950    -0.4270 C.2   1 <1>   0.5690 
  3 N       -2.5460     1.3860     0.0130 N.am  1 <1>  -0.6600 
  4 C       -0.3930     2.7420    -0.1630 C.3   1 <1>   0.1810 
  5 C       -3.3800     0.1920    -0.2760 C.3   1 <1>   0.1400 
  6 C       -3.3460     2.4620     0.6320 C.3   1 <1>   0.1400 
  7 O       -1.0690     3.9670    -0.3600 O.3   1 <1>  -0.5600 
  8 C       -4.8010     0.5930     0.1150 C.3   1 <1>   0.2800 
  9 C       -4.7060     1.8370     0.9970 C.3   1 <1>  -0.0800 
 10 C       -0.2330     5.0770    -0.2810 C.3   1 <1>   0.0400 
 11 O       -5.5460     1.0820    -0.9440 O.3   1 <1>  -0.5600 
 12 C       -5.7530    -0.4450     0.7020 C.3   1 <1>  -0.1600 
 13 C       -6.0320     2.5660     0.6430 C.3   1 <1>  -0.0800 
 14 C       -6.6660     1.5170    -0.2860 C.3   1 <1>   0.2000 
 15 C       -7.0960     0.2520     0.4710 C.3   1 <1>  -0.1600 
 16 C       -5.8170     3.8960    -0.0990 C.3   1 <1>   0.3430 
 17 N       -6.9930     4.8190    -0.0300 N.4   1 <1>  -0.9590 
 18 C       -8.1550     4.3880    -0.8610 C.3   1 <1>   0.4860 
 19 C       -6.5930     6.2000    -0.4340 C.3   1 <1>   0.3430 
 20 C       -9.2980     5.3800    -0.7260 C.ar  1 <1>  -0.1440 
 21 C       -7.6770     7.2040    -0.0330 C.3   1 <1>  -0.0170 
 22 C       -9.0770     6.7010    -0.3490 C.ar  1 <1>  -0.1440 
 23 C      -10.5900     4.9520    -0.9950 C.ar  1 <1>  -0.1500 
 24 C      -10.1470     7.5750    -0.2460 C.ar  1 <1>  -0.1500 
 25 C      -11.6540     5.8300    -0.8900 C.ar  1 <1>  -0.1500 
 26 C      -11.4320     7.1420    -0.5150 C.ar  1 <1>  -0.1500 
 27 H        0.4520     2.7120    -0.8280 H     1 <1>   0.0800 
 28 H       -0.0400     2.7100     0.8510 H     1 <1>   0.0800 
 29 H       -3.3230    -0.0820    -1.3150 H     1 <1>   0.0800 
 30 H       -3.0380    -0.6250     0.3340 H     1 <1>   0.0800 
 31 H       -2.8440     2.8440     1.5050 H     1 <1>   0.0800 
 32 H       -3.4300     3.2450    -0.0980 H     1 <1>   0.0800 
 33 H       -4.6810     1.5480     2.0340 H     1 <1>   0.0800 
 34 H       -0.8280     5.9600    -0.4280 H     1 <1>   0.0800 
 35 H        0.5150     5.0150    -1.0530 H     1 <1>   0.0800 
 36 H        0.2300     5.1080     0.6910 H     1 <1>   0.0800 
 37 H       -5.6910    -1.3620     0.1410 H     1 <1>   0.0800 
 38 H       -5.5530    -0.6440     1.7400 H     1 <1>   0.0800 
 39 H       -6.6220     2.7200     1.5290 H     1 <1>   0.0800 
 40 H       -7.3970     1.8660    -0.9910 H     1 <1>   0.0800 
 41 H       -7.6060     0.4830     1.3900 H     1 <1>   0.0800 
 42 H       -7.7350    -0.3530    -0.1490 H     1 <1>   0.0800 
 43 H       -5.5490     3.6960    -1.1250 H     1 <1>   0.0800 
 44 H       -4.9820     4.3970     0.3620 H     1 <1>   0.0800 
 45 H       -7.3370     4.8760     0.9370 H     1 <1>   0.4500 
 46 H       -7.8650     4.3160    -1.8960 H     1 <1>   0.0800 
 47 H       -8.5030     3.4240    -0.5330 H     1 <1>   0.0800 
 48 H       -5.6640     6.4770     0.0370 H     1 <1>   0.0800 
 49 H       -6.4540     6.2360    -1.5030 H     1 <1>   0.0800 
 50 H       -7.6060     7.4020     1.0220 H     1 <1>   0.0800 
 51 H       -7.5000     8.1310    -0.5490 H     1 <1>   0.0800 
 52 H      -10.7890     3.9360    -1.2920 H     1 <1>   0.1500 
 53 H       -9.9920     8.6000     0.0460 H     1 <1>   0.1500 
 54 H      -12.6560     5.4950    -1.0990 H     1 <1>   0.1500 
 55 H      -12.2600     7.8260    -0.4340 H     1 <1>   0.1500 
@<TRIPOS>BOND
  1   1   2  2   
  2   2   3  am  
  3   2   4  1   
  4   3   5  1   
  5   3   6  1   
  6   4   7  1   
  7   4  27  1   
  8   4  28  1   
  9   5   8  1   
 10   5  29  1   
 11   5  30  1   
 12   6   9  1   
 13   6  31  1   
 14   6  32  1   
 15   7  10  1   
 16   8   9  1   
 17   8  11  1   
 18   8  12  1   
 19   9  13  1   
 20   9  33  1   
 21  10  34  1   
 22  10  35  1   
 23  10  36  1   
 24  11  14  1   
 25  12  15  1   
 26  12  37  1   
 27  12  38  1   
 28  13  14  1   
 29  13  16  1   
 30  13  39  1   
 31  14  15  1   
 32  14  40  1   
 33  15  41  1   
 34  15  42  1   
 35  16  17  1   
 36  16  43  1   
 37  16  44  1   
 38  17  18  1   
 39  17  19  1   
 40  17  45  1   
 41  18  20  1   
 42  18  46  1   
 43  18  47  1   
 44  19  21  1   
 45  19  48  1   
 46  19  49  1   
 47  20  22  ar  
 48  20  23  ar  
 49  21  22  1   
 50  21  50  1   
 51  21  51  1   
 52  22  24  ar  
 53  23  25  ar  
 54  23  52  1   
 55  24  26  ar  
 56  24  53  1   
 57  25  26  ar  
 58  25  54  1   
 59  26  55  1   
@<TRIPOS>SUBSTRUCTURE
  1 ****  16 GROUP 4 **** **** 0

# MOE 2024.06 (io_trps.svl 2023.06)
