@<TRIPOS>MOLECULE
NONAME
42 42 1 0 0 
SMALL
USER_CHARGES


@<TRIPOS>ATOM
  1 CL      -0.3370    -0.1920    -0.9620 Cl    1 <1>  -0.1770 
  2 C       -1.4650     0.9430    -0.2330 C.ar  1 <1>   0.1770 
  3 C       -1.2280     2.3310    -0.3970 C.ar  1 <1>   0.4100 
  4 C       -2.5470     0.5180     0.4750 C.ar  1 <1>   0.2170 
  5 N       -2.0330     3.2270     0.1460 N.ar  1 <1>  -0.6200 
  6 N       -0.1590     2.7570    -1.1160 N.pl3 1 <1>  -0.8690 
  7 N       -3.3490     1.4840     0.9980 N.ar  1 <1>  -0.1790 
  8 C       -2.9260    -0.9370     0.7270 C.3   1 <1>  -0.0970 
  9 C       -3.0750     2.7910     0.8240 C.ar  1 <1>   0.7710 
 10 C        0.2530     4.1170    -1.6050 C.3   1 <1>   0.2890 
 11 N       -3.8670     3.7190     1.3500 N.pl3 1 <1>  -0.9000 
 12 C        1.0340     4.9770    -0.5490 C.3   1 <1>   0.2800 
 13 C       -0.9230     4.8010    -2.3210 C.3   1 <1>  -0.2400 
 14 O        1.4730     6.1270    -1.1900 O.3   1 <1>  -0.6800 
 15 C        2.3050     4.2030    -0.1110 C.3   1 <1>  -0.0220 
 16 C        0.1570     5.4380     0.6450 C.3   1 <1>  -0.0220 
 17 C        3.3080     4.9640     0.7490 C.2   1 <1>  -0.2880 
 18 C        0.6650     6.6480     1.4300 C.2   1 <1>  -0.2880 
 19 C        4.4200     5.5440     0.2870 C.2   1 <1>  -0.3000 
 20 C        0.1520     7.8780     1.3370 C.2   1 <1>  -0.3000 
 21 H        0.4550     2.0300    -1.5040 H     1 <1>   0.4000 
 22 H       -4.1790     1.2560     1.5370 H     1 <1>   0.4570 
 23 H       -2.2260    -1.6120     0.2690 H     1 <1>   0.0800 
 24 H       -3.8990    -1.1480     0.3190 H     1 <1>   0.0800 
 25 H       -2.9390    -1.1450     1.7830 H     1 <1>   0.0800 
 26 H        0.9700     3.9310    -2.3870 H     1 <1>   0.0800 
 27 H       -4.7180     3.6070     1.9040 H     1 <1>   0.4000 
 28 H       -3.6150     4.7010     1.1880 H     1 <1>   0.4000 
 29 H       -1.7080     5.0790    -1.6480 H     1 <1>   0.0800 
 30 H       -1.3210     4.1470    -3.0750 H     1 <1>   0.0800 
 31 H       -0.5750     5.6940    -2.8080 H     1 <1>   0.0800 
 32 H        1.8810     6.7040    -0.5110 H     1 <1>   0.4000 
 33 H        2.8150     3.8740    -1.0000 H     1 <1>   0.0800 
 34 H        2.0150     3.3140     0.4210 H     1 <1>   0.0800 
 35 H        0.0210     4.6150     1.3220 H     1 <1>   0.0800 
 36 H       -0.8160     5.6920     0.2740 H     1 <1>   0.0800 
 37 H        3.0450     4.9820     1.7920 H     1 <1>   0.1500 
 38 H        1.4850     6.4300     2.0890 H     1 <1>   0.1500 
 39 H        5.1260     6.0710     0.9060 H     1 <1>   0.1500 
 40 H        4.7180     5.5440    -0.7480 H     1 <1>   0.1500 
 41 H        0.5120     8.7230     1.8990 H     1 <1>   0.1500 
 42 H       -0.6680     8.1480     0.6930 H     1 <1>   0.1500 
@<TRIPOS>BOND
  1   1   2  1   
  2   2   3  ar  
  3   2   4  ar  
  4   3   5  ar  
  5   3   6  1   
  6   4   7  ar  
  7   4   8  1   
  8   5   9  ar  
  9   6  10  1   
 10   6  21  1   
 11   7   9  ar  
 12   7  22  1   
 13   8  23  1   
 14   8  24  1   
 15   8  25  1   
 16   9  11  1   
 17  10  12  1   
 18  10  13  1   
 19  10  26  1   
 20  11  27  1   
 21  11  28  1   
 22  12  14  1   
 23  12  15  1   
 24  12  16  1   
 25  13  29  1   
 26  13  30  1   
 27  13  31  1   
 28  14  32  1   
 29  15  17  1   
 30  15  33  1   
 31  15  34  1   
 32  16  18  1   
 33  16  35  1   
 34  16  36  1   
 35  17  19  2   
 36  17  37  1   
 37  18  20  2   
 38  18  38  1   
 39  19  39  1   
 40  19  40  1   
 41  20  41  1   
 42  20  42  1   
@<TRIPOS>SUBSTRUCTURE
  1 ****   6 GROUP 4 **** **** 0

# MOE 2024.06 (io_trps.svl 2023.06)
