@<TRIPOS>MOLECULE
Untitled Document
64 67 1 0 0 
SMALL
USER_CHARGES


@<TRIPOS>ATOM
  1 O       -0.8880    -2.1340     1.9510 O.2   1 <1>  -0.5700 
  2 C       -1.9670    -1.6820     1.5930 C.2   1 <1>   0.6900 
  3 N       -2.9870    -2.4130     1.0480 N.am  1 <1>  -0.4770 
  4 N       -2.3360    -0.3680     1.6760 N.am  1 <1>  -0.4770 
  5 C       -4.0280    -1.5300     0.7750 C.ar  1 <1>   0.1170 
  6 C       -2.9900    -3.8740     0.8220 C.3   1 <1>   0.0600 
  7 C       -3.6300    -0.2710     1.1700 C.ar  1 <1>   0.1170 
  8 C       -1.5090     0.7440     2.1900 C.3   1 <1>   0.0600 
  9 C       -5.2740    -1.7210     0.2050 C.ar  1 <1>  -0.1500 
 10 C       -4.4850     0.8070     1.0340 C.ar  1 <1>  -0.1500 
 11 C       -6.1420    -0.6510     0.0190 C.ar  1 <1>   0.1000 
 12 C       -5.7570     0.6330     0.5040 C.ar  1 <1>   0.1170 
 13 N       -7.3230    -0.9570    -0.7020 N.pl3 1 <1>  -0.8380 
 14 N       -6.5930     1.7810     0.5100 N.am  1 <1>  -0.4770 
 15 C       -7.1430    -1.4370    -2.1130 C.3   1 <1>   0.2890 
 16 C       -8.6790    -0.4230    -0.3400 C.3   1 <1>   0.2090 
 17 C       -6.7100     2.6290    -0.5760 C.2   1 <1>   0.5440 
 18 C       -7.2360     2.0970     1.8220 C.3   1 <1>   0.1400 
 19 C       -7.6100    -0.3940    -3.1640 C.3   1 <1>   0.3430 
 20 C       -7.8870    -2.7660    -2.2620 C.3   1 <1>  -0.2400 
 21 C       -9.4190     0.2120    -1.5420 C.3   1 <1>   0.3430 
 22 O       -6.3880     2.2220    -1.6800 O.2   1 <1>  -0.5700 
 23 C       -7.2090     3.9790    -0.4610 C.ar  1 <1>   0.0860 
 24 C       -6.3850     3.0370     2.6790 C.3   1 <1>  -0.2400 
 25 N       -8.4740     0.6890    -2.5960 N.4   1 <1>  -0.9060 
 26 C       -8.5780     4.2720    -0.3890 C.ar  1 <1>   0.0820 
 27 C       -6.3010     5.0370    -0.4350 C.ar  1 <1>  -0.1500 
 28 O       -9.4600     3.2370    -0.4310 O.3   1 <1>  -0.3630 
 29 C       -8.9960     5.5970    -0.2760 C.ar  1 <1>  -0.1500 
 30 C       -6.7230     6.3460    -0.3230 C.ar  1 <1>  -0.1500 
 31 C      -10.8380     3.4400    -0.1780 C.3   1 <1>   0.0400 
 32 C       -8.0750     6.6260    -0.2410 C.ar  1 <1>  -0.1500 
 33 H       -3.8050    -4.3210     1.3630 H     1 <1>   0.0800 
 34 H       -2.0630    -4.2990     1.1680 H     1 <1>   0.0800 
 35 H       -3.0990    -4.0770    -0.2280 H     1 <1>   0.0800 
 36 H       -2.0090     1.2120     3.0180 H     1 <1>   0.0800 
 37 H       -1.3510     1.4660     1.4090 H     1 <1>   0.0800 
 38 H       -0.5560     0.3680     2.5200 H     1 <1>   0.0800 
 39 H       -5.5580    -2.7080    -0.1030 H     1 <1>   0.1500 
 40 H       -4.1510     1.7770     1.3470 H     1 <1>   0.1500 
 41 H       -6.0980    -1.6280    -2.2950 H     1 <1>   0.0800 
 42 H       -9.2750    -1.2300     0.0480 H     1 <1>   0.0800 
 43 H       -8.5980     0.2970     0.4480 H     1 <1>   0.0800 
 44 H       -8.2000     2.5410     1.6570 H     1 <1>   0.0800 
 45 H       -7.3950     1.1790     2.3620 H     1 <1>   0.0800 
 46 H       -8.1340    -0.9080    -3.9520 H     1 <1>   0.0800 
 47 H       -6.7340     0.0560    -3.6000 H     1 <1>   0.0800 
 48 H       -8.9480    -2.6400    -2.1520 H     1 <1>   0.0800 
 49 H       -7.5400    -3.4620    -1.5180 H     1 <1>   0.0800 
 50 H       -7.6920    -3.1920    -3.2300 H     1 <1>   0.0800 
 51 H      -10.0220     1.0300    -1.1880 H     1 <1>   0.0800 
 52 H      -10.0810    -0.5230    -1.9660 H     1 <1>   0.0800 
 53 H       -6.1360     3.9360     2.1480 H     1 <1>   0.0800 
 54 H       -5.4870     2.5480     3.0050 H     1 <1>   0.0800 
 55 H       -6.9410     3.3130     3.5580 H     1 <1>   0.0800 
 56 H       -7.7880     1.3040    -2.1110 H     1 <1>   0.4500 
 57 H       -8.9130     1.2670    -3.3180 H     1 <1>   0.4500 
 58 H       -5.2480     4.8230    -0.5070 H     1 <1>   0.1500 
 59 H      -10.0360     5.8600    -0.2180 H     1 <1>   0.1500 
 60 H       -6.0050     7.1490    -0.3010 H     1 <1>   0.1500 
 61 H      -11.3310     2.4860    -0.1660 H     1 <1>   0.0800 
 62 H      -11.2520     4.0540    -0.9590 H     1 <1>   0.0800 
 63 H      -10.9530     3.9160     0.7810 H     1 <1>   0.0800 
 64 H       -8.4050     7.6480    -0.1530 H     1 <1>   0.1500 
@<TRIPOS>BOND
  1   1   2  2   
  2   2   3  am  
  3   2   4  am  
  4   3   5  1   
  5   3   6  1   
  6   4   7  1   
  7   4   8  1   
  8   5   7  ar  
  9   5   9  ar  
 10   6  33  1   
 11   6  34  1   
 12   6  35  1   
 13   7  10  ar  
 14   8  36  1   
 15   8  37  1   
 16   8  38  1   
 17   9  11  ar  
 18   9  39  1   
 19  10  12  ar  
 20  10  40  1   
 21  11  12  ar  
 22  11  13  1   
 23  12  14  1   
 24  13  15  1   
 25  13  16  1   
 26  14  17  am  
 27  14  18  1   
 28  15  19  1   
 29  15  20  1   
 30  15  41  1   
 31  16  21  1   
 32  16  42  1   
 33  16  43  1   
 34  17  22  2   
 35  17  23  1   
 36  18  24  1   
 37  18  44  1   
 38  18  45  1   
 39  19  25  1   
 40  19  46  1   
 41  19  47  1   
 42  20  48  1   
 43  20  49  1   
 44  20  50  1   
 45  21  25  1   
 46  21  51  1   
 47  21  52  1   
 48  23  26  ar  
 49  23  27  ar  
 50  24  53  1   
 51  24  54  1   
 52  24  55  1   
 53  25  56  1   
 54  25  57  1   
 55  26  28  1   
 56  26  29  ar  
 57  27  30  ar  
 58  27  58  1   
 59  28  31  1   
 60  29  32  ar  
 61  29  59  1   
 62  30  32  ar  
 63  30  60  1   
 64  31  61  1   
 65  31  62  1   
 66  31  63  1   
 67  32  64  1   
@<TRIPOS>SUBSTRUCTURE
  1 ****  12 GROUP 4 **** **** 0

# MOE 2024.06 (io_trps.svl 2023.06)
