@<TRIPOS>MOLECULE
NONAME
46 48 1 0 0 
SMALL
USER_CHARGES


@<TRIPOS>ATOM
  1 S       -0.3970    -0.1760     0.8960 S.o2  1 <1>   1.3330 
  2 O       -1.1470     0.7850     1.6750 O.2   1 <1>  -0.6500 
  3 O        0.0140    -1.4200     1.5070 O.2   1 <1>  -0.6500 
  4 N       -1.2650    -0.5210    -0.5230 N.am  1 <1>  -0.8490 
  5 C        1.0760     0.6370     0.2630 C.3   1 <1>  -0.0550 
  6 C       -2.6250     0.0560    -0.5600 C.3   1 <1>   0.1960 
  7 C       -1.3240    -1.9560    -0.8740 C.3   1 <1>   0.1960 
  8 C        0.8040     1.9360    -0.5160 C.3   1 <1>  -0.1600 
  9 C       -3.6210    -0.7180     0.3340 C.3   1 <1>   0.1900 
 10 C       -2.3430    -2.7460    -0.0220 C.3   1 <1>   0.1100 
 11 C        2.1080     2.5770    -1.0020 C.3   1 <1>  -0.2400 
 12 N       -3.6900    -2.1370    -0.0920 N.3   1 <1>  -0.8100 
 13 C       -5.0200    -0.0740     0.2810 C.3   1 <1>   0.1200 
 14 C       -4.6740    -2.8590     0.7450 C.3   1 <1>   0.3330 
 15 O       -5.9240    -0.7900     1.0750 O.3   1 <1>  -0.5600 
 16 C       -4.8450    -4.3010     0.2680 C.ar  1 <1>  -0.1440 
 17 C       -6.0410    -2.1410     0.7100 C.3   1 <1>   0.1200 
 18 C       -4.7870    -5.3470     1.1790 C.ar  1 <1>  -0.1500 
 19 C       -5.0610    -4.5870    -1.0730 C.ar  1 <1>  -0.1500 
 20 C       -4.9450    -6.6560     0.7560 C.ar  1 <1>  -0.1500 
 21 C       -5.2200    -5.8950    -1.4980 C.ar  1 <1>  -0.1500 
 22 C       -5.1610    -6.9300    -0.5820 C.ar  1 <1>  -0.1500 
 23 H        1.7210     0.8610     1.0900 H     1 <1>   0.0800 
 24 H        1.5980    -0.0480    -0.3770 H     1 <1>   0.0800 
 25 H       -2.5930     1.0910    -0.2640 H     1 <1>   0.0800 
 26 H       -2.9870     0.0260    -1.5730 H     1 <1>   0.0800 
 27 H       -1.6130    -2.0480    -1.9070 H     1 <1>   0.0800 
 28 H       -0.3490    -2.4000    -0.7750 H     1 <1>   0.0800 
 29 H        0.1750     1.7220    -1.3640 H     1 <1>   0.0800 
 30 H        0.2790     2.6300     0.1200 H     1 <1>   0.0800 
 31 H       -3.2790    -0.6610     1.3540 H     1 <1>   0.0800 
 32 H       -2.0110    -2.7900     1.0000 H     1 <1>   0.0800 
 33 H       -2.3840    -3.7540    -0.3950 H     1 <1>   0.0800 
 34 H        2.6380     1.9070    -1.6570 H     1 <1>   0.0800 
 35 H        2.7430     2.8220    -0.1680 H     1 <1>   0.0800 
 36 H        1.8930     3.4820    -1.5420 H     1 <1>   0.0800 
 37 H       -5.3910    -0.0530    -0.7290 H     1 <1>   0.0800 
 38 H       -4.9810     0.9320     0.6610 H     1 <1>   0.0800 
 39 H       -4.3290    -2.8660     1.7650 H     1 <1>   0.0800 
 40 H       -6.7180    -2.6100     1.4000 H     1 <1>   0.0800 
 41 H       -6.4640    -2.1920    -0.2770 H     1 <1>   0.0800 
 42 H       -4.6180    -5.1480     2.2230 H     1 <1>   0.1500 
 43 H       -5.1010    -3.7840    -1.7890 H     1 <1>   0.1500 
 44 H       -4.8990    -7.4610     1.4690 H     1 <1>   0.1500 
 45 H       -5.3870    -6.1060    -2.5400 H     1 <1>   0.1500 
 46 H       -5.2830    -7.9470    -0.9110 H     1 <1>   0.1500 
@<TRIPOS>BOND
  1   1   2  2   
  2   1   3  2   
  3   1   4  am  
  4   1   5  1   
  5   4   6  1   
  6   4   7  1   
  7   5   8  1   
  8   5  23  1   
  9   5  24  1   
 10   6   9  1   
 11   6  25  1   
 12   6  26  1   
 13   7  10  1   
 14   7  27  1   
 15   7  28  1   
 16   8  11  1   
 17   8  29  1   
 18   8  30  1   
 19   9  12  1   
 20   9  13  1   
 21   9  31  1   
 22  10  12  1   
 23  10  32  1   
 24  10  33  1   
 25  11  34  1   
 26  11  35  1   
 27  11  36  1   
 28  12  14  1   
 29  13  15  1   
 30  13  37  1   
 31  13  38  1   
 32  14  16  1   
 33  14  17  1   
 34  14  39  1   
 35  15  17  1   
 36  16  18  ar  
 37  16  19  ar  
 38  17  40  1   
 39  17  41  1   
 40  18  20  ar  
 41  18  42  1   
 42  19  21  ar  
 43  19  43  1   
 44  20  22  ar  
 45  20  44  1   
 46  21  22  ar  
 47  21  45  1   
 48  22  46  1   
@<TRIPOS>SUBSTRUCTURE
  1 ****  12 GROUP 4 **** **** 0

# MOE 2024.06 (io_trps.svl 2023.06)
