@<TRIPOS>MOLECULE
NONAME
57 59 1 0 0 
SMALL
USER_CHARGES


@<TRIPOS>ATOM
  1 CL      -0.2830     0.6240     0.1570 Cl    1 <1>  -0.1770 
  2 C       -2.0130     0.7820     0.3060 C.ar  1 <1>   0.1770 
  3 C       -2.5740     0.9690     1.5550 C.ar  1 <1>  -0.1500 
  4 C       -2.8040     0.7210    -0.8240 C.ar  1 <1>  -0.1500 
  5 C       -3.9470     1.0920     1.6680 C.ar  1 <1>  -0.1500 
  6 C       -4.1760     0.8470    -0.7000 C.ar  1 <1>  -0.1500 
  7 C       -4.7810     1.0280     0.5470 C.ar  1 <1>   0.0530 
  8 C       -6.2110     1.1460     0.6890 C.2   1 <1>   0.0870 
  9 O       -6.7330     1.7910     1.7040 O.3   1 <1>  -0.0190 
 10 C       -7.2550     0.6690    -0.0380 C.2   1 <1>  -0.0860 
 11 N       -8.0420     1.7880     1.6990 N.2   1 <1>  -0.4100 
 12 C       -8.3740     1.1410     0.6470 C.2   1 <1>   0.3720 
 13 C       -7.3420    -0.1800    -1.1770 C.2   1 <1>   0.7160 
 14 N       -9.7070     0.9620     0.3010 N.pl3 1 <1>  -0.8520 
 15 O       -7.1350     0.2520    -2.2940 O.2   1 <1>  -0.5700 
 16 N       -7.7760    -1.4760    -1.0360 N.am  1 <1>  -0.6600 
 17 C      -10.0880     1.6510    -0.9720 C.3   1 <1>   0.2090 
 18 C       -8.8470    -1.9770    -1.9700 C.3   1 <1>   0.1400 
 19 C       -7.6600    -2.2090     0.2710 C.3   1 <1>   0.1400 
 20 C      -11.5340     1.3530    -1.3950 C.3   1 <1>   0.1200 
 21 C      -10.0570    -2.6100    -1.2260 C.3   1 <1>   0.4230 
 22 C       -9.0120    -2.2960     1.0200 C.3   1 <1>   0.3430 
 23 O      -11.7360    -0.0240    -1.5620 O.3   1 <1>  -0.5600 
 24 N      -10.1680    -1.9660     0.1280 N.4   1 <1>  -0.9590 
 25 C       -9.8980    -4.1520    -1.2300 C.3   1 <1>  -0.1600 
 26 C      -12.9800    -0.3220    -2.1190 C.3   1 <1>   0.0400 
 27 C      -11.4880    -2.0900     0.8020 C.3   1 <1>   0.2630 
 28 C      -10.9330    -5.0060    -0.4920 C.3   1 <1>   0.1200 
 29 O      -10.6170    -5.0310     0.8550 O.3   1 <1>  -0.6800 
 30 H       -1.9390     1.0180     2.4220 H     1 <1>   0.1500 
 31 H       -2.3470     0.5810    -1.7880 H     1 <1>   0.1500 
 32 H       -4.3800     1.2390     2.6430 H     1 <1>   0.1500 
 33 H       -4.7770     0.8120    -1.5910 H     1 <1>   0.1500 
 34 H      -10.2570     1.3870     1.0600 H     1 <1>   0.4000 
 35 H       -9.4330     1.3560    -1.7730 H     1 <1>   0.0800 
 36 H       -9.9760     2.7140    -0.8410 H     1 <1>   0.0800 
 37 H       -8.4150    -2.6780    -2.6630 H     1 <1>   0.0800 
 38 H       -9.2190    -1.1520    -2.5550 H     1 <1>   0.0800 
 39 H       -6.9290    -1.7420     0.9080 H     1 <1>   0.0800 
 40 H       -7.3010    -3.2050     0.0770 H     1 <1>   0.0800 
 41 H      -11.7330     1.8460    -2.3320 H     1 <1>   0.0800 
 42 H      -12.2220     1.7180    -0.6520 H     1 <1>   0.0800 
 43 H      -10.9450    -2.3730    -1.7900 H     1 <1>   0.0800 
 44 H       -8.9960    -1.6060     1.8470 H     1 <1>   0.0800 
 45 H       -9.1270    -3.2880     1.4250 H     1 <1>   0.0800 
 46 H      -10.0680    -0.9450    -0.0760 H     1 <1>   0.4500 
 47 H       -8.9170    -4.4400    -0.9020 H     1 <1>   0.0800 
 48 H       -9.9540    -4.4500    -2.2620 H     1 <1>   0.0800 
 49 H      -13.0730    -1.3910    -2.2000 H     1 <1>   0.0800 
 50 H      -13.0470     0.1180    -3.1000 H     1 <1>   0.0800 
 51 H      -13.7590     0.0620    -1.4830 H     1 <1>   0.0800 
 52 H      -11.6680    -3.0980     1.1250 H     1 <1>   0.0800 
 53 H      -12.2740    -1.7920     0.1290 H     1 <1>   0.0800 
 54 H      -11.5190    -1.4460     1.6650 H     1 <1>   0.0800 
 55 H      -10.8910    -6.0220    -0.8520 H     1 <1>   0.0800 
 56 H      -11.9350    -4.6290    -0.6160 H     1 <1>   0.0800 
 57 H      -11.0670    -5.7830     1.2990 H     1 <1>   0.4000 
@<TRIPOS>BOND
  1   1   2  1   
  2   2   3  ar  
  3   2   4  ar  
  4   3   5  ar  
  5   3  30  1   
  6   4   6  ar  
  7   4  31  1   
  8   5   7  ar  
  9   5  32  1   
 10   6   7  ar  
 11   6  33  1   
 12   7   8  1   
 13   8   9  1   
 14   8  10  2   
 15   9  11  1   
 16  10  12  1   
 17  10  13  1   
 18  11  12  2   
 19  12  14  1   
 20  13  15  2   
 21  13  16  am  
 22  14  17  1   
 23  14  34  1   
 24  16  18  1   
 25  16  19  1   
 26  17  20  1   
 27  17  35  1   
 28  17  36  1   
 29  18  21  1   
 30  18  37  1   
 31  18  38  1   
 32  19  22  1   
 33  19  39  1   
 34  19  40  1   
 35  20  23  1   
 36  20  41  1   
 37  20  42  1   
 38  21  24  1   
 39  21  25  1   
 40  21  43  1   
 41  22  24  1   
 42  22  44  1   
 43  22  45  1   
 44  23  26  1   
 45  24  27  1   
 46  24  46  1   
 47  25  28  1   
 48  25  47  1   
 49  25  48  1   
 50  26  49  1   
 51  26  50  1   
 52  26  51  1   
 53  27  52  1   
 54  27  53  1   
 55  27  54  1   
 56  28  29  1   
 57  28  55  1   
 58  28  56  1   
 59  29  57  1   
@<TRIPOS>SUBSTRUCTURE
  1 ****  13 GROUP 4 **** **** 0

# MOE 2024.06 (io_trps.svl 2023.06)
