@<TRIPOS>MOLECULE
NONAME
53 57 1 0 0 
SMALL
USER_CHARGES


@<TRIPOS>ATOM
  1 S       -0.2080    -0.2760     1.3340 S.3   1 <1>  -0.0800 
  2 C       -0.6510    -1.6190     0.3060 C.ar  1 <1>   0.0400 
  3 C        1.0940    -1.2490     2.0100 C.2   1 <1>   0.1980 
  4 C        0.2150    -2.6640     0.5650 C.ar  1 <1>   0.2270 
  5 C       -1.6710    -1.6950    -0.6240 C.ar  1 <1>  -0.1500 
  6 N        1.1870    -2.4220     1.5340 N.2   1 <1>  -0.5650 
  7 C        1.9530    -0.6010     3.0700 C.3   1 <1>  -0.0600 
  8 C        0.0540    -3.8440    -0.1410 C.ar  1 <1>  -0.1500 
  9 C       -1.8150    -2.8850    -1.3130 C.ar  1 <1>  -0.1500 
 10 C       -0.9660    -3.9800    -1.0820 C.ar  1 <1>   0.0860 
 11 C       -1.1390    -5.2220    -1.8080 C.2   1 <1>   0.5440 
 12 O       -0.1970    -5.6820    -2.4250 O.2   1 <1>  -0.5700 
 13 N       -2.3410    -5.9020    -1.8120 N.am  1 <1>  -0.6600 
 14 C       -2.5990    -7.0360    -2.7430 C.3   1 <1>   0.1400 
 15 C       -3.4040    -5.7170    -0.7870 C.3   1 <1>   0.1400 
 16 C       -2.7220    -8.3320    -1.9390 C.3   1 <1>  -0.1600 
 17 C       -3.5280    -6.9990     0.0390 C.3   1 <1>  -0.1600 
 18 C       -3.7960    -8.2290    -0.8450 C.3   1 <1>   0.4240 
 19 O       -5.0070    -8.0150    -1.5330 O.3   1 <1>  -0.5600 
 20 C       -3.8340    -9.5250    -0.0050 C.ar  1 <1>  -0.1430 
 21 C       -6.1910    -8.3340    -0.8700 C.3   1 <1>   0.1200 
 22 C       -4.9920   -10.2910     0.0870 C.ar  1 <1>  -0.1430 
 23 C       -2.7030    -9.9500     0.6850 C.ar  1 <1>  -0.1500 
 24 C       -6.2400    -9.8420    -0.6460 C.3   1 <1>  -0.0170 
 25 C       -5.0140   -11.4540     0.8410 C.ar  1 <1>  -0.1500 
 26 C       -2.7240   -11.1080     1.4390 C.ar  1 <1>  -0.1500 
 27 C       -3.8760   -11.8690     1.5240 C.ar  1 <1>   0.0830 
 28 O       -3.8140   -12.9920     2.2830 O.3   1 <1>  -0.3630 
 29 C       -4.9250   -13.8490     2.4170 C.3   1 <1>   0.0400 
 30 H       -2.3180    -0.8540    -0.7970 H     1 <1>   0.1500 
 31 H        2.4320     0.2720     2.6670 H     1 <1>   0.0800 
 32 H        2.7060    -1.2930     3.3990 H     1 <1>   0.0800 
 33 H        1.3450    -0.3190     3.9090 H     1 <1>   0.0800 
 34 H        0.7290    -4.6600     0.0440 H     1 <1>   0.1500 
 35 H       -2.5930    -2.9850    -2.0520 H     1 <1>   0.1500 
 36 H       -1.8040    -7.1290    -3.4630 H     1 <1>   0.0800 
 37 H       -3.5130    -6.8490    -3.2810 H     1 <1>   0.0800 
 38 H       -4.3370    -5.5030    -1.2810 H     1 <1>   0.0800 
 39 H       -3.1730    -4.8960    -0.1320 H     1 <1>   0.0800 
 40 H       -1.7640    -8.5410    -1.5030 H     1 <1>   0.0800 
 41 H       -2.9640    -9.1470    -2.5950 H     1 <1>   0.0800 
 42 H       -4.3070    -6.8940     0.7700 H     1 <1>   0.0800 
 43 H       -2.6100    -7.1390     0.5780 H     1 <1>   0.0800 
 44 H       -7.0120    -8.0200    -1.4910 H     1 <1>   0.0800 
 45 H       -6.2310    -7.8030     0.0640 H     1 <1>   0.0800 
 46 H       -1.7900    -9.3820     0.6420 H     1 <1>   0.1500 
 47 H       -6.3020   -10.3430    -1.5960 H     1 <1>   0.0800 
 48 H       -7.1170   -10.0870    -0.0750 H     1 <1>   0.0800 
 49 H       -5.9210   -12.0240     0.8890 H     1 <1>   0.1500 
 50 H       -1.8460   -11.4300     1.9680 H     1 <1>   0.1500 
 51 H       -4.6400   -14.6680     3.0510 H     1 <1>   0.0800 
 52 H       -5.2010   -14.2170     1.4450 H     1 <1>   0.0800 
 53 H       -5.7350   -13.3020     2.8680 H     1 <1>   0.0800 
@<TRIPOS>BOND
  1   1   2  1   
  2   1   3  1   
  3   2   4  ar  
  4   2   5  ar  
  5   3   6  2   
  6   3   7  1   
  7   4   6  1   
  8   4   8  ar  
  9   5   9  ar  
 10   5  30  1   
 11   7  31  1   
 12   7  32  1   
 13   7  33  1   
 14   8  10  ar  
 15   8  34  1   
 16   9  10  ar  
 17   9  35  1   
 18  10  11  1   
 19  11  12  2   
 20  11  13  am  
 21  13  14  1   
 22  13  15  1   
 23  14  16  1   
 24  14  36  1   
 25  14  37  1   
 26  15  17  1   
 27  15  38  1   
 28  15  39  1   
 29  16  18  1   
 30  16  40  1   
 31  16  41  1   
 32  17  18  1   
 33  17  42  1   
 34  17  43  1   
 35  18  19  1   
 36  18  20  1   
 37  19  21  1   
 38  20  22  ar  
 39  20  23  ar  
 40  21  24  1   
 41  21  44  1   
 42  21  45  1   
 43  22  24  1   
 44  22  25  ar  
 45  23  26  ar  
 46  23  46  1   
 47  24  47  1   
 48  24  48  1   
 49  25  27  ar  
 50  25  49  1   
 51  26  27  ar  
 52  26  50  1   
 53  27  28  1   
 54  28  29  1   
 55  29  51  1   
 56  29  52  1   
 57  29  53  1   
@<TRIPOS>SUBSTRUCTURE
  1 ****  17 GROUP 4 **** **** 0

# MOE 2024.06 (io_trps.svl 2023.06)
