@<TRIPOS>MOLECULE
NONAME
46 48 1 0 0 
SMALL
USER_CHARGES


@<TRIPOS>ATOM
  1 O       -0.5580     0.1060    -0.5740 O.2   1 <1>  -0.5700 
  2 C       -1.4120     0.7820    -0.0360 C.2   1 <1>   0.5440 
  3 N       -2.5300     0.1590     0.4730 N.am  1 <1>  -0.6600 
  4 C       -1.2420     2.2160     0.0420 C.ar  1 <1>   0.0860 
  5 C       -2.5990    -1.3290     0.6290 C.3   1 <1>   0.1400 
  6 C       -3.8760     0.8090     0.5440 C.3   1 <1>   0.1400 
  7 C       -1.4830     2.8980     1.2350 C.ar  1 <1>   0.1600 
  8 C       -0.8370     2.9700    -1.0500 C.ar  1 <1>  -0.1500 
  9 C       -3.6650    -1.9300    -0.3020 C.3   1 <1>   0.3440 
 10 C       -4.8890     0.0900    -0.3780 C.3   1 <1>   0.2000 
 11 N       -1.3910     4.2070     1.4180 N.ar  1 <1>  -0.6200 
 12 C       -0.7230     4.3320    -0.8860 C.ar  1 <1>   0.0830 
 13 O       -4.8940    -1.2830    -0.0940 O.3   1 <1>  -0.5600 
 14 C       -3.8210    -3.4260    -0.0440 C.ar  1 <1>  -0.1430 
 15 C       -6.3350     0.6180    -0.2220 C.3   1 <1>  -0.0800 
 16 C       -1.0100     4.8970     0.3530 C.ar  1 <1>   0.1600 
 17 O       -0.3370     5.0820    -1.9350 O.3   1 <1>  -0.5320 
 18 C       -4.7190    -3.9120     0.8970 C.ar  1 <1>  -0.1500 
 19 C       -3.0380    -4.3260    -0.7540 C.ar  1 <1>  -0.1500 
 20 C       -7.3150    -0.1480    -1.1290 C.3   1 <1>  -0.2400 
 21 C       -6.4450     2.1200    -0.5390 C.3   1 <1>  -0.2400 
 22 C       -4.8320    -5.2730     1.1250 C.ar  1 <1>  -0.1500 
 23 C       -3.1490    -5.6870    -0.5270 C.ar  1 <1>  -0.1500 
 24 C       -4.0470    -6.1620     0.4130 C.ar  1 <1>  -0.1500 
 25 H       -1.6470    -1.7820     0.4130 H     1 <1>   0.0800 
 26 H       -2.8490    -1.5690     1.6460 H     1 <1>   0.0800 
 27 H       -4.2340     0.7750     1.5580 H     1 <1>   0.0800 
 28 H       -3.8060     1.8390     0.2480 H     1 <1>   0.0800 
 29 H       -1.7750     2.3130     2.0910 H     1 <1>   0.1500 
 30 H       -0.6160     2.5040    -1.9940 H     1 <1>   0.1500 
 31 H       -3.3770    -1.7760    -1.3280 H     1 <1>   0.0800 
 32 H       -4.5840     0.2140    -1.4030 H     1 <1>   0.0800 
 33 H       -6.6370     0.4690     0.8010 H     1 <1>   0.0800 
 34 H       -0.9220     5.9620     0.4720 H     1 <1>   0.1500 
 35 H       -0.2410     6.0330    -1.7420 H     1 <1>   0.4500 
 36 H       -5.3370    -3.2290     1.4540 H     1 <1>   0.1500 
 37 H       -2.3340    -3.9710    -1.4870 H     1 <1>   0.1500 
 38 H       -7.0350    -0.0440    -2.1620 H     1 <1>   0.0800 
 39 H       -8.3160     0.2240    -1.0020 H     1 <1>   0.0800 
 40 H       -7.3170    -1.1950    -0.8810 H     1 <1>   0.0800 
 41 H       -6.0860     2.3250    -1.5320 H     1 <1>   0.0800 
 42 H       -5.8830     2.7080     0.1640 H     1 <1>   0.0800 
 43 H       -7.4720     2.4370    -0.4770 H     1 <1>   0.0800 
 44 H       -5.5330    -5.6380     1.8550 H     1 <1>   0.1500 
 45 H       -2.5380    -6.3770    -1.0820 H     1 <1>   0.1500 
 46 H       -4.1340    -7.2190     0.5890 H     1 <1>   0.1500 
@<TRIPOS>BOND
  1   1   2  2   
  2   2   3  am  
  3   2   4  1   
  4   3   5  1   
  5   3   6  1   
  6   4   7  ar  
  7   4   8  ar  
  8   5   9  1   
  9   5  25  1   
 10   5  26  1   
 11   6  10  1   
 12   6  27  1   
 13   6  28  1   
 14   7  11  ar  
 15   7  29  1   
 16   8  12  ar  
 17   8  30  1   
 18   9  13  1   
 19   9  14  1   
 20   9  31  1   
 21  10  13  1   
 22  10  15  1   
 23  10  32  1   
 24  11  16  ar  
 25  12  16  ar  
 26  12  17  1   
 27  14  18  ar  
 28  14  19  ar  
 29  15  20  1   
 30  15  21  1   
 31  15  33  1   
 32  16  34  1   
 33  17  35  1   
 34  18  22  ar  
 35  18  36  1   
 36  19  23  ar  
 37  19  37  1   
 38  20  38  1   
 39  20  39  1   
 40  20  40  1   
 41  21  41  1   
 42  21  42  1   
 43  21  43  1   
 44  22  24  ar  
 45  22  44  1   
 46  23  24  ar  
 47  23  45  1   
 48  24  46  1   
@<TRIPOS>SUBSTRUCTURE
  1 ****   3 GROUP 4 **** **** 0

# MOE 2024.06 (io_trps.svl 2023.06)
