@<TRIPOS>MOLECULE
NONAME
58 62 1 0 0 
SMALL
USER_CHARGES


@<TRIPOS>ATOM
  1 O       -1.3810    -0.3090    -1.5330 O.2   1 <1>  -0.5700 
  2 C       -1.4440    -0.3180    -0.3200 C.2   1 <1>   0.7160 
  3 N       -1.7050    -1.4950     0.3100 N.am  1 <1>  -0.7300 
  4 C       -1.2660     0.8880     0.4500 C.2   1 <1>  -0.0860 
  5 C       -1.8760    -2.8120    -0.3470 C.3   1 <1>   0.2200 
  6 C       -1.3230     1.0840     1.7950 C.2   1 <1>  -0.0100 
  7 C       -0.9830     2.1690    -0.0650 C.2   1 <1>  -0.1500 
  8 C       -3.3400    -3.2400    -0.3620 C.3   1 <1>  -0.0800 
  9 C       -1.2870    -3.8790     0.5630 C.3   1 <1>   0.1200 
 10 O       -1.1020     2.3380     2.1070 O.3   1 <1>  -0.2800 
 11 C       -0.8900     3.0040     0.9910 C.2   1 <1>  -0.0400 
 12 C       -3.5270    -3.8460     1.0360 C.3   1 <1>   0.1200 
 13 C       -4.3490    -2.1270    -0.7170 C.3   1 <1>  -0.0160 
 14 O       -2.2480    -4.0680     1.5560 O.3   1 <1>  -0.5600 
 15 C       -0.6060     4.4970     1.0780 C.3   1 <1>   0.2900 
 16 C       -5.8180    -2.5470    -0.8410 C.ar  1 <1>  -0.1430 
 17 N       -0.0830     5.0360    -0.1920 N.3   1 <1>  -0.8100 
 18 C       -6.8220    -1.5540    -0.9600 C.ar  1 <1>   0.0000 
 19 C       -6.2350    -3.8500    -0.8530 C.ar  1 <1>  -0.1500 
 20 C       -0.1460     6.5090    -0.2090 C.3   1 <1>   0.1100 
 21 C        1.3110     4.6040    -0.4290 C.3   1 <1>   0.1100 
 22 C       -8.1720    -1.9760    -1.0430 C.ar  1 <1>   0.3100 
 23 C       -6.5660    -0.1620    -1.0070 C.ar  1 <1>  -0.1500 
 24 C       -7.5970    -4.1600    -0.9500 C.ar  1 <1>   0.1600 
 25 C        0.4570     7.0730    -1.5080 C.3   1 <1>   0.1200 
 26 C        1.8710     5.2270    -1.7200 C.3   1 <1>   0.1200 
 27 N       -8.5410    -3.2810    -1.0360 N.ar  1 <1>  -0.6200 
 28 C       -9.1860    -1.0100    -1.1440 C.ar  1 <1>  -0.1500 
 29 C       -7.5770     0.7540    -1.1100 C.ar  1 <1>  -0.1500 
 30 O        1.7710     6.6220    -1.6750 O.3   1 <1>  -0.5600 
 31 C       -8.9050     0.3280    -1.1760 C.ar  1 <1>  -0.1500 
 32 H       -1.7900    -1.5250     1.3270 H     1 <1>   0.3700 
 33 H       -1.4280    -2.8150    -1.3270 H     1 <1>   0.0800 
 34 H       -1.5150     0.3840     2.5880 H     1 <1>   0.1500 
 35 H       -0.8700     2.4030    -1.1100 H     1 <1>   0.1500 
 36 H       -3.4280    -4.0290    -1.0870 H     1 <1>   0.0800 
 37 H       -0.3530    -3.5830     1.0090 H     1 <1>   0.0800 
 38 H       -1.1650    -4.8100     0.0370 H     1 <1>   0.0800 
 39 H       -4.0530    -4.7850     1.0030 H     1 <1>   0.0800 
 40 H       -4.0370    -3.1690     1.7000 H     1 <1>   0.0800 
 41 H       -4.0470    -1.6780    -1.6480 H     1 <1>   0.0800 
 42 H       -4.2900    -1.3690     0.0430 H     1 <1>   0.0800 
 43 H        0.0990     4.6810     1.8700 H     1 <1>   0.0800 
 44 H       -1.5280     4.9920     1.3280 H     1 <1>   0.0800 
 45 H       -5.5590    -4.6790    -0.7910 H     1 <1>   0.1500 
 46 H       -1.1730     6.8240    -0.1350 H     1 <1>   0.0800 
 47 H        0.3940     6.9140     0.6300 H     1 <1>   0.0800 
 48 H        1.9370     4.8970     0.3960 H     1 <1>   0.0800 
 49 H        1.3530     3.5320    -0.5150 H     1 <1>   0.0800 
 50 H       -5.5540     0.1950    -0.9670 H     1 <1>   0.1500 
 51 H       -7.8760    -5.2000    -0.9520 H     1 <1>   0.1500 
 52 H        0.4800     8.1480    -1.4740 H     1 <1>   0.0800 
 53 H       -0.1250     6.7630    -2.3590 H     1 <1>   0.0800 
 54 H        1.3280     4.8690    -2.5780 H     1 <1>   0.0800 
 55 H        2.9100     4.9760    -1.8360 H     1 <1>   0.0800 
 56 H      -10.1990    -1.3630    -1.1980 H     1 <1>   0.1500 
 57 H       -7.3640     1.8090    -1.1430 H     1 <1>   0.1500 
 58 H       -9.6930     1.0580    -1.2550 H     1 <1>   0.1500 
@<TRIPOS>BOND
  1   1   2  2   
  2   2   3  am  
  3   2   4  1   
  4   3   5  1   
  5   3  32  1   
  6   4   6  2   
  7   4   7  1   
  8   5   8  1   
  9   5   9  1   
 10   5  33  1   
 11   6  10  1   
 12   6  34  1   
 13   7  11  2   
 14   7  35  1   
 15   8  12  1   
 16   8  13  1   
 17   8  36  1   
 18   9  14  1   
 19   9  37  1   
 20   9  38  1   
 21  10  11  1   
 22  11  15  1   
 23  12  14  1   
 24  12  39  1   
 25  12  40  1   
 26  13  16  1   
 27  13  41  1   
 28  13  42  1   
 29  15  17  1   
 30  15  43  1   
 31  15  44  1   
 32  16  18  ar  
 33  16  19  ar  
 34  17  20  1   
 35  17  21  1   
 36  18  22  ar  
 37  18  23  ar  
 38  19  24  ar  
 39  19  45  1   
 40  20  25  1   
 41  20  46  1   
 42  20  47  1   
 43  21  26  1   
 44  21  48  1   
 45  21  49  1   
 46  22  27  ar  
 47  22  28  ar  
 48  23  29  ar  
 49  23  50  1   
 50  24  27  ar  
 51  24  51  1   
 52  25  30  1   
 53  25  52  1   
 54  25  53  1   
 55  26  30  1   
 56  26  54  1   
 57  26  55  1   
 58  28  31  ar  
 59  28  56  1   
 60  29  31  ar  
 61  29  57  1   
 62  31  58  1   
@<TRIPOS>SUBSTRUCTURE
  1 ****   2 GROUP 4 **** **** 0

# MOE 2024.06 (io_trps.svl 2023.06)
