@<TRIPOS>MOLECULE
NONAME
42 44 1 0 0 
SMALL
USER_CHARGES


@<TRIPOS>ATOM
  1 O       -0.3240     0.1200     0.3730 O.2   1 <1>  -0.5700 
  2 C       -1.3420     0.7920     0.3990 C.2   1 <1>   0.7160 
  3 N       -2.5380     0.1160     0.2340 N.am  1 <1>  -0.6600 
  4 C       -1.2540     2.2390     0.5870 C.2   1 <1>   0.2030 
  5 C       -3.8840     0.7300     0.1000 C.3   1 <1>   0.1400 
  6 C       -2.6200    -1.3590     0.1080 C.3   1 <1>   0.1400 
  7 N       -2.2010     3.0040     1.0490 N.2   1 <1>  -0.4100 
  8 C       -0.1450     3.0470     0.3290 C.2   1 <1>  -0.1810 
  9 C       -4.8060    -0.4260    -0.2890 C.3   1 <1>   0.2000 
 10 C       -4.1090    -1.6890     0.2140 C.3   1 <1>  -0.0800 
 11 O       -1.7990     4.2440     1.1310 O.3   1 <1>  -0.0190 
 12 C       -0.5570     4.2660     0.7070 C.2   1 <1>  -0.0400 
 13 C        1.1980     2.6050    -0.2350 C.3   1 <1>   0.3010 
 14 O       -6.0560    -0.3060     0.2980 O.3   1 <1>  -0.6800 
 15 C       -4.5190    -2.9500    -0.5620 C.3   1 <1>  -0.0170 
 16 C        0.1590     5.6030     0.7280 C.3   1 <1>  -0.0600 
 17 O        1.6050     3.5250    -1.1830 O.3   1 <1>  -0.6800 
 18 C       -3.7740    -4.1720    -0.0490 C.ar  1 <1>  -0.1430 
 19 C       -2.6670    -4.6840    -0.6950 C.ar  1 <1>  -0.1500 
 20 C       -4.1690    -4.8300     1.0980 C.ar  1 <1>  -0.1500 
 21 C       -2.0250    -5.7960    -0.1750 C.ar  1 <1>   0.1600 
 22 C       -3.4560    -5.9350     1.5330 C.ar  1 <1>   0.1600 
 23 N       -2.3920    -6.4320     0.9250 N.ar  1 <1>  -0.6200 
 24 H       -4.1770     1.1520     1.0460 H     1 <1>   0.0800 
 25 H       -3.8800     1.4920    -0.6610 H     1 <1>   0.0800 
 26 H       -2.2270    -1.6480    -0.8520 H     1 <1>   0.0800 
 27 H       -2.0530    -1.8450     0.8850 H     1 <1>   0.0800 
 28 H       -4.9340    -0.4470    -1.3580 H     1 <1>   0.0800 
 29 H       -4.3290    -1.8250     1.2580 H     1 <1>   0.0800 
 30 H        1.1370     1.6510    -0.7270 H     1 <1>   0.0800 
 31 H        1.9450     2.5580     0.5380 H     1 <1>   0.0800 
 32 H       -5.9740    -0.2460     1.2700 H     1 <1>   0.4000 
 33 H       -4.3210    -2.8180    -1.6110 H     1 <1>   0.0800 
 34 H       -5.5790    -3.1070    -0.4510 H     1 <1>   0.0800 
 35 H        1.1930     5.4940     0.4580 H     1 <1>   0.0800 
 36 H        0.1090     6.0240     1.7160 H     1 <1>   0.0800 
 37 H       -0.3120     6.2800     0.0390 H     1 <1>   0.0800 
 38 H        0.8780     3.6730    -1.8170 H     1 <1>   0.4000 
 39 H       -2.2960    -4.2330    -1.5970 H     1 <1>   0.1500 
 40 H       -5.0240    -4.4950     1.6570 H     1 <1>   0.1500 
 41 H       -1.1630    -6.1820    -0.6920 H     1 <1>   0.1500 
 42 H       -3.7790    -6.4360     2.4300 H     1 <1>   0.1500 
@<TRIPOS>BOND
  1   1   2  2   
  2   2   3  am  
  3   2   4  1   
  4   3   5  1   
  5   3   6  1   
  6   4   7  2   
  7   4   8  1   
  8   5   9  1   
  9   5  24  1   
 10   5  25  1   
 11   6  10  1   
 12   6  26  1   
 13   6  27  1   
 14   7  11  1   
 15   8  12  2   
 16   8  13  1   
 17   9  10  1   
 18   9  14  1   
 19   9  28  1   
 20  10  15  1   
 21  10  29  1   
 22  11  12  1   
 23  12  16  1   
 24  13  17  1   
 25  13  30  1   
 26  13  31  1   
 27  14  32  1   
 28  15  18  1   
 29  15  33  1   
 30  15  34  1   
 31  16  35  1   
 32  16  36  1   
 33  16  37  1   
 34  17  38  1   
 35  18  19  ar  
 36  18  20  ar  
 37  19  21  ar  
 38  19  39  1   
 39  20  22  ar  
 40  20  40  1   
 41  21  23  ar  
 42  21  41  1   
 43  22  23  ar  
 44  22  42  1   
@<TRIPOS>SUBSTRUCTURE
  1 ****   3 GROUP 4 **** **** 0

# MOE 2024.06 (io_trps.svl 2023.06)
