@<TRIPOS>MOLECULE
NONAME
50 51 1 0 0 
SMALL
USER_CHARGES


@<TRIPOS>ATOM
  1 O       -0.6210     1.2600     0.7650 O.3   1 <1>  -0.5600 
  2 C       -1.5510     0.2540     0.5050 C.3   1 <1>   0.2640 
  3 C       -1.1620     2.4830     1.1280 C.3   1 <1>   0.1200 
  4 C       -0.7940    -0.9370    -0.0550 C.ar  1 <1>  -0.1440 
  5 C        0.0130     3.4130     1.4290 C.3   1 <1>  -0.1600 
  6 C       -0.0390    -1.7400     0.7870 C.ar  1 <1>  -0.1500 
  7 C       -0.8460    -1.2330    -1.4100 C.ar  1 <1>  -0.1500 
  8 C        1.0700     3.2980     0.3270 C.3   1 <1>   0.3430 
  9 C        0.6540    -2.8270     0.2830 C.ar  1 <1>  -0.1500 
 10 C       -0.1530    -2.3200    -1.9150 C.ar  1 <1>  -0.1500 
 11 N        2.2410     4.1720     0.6080 N.4   1 <1>  -0.9590 
 12 C        0.5970    -3.1180    -1.0690 C.ar  1 <1>  -0.1500 
 13 C        3.0830     4.3280    -0.6060 C.3   1 <1>   0.5240 
 14 C        3.0610     3.6870     1.7640 C.3   1 <1>   0.2630 
 15 C        4.0280     5.4760    -0.3450 C.2   1 <1>  -0.1810 
 16 C        5.3880     5.3790    -0.0750 C.2   1 <1>   0.1080 
 17 C        3.7600     6.8040    -0.3030 C.2   1 <1>  -0.3320 
 18 N        5.9190     6.5390     0.1350 N.2   1 <1>  -0.7070 
 19 C        6.2410     4.1290    -0.0140 C.3   1 <1>  -0.0590 
 20 N        4.9250     7.4190    -0.0120 N.pl3 1 <1>   0.3140 
 21 C        2.4530     7.5500    -0.5370 C.3   1 <1>  -0.0600 
 22 C        5.1700     8.8610     0.1340 C.3   1 <1>   0.0160 
 23 H       -2.2730     0.6140    -0.2080 H     1 <1>   0.0800 
 24 H       -2.0460    -0.0090     1.4240 H     1 <1>   0.0800 
 25 H       -1.7860     2.3530     1.9980 H     1 <1>   0.0800 
 26 H       -1.7510     2.8560     0.3060 H     1 <1>   0.0800 
 27 H        0.4240     3.1200     2.3780 H     1 <1>   0.0800 
 28 H       -0.3490     4.4220     1.5040 H     1 <1>   0.0800 
 29 H        0.0120    -1.5180     1.8380 H     1 <1>   0.1500 
 30 H       -1.4250    -0.6220    -2.0790 H     1 <1>   0.1500 
 31 H        0.6200     3.5770    -0.6120 H     1 <1>   0.0800 
 32 H        1.3930     2.2710     0.2450 H     1 <1>   0.0800 
 33 H        1.2360    -3.4480     0.9420 H     1 <1>   0.1500 
 34 H       -0.1980    -2.5480    -2.9660 H     1 <1>   0.1500 
 35 H        1.9240     5.1250     0.8270 H     1 <1>   0.4500 
 36 H        1.1350    -3.9630    -1.4610 H     1 <1>   0.1500 
 37 H        2.4680     4.5680    -1.4580 H     1 <1>   0.0800 
 38 H        3.6260     3.4220    -0.8150 H     1 <1>   0.0800 
 39 H        3.4370     2.6960     1.5680 H     1 <1>   0.0800 
 40 H        2.4660     3.6580     2.6620 H     1 <1>   0.0800 
 41 H        3.8960     4.3480     1.9340 H     1 <1>   0.0800 
 42 H        5.6610     3.2380    -0.1490 H     1 <1>   0.0800 
 43 H        6.7380     4.0840     0.9380 H     1 <1>   0.0800 
 44 H        6.9910     4.1780    -0.7830 H     1 <1>   0.0800 
 45 H        1.6610     6.8750    -0.8010 H     1 <1>   0.0800 
 46 H        2.5730     8.2540    -1.3430 H     1 <1>   0.0800 
 47 H        2.1680     8.0900     0.3490 H     1 <1>   0.0800 
 48 H        4.5430     9.2520     0.9120 H     1 <1>   0.0800 
 49 H        4.9560     9.3520    -0.7960 H     1 <1>   0.0800 
 50 H        6.2020     9.0190     0.3910 H     1 <1>   0.0800 
@<TRIPOS>BOND
  1   1   2  1   
  2   1   3  1   
  3   2   4  1   
  4   2  23  1   
  5   2  24  1   
  6   3   5  1   
  7   3  25  1   
  8   3  26  1   
  9   4   6  ar  
 10   4   7  ar  
 11   5   8  1   
 12   5  27  1   
 13   5  28  1   
 14   6   9  ar  
 15   6  29  1   
 16   7  10  ar  
 17   7  30  1   
 18   8  11  1   
 19   8  31  1   
 20   8  32  1   
 21   9  12  ar  
 22   9  33  1   
 23  10  12  ar  
 24  10  34  1   
 25  11  13  1   
 26  11  14  1   
 27  11  35  1   
 28  12  36  1   
 29  13  15  1   
 30  13  37  1   
 31  13  38  1   
 32  14  39  1   
 33  14  40  1   
 34  14  41  1   
 35  15  16  1   
 36  15  17  2   
 37  16  18  2   
 38  16  19  1   
 39  17  20  1   
 40  17  21  1   
 41  18  20  1   
 42  19  42  1   
 43  19  43  1   
 44  19  44  1   
 45  20  22  1   
 46  21  45  1   
 47  21  46  1   
 48  21  47  1   
 49  22  48  1   
 50  22  49  1   
 51  22  50  1   
@<TRIPOS>SUBSTRUCTURE
  1 ****   8 GROUP 4 **** **** 0

# MOE 2024.06 (io_trps.svl 2023.06)
