@<TRIPOS>MOLECULE
NONAME
47 48 1 0 0 
SMALL
USER_CHARGES


@<TRIPOS>ATOM
  1 O        1.7490     1.7480     1.1920 O.3   1 <1>  -0.0190 
  2 N        2.5440     0.7220     1.1960 N.2   1 <1>  -0.4100 
  3 C        0.8010     1.6290     0.3010 C.2   1 <1>  -0.0400 
  4 C        2.0900    -0.0850     0.3060 C.2   1 <1>   0.1080 
  5 C        0.9600     0.4460    -0.3120 C.2   1 <1>  -0.1500 
  6 C       -0.2130     2.7420     0.1260 C.3   1 <1>   0.0200 
  7 C        2.7070    -1.4280    -0.0200 C.3   1 <1>  -0.0590 
  8 C        0.4660     4.0150    -0.4200 C.3   1 <1>  -0.0800 
  9 C       -0.4550     5.2100    -0.6640 C.3   1 <1>   0.2000 
 10 C        1.5930     4.5610     0.4680 C.3   1 <1>   0.3430 
 11 O       -1.3720     5.3410     0.3730 O.3   1 <1>  -0.6800 
 12 C        0.5070     6.3970    -0.6430 C.3   1 <1>   0.3430 
 13 N        1.5310     6.0570     0.3970 N.4   1 <1>  -0.9590 
 14 C        2.8690     6.6650     0.1530 C.3   1 <1>   0.3430 
 15 C        2.8030     8.1830     0.3310 C.3   1 <1>  -0.1600 
 16 C        4.1930     8.8100     0.1590 C.3   1 <1>  -0.1600 
 17 C        4.1390    10.3340     0.3340 C.3   1 <1>  -0.1600 
 18 C        5.5290    10.9600     0.1540 C.3   1 <1>  -0.1600 
 19 C        5.4760    12.4790     0.3170 C.3   1 <1>   0.1200 
 20 O        6.7450    12.9820     0.1140 O.3   1 <1>  -0.6800 
 21 H        0.3840    -0.0170    -1.0920 H     1 <1>   0.1500 
 22 H       -0.9760     2.4180    -0.5620 H     1 <1>   0.0800 
 23 H       -0.6840     2.9250     1.0750 H     1 <1>   0.0800 
 24 H        1.9870    -2.2090     0.1430 H     1 <1>   0.0800 
 25 H        3.5590    -1.6050     0.6110 H     1 <1>   0.0800 
 26 H        3.0240    -1.4460    -1.0470 H     1 <1>   0.0800 
 27 H        0.9160     3.7580    -1.3640 H     1 <1>   0.0800 
 28 H       -1.0030     5.1450    -1.5900 H     1 <1>   0.0800 
 29 H        2.5440     4.1880     0.1230 H     1 <1>   0.0800 
 30 H        1.4520     4.2380     1.4880 H     1 <1>   0.0800 
 31 H       -0.9860     5.1690     1.2530 H     1 <1>   0.4000 
 32 H       -0.0100     7.3170    -0.4230 H     1 <1>   0.0800 
 33 H        0.9830     6.4770    -1.6060 H     1 <1>   0.0800 
 34 H        1.1850     6.4060     1.3020 H     1 <1>   0.4500 
 35 H        3.5820     6.2620     0.8550 H     1 <1>   0.0800 
 36 H        3.2090     6.4270    -0.8430 H     1 <1>   0.0800 
 37 H        2.1400     8.6140    -0.3970 H     1 <1>   0.0800 
 38 H        2.4380     8.4150     1.3170 H     1 <1>   0.0800 
 39 H        4.8730     8.3960     0.8860 H     1 <1>   0.0800 
 40 H        4.5760     8.5830    -0.8230 H     1 <1>   0.0800 
 41 H        3.7670    10.5730     1.3160 H     1 <1>   0.0800 
 42 H        3.4650    10.7580    -0.3910 H     1 <1>   0.0800 
 43 H        5.8990    10.7300    -0.8310 H     1 <1>   0.0800 
 44 H        6.2040    10.5470     0.8840 H     1 <1>   0.0800 
 45 H        5.1530    12.7600     1.3050 H     1 <1>   0.0800 
 46 H        4.8230    12.9250    -0.4150 H     1 <1>   0.0800 
 47 H        7.3720    12.6050     0.7600 H     1 <1>   0.4000 
@<TRIPOS>BOND
  1   1   2  1   
  2   1   3  1   
  3   2   4  2   
  4   3   5  2   
  5   3   6  1   
  6   4   5  1   
  7   4   7  1   
  8   5  21  1   
  9   6   8  1   
 10   6  22  1   
 11   6  23  1   
 12   7  24  1   
 13   7  25  1   
 14   7  26  1   
 15   8   9  1   
 16   8  10  1   
 17   8  27  1   
 18   9  11  1   
 19   9  12  1   
 20   9  28  1   
 21  10  13  1   
 22  10  29  1   
 23  10  30  1   
 24  11  31  1   
 25  12  13  1   
 26  12  32  1   
 27  12  33  1   
 28  13  14  1   
 29  13  34  1   
 30  14  15  1   
 31  14  35  1   
 32  14  36  1   
 33  15  16  1   
 34  15  37  1   
 35  15  38  1   
 36  16  17  1   
 37  16  39  1   
 38  16  40  1   
 39  17  18  1   
 40  17  41  1   
 41  17  42  1   
 42  18  19  1   
 43  18  43  1   
 44  18  44  1   
 45  19  20  1   
 46  19  45  1   
 47  19  46  1   
 48  20  47  1   
@<TRIPOS>SUBSTRUCTURE
  1 ****  13 GROUP 4 **** **** 0

# MOE 2024.06 (io_trps.svl 2023.06)
