@<TRIPOS>MOLECULE
NONAME
49 53 1 0 0 
SMALL
USER_CHARGES


@<TRIPOS>ATOM
  1 S       -0.8630     1.1270     2.6770 S.3   1 <1>  -0.0800 
  2 C       -1.2710     1.3230     0.9800 C.2   1 <1>  -0.1400 
  3 C       -2.1640    -0.0380     2.8880 C.2   1 <1>  -0.1100 
  4 C       -2.3200     0.5570     0.6530 C.2   1 <1>  -0.1810 
  5 C       -0.5030     2.2530     0.0480 C.3   1 <1>   0.4600 
  6 C       -2.8320    -0.2280     1.7340 C.2   1 <1>  -0.1500 
  7 C       -2.8500     0.5840    -0.7620 C.3   1 <1>   0.0210 
  8 O       -0.9820     2.0690    -1.2710 O.3   1 <1>  -0.5600 
  9 C        0.9860     1.8920     0.0200 C.3   1 <1>  -0.1600 
 10 C       -0.6860     3.7240     0.4440 C.3   1 <1>  -0.1600 
 11 C       -2.3650     1.8720    -1.4560 C.3   1 <1>   0.1200 
 12 C        1.7770     2.8470    -0.8740 C.3   1 <1>   0.1400 
 13 C        0.1280     4.6580    -0.4550 C.3   1 <1>   0.1400 
 14 N        1.5630     4.2510    -0.4120 N.am  1 <1>  -0.6600 
 15 C        2.6160     4.9950     0.0790 C.2   1 <1>   0.5690 
 16 O        3.6860     4.4750     0.3000 O.2   1 <1>  -0.5700 
 17 C        2.4700     6.4890     0.4070 C.3   1 <1>   0.1240 
 18 C        3.6540     7.3820    -0.0130 C.ar  1 <1>  -0.1440 
 19 C        2.1760     6.6350     1.9100 C.3   1 <1>  -0.0990 
 20 C        3.8620     8.5840     0.6640 C.ar  1 <1>   0.1170 
 21 C        4.4910     7.0510    -1.0710 C.ar  1 <1>  -0.1500 
 22 C        2.1540     8.0880     2.3220 C.2   1 <1>   0.5690 
 23 N        3.0230     8.9330     1.7220 N.am  1 <1>  -0.5470 
 24 C        4.8960     9.4280     0.2800 C.ar  1 <1>  -0.1500 
 25 C        5.5220     7.8950    -1.4460 C.ar  1 <1>  -0.1500 
 26 O        1.3850     8.4700     3.1650 O.2   1 <1>  -0.5700 
 27 C        5.7250     9.0850    -0.7710 C.ar  1 <1>  -0.1500 
 28 H       -2.2900    -0.4640     3.8670 H     1 <1>   0.1500 
 29 H       -3.6680    -0.8910     1.5960 H     1 <1>   0.1500 
 30 H       -3.9250     0.5660    -0.7560 H     1 <1>   0.0800 
 31 H       -2.4970    -0.2780    -1.3000 H     1 <1>   0.0800 
 32 H        1.0990     0.8820    -0.3300 H     1 <1>   0.0800 
 33 H        1.3940     1.9400     1.0120 H     1 <1>   0.0800 
 34 H       -0.3600     3.8570     1.4590 H     1 <1>   0.0800 
 35 H       -1.7260     3.9880     0.4090 H     1 <1>   0.0800 
 36 H       -2.8870     2.7260    -1.0630 H     1 <1>   0.0800 
 37 H       -2.5490     1.8140    -2.5140 H     1 <1>   0.0800 
 38 H        1.4440     2.7570    -1.8940 H     1 <1>   0.0800 
 39 H        2.8210     2.5840    -0.8460 H     1 <1>   0.0800 
 40 H       -0.0170     5.6660    -0.1200 H     1 <1>   0.0800 
 41 H       -0.2260     4.5880    -1.4710 H     1 <1>   0.0800 
 42 H        1.6360     6.8830    -0.1370 H     1 <1>   0.0800 
 43 H        2.9460     6.1420     2.4760 H     1 <1>   0.0800 
 44 H        1.2340     6.1790     2.1520 H     1 <1>   0.0800 
 45 H        4.3530     6.1320    -1.6150 H     1 <1>   0.1500 
 46 H        3.0320     9.8870     2.0810 H     1 <1>   0.3700 
 47 H        5.0540    10.3520     0.8050 H     1 <1>   0.1500 
 48 H        6.1670     7.6220    -2.2640 H     1 <1>   0.1500 
 49 H        6.5270     9.7400    -1.0640 H     1 <1>   0.1500 
@<TRIPOS>BOND
  1   1   2  1   
  2   1   3  1   
  3   2   4  2   
  4   2   5  1   
  5   3   6  2   
  6   3  28  1   
  7   4   6  1   
  8   4   7  1   
  9   5   8  1   
 10   5   9  1   
 11   5  10  1   
 12   6  29  1   
 13   7  11  1   
 14   7  30  1   
 15   7  31  1   
 16   8  11  1   
 17   9  12  1   
 18   9  32  1   
 19   9  33  1   
 20  10  13  1   
 21  10  34  1   
 22  10  35  1   
 23  11  36  1   
 24  11  37  1   
 25  12  14  1   
 26  12  38  1   
 27  12  39  1   
 28  13  14  1   
 29  13  40  1   
 30  13  41  1   
 31  14  15  am  
 32  15  16  2   
 33  15  17  1   
 34  17  18  1   
 35  17  19  1   
 36  17  42  1   
 37  18  20  ar  
 38  18  21  ar  
 39  19  22  1   
 40  19  43  1   
 41  19  44  1   
 42  20  23  1   
 43  20  24  ar  
 44  21  25  ar  
 45  21  45  1   
 46  22  23  am  
 47  22  26  2   
 48  23  46  1   
 49  24  27  ar  
 50  24  47  1   
 51  25  27  ar  
 52  25  48  1   
 53  27  49  1   
@<TRIPOS>SUBSTRUCTURE
  1 ****  14 GROUP 4 **** **** 0

# MOE 2024.06 (io_trps.svl 2023.06)
