@<TRIPOS>MOLECULE
NONAME
52 54 1 0 0 
SMALL
USER_CHARGES


@<TRIPOS>ATOM
  1 O        0.8050    -0.1290    -0.9690 O.2   1 <1>  -0.5700 
  2 C        1.7790    -0.8090    -0.6990 C.2   1 <1>   0.7160 
  3 N        3.0100    -0.1880    -0.6070 N.am  1 <1>  -0.6600 
  4 C        1.6270    -2.2300    -0.4830 C.2   1 <1>  -0.0860 
  5 C        4.1440    -0.7560     0.1900 C.3   1 <1>   0.1400 
  6 C        3.2370     1.1420    -1.2380 C.3   1 <1>   0.1400 
  7 C        0.5700    -2.8750     0.1730 C.2   1 <1>   0.1080 
  8 C        2.4310    -3.2690    -0.8510 C.2   1 <1>  -0.3020 
  9 C        4.6000     0.1800     1.3180 C.3   1 <1>   0.1400 
 10 C        3.1170     2.2550    -0.1890 C.3   1 <1>  -0.1600 
 11 N        0.7140    -4.1610     0.2170 N.2   1 <1>  -0.7070 
 12 C       -0.6320    -2.1860     0.7820 C.3   1 <1>  -0.0590 
 13 N        1.8640    -4.4040    -0.4220 N.pl3 1 <1>   0.3140 
 14 N        5.2900     1.3880     0.7720 N.am  1 <1>  -0.6600 
 15 C        4.4250     2.5830     0.5470 C.3   1 <1>   0.1400 
 16 C        2.3640    -5.7710    -0.5960 C.3   1 <1>   0.0160 
 17 C        6.6290     1.3160     0.4760 C.2   1 <1>   0.5690 
 18 O        7.2290     0.2690     0.5560 O.2   1 <1>  -0.5700 
 19 C        7.3930     2.5600     0.0280 C.3   1 <1>  -0.0990 
 20 C        8.9230     2.3790    -0.0220 C.3   1 <1>  -0.1600 
 21 C        9.6440     3.6640    -0.4510 C.3   1 <1>   0.0210 
 22 C       11.1530     3.4870    -0.5020 C.2   1 <1>  -0.1810 
 23 C       12.0720     4.4790    -0.8340 C.2   1 <1>   0.1390 
 24 C       11.9110     2.3960    -0.2540 C.2   1 <1>  -0.3020 
 25 N       13.2980     4.0520    -0.7990 N.2   1 <1>  -0.7070 
 26 N       13.1940     2.7590    -0.4390 N.pl3 1 <1>   0.3000 
 27 H        4.9760    -0.9650    -0.4610 H     1 <1>   0.0800 
 28 H        3.8470    -1.6810     0.6470 H     1 <1>   0.0800 
 29 H        2.4950     1.3000    -2.0030 H     1 <1>   0.0800 
 30 H        4.2020     1.1640    -1.7140 H     1 <1>   0.0800 
 31 H        3.3570    -3.2380    -1.3940 H     1 <1>   0.1500 
 32 H        5.2850    -0.3560     1.9530 H     1 <1>   0.0800 
 33 H        3.7580     0.4670     1.9240 H     1 <1>   0.0800 
 34 H        2.3470     1.9990     0.5170 H     1 <1>   0.0800 
 35 H        2.7910     3.1510    -0.6830 H     1 <1>   0.0800 
 36 H       -0.3130    -1.3780     1.4130 H     1 <1>   0.0800 
 37 H       -1.2000    -2.8860     1.3670 H     1 <1>   0.0800 
 38 H       -1.2570    -1.7960     0.0000 H     1 <1>   0.0800 
 39 H        4.1960     3.0350     1.4970 H     1 <1>   0.0800 
 40 H        4.9560     3.3110    -0.0380 H     1 <1>   0.0800 
 41 H        3.3250    -5.7480    -1.0730 H     1 <1>   0.0800 
 42 H        1.6670    -6.3190    -1.2010 H     1 <1>   0.0800 
 43 H        2.4440    -6.2350     0.3690 H     1 <1>   0.0800 
 44 H        7.1640     3.3580     0.7100 H     1 <1>   0.0800 
 45 H        7.0420     2.8320    -0.9500 H     1 <1>   0.0800 
 46 H        9.1630     1.5910    -0.7150 H     1 <1>   0.0800 
 47 H        9.2750     2.0830     0.9520 H     1 <1>   0.0800 
 48 H        9.4150     4.4540     0.2430 H     1 <1>   0.0800 
 49 H        9.3000     3.9620    -1.4260 H     1 <1>   0.0800 
 50 H       11.8090     5.4900    -1.0940 H     1 <1>   0.1500 
 51 H       11.6180     1.4030     0.0360 H     1 <1>   0.1500 
 52 H       14.0170     2.1540    -0.3280 H     1 <1>   0.2700 
@<TRIPOS>BOND
  1   1   2  2   
  2   2   3  am  
  3   2   4  1   
  4   3   5  1   
  5   3   6  1   
  6   4   7  1   
  7   4   8  2   
  8   5   9  1   
  9   5  27  1   
 10   5  28  1   
 11   6  10  1   
 12   6  29  1   
 13   6  30  1   
 14   7  11  2   
 15   7  12  1   
 16   8  13  1   
 17   8  31  1   
 18   9  14  1   
 19   9  32  1   
 20   9  33  1   
 21  10  15  1   
 22  10  34  1   
 23  10  35  1   
 24  11  13  1   
 25  12  36  1   
 26  12  37  1   
 27  12  38  1   
 28  13  16  1   
 29  14  15  1   
 30  14  17  am  
 31  15  39  1   
 32  15  40  1   
 33  16  41  1   
 34  16  42  1   
 35  16  43  1   
 36  17  18  2   
 37  17  19  1   
 38  19  20  1   
 39  19  44  1   
 40  19  45  1   
 41  20  21  1   
 42  20  46  1   
 43  20  47  1   
 44  21  22  1   
 45  21  48  1   
 46  21  49  1   
 47  22  23  1   
 48  22  24  2   
 49  23  25  2   
 50  23  50  1   
 51  24  26  1   
 52  24  51  1   
 53  25  26  1   
 54  26  52  1   
@<TRIPOS>SUBSTRUCTURE
  1 ****  14 GROUP 4 **** **** 0

# MOE 2024.06 (io_trps.svl 2023.06)
