@<TRIPOS>MOLECULE
NONAME
58 61 1 0 0 
SMALL
USER_CHARGES


@<TRIPOS>ATOM
  1 O       -1.2510     1.1670    -2.6650 O.2   1 <1>  -0.5700 
  2 C       -2.0450     1.4460    -1.7960 C.2   1 <1>   0.5690 
  3 N       -3.1960     0.7210    -1.6090 N.am  1 <1>  -0.6600 
  4 C       -1.7420     2.6370    -0.8970 C.3   1 <1>  -0.0990 
  5 C       -3.4880    -0.4950    -2.4210 C.3   1 <1>   0.1400 
  6 C       -4.2470     1.0070    -0.5930 C.3   1 <1>   0.1400 
  7 C       -0.3800     3.2950    -1.1620 C.3   1 <1>  -0.0160 
  8 C       -3.5920    -1.7090    -1.4940 C.3   1 <1>  -0.1600 
  9 C       -4.3490    -0.1780     0.3700 C.3   1 <1>  -0.1600 
 10 C       -0.1760     4.4760    -0.2270 C.ar  1 <1>  -0.1440 
 11 C       -4.6280    -1.5000    -0.3740 C.3   1 <1>   0.4240 
 12 C        0.4080     4.2930     1.0160 C.ar  1 <1>  -0.1500 
 13 C       -0.5780     5.7470    -0.6070 C.ar  1 <1>  -0.1500 
 14 O       -5.8430    -1.3210    -1.0700 O.3   1 <1>  -0.5600 
 15 C       -4.6900    -2.7250     0.5850 C.ar  1 <1>  -0.1430 
 16 C        0.5930     5.3620     1.8790 C.ar  1 <1>   0.0820 
 17 C       -0.3980     6.8220     0.2470 C.ar  1 <1>  -0.1500 
 18 C       -7.0290    -1.5520    -0.3840 C.3   1 <1>   0.1200 
 19 C       -3.5860    -3.1350     1.3450 C.ar  1 <1>   0.0820 
 20 C       -5.8750    -3.4500     0.7080 C.ar  1 <1>  -0.1430 
 21 O        1.1720     5.0900     3.0760 O.3   1 <1>  -0.3630 
 22 C        0.1850     6.6340     1.4880 C.ar  1 <1>  -0.1500 
 23 C       -7.1090    -3.0370    -0.0670 C.3   1 <1>  -0.0170 
 24 O       -2.4280    -2.4290     1.2580 O.3   1 <1>  -0.3630 
 25 C       -3.6820    -4.2480     2.1800 C.ar  1 <1>  -0.1500 
 26 C       -5.9580    -4.5550     1.5380 C.ar  1 <1>  -0.1500 
 27 C        1.4420     6.1120     4.0080 C.3   1 <1>   0.0400 
 28 C       -1.2310    -2.8420     1.8800 C.3   1 <1>   0.0400 
 29 C       -4.8620    -4.9560     2.2740 C.ar  1 <1>  -0.1500 
 30 H       -1.7670     2.3070     0.1250 H     1 <1>   0.0800 
 31 H       -2.5130     3.3720    -1.0380 H     1 <1>   0.0800 
 32 H       -2.7130    -0.6650    -3.1490 H     1 <1>   0.0800 
 33 H       -4.4140    -0.3520    -2.9500 H     1 <1>   0.0800 
 34 H       -5.1890     1.1520    -1.0960 H     1 <1>   0.0800 
 35 H       -4.0310     1.9020    -0.0400 H     1 <1>   0.0800 
 36 H       -0.3290     3.6270    -2.1840 H     1 <1>   0.0800 
 37 H        0.4050     2.5730    -1.0150 H     1 <1>   0.0800 
 38 H       -2.6180    -1.8880    -1.0870 H     1 <1>   0.0800 
 39 H       -3.8640    -2.5790    -2.0620 H     1 <1>   0.0800 
 40 H       -5.1160     0.0020     1.0990 H     1 <1>   0.0800 
 41 H       -3.4230    -0.2400     0.9060 H     1 <1>   0.0800 
 42 H        0.7270     3.3170     1.3310 H     1 <1>   0.1500 
 43 H       -1.0320     5.9040    -1.5700 H     1 <1>   0.1500 
 44 H       -0.7130     7.8050    -0.0570 H     1 <1>   0.1500 
 45 H       -7.8440    -1.2570    -1.0220 H     1 <1>   0.0800 
 46 H       -7.0460    -0.9590     0.5130 H     1 <1>   0.0800 
 47 H        0.3130     7.4840     2.1310 H     1 <1>   0.1500 
 48 H       -7.1700    -3.5980    -0.9830 H     1 <1>   0.0800 
 49 H       -7.9960    -3.2270     0.5100 H     1 <1>   0.0800 
 50 H       -2.8510    -4.5810     2.7690 H     1 <1>   0.1500 
 51 H       -6.8770    -5.1090     1.6170 H     1 <1>   0.1500 
 52 H        1.9130     5.6670     4.8660 H     1 <1>   0.0800 
 53 H        0.5150     6.5730     4.2990 H     1 <1>   0.0800 
 54 H        2.1060     6.8290     3.5580 H     1 <1>   0.0800 
 55 H       -0.4570    -2.1480     1.6040 H     1 <1>   0.0800 
 56 H       -0.9780    -3.8270     1.5310 H     1 <1>   0.0800 
 57 H       -1.3680    -2.8300     2.9460 H     1 <1>   0.0800 
 58 H       -4.9300    -5.8150     2.9180 H     1 <1>   0.1500 
@<TRIPOS>BOND
  1   1   2  2   
  2   2   3  am  
  3   2   4  1   
  4   3   5  1   
  5   3   6  1   
  6   4   7  1   
  7   4  30  1   
  8   4  31  1   
  9   5   8  1   
 10   5  32  1   
 11   5  33  1   
 12   6   9  1   
 13   6  34  1   
 14   6  35  1   
 15   7  10  1   
 16   7  36  1   
 17   7  37  1   
 18   8  11  1   
 19   8  38  1   
 20   8  39  1   
 21   9  11  1   
 22   9  40  1   
 23   9  41  1   
 24  10  12  ar  
 25  10  13  ar  
 26  11  14  1   
 27  11  15  1   
 28  12  16  ar  
 29  12  42  1   
 30  13  17  ar  
 31  13  43  1   
 32  14  18  1   
 33  15  19  ar  
 34  15  20  ar  
 35  16  21  1   
 36  16  22  ar  
 37  17  22  ar  
 38  17  44  1   
 39  18  23  1   
 40  18  45  1   
 41  18  46  1   
 42  19  24  1   
 43  19  25  ar  
 44  20  23  1   
 45  20  26  ar  
 46  21  27  1   
 47  22  47  1   
 48  23  48  1   
 49  23  49  1   
 50  24  28  1   
 51  25  29  ar  
 52  25  50  1   
 53  26  29  ar  
 54  26  51  1   
 55  27  52  1   
 56  27  53  1   
 57  27  54  1   
 58  28  55  1   
 59  28  56  1   
 60  28  57  1   
 61  29  58  1   
@<TRIPOS>SUBSTRUCTURE
  1 ****   9 GROUP 4 **** **** 0

# MOE 2024.06 (io_trps.svl 2023.06)
