@<TRIPOS>MOLECULE
NONAME
46 47 1 0 0 
SMALL
USER_CHARGES


@<TRIPOS>ATOM
  1 O        0.4820    -0.1170    -2.1700 O.2   1 <1>  -0.5700 
  2 C        1.1790    -0.6950    -1.3720 C.2   1 <1>   0.5690 
  3 N        1.9270    -0.0260    -0.4700 N.am  1 <1>  -0.7300 
  4 C        1.2280    -2.2090    -1.3800 C.3   1 <1>  -0.0990 
  5 C        2.0240     1.4360    -0.3740 C.3   1 <1>   0.3200 
  6 C        0.3780    -2.8210    -0.2540 C.3   1 <1>  -0.1600 
  7 C        3.1580     1.8090     0.5760 C.2   1 <1>   0.0060 
  8 C        0.4130    -4.3610    -0.2890 C.3   1 <1>  -0.0990 
  9 N        3.8470     0.9440     1.2610 N.2   1 <1>  -0.5650 
 10 N        3.5430     3.0960     0.7840 N.pl3 1 <1>   0.0480 
 11 C       -0.4460    -5.0280     0.7860 C.2   1 <1>   0.4230 
 12 C        4.7220     1.6960     1.9480 C.2   1 <1>   0.0770 
 13 C        4.5540     3.0060     1.6710 C.2   1 <1>  -0.3020 
 14 C        2.9960     4.3440     0.1830 C.3   1 <1>   0.1760 
 15 O       -0.7140    -4.3900     1.7720 O.2   1 <1>  -0.5700 
 16 C       -0.9050    -6.3900     0.5930 C.ar  1 <1>   0.0860 
 17 C        4.0700     5.0410    -0.6590 C.3   1 <1>  -0.2400 
 18 C        2.4650     5.2750     1.2780 C.3   1 <1>  -0.2400 
 19 C       -1.9720    -6.8820     1.3490 C.ar  1 <1>  -0.1500 
 20 C       -0.3240    -7.2720    -0.3260 C.ar  1 <1>  -0.1500 
 21 C       -2.4450    -8.1720     1.1920 C.ar  1 <1>  -0.1500 
 22 C       -0.7930    -8.5630    -0.4880 C.ar  1 <1>  -0.1500 
 23 C       -1.8560    -9.0160     0.2700 C.ar  1 <1>  -0.1500 
 24 H        2.5480    -0.4910     0.2010 H     1 <1>   0.3700 
 25 H        2.2520    -2.5190    -1.2790 H     1 <1>   0.0800 
 26 H        0.8690    -2.5510    -2.3330 H     1 <1>   0.0800 
 27 H        1.0920     1.8260    -0.0040 H     1 <1>   0.0800 
 28 H        2.2100     1.8410    -1.3540 H     1 <1>   0.0800 
 29 H       -0.6400    -2.4840    -0.3550 H     1 <1>   0.0800 
 30 H        0.7440    -2.4750     0.6990 H     1 <1>   0.0800 
 31 H        1.4270    -4.6940    -0.1620 H     1 <1>   0.0800 
 32 H        0.0670    -4.6820    -1.2550 H     1 <1>   0.0800 
 33 H        5.4400     1.2490     2.6170 H     1 <1>   0.1500 
 34 H        5.0890     3.8570     2.0510 H     1 <1>   0.1500 
 35 H        2.1770     4.0820    -0.4630 H     1 <1>   0.0800 
 36 H        4.8980     5.3470    -0.0450 H     1 <1>   0.0800 
 37 H        3.6580     5.9130    -1.1340 H     1 <1>   0.0800 
 38 H        4.4280     4.3760    -1.4260 H     1 <1>   0.0800 
 39 H        3.2600     5.5930     1.9290 H     1 <1>   0.0800 
 40 H        1.7140     4.7710     1.8600 H     1 <1>   0.0800 
 41 H        2.0200     6.1480     0.8350 H     1 <1>   0.0800 
 42 H       -2.4380    -6.2350     2.0730 H     1 <1>   0.1500 
 43 H        0.5110    -6.9570    -0.9250 H     1 <1>   0.1500 
 44 H       -3.2710    -8.5190     1.7890 H     1 <1>   0.1500 
 45 H       -0.3300    -9.2220    -1.2040 H     1 <1>   0.1500 
 46 H       -2.2220   -10.0210     0.1450 H     1 <1>   0.1500 
@<TRIPOS>BOND
  1   1   2  2   
  2   2   3  am  
  3   2   4  1   
  4   3   5  1   
  5   3  24  1   
  6   4   6  1   
  7   4  25  1   
  8   4  26  1   
  9   5   7  1   
 10   5  27  1   
 11   5  28  1   
 12   6   8  1   
 13   6  29  1   
 14   6  30  1   
 15   7   9  2   
 16   7  10  1   
 17   8  11  1   
 18   8  31  1   
 19   8  32  1   
 20   9  12  1   
 21  10  13  1   
 22  10  14  1   
 23  11  15  2   
 24  11  16  1   
 25  12  13  2   
 26  12  33  1   
 27  13  34  1   
 28  14  17  1   
 29  14  18  1   
 30  14  35  1   
 31  16  19  ar  
 32  16  20  ar  
 33  17  36  1   
 34  17  37  1   
 35  17  38  1   
 36  18  39  1   
 37  18  40  1   
 38  18  41  1   
 39  19  21  ar  
 40  19  42  1   
 41  20  22  ar  
 42  20  43  1   
 43  21  23  ar  
 44  21  44  1   
 45  22  23  ar  
 46  22  45  1   
 47  23  46  1   
@<TRIPOS>SUBSTRUCTURE
  1 ****   6 GROUP 4 **** **** 0

# MOE 2024.06 (io_trps.svl 2023.06)
