@<TRIPOS>MOLECULE
NONAME
53 57 1 0 0 
SMALL
USER_CHARGES


@<TRIPOS>ATOM
  1 S       -1.5410     0.3860     1.9130 S.3   1 <1>  -0.0800 
  2 C       -1.0770     1.7530     0.9020 C.2   1 <1>   0.3250 
  3 C       -2.6210    -0.1690     0.6770 C.2   1 <1>  -0.1100 
  4 N       -1.6950     1.7510    -0.2290 N.2   1 <1>  -0.5650 
  5 C       -0.0970     2.7040     1.3890 C.ar  1 <1>   0.0530 
  6 C       -2.5570     0.6800    -0.3590 C.2   1 <1>   0.0460 
  7 C        0.4150     3.6770     0.5280 C.ar  1 <1>  -0.1500 
  8 C        0.3800     2.7090     2.7030 C.ar  1 <1>  -0.1500 
  9 C       -3.3400     0.5910    -1.6570 C.3   1 <1>   0.0820 
 10 C        1.3540     4.6020     0.9480 C.ar  1 <1>  -0.1500 
 11 C        1.3190     3.6300     3.1300 C.ar  1 <1>  -0.1500 
 12 C       -4.5500    -0.3250    -1.5590 C.2   1 <1>   0.5690 
 13 C        1.8090     4.5800     2.2530 C.ar  1 <1>  -0.1500 
 14 O       -4.5020    -1.3650    -2.1740 O.2   1 <1>  -0.5700 
 15 N       -5.6560     0.0220    -0.8160 N.am  1 <1>  -0.6600 
 16 C       -5.7760     1.2510     0.0370 C.3   1 <1>   0.1400 
 17 C       -6.8650    -0.8500    -0.7740 C.3   1 <1>   0.1400 
 18 C       -6.9950     2.0970    -0.3750 C.3   1 <1>   0.1440 
 19 C       -8.1020    -0.0470    -1.1970 C.3   1 <1>  -0.1600 
 20 C       -7.0860     3.2880     0.5620 C.ar  1 <1>   0.1670 
 21 C       -8.2700     1.2270    -0.3510 C.3   1 <1>  -0.1600 
 22 C       -6.7780     2.7780    -1.7540 C.3   1 <1>  -0.1600 
 23 N       -7.4860     3.2460     1.8130 N.ar  1 <1>  -0.6200 
 24 C       -6.6780     4.4370    -0.0470 C.ar  1 <1>  -0.1430 
 25 C       -6.2520     4.1970    -1.4740 C.3   1 <1>  -0.0170 
 26 C       -7.4730     4.4190     2.4320 C.ar  1 <1>   0.4770 
 27 C       -6.7030     5.5950     0.6890 C.ar  1 <1>   0.1600 
 28 N       -7.1060     5.5960     1.9430 N.ar  1 <1>  -0.6200 
 29 C       -7.9350     4.4180     3.8690 C.3   1 <1>  -0.0970 
 30 H       -3.1860    -1.0670     0.8560 H     1 <1>   0.1500 
 31 H        0.0700     3.7060    -0.4910 H     1 <1>   0.1500 
 32 H        0.0200     1.9880     3.4140 H     1 <1>   0.1500 
 33 H       -2.6850     0.2340    -2.4290 H     1 <1>   0.0800 
 34 H       -3.6720     1.5700    -1.9440 H     1 <1>   0.0800 
 35 H        1.7310     5.3390     0.2600 H     1 <1>   0.1500 
 36 H        1.6710     3.6110     4.1470 H     1 <1>   0.1500 
 37 H        2.5400     5.2980     2.5840 H     1 <1>   0.1500 
 38 H       -4.8920     1.8580    -0.0130 H     1 <1>   0.0800 
 39 H       -5.8960     0.9450     1.0630 H     1 <1>   0.0800 
 40 H       -6.9940    -1.2190     0.2290 H     1 <1>   0.0800 
 41 H       -6.7490    -1.6990    -1.4270 H     1 <1>   0.0800 
 42 H       -8.9750    -0.6670    -1.0890 H     1 <1>   0.0800 
 43 H       -8.0120     0.2060    -2.2380 H     1 <1>   0.0800 
 44 H       -9.1150     1.7960    -0.6980 H     1 <1>   0.0800 
 45 H       -8.4750     0.9400     0.6660 H     1 <1>   0.0800 
 46 H       -7.7250     2.8710    -2.2570 H     1 <1>   0.0800 
 47 H       -6.1150     2.2230    -2.3920 H     1 <1>   0.0800 
 48 H       -6.6820     4.9190    -2.1460 H     1 <1>   0.0800 
 49 H       -5.1780     4.2260    -1.5400 H     1 <1>   0.0800 
 50 H       -6.3900     6.5280     0.2520 H     1 <1>   0.1500 
 51 H       -7.8380     3.4360     4.2910 H     1 <1>   0.0800 
 52 H       -8.9640     4.7210     3.9090 H     1 <1>   0.0800 
 53 H       -7.3420     5.1050     4.4430 H     1 <1>   0.0800 
@<TRIPOS>BOND
  1   1   2  1   
  2   1   3  1   
  3   2   4  2   
  4   2   5  1   
  5   3   6  2   
  6   3  30  1   
  7   4   6  1   
  8   5   7  ar  
  9   5   8  ar  
 10   6   9  1   
 11   7  10  ar  
 12   7  31  1   
 13   8  11  ar  
 14   8  32  1   
 15   9  12  1   
 16   9  33  1   
 17   9  34  1   
 18  10  13  ar  
 19  10  35  1   
 20  11  13  ar  
 21  11  36  1   
 22  12  14  2   
 23  12  15  am  
 24  13  37  1   
 25  15  16  1   
 26  15  17  1   
 27  16  18  1   
 28  16  38  1   
 29  16  39  1   
 30  17  19  1   
 31  17  40  1   
 32  17  41  1   
 33  18  20  1   
 34  18  21  1   
 35  18  22  1   
 36  19  21  1   
 37  19  42  1   
 38  19  43  1   
 39  20  23  ar  
 40  20  24  ar  
 41  21  44  1   
 42  21  45  1   
 43  22  25  1   
 44  22  46  1   
 45  22  47  1   
 46  23  26  ar  
 47  24  25  1   
 48  24  27  ar  
 49  25  48  1   
 50  25  49  1   
 51  26  28  ar  
 52  26  29  1   
 53  27  28  ar  
 54  27  50  1   
 55  29  51  1   
 56  29  52  1   
 57  29  53  1   
@<TRIPOS>SUBSTRUCTURE
  1 ****  16 GROUP 4 **** **** 0

# MOE 2024.06 (io_trps.svl 2023.06)
