@<TRIPOS>MOLECULE
NONAME
54 56 1 0 0 
SMALL
USER_CHARGES


@<TRIPOS>ATOM
  1 F       -1.1060    -0.8150     1.2060 F     1 <1>  -0.1900 
  2 C       -2.2700    -0.2710     0.9580 C.ar  1 <1>   0.1900 
  3 C       -2.4300     0.7320    -0.0060 C.ar  1 <1>   0.0820 
  4 C       -3.3380    -0.7400     1.6990 C.ar  1 <1>  -0.1500 
  5 O       -1.4590     1.2750    -0.7940 O.3   1 <1>  -0.3630 
  6 C       -3.7040     1.2420    -0.1970 C.ar  1 <1>  -0.1500 
  7 C       -4.5970    -0.2100     1.4820 C.ar  1 <1>  -0.1500 
  8 C       -0.0950     0.9370    -0.6800 C.3   1 <1>   0.0400 
  9 C       -4.8060     0.7880     0.5280 C.ar  1 <1>   0.0530 
 10 C       -6.1110     1.3500     0.2990 C.2   1 <1>   0.0870 
 11 O       -6.2540     2.6500     0.2600 O.3   1 <1>  -0.0190 
 12 C       -7.3420     0.8070     0.0900 C.2   1 <1>  -0.0860 
 13 N       -7.4890     3.0210     0.0520 N.2   1 <1>  -0.4100 
 14 C       -8.1640     1.9330    -0.0530 C.2   1 <1>   0.3720 
 15 C       -7.7560    -0.5590    -0.0080 C.2   1 <1>   0.7160 
 16 N       -9.5480     1.9150    -0.2890 N.pl3 1 <1>  -0.8210 
 17 O       -6.9650    -1.4810     0.0520 O.2   1 <1>  -0.5700 
 18 N       -9.0690    -0.8780    -0.1820 N.am  1 <1>  -0.7300 
 19 C      -10.3170     2.5520     0.8190 C.3   1 <1>   0.1290 
 20 C       -9.9050     2.5450    -1.5940 C.3   1 <1>   0.1290 
 21 C       -9.6300    -2.1910    -0.5890 C.3   1 <1>   0.1400 
 22 C       -9.3530    -3.2840     0.4660 C.3   1 <1>   0.3430 
 23 N       -8.7130    -4.5170    -0.1070 N.4   1 <1>  -0.9590 
 24 C       -8.7490    -5.6480     0.8830 C.3   1 <1>   0.3430 
 25 C       -7.2830    -4.2540    -0.5120 C.3   1 <1>   0.3430 
 26 C       -7.9890    -6.8820     0.3580 C.3   1 <1>   0.1200 
 27 C       -6.5700    -5.5400    -0.9680 C.3   1 <1>   0.1200 
 28 O       -6.6810    -6.5350     0.0090 O.3   1 <1>  -0.5600 
 29 H       -3.1810    -1.5080     2.4340 H     1 <1>   0.1500 
 30 H       -3.8410     2.0150    -0.9310 H     1 <1>   0.1500 
 31 H       -5.4300    -0.5690     2.0600 H     1 <1>   0.1500 
 32 H        0.4580     1.5350    -1.3810 H     1 <1>   0.0800 
 33 H        0.0290    -0.1060    -0.9150 H     1 <1>   0.0800 
 34 H        0.2370     1.1490     0.3210 H     1 <1>   0.0800 
 35 H       -9.6740    -0.0440    -0.3010 H     1 <1>   0.3700 
 36 H      -10.0250     2.1230     1.7620 H     1 <1>   0.0800 
 37 H      -11.3720     2.3930     0.6770 H     1 <1>   0.0800 
 38 H      -10.1210     3.6110     0.8480 H     1 <1>   0.0800 
 39 H       -9.3150     2.1120    -2.3840 H     1 <1>   0.0800 
 40 H       -9.7090     3.6040    -1.5610 H     1 <1>   0.0800 
 41 H      -10.9470     2.3850    -1.8100 H     1 <1>   0.0800 
 42 H       -9.2070    -2.4630    -1.5410 H     1 <1>   0.0800 
 43 H      -10.6940    -2.0840    -0.7120 H     1 <1>   0.0800 
 44 H      -10.2880    -3.5490     0.9300 H     1 <1>   0.0800 
 45 H       -8.7100    -2.8740     1.2280 H     1 <1>   0.0800 
 46 H       -9.2280    -4.8170    -0.9450 H     1 <1>   0.4500 
 47 H       -9.7690    -5.9230     1.0950 H     1 <1>   0.0800 
 48 H       -8.2890    -5.3380     1.8070 H     1 <1>   0.0800 
 49 H       -6.7390    -3.8450     0.3250 H     1 <1>   0.0800 
 50 H       -7.2460    -3.5230    -1.3030 H     1 <1>   0.0800 
 51 H       -8.4770    -7.3060    -0.5030 H     1 <1>   0.0800 
 52 H       -7.9320    -7.6360     1.1240 H     1 <1>   0.0800 
 53 H       -5.5220    -5.3450    -1.1190 H     1 <1>   0.0800 
 54 H       -6.9850    -5.9100    -1.8900 H     1 <1>   0.0800 
@<TRIPOS>BOND
  1   1   2  1   
  2   2   3  ar  
  3   2   4  ar  
  4   3   5  1   
  5   3   6  ar  
  6   4   7  ar  
  7   4  29  1   
  8   5   8  1   
  9   6   9  ar  
 10   6  30  1   
 11   7   9  ar  
 12   7  31  1   
 13   8  32  1   
 14   8  33  1   
 15   8  34  1   
 16   9  10  1   
 17  10  11  1   
 18  10  12  2   
 19  11  13  1   
 20  12  14  1   
 21  12  15  1   
 22  13  14  2   
 23  14  16  1   
 24  15  17  2   
 25  15  18  am  
 26  16  19  1   
 27  16  20  1   
 28  18  21  1   
 29  18  35  1   
 30  19  36  1   
 31  19  37  1   
 32  19  38  1   
 33  20  39  1   
 34  20  40  1   
 35  20  41  1   
 36  21  22  1   
 37  21  42  1   
 38  21  43  1   
 39  22  23  1   
 40  22  44  1   
 41  22  45  1   
 42  23  24  1   
 43  23  25  1   
 44  23  46  1   
 45  24  26  1   
 46  24  47  1   
 47  24  48  1   
 48  25  27  1   
 49  25  49  1   
 50  25  50  1   
 51  26  28  1   
 52  26  51  1   
 53  26  52  1   
 54  27  28  1   
 55  27  53  1   
 56  27  54  1   
@<TRIPOS>SUBSTRUCTURE
  1 ****  17 GROUP 4 **** **** 0

# MOE 2024.06 (io_trps.svl 2023.06)
