@<TRIPOS>MOLECULE
NONAME
54 56 1 0 0 
SMALL
USER_CHARGES


@<TRIPOS>ATOM
  1 O       -0.4730     0.4640     0.4190 O.2   1 <1>  -0.5700 
  2 C       -1.5120     1.0570     0.1910 C.2   1 <1>   0.7150 
  3 N       -2.7030     0.3880     0.3440 N.am  1 <1>  -0.6600 
  4 C       -1.4850     2.4210    -0.2560 C.2   1 <1>  -0.2370 
  5 C       -3.9450     0.7280    -0.3960 C.3   1 <1>   0.1400 
  6 C       -2.7970    -1.0010     0.8520 C.3   1 <1>   0.1400 
  7 N       -0.5250     2.9440    -1.0620 N.pl3 1 <1>   0.3140 
  8 C       -2.3350     3.4550    -0.0040 C.2   1 <1>  -0.1500 
  9 C       -4.8290    -0.5270    -0.3480 C.3   1 <1>   0.2000 
 10 C       -3.8490    -1.6640    -0.0360 C.3   1 <1>  -0.0800 
 11 N       -0.7480     4.2350    -1.3470 N.2   1 <1>  -0.7070 
 12 C        0.6550     2.2590    -1.6150 C.3   1 <1>   0.0160 
 13 C       -1.8310     4.5370    -0.7000 C.2   1 <1>   0.1080 
 14 O       -5.7430    -0.4200     0.7070 O.3   1 <1>  -0.5600 
 15 C       -4.4920    -2.9120     0.5960 C.3   1 <1>   0.0200 
 16 C       -2.4440     5.9260    -0.7250 C.3   1 <1>   0.0210 
 17 C       -6.9330     0.2350     0.3980 C.3   1 <1>   0.0400 
 18 C       -3.5290    -4.0810     0.7270 C.2   1 <1>  -0.0400 
 19 C       -2.3650     6.6370     0.6400 C.3   1 <1>  -0.0800 
 20 O       -3.9390    -5.1660     1.3290 O.3   1 <1>  -0.0190 
 21 C       -2.2600    -4.2870     0.3390 C.2   1 <1>  -0.1500 
 22 C       -3.0960     7.9840     0.5860 C.3   1 <1>  -0.2400 
 23 C       -0.9100     6.8560     1.0800 C.3   1 <1>  -0.2400 
 24 N       -3.0160    -6.0820     1.3670 N.2   1 <1>  -0.4100 
 25 C       -1.9910    -5.5800     0.7780 C.2   1 <1>   0.1080 
 26 C       -0.6760    -6.3030     0.5930 C.3   1 <1>  -0.0590 
 27 H       -4.4410     1.5680     0.0570 H     1 <1>   0.0800 
 28 H       -3.6930     0.9620    -1.4160 H     1 <1>   0.0800 
 29 H       -1.8510    -1.5110     0.8020 H     1 <1>   0.0800 
 30 H       -3.1320    -0.9710     1.8750 H     1 <1>   0.0800 
 31 H       -3.2140     3.4570     0.6130 H     1 <1>   0.1500 
 32 H       -5.3630    -0.6980    -1.2670 H     1 <1>   0.0800 
 33 H       -3.3720    -1.9470    -0.9580 H     1 <1>   0.0800 
 34 H        0.3460     1.3540    -2.1010 H     1 <1>   0.0800 
 35 H        1.3320     2.0290    -0.8130 H     1 <1>   0.0800 
 36 H        1.1400     2.9050    -2.3230 H     1 <1>   0.0800 
 37 H       -5.3240    -3.2270    -0.0070 H     1 <1>   0.0800 
 38 H       -4.8720    -2.6710     1.5730 H     1 <1>   0.0800 
 39 H       -1.9380     6.5140    -1.4700 H     1 <1>   0.0800 
 40 H       -3.4720     5.8330    -1.0250 H     1 <1>   0.0800 
 41 H       -7.5350     0.2690     1.2890 H     1 <1>   0.0800 
 42 H       -7.4530    -0.3150    -0.3670 H     1 <1>   0.0800 
 43 H       -6.7210     1.2370     0.0680 H     1 <1>   0.0800 
 44 H       -2.8520     6.0180     1.3760 H     1 <1>   0.0800 
 45 H       -1.5770    -3.6450    -0.1860 H     1 <1>   0.1500 
 46 H       -2.6350     8.6360    -0.1360 H     1 <1>   0.0800 
 47 H       -3.0640     8.4640     1.5480 H     1 <1>   0.0800 
 48 H       -4.1270     7.8420     0.3150 H     1 <1>   0.0800 
 49 H       -0.3820     7.4510     0.3570 H     1 <1>   0.0800 
 50 H       -0.4000     5.9130     1.1780 H     1 <1>   0.0800 
 51 H       -0.8750     7.3550     2.0320 H     1 <1>   0.0800 
 52 H        0.1090    -5.7610     1.0870 H     1 <1>   0.0800 
 53 H       -0.4490    -6.3850    -0.4530 H     1 <1>   0.0800 
 54 H       -0.7380    -7.2890     1.0150 H     1 <1>   0.0800 
@<TRIPOS>BOND
  1   1   2  2   
  2   2   3  am  
  3   2   4  1   
  4   3   5  1   
  5   3   6  1   
  6   4   7  1   
  7   4   8  2   
  8   5   9  1   
  9   5  27  1   
 10   5  28  1   
 11   6  10  1   
 12   6  29  1   
 13   6  30  1   
 14   7  11  1   
 15   7  12  1   
 16   8  13  1   
 17   8  31  1   
 18   9  10  1   
 19   9  14  1   
 20   9  32  1   
 21  10  15  1   
 22  10  33  1   
 23  11  13  2   
 24  12  34  1   
 25  12  35  1   
 26  12  36  1   
 27  13  16  1   
 28  14  17  1   
 29  15  18  1   
 30  15  37  1   
 31  15  38  1   
 32  16  19  1   
 33  16  39  1   
 34  16  40  1   
 35  17  41  1   
 36  17  42  1   
 37  17  43  1   
 38  18  20  1   
 39  18  21  2   
 40  19  22  1   
 41  19  23  1   
 42  19  44  1   
 43  20  24  1   
 44  21  25  1   
 45  21  45  1   
 46  22  46  1   
 47  22  47  1   
 48  22  48  1   
 49  23  49  1   
 50  23  50  1   
 51  23  51  1   
 52  24  25  2   
 53  25  26  1   
 54  26  52  1   
 55  26  53  1   
 56  26  54  1   
@<TRIPOS>SUBSTRUCTURE
  1 ****   3 GROUP 4 **** **** 0

# MOE 2024.06 (io_trps.svl 2023.06)
