@<TRIPOS>MOLECULE
NONAME
46 48 1 0 0 
SMALL
USER_CHARGES


@<TRIPOS>ATOM
  1 O       -0.9070     0.0360    -0.5290 O.2   1 <1>  -0.5700 
  2 C       -1.7420     0.9070    -0.3400 C.2   1 <1>   0.5440 
  3 N       -2.8720     0.5640     0.3860 N.am  1 <1>  -0.6600 
  4 C       -1.5250     2.2520    -0.8780 C.ar  1 <1>   0.3960 
  5 C       -3.1360    -0.8480     0.7870 C.3   1 <1>   0.1400 
  6 C       -4.0920     1.4180     0.4610 C.3   1 <1>   0.1400 
  7 N       -2.2770     2.6510    -1.9200 N.ar  1 <1>  -0.6200 
  8 C       -0.5550     3.0880    -0.3020 C.ar  1 <1>  -0.1440 
  9 C       -4.1390    -1.4510    -0.2240 C.3   1 <1>   0.4230 
 10 C       -5.1480     0.8380    -0.4920 C.3   1 <1>  -0.1600 
 11 C       -2.0590     3.8630    -2.3880 C.ar  1 <1>   0.1600 
 12 C       -0.3480     4.3540    -0.8110 C.ar  1 <1>  -0.1500 
 13 C        0.2840     2.6260     0.8850 C.3   1 <1>  -0.0960 
 14 N       -4.4020    -2.9200    -0.0430 N.4   1 <1>  -0.9590 
 15 C       -5.4640    -0.6560    -0.1860 C.3   1 <1>  -0.1060 
 16 C       -1.1220     4.7430    -1.8800 C.ar  1 <1>  -0.1500 
 17 C       -5.2670    -3.4620    -1.1210 C.3   1 <1>   0.3430 
 18 C       -3.1920    -3.7520     0.1890 C.3   1 <1>   0.2630 
 19 C       -6.0880    -0.8070     1.2160 C.2   1 <1>   0.9060 
 20 C       -6.4220    -1.1950    -1.2750 C.3   1 <1>  -0.1600 
 21 C       -6.6040    -2.7170    -1.1620 C.3   1 <1>  -0.1600 
 22 O       -5.9150    -1.8680     1.8390 O.co2 1 <1>  -0.9000 
 23 O       -6.7350     0.1210     1.6980 O.co2 1 <1>  -0.9000 
 24 H       -2.2170    -1.4020     0.7870 H     1 <1>   0.0800 
 25 H       -3.5370    -0.8640     1.7860 H     1 <1>   0.0800 
 26 H       -4.4670     1.4200     1.4720 H     1 <1>   0.0800 
 27 H       -3.8740     2.4370     0.1930 H     1 <1>   0.0800 
 28 H       -3.7010    -1.3160    -1.1980 H     1 <1>   0.0800 
 29 H       -6.0470     1.4240    -0.4030 H     1 <1>   0.0800 
 30 H       -4.7910     0.9510    -1.5010 H     1 <1>   0.0800 
 31 H       -2.6590     4.1790    -3.2250 H     1 <1>   0.1500 
 32 H        0.3900     5.0200    -0.3970 H     1 <1>   0.1500 
 33 H        0.9110     3.4180     1.2510 H     1 <1>   0.0800 
 34 H        0.9130     1.8040     0.5920 H     1 <1>   0.0800 
 35 H       -0.3540     2.3030     1.6890 H     1 <1>   0.0800 
 36 H       -4.9930    -2.9040     0.8320 H     1 <1>   0.4500 
 37 H       -1.0010     5.7170    -2.3190 H     1 <1>   0.1500 
 38 H       -4.7680    -3.3560    -2.0700 H     1 <1>   0.0800 
 39 H       -5.4530    -4.5080    -0.9460 H     1 <1>   0.0800 
 40 H       -2.5180    -3.6730    -0.6480 H     1 <1>   0.0800 
 41 H       -3.4730    -4.7840     0.3200 H     1 <1>   0.0800 
 42 H       -2.6820    -3.4250     1.0800 H     1 <1>   0.0800 
 43 H       -7.3800    -0.7110    -1.1770 H     1 <1>   0.0800 
 44 H       -6.0330    -0.9600    -2.2510 H     1 <1>   0.0800 
 45 H       -7.1800    -3.0700    -1.9980 H     1 <1>   0.0800 
 46 H       -7.1620    -2.9510    -0.2700 H     1 <1>   0.0800 
@<TRIPOS>BOND
  1   1   2  2   
  2   2   3  am  
  3   2   4  1   
  4   3   5  1   
  5   3   6  1   
  6   4   7  ar  
  7   4   8  ar  
  8   5   9  1   
  9   5  24  1   
 10   5  25  1   
 11   6  10  1   
 12   6  26  1   
 13   6  27  1   
 14   7  11  ar  
 15   8  12  ar  
 16   8  13  1   
 17   9  14  1   
 18   9  15  1   
 19   9  28  1   
 20  10  15  1   
 21  10  29  1   
 22  10  30  1   
 23  11  16  ar  
 24  11  31  1   
 25  12  16  ar  
 26  12  32  1   
 27  13  33  1   
 28  13  34  1   
 29  13  35  1   
 30  14  17  1   
 31  14  18  1   
 32  14  36  1   
 33  15  19  1   
 34  15  20  1   
 35  16  37  1   
 36  17  21  1   
 37  17  38  1   
 38  17  39  1   
 39  18  40  1   
 40  18  41  1   
 41  18  42  1   
 42  19  22  ar  
 43  19  23  ar  
 44  20  21  1   
 45  20  43  1   
 46  20  44  1   
 47  21  45  1   
 48  21  46  1   
@<TRIPOS>SUBSTRUCTURE
  1 ****   3 GROUP 4 **** **** 0

# MOE 2024.06 (io_trps.svl 2023.06)
