@<TRIPOS>MOLECULE
NONAME
40 40 1 0 0 
SMALL
USER_CHARGES


@<TRIPOS>ATOM
  1 S        1.0130     0.0830     0.3170 S.o2  1 <1>   1.0900 
  2 O        2.4100    -0.1490     0.0320 O.2   1 <1>  -0.6500 
  3 O        0.4300    -0.4170     1.5370 O.2   1 <1>  -0.6500 
  4 C        0.7360     1.8510     0.2630 C.3   1 <1>  -0.0550 
  5 C        0.0540    -0.5550    -1.0450 C.3   1 <1>  -0.1350 
  6 C        1.4000     2.5410    -0.9400 C.3   1 <1>  -0.0990 
  7 C        1.1710     4.0320    -0.8740 C.2   1 <1>   0.5690 
  8 O        0.0820     4.4410    -1.1910 O.2   1 <1>  -0.5700 
  9 N        2.1980     4.8180    -0.4340 N.am  1 <1>  -0.4940 
 10 C        2.2280     6.2190    -0.2200 C.2   1 <1>  -0.0880 
 11 N        3.2940     6.9300     0.2520 N.pl3 1 <1>   0.3140 
 12 C        1.2390     7.1210    -0.4270 C.2   1 <1>  -0.1500 
 13 N        2.9990     8.2480     0.3480 N.2   1 <1>  -0.7070 
 14 C        4.6520     6.4480     0.6370 C.3   1 <1>   0.1760 
 15 C        1.7750     8.3460    -0.0590 C.2   1 <1>   0.1080 
 16 C        5.4030     5.8980    -0.5950 C.3   1 <1>  -0.1600 
 17 C        4.5750     5.4450     1.8020 C.3   1 <1>  -0.2400 
 18 C        1.0440     9.6670    -0.1140 C.3   1 <1>  -0.0590 
 19 C        6.8780     5.5780    -0.3150 C.3   1 <1>  -0.2400 
 20 H        1.1330     2.2850     1.1610 H     1 <1>   0.0800 
 21 H       -0.3190     2.0560     0.2530 H     1 <1>   0.0800 
 22 H        0.1360    -1.6240    -1.0770 H     1 <1>   0.0800 
 23 H        0.4080    -0.1640    -1.9790 H     1 <1>   0.0800 
 24 H       -0.9820    -0.3000    -0.9300 H     1 <1>   0.0800 
 25 H        0.9770     2.1750    -1.8580 H     1 <1>   0.0800 
 26 H        2.4550     2.3320    -0.9520 H     1 <1>   0.0800 
 27 H        3.0620     4.3270    -0.2110 H     1 <1>   0.3700 
 28 H        0.2450     6.9460    -0.7950 H     1 <1>   0.1500 
 29 H        5.1880     7.3130     0.9870 H     1 <1>   0.0800 
 30 H        5.3640     6.6450    -1.3720 H     1 <1>   0.0800 
 31 H        4.9200     5.0130    -0.9640 H     1 <1>   0.0800 
 32 H        4.1630     4.5050     1.4890 H     1 <1>   0.0800 
 33 H        3.9680     5.8530     2.5920 H     1 <1>   0.0800 
 34 H        5.5570     5.2680     2.2020 H     1 <1>   0.0800 
 35 H        0.0440     9.5280    -0.4810 H     1 <1>   0.0800 
 36 H        1.5700    10.3400    -0.7650 H     1 <1>   0.0800 
 37 H        1.0030    10.0940     0.8710 H     1 <1>   0.0800 
 38 H        7.3820     6.4410     0.0850 H     1 <1>   0.0800 
 39 H        7.3700     5.2950    -1.2300 H     1 <1>   0.0800 
 40 H        6.9740     4.7640     0.3810 H     1 <1>   0.0800 
@<TRIPOS>BOND
  1   1   2  2   
  2   1   3  2   
  3   1   4  1   
  4   1   5  1   
  5   4   6  1   
  6   4  20  1   
  7   4  21  1   
  8   5  22  1   
  9   5  23  1   
 10   5  24  1   
 11   6   7  1   
 12   6  25  1   
 13   6  26  1   
 14   7   8  2   
 15   7   9  am  
 16   9  10  1   
 17   9  27  1   
 18  10  11  1   
 19  10  12  2   
 20  11  13  1   
 21  11  14  1   
 22  12  15  1   
 23  12  28  1   
 24  13  15  2   
 25  14  16  1   
 26  14  17  1   
 27  14  29  1   
 28  15  18  1   
 29  16  19  1   
 30  16  30  1   
 31  16  31  1   
 32  17  32  1   
 33  17  33  1   
 34  17  34  1   
 35  18  35  1   
 36  18  36  1   
 37  18  37  1   
 38  19  38  1   
 39  19  39  1   
 40  19  40  1   
@<TRIPOS>SUBSTRUCTURE
  1 ****   9 GROUP 4 **** **** 0

# MOE 2024.06 (io_trps.svl 2023.06)
