@<TRIPOS>MOLECULE
NONAME
48 49 1 0 0 
SMALL
USER_CHARGES


@<TRIPOS>ATOM
  1 O       -0.0130    -0.5570     1.5470 O.co2 1 <1>  -0.9000 
  2 C        0.7940    -0.7350     0.6270 C.2   1 <1>   0.9060 
  3 O        0.6020    -1.5930    -0.2490 O.co2 1 <1>  -0.9000 
  4 C        2.0930     0.0740     0.5680 C.3   1 <1>  -0.1060 
  5 C        3.2230    -0.9810     0.5740 C.3   1 <1>   0.2000 
  6 C        2.3090     0.9350     1.8400 C.3   1 <1>  -0.1600 
  7 C        2.1020     0.9350    -0.7360 C.3   1 <1>  -0.0160 
  8 O        3.2870    -1.5950    -0.6680 O.3   1 <1>  -0.6800 
  9 C        4.6170    -0.4660     1.0040 C.3   1 <1>   0.1400 
 10 C        3.6100     1.7450     1.8010 C.3   1 <1>   0.1400 
 11 C        1.3840     2.2850    -0.6640 C.ar  1 <1>  -0.1440 
 12 N        4.7280     1.0320     1.1000 N.am  1 <1>  -0.6600 
 13 C        2.0640     3.4460    -1.0020 C.ar  1 <1>  -0.1500 
 14 C        0.0540     2.3750    -0.2790 C.ar  1 <1>  -0.1500 
 15 C        5.8210     1.6790     0.5820 C.2   1 <1>   0.5690 
 16 C        1.4350     4.6780    -0.9380 C.ar  1 <1>  -0.1500 
 17 C       -0.5780     3.6050    -0.2140 C.ar  1 <1>  -0.1500 
 18 O        6.7750     1.0770     0.1450 O.2   1 <1>  -0.5700 
 19 C        5.8620     3.1980     0.5650 C.3   1 <1>  -0.0990 
 20 C        0.1120     4.7590    -0.5410 C.ar  1 <1>  -0.1500 
 21 C        7.0680     3.7460    -0.1920 C.3   1 <1>   0.1200 
 22 O        6.9620     5.1320    -0.2120 O.3   1 <1>  -0.5600 
 23 C        7.9970     5.7600    -0.8880 C.3   1 <1>   0.1200 
 24 C        7.7400     7.2600    -0.8280 C.3   1 <1>  -0.2400 
 25 H        2.9540    -1.7620     1.2670 H     1 <1>   0.0800 
 26 H        2.3230     0.2910     2.7020 H     1 <1>   0.0800 
 27 H        1.4800     1.6050     1.9820 H     1 <1>   0.0800 
 28 H        3.1200     1.1080    -1.0300 H     1 <1>   0.0800 
 29 H        1.6590     0.3710    -1.5380 H     1 <1>   0.0800 
 30 H        2.3440    -1.8410    -0.8810 H     1 <1>   0.4000 
 31 H        5.3560    -0.8570     0.3270 H     1 <1>   0.0800 
 32 H        4.8310    -0.8650     1.9780 H     1 <1>   0.0800 
 33 H        3.9130     1.9810     2.8060 H     1 <1>   0.0800 
 34 H        3.3990     2.6680     1.2950 H     1 <1>   0.0800 
 35 H        3.0890     3.3940    -1.3210 H     1 <1>   0.1500 
 36 H       -0.4980     1.4860    -0.0230 H     1 <1>   0.1500 
 37 H        1.9760     5.5710    -1.1980 H     1 <1>   0.1500 
 38 H       -1.6070     3.6540     0.0940 H     1 <1>   0.1500 
 39 H        4.9770     3.5630     0.0830 H     1 <1>   0.0800 
 40 H        5.8910     3.5540     1.5770 H     1 <1>   0.0800 
 41 H       -0.3790     5.7130    -0.4880 H     1 <1>   0.1500 
 42 H        7.0710     3.3800    -1.2060 H     1 <1>   0.0800 
 43 H        7.9840     3.4670     0.3010 H     1 <1>   0.0800 
 44 H        8.9280     5.5130    -0.4070 H     1 <1>   0.0800 
 45 H        8.0050     5.4160    -1.9090 H     1 <1>   0.0800 
 46 H        7.7200     7.5890     0.1960 H     1 <1>   0.0800 
 47 H        6.8010     7.4920    -1.2970 H     1 <1>   0.0800 
 48 H        8.5230     7.7860    -1.3430 H     1 <1>   0.0800 
@<TRIPOS>BOND
  1   1   2  ar  
  2   2   3  ar  
  3   2   4  1   
  4   4   5  1   
  5   4   6  1   
  6   4   7  1   
  7   5   8  1   
  8   5   9  1   
  9   5  25  1   
 10   6  10  1   
 11   6  26  1   
 12   6  27  1   
 13   7  11  1   
 14   7  28  1   
 15   7  29  1   
 16   8  30  1   
 17   9  12  1   
 18   9  31  1   
 19   9  32  1   
 20  10  12  1   
 21  10  33  1   
 22  10  34  1   
 23  11  13  ar  
 24  11  14  ar  
 25  12  15  am  
 26  13  16  ar  
 27  13  35  1   
 28  14  17  ar  
 29  14  36  1   
 30  15  18  2   
 31  15  19  1   
 32  16  20  ar  
 33  16  37  1   
 34  17  20  ar  
 35  17  38  1   
 36  19  21  1   
 37  19  39  1   
 38  19  40  1   
 39  20  41  1   
 40  21  22  1   
 41  21  42  1   
 42  21  43  1   
 43  22  23  1   
 44  23  24  1   
 45  23  44  1   
 46  23  45  1   
 47  24  46  1   
 48  24  47  1   
 49  24  48  1   
@<TRIPOS>SUBSTRUCTURE
  1 ****  10 GROUP 4 **** **** 0

# MOE 2024.06 (io_trps.svl 2023.06)
