@<TRIPOS>MOLECULE
NONAME
52 55 1 0 0 
SMALL
USER_CHARGES


@<TRIPOS>ATOM
  1 O       -1.2340    -2.3020     0.1400 O.2   1 <1>  -0.5700 
  2 C       -0.1370    -2.7840    -0.0060 C.2   1 <1>   0.5690 
  3 N        0.3420    -3.2170    -1.2120 N.am  1 <1>  -0.6600 
  4 C        0.7660    -2.9300     1.2010 C.3   1 <1>  -0.0990 
  5 C        1.6940    -3.8220    -1.3090 C.3   1 <1>   0.1400 
  6 C       -0.4620    -3.1610    -2.4620 C.3   1 <1>   0.0600 
  7 C        2.1940    -2.4650     0.8620 C.3   1 <1>  -0.0800 
  8 C        2.7100    -2.9940    -0.4980 C.3   1 <1>  -0.0800 
  9 C        3.2290    -2.8750     1.9190 C.3   1 <1>  -0.1600 
 10 C        3.9960    -3.7710    -0.1880 C.3   1 <1>  -0.1600 
 11 C        4.4950    -3.1630     1.1200 C.3   1 <1>   0.2200 
 12 N        5.4710    -4.0250     1.8570 N.am  1 <1>  -0.6600 
 13 C        6.7160    -3.5860     2.2570 C.2   1 <1>   0.5690 
 14 C        5.1010    -5.4560     2.0960 C.3   1 <1>   0.0600 
 15 O        7.4880    -4.3210     2.8310 O.2   1 <1>  -0.5700 
 16 C        7.1840    -2.1490     2.0370 C.3   1 <1>   0.1810 
 17 O        7.3160    -1.8550     0.6530 O.3   1 <1>  -0.3630 
 18 C        7.4710    -0.5810     0.2240 C.ar  1 <1>   0.0820 
 19 C        7.2550    -0.3470    -1.1240 C.ar  1 <1>  -0.1500 
 20 C        7.8210     0.4780     1.0550 C.ar  1 <1>  -0.1500 
 21 C        7.3750     0.9290    -1.6410 C.ar  1 <1>  -0.1500 
 22 C        7.9410     1.7550     0.5360 C.ar  1 <1>  -0.1500 
 23 C        7.7210     1.9990    -0.8180 C.ar  1 <1>  -0.0230 
 24 N        7.8470     3.3120    -1.3580 N.pl3 1 <1>   0.5930 
 25 N        7.0540     3.8340    -2.2800 N.2   1 <1>  -0.4180 
 26 C        8.7430     4.2460    -1.0730 C.2   1 <1>   0.0360 
 27 N        7.4760     5.0240    -2.5110 N.2   1 <1>   0.0000 
 28 N        8.5370     5.3000    -1.7620 N.2   1 <1>  -0.3380 
 29 H        0.3730    -2.3500     2.0170 H     1 <1>   0.0800 
 30 H        0.7620    -3.9640     1.4890 H     1 <1>   0.0800 
 31 H        1.6390    -4.8260    -0.9230 H     1 <1>   0.0800 
 32 H        2.0070    -3.8720    -2.3380 H     1 <1>   0.0800 
 33 H        0.0420    -2.5510    -3.1910 H     1 <1>   0.0800 
 34 H       -1.4310    -2.7350    -2.2680 H     1 <1>   0.0800 
 35 H       -0.5940    -4.1530    -2.8550 H     1 <1>   0.0800 
 36 H        2.1790    -1.3890     0.7990 H     1 <1>   0.0800 
 37 H        2.9780    -2.1390    -1.0950 H     1 <1>   0.0800 
 38 H        2.8990    -3.7580     2.4340 H     1 <1>   0.0800 
 39 H        3.3900    -2.0890     2.6350 H     1 <1>   0.0800 
 40 H        4.7260    -3.6610    -0.9710 H     1 <1>   0.0800 
 41 H        3.7630    -4.8110    -0.0580 H     1 <1>   0.0800 
 42 H        4.9340    -2.2140     0.8750 H     1 <1>   0.0800 
 43 H        4.0370    -5.5760     2.1830 H     1 <1>   0.0800 
 44 H        5.5550    -5.8120     3.0060 H     1 <1>   0.0800 
 45 H        5.4580    -6.0580     1.2790 H     1 <1>   0.0800 
 46 H        8.1440    -2.0100     2.5000 H     1 <1>   0.0800 
 47 H        6.4700    -1.4740     2.4690 H     1 <1>   0.0800 
 48 H        6.9910    -1.1710    -1.7630 H     1 <1>   0.1500 
 49 H        8.0070     0.3250     2.1020 H     1 <1>   0.1500 
 50 H        7.1990     1.0940    -2.6910 H     1 <1>   0.1500 
 51 H        8.2040     2.5630     1.1970 H     1 <1>   0.1500 
 52 H        9.5300     4.1080    -0.3580 H     1 <1>   0.1500 
@<TRIPOS>BOND
  1   1   2  2   
  2   2   3  am  
  3   2   4  1   
  4   3   5  1   
  5   3   6  1   
  6   4   7  1   
  7   4  29  1   
  8   4  30  1   
  9   5   8  1   
 10   5  31  1   
 11   5  32  1   
 12   6  33  1   
 13   6  34  1   
 14   6  35  1   
 15   7   8  1   
 16   7   9  1   
 17   7  36  1   
 18   8  10  1   
 19   8  37  1   
 20   9  11  1   
 21   9  38  1   
 22   9  39  1   
 23  10  11  1   
 24  10  40  1   
 25  10  41  1   
 26  11  12  1   
 27  11  42  1   
 28  12  13  am  
 29  12  14  1   
 30  13  15  2   
 31  13  16  1   
 32  14  43  1   
 33  14  44  1   
 34  14  45  1   
 35  16  17  1   
 36  16  46  1   
 37  16  47  1   
 38  17  18  1   
 39  18  19  ar  
 40  18  20  ar  
 41  19  21  ar  
 42  19  48  1   
 43  20  22  ar  
 44  20  49  1   
 45  21  23  ar  
 46  21  50  1   
 47  22  23  ar  
 48  22  51  1   
 49  23  24  1   
 50  24  25  1   
 51  24  26  1   
 52  25  27  2   
 53  26  28  2   
 54  26  52  1   
 55  27  28  1   
@<TRIPOS>SUBSTRUCTURE
  1 ****  18 GROUP 4 **** **** 0

# MOE 2024.06 (io_trps.svl 2023.06)
