@<TRIPOS>MOLECULE
NONAME
47 48 1 0 0 
SMALL
USER_CHARGES


@<TRIPOS>ATOM
  1 O        3.1330    -0.4260     1.4680 O.2   1 <1>  -0.5700 
  2 C        2.1920    -0.9580     0.9250 C.2   1 <1>   0.5690 
  3 N        1.4020    -0.3630    -0.0100 N.am  1 <1>  -0.4930 
  4 C        1.8320    -2.3960     1.3020 C.3   1 <1>   0.1710 
  5 C        1.4050     0.9460    -0.5540 C.2   1 <1>   0.0630 
  6 N        0.3980    -2.7450     1.0500 N.3   1 <1>  -0.8100 
  7 C        2.4590     1.8200    -0.8490 C.2   1 <1>   0.1080 
  8 C        0.2990     1.6210    -0.9290 C.2   1 <1>  -0.3020 
  9 C        0.2200    -4.2070     1.0250 C.3   1 <1>   0.1100 
 10 C       -0.4670    -2.1130     2.0650 C.3   1 <1>   0.0300 
 11 N        2.0380     2.9390    -1.3570 N.2   1 <1>  -0.7070 
 12 C        3.9340     1.5550    -0.6460 C.3   1 <1>  -0.0590 
 13 N        0.7040     2.8160    -1.4030 N.pl3 1 <1>   0.3140 
 14 C       -1.0340    -4.5770     0.2270 C.3   1 <1>  -0.1600 
 15 C       -0.1520     3.8920    -1.9130 C.3   1 <1>   0.0160 
 16 C       -1.2870    -6.0870     0.2150 C.3   1 <1>   0.3430 
 17 O       -0.1910    -6.7320    -0.3190 O.3   1 <1>  -0.6800 
 18 C       -2.5020    -6.4640    -0.6220 C.ar  1 <1>  -0.1440 
 19 C       -3.6380    -6.9690    -0.0050 C.ar  1 <1>  -0.1500 
 20 C       -2.4970    -6.3100    -2.0020 C.ar  1 <1>  -0.1500 
 21 C       -4.7500    -7.3130    -0.7550 C.ar  1 <1>  -0.1500 
 22 C       -3.6070    -6.6550    -2.7530 C.ar  1 <1>  -0.1500 
 23 C       -4.7350    -7.1560    -2.1290 C.ar  1 <1>  -0.1500 
 24 H        0.5970    -0.9490    -0.2530 H     1 <1>   0.3700 
 25 H        2.0760    -2.5590     2.3370 H     1 <1>   0.0800 
 26 H        2.4660    -3.0330     0.7110 H     1 <1>   0.0800 
 27 H       -0.7300     1.3240    -0.8830 H     1 <1>   0.1500 
 28 H        0.1620    -4.5950     2.0290 H     1 <1>   0.0800 
 29 H        1.0660    -4.6660     0.5400 H     1 <1>   0.0800 
 30 H       -0.3120    -1.0480     2.0810 H     1 <1>   0.0800 
 31 H       -0.2500    -2.5070     3.0440 H     1 <1>   0.0800 
 32 H       -1.5030    -2.2920     1.8400 H     1 <1>   0.0800 
 33 H        4.1580     0.5270    -0.8570 H     1 <1>   0.0800 
 34 H        4.2000     1.7760     0.3700 H     1 <1>   0.0800 
 35 H        4.5110     2.1800    -1.3030 H     1 <1>   0.0800 
 36 H       -0.9280    -4.2240    -0.7820 H     1 <1>   0.0800 
 37 H       -1.8980    -4.1060     0.6560 H     1 <1>   0.0800 
 38 H       -0.8890     3.4760    -2.5730 H     1 <1>   0.0800 
 39 H        0.4560     4.5980    -2.4490 H     1 <1>   0.0800 
 40 H       -0.6290     4.3810    -1.0860 H     1 <1>   0.0800 
 41 H       -1.4090    -6.4460     1.2230 H     1 <1>   0.0800 
 42 H       -0.4940    -7.5860    -0.6840 H     1 <1>   0.4000 
 43 H       -3.6680    -7.0970     1.0630 H     1 <1>   0.1500 
 44 H       -1.6240    -5.9200    -2.4980 H     1 <1>   0.1500 
 45 H       -5.6270    -7.7030    -0.2690 H     1 <1>   0.1500 
 46 H       -3.5940    -6.5310    -3.8220 H     1 <1>   0.1500 
 47 H       -5.6000    -7.4230    -2.7120 H     1 <1>   0.1500 
@<TRIPOS>BOND
  1   1   2  2   
  2   2   3  am  
  3   2   4  1   
  4   3   5  1   
  5   3  24  1   
  6   4   6  1   
  7   4  25  1   
  8   4  26  1   
  9   5   7  1   
 10   5   8  2   
 11   6   9  1   
 12   6  10  1   
 13   7  11  2   
 14   7  12  1   
 15   8  13  1   
 16   8  27  1   
 17   9  14  1   
 18   9  28  1   
 19   9  29  1   
 20  10  30  1   
 21  10  31  1   
 22  10  32  1   
 23  11  13  1   
 24  12  33  1   
 25  12  34  1   
 26  12  35  1   
 27  13  15  1   
 28  14  16  1   
 29  14  36  1   
 30  14  37  1   
 31  15  38  1   
 32  15  39  1   
 33  15  40  1   
 34  16  17  1   
 35  16  18  1   
 36  16  41  1   
 37  17  42  1   
 38  18  19  ar  
 39  18  20  ar  
 40  19  21  ar  
 41  19  43  1   
 42  20  22  ar  
 43  20  44  1   
 44  21  23  ar  
 45  21  45  1   
 46  22  23  ar  
 47  22  46  1   
 48  23  47  1   
@<TRIPOS>SUBSTRUCTURE
  1 ****   6 GROUP 4 **** **** 0

# MOE 2024.06 (io_trps.svl 2023.06)
