@<TRIPOS>MOLECULE
NONAME
53 56 1 0 0 
SMALL
USER_CHARGES


@<TRIPOS>ATOM
  1 O       -0.2560     0.4020    -0.6850 O.2   1 <1>  -0.5700 
  2 C       -1.2700     1.0540    -0.6140 C.2   1 <1>   0.5690 
  3 N       -2.5080     0.4630    -0.5090 N.am  1 <1>  -0.6600 
  4 C       -1.0920     2.5620    -0.6310 C.3   1 <1>  -0.0990 
  5 C       -3.7730     1.2240    -0.2740 C.3   1 <1>   0.2200 
  6 C       -2.6140    -1.0270    -0.6260 C.3   1 <1>   0.0600 
  7 C       -0.8920     3.1060     0.7910 C.3   1 <1>  -0.0220 
  8 C       -4.7010     0.6230     0.7810 C.3   1 <1>  -0.1600 
  9 C       -4.6350     1.3350    -1.5270 C.3   1 <1>  -0.1600 
 10 C       -0.6100     4.6120     0.7720 C.2   1 <1>  -0.1240 
 11 C       -6.0690     1.2450     0.4770 C.3   1 <1>  -0.0800 
 12 C       -6.0400     1.6650    -1.0040 C.3   1 <1>  -0.0800 
 13 C       -1.6950     5.5490     0.9160 C.2   1 <1>   0.3750 
 14 C        0.6630     5.0930     0.6200 C.2   1 <1>  -0.1690 
 15 C       -6.3590     2.5200     1.2810 C.3   1 <1>  -0.1600 
 16 C       -6.3770     3.1640    -1.0390 C.3   1 <1>  -0.1600 
 17 N       -1.5350     6.8290     0.9210 N.2   1 <1>  -0.5760 
 18 C       -3.1300     5.0730     1.0650 C.3   1 <1>  -0.1790 
 19 N        0.8200     6.4730     0.6370 N.pl3 1 <1>   0.6010 
 20 C        1.9450     4.2770     0.4240 C.3   1 <1>  -0.1020 
 21 C       -7.0620     3.4350     0.2920 C.3   1 <1>   0.2000 
 22 C       -0.2560     7.2930     0.7840 C.2   1 <1>   0.3120 
 23 N        1.9140     7.2230     0.5270 N.2   1 <1>  -0.7070 
 24 O       -6.8970     4.7530     0.6570 O.3   1 <1>  -0.6800 
 25 N        0.1070     8.5360     0.7720 N.2   1 <1>  -0.5650 
 26 C        1.4240     8.4210     0.6150 C.2   1 <1>   0.3660 
 27 H       -0.2180     2.7820    -1.2160 H     1 <1>   0.0800 
 28 H       -1.9190     3.0380    -1.1200 H     1 <1>   0.0800 
 29 H       -3.5470     2.2180     0.0570 H     1 <1>   0.0800 
 30 H       -3.5010    -1.3050    -1.1640 H     1 <1>   0.0800 
 31 H       -2.6420    -1.4650     0.3560 H     1 <1>   0.0800 
 32 H       -1.7650    -1.4280    -1.1530 H     1 <1>   0.0800 
 33 H       -0.0710     2.5850     1.2510 H     1 <1>   0.0800 
 34 H       -1.7450     2.8720     1.3990 H     1 <1>   0.0800 
 35 H       -4.7910    -0.4400     0.6580 H     1 <1>   0.0800 
 36 H       -4.3640     0.8360     1.7800 H     1 <1>   0.0800 
 37 H       -4.2600     2.0790    -2.2060 H     1 <1>   0.0800 
 38 H       -4.6720     0.3880    -2.0340 H     1 <1>   0.0800 
 39 H       -6.8570     0.5300     0.6430 H     1 <1>   0.0800 
 40 H       -6.7850     1.1160    -1.5570 H     1 <1>   0.0800 
 41 H       -5.4410     2.9730     1.6100 H     1 <1>   0.0800 
 42 H       -6.9850     2.3130     2.1310 H     1 <1>   0.0800 
 43 H       -7.0270     3.3990    -1.8630 H     1 <1>   0.0800 
 44 H       -5.4770     3.7490    -1.1130 H     1 <1>   0.0800 
 45 H       -3.2400     4.4990     1.9660 H     1 <1>   0.0800 
 46 H       -3.4140     4.4880     0.2140 H     1 <1>   0.0800 
 47 H       -3.7930     5.9180     1.1280 H     1 <1>   0.0800 
 48 H        2.4760     4.6360    -0.4400 H     1 <1>   0.0800 
 49 H        1.7630     3.2300     0.2770 H     1 <1>   0.0800 
 50 H        2.5850     4.3940     1.2810 H     1 <1>   0.0800 
 51 H       -8.1150     3.2140     0.2400 H     1 <1>   0.0800 
 52 H       -5.9540     4.9920     0.6550 H     1 <1>   0.4000 
 53 H        2.0440     9.3030     0.5650 H     1 <1>   0.1500 
@<TRIPOS>BOND
  1   1   2  2   
  2   2   3  am  
  3   2   4  1   
  4   3   5  1   
  5   3   6  1   
  6   4   7  1   
  7   4  27  1   
  8   4  28  1   
  9   5   8  1   
 10   5   9  1   
 11   5  29  1   
 12   6  30  1   
 13   6  31  1   
 14   6  32  1   
 15   7  10  1   
 16   7  33  1   
 17   7  34  1   
 18   8  11  1   
 19   8  35  1   
 20   8  36  1   
 21   9  12  1   
 22   9  37  1   
 23   9  38  1   
 24  10  13  1   
 25  10  14  2   
 26  11  12  1   
 27  11  15  1   
 28  11  39  1   
 29  12  16  1   
 30  12  40  1   
 31  13  17  2   
 32  13  18  1   
 33  14  19  1   
 34  14  20  1   
 35  15  21  1   
 36  15  41  1   
 37  15  42  1   
 38  16  21  1   
 39  16  43  1   
 40  16  44  1   
 41  17  22  1   
 42  18  45  1   
 43  18  46  1   
 44  18  47  1   
 45  19  22  1   
 46  19  23  1   
 47  20  48  1   
 48  20  49  1   
 49  20  50  1   
 50  21  24  1   
 51  21  51  1   
 52  22  25  2   
 53  23  26  2   
 54  24  52  1   
 55  25  26  1   
 56  26  53  1   
@<TRIPOS>SUBSTRUCTURE
  1 ****   7 GROUP 4 **** **** 0

# MOE 2024.06 (io_trps.svl 2023.06)
