@<TRIPOS>MOLECULE
NONAME
49 51 1 0 0 
SMALL
USER_CHARGES


@<TRIPOS>ATOM
  1 O        0.7090    -1.3280     0.3190 O.3   1 <1>  -0.3630 
  2 C        0.2600    -2.6060     0.3020 C.ar  1 <1>   0.0830 
  3 C        1.1660    -0.7160     1.5020 C.3   1 <1>   0.1200 
  4 C       -0.1360    -3.1200    -0.9050 C.ar  1 <1>  -0.1500 
  5 C        0.1850    -3.4110     1.4540 C.ar  1 <1>  -0.1500 
  6 C        1.6090     0.7030     1.1570 C.3   1 <1>  -0.2400 
  7 C       -0.6180    -4.4370    -1.0220 C.ar  1 <1>   0.0000 
  8 C       -0.2810    -4.6960     1.3580 C.ar  1 <1>  -0.1500 
  9 C       -0.6930    -5.2440     0.1330 C.ar  1 <1>   0.3100 
 10 C       -1.0340    -4.9980    -2.2400 C.ar  1 <1>  -0.1500 
 11 N       -1.1450    -6.5210     0.1070 N.ar  1 <1>  -0.6200 
 12 C       -1.4890    -6.2820    -2.2370 C.ar  1 <1>  -0.1500 
 13 C       -1.5340    -7.0110    -1.0350 C.ar  1 <1>   0.1670 
 14 C       -2.0520    -8.4520    -1.0740 C.3   1 <1>   0.2530 
 15 N       -3.4370    -8.6050    -0.5500 N.3   1 <1>  -0.8100 
 16 C       -3.7870   -10.0220    -0.3790 C.3   1 <1>   0.2900 
 17 C       -4.4380    -7.8640    -1.3380 C.3   1 <1>   0.1100 
 18 C       -3.0740   -10.6070     0.8270 C.2   1 <1>  -0.3320 
 19 C       -5.6650    -7.5360    -0.4810 C.3   1 <1>   0.1200 
 20 N       -3.0350   -11.9230     1.1160 N.pl3 1 <1>   0.0480 
 21 C       -2.3900    -9.9830     1.8140 C.2   1 <1>   0.0770 
 22 O       -6.5130    -6.7070    -1.2010 O.3   1 <1>  -0.6800 
 23 C       -2.3200   -12.0060     2.2600 C.2   1 <1>   0.0360 
 24 C       -3.6400   -13.0400     0.3680 C.3   1 <1>   0.0160 
 25 N       -1.9130   -10.8660     2.7120 N.2   1 <1>  -0.5650 
 26 H        1.9920    -1.2890     1.8860 H     1 <1>   0.0800 
 27 H        0.3580    -0.6990     2.2130 H     1 <1>   0.0800 
 28 H       -0.0790    -2.5050    -1.7840 H     1 <1>   0.1500 
 29 H        0.4880    -3.0330     2.4110 H     1 <1>   0.1500 
 30 H        2.4050     0.6760     0.4350 H     1 <1>   0.0800 
 31 H        1.9650     1.1990     2.0420 H     1 <1>   0.0800 
 32 H        0.7810     1.2610     0.7590 H     1 <1>   0.0800 
 33 H       -0.3470    -5.3290     2.2240 H     1 <1>   0.1500 
 34 H       -0.9860    -4.4120    -3.1400 H     1 <1>   0.1500 
 35 H       -1.8180    -6.7490    -3.1460 H     1 <1>   0.1500 
 36 H       -1.3770    -9.0460    -0.4830 H     1 <1>   0.0800 
 37 H       -2.0080    -8.8250    -2.0820 H     1 <1>   0.0800 
 38 H       -3.5270   -10.5690    -1.2690 H     1 <1>   0.0800 
 39 H       -4.8460   -10.1260    -0.2190 H     1 <1>   0.0800 
 40 H       -4.7290    -8.4330    -2.2040 H     1 <1>   0.0800 
 41 H       -4.0210    -6.9290    -1.6640 H     1 <1>   0.0800 
 42 H       -5.3720    -7.0230     0.4190 H     1 <1>   0.0800 
 43 H       -6.2140    -8.4260    -0.2300 H     1 <1>   0.0800 
 44 H       -2.2170    -8.9230     1.9170 H     1 <1>   0.1500 
 45 H       -6.1260    -5.8120    -1.2730 H     1 <1>   0.4000 
 46 H       -2.1180   -12.9460     2.7400 H     1 <1>   0.1500 
 47 H       -4.6990   -12.8810     0.2880 H     1 <1>   0.0800 
 48 H       -3.4560   -13.9630     0.8870 H     1 <1>   0.0800 
 49 H       -3.2030   -13.0890    -0.6120 H     1 <1>   0.0800 
@<TRIPOS>BOND
  1   1   2  1   
  2   1   3  1   
  3   2   4  ar  
  4   2   5  ar  
  5   3   6  1   
  6   3  26  1   
  7   3  27  1   
  8   4   7  ar  
  9   4  28  1   
 10   5   8  ar  
 11   5  29  1   
 12   6  30  1   
 13   6  31  1   
 14   6  32  1   
 15   7   9  ar  
 16   7  10  ar  
 17   8   9  ar  
 18   8  33  1   
 19   9  11  ar  
 20  10  12  ar  
 21  10  34  1   
 22  11  13  ar  
 23  12  13  ar  
 24  12  35  1   
 25  13  14  1   
 26  14  15  1   
 27  14  36  1   
 28  14  37  1   
 29  15  16  1   
 30  15  17  1   
 31  16  18  1   
 32  16  38  1   
 33  16  39  1   
 34  17  19  1   
 35  17  40  1   
 36  17  41  1   
 37  18  20  1   
 38  18  21  2   
 39  19  22  1   
 40  19  42  1   
 41  19  43  1   
 42  20  23  1   
 43  20  24  1   
 44  21  25  1   
 45  21  44  1   
 46  22  45  1   
 47  23  25  2   
 48  23  46  1   
 49  24  47  1   
 50  24  48  1   
 51  24  49  1   
@<TRIPOS>SUBSTRUCTURE
  1 ****  11 GROUP 4 **** **** 0

# MOE 2024.06 (io_trps.svl 2023.06)
