@<TRIPOS>MOLECULE
NONAME
41 43 1 0 0 
SMALL
USER_CHARGES


@<TRIPOS>ATOM
  1 CL      -1.9480    -0.5210     1.1370 Cl    1 <1>  -0.1230 
  2 C       -2.3750    -2.2160     1.1570 C.2   1 <1>   0.4120 
  3 N       -2.4450    -2.9250     2.2230 N.2   1 <1>  -0.4100 
  4 C       -2.6760    -2.9440     0.0130 C.2   1 <1>  -0.1500 
  5 O       -2.7890    -4.1150     1.8130 O.3   1 <1>  -0.0190 
  6 C       -2.9330    -4.1650     0.5090 C.2   1 <1>  -0.0400 
  7 C       -3.3290    -5.4650    -0.1620 C.3   1 <1>   0.0200 
  8 C       -2.2460    -6.5330     0.0270 C.3   1 <1>  -0.0990 
  9 C       -2.6390    -7.8300    -0.6440 C.2   1 <1>   0.5690 
 10 O       -2.8100    -7.8410    -1.8370 O.2   1 <1>  -0.5700 
 11 N       -2.8060    -8.9400     0.1120 N.am  1 <1>  -0.7300 
 12 C       -3.1430   -10.2820    -0.4200 C.3   1 <1>   0.2200 
 13 C       -4.5900   -10.6510    -0.1200 C.3   1 <1>  -0.0800 
 14 C       -2.4110   -11.3340     0.4000 C.3   1 <1>   0.1200 
 15 C       -4.5150   -11.2310     1.2980 C.3   1 <1>   0.1200 
 16 C       -5.6230    -9.5220    -0.2900 C.3   1 <1>  -0.0160 
 17 O       -3.1630   -11.4680     1.5670 O.3   1 <1>  -0.5600 
 18 C       -7.0350   -10.0410    -0.0720 C.ar  1 <1>  -0.1430 
 19 C       -7.6940    -9.9000     1.1330 C.ar  1 <1>  -0.1500 
 20 C       -7.7320   -10.6840    -1.0750 C.ar  1 <1>  -0.1500 
 21 C       -8.9780   -10.4000     1.2740 C.ar  1 <1>   0.1600 
 22 C       -9.0150   -11.1460    -0.8310 C.ar  1 <1>   0.1600 
 23 N       -9.6540   -11.0220     0.3210 N.ar  1 <1>  -0.6200 
 24 H       -2.6840    -2.5730    -0.9940 H     1 <1>   0.1500 
 25 H       -4.2590    -5.8100     0.2550 H     1 <1>   0.0800 
 26 H       -3.4810    -5.2900    -1.2140 H     1 <1>   0.0800 
 27 H       -2.0780    -6.7020     1.0750 H     1 <1>   0.0800 
 28 H       -1.3250    -6.1920    -0.4090 H     1 <1>   0.0800 
 29 H       -2.6720    -8.9210     1.1260 H     1 <1>   0.3700 
 30 H       -2.9080   -10.3460    -1.4690 H     1 <1>   0.0800 
 31 H       -4.8640   -11.4560    -0.7790 H     1 <1>   0.0800 
 32 H       -1.4030   -11.0490     0.6450 H     1 <1>   0.0800 
 33 H       -2.4130   -12.2840    -0.1060 H     1 <1>   0.0800 
 34 H       -5.0560   -12.1580     1.3780 H     1 <1>   0.0800 
 35 H       -4.8750   -10.5350     2.0350 H     1 <1>   0.0800 
 36 H       -5.5430    -9.1130    -1.2830 H     1 <1>   0.0800 
 37 H       -5.4270    -8.7240     0.4040 H     1 <1>   0.0800 
 38 H       -7.2230    -9.4080     1.9640 H     1 <1>   0.1500 
 39 H       -7.2910   -10.8290    -2.0440 H     1 <1>   0.1500 
 40 H       -9.4760   -10.2820     2.2210 H     1 <1>   0.1500 
 41 H       -9.5430   -11.6450    -1.6250 H     1 <1>   0.1500 
@<TRIPOS>BOND
  1   1   2  1   
  2   2   3  2   
  3   2   4  1   
  4   3   5  1   
  5   4   6  2   
  6   4  24  1   
  7   5   6  1   
  8   6   7  1   
  9   7   8  1   
 10   7  25  1   
 11   7  26  1   
 12   8   9  1   
 13   8  27  1   
 14   8  28  1   
 15   9  10  2   
 16   9  11  am  
 17  11  12  1   
 18  11  29  1   
 19  12  13  1   
 20  12  14  1   
 21  12  30  1   
 22  13  15  1   
 23  13  16  1   
 24  13  31  1   
 25  14  17  1   
 26  14  32  1   
 27  14  33  1   
 28  15  17  1   
 29  15  34  1   
 30  15  35  1   
 31  16  18  1   
 32  16  36  1   
 33  16  37  1   
 34  18  19  ar  
 35  18  20  ar  
 36  19  21  ar  
 37  19  38  1   
 38  20  22  ar  
 39  20  39  1   
 40  21  23  ar  
 41  21  40  1   
 42  22  23  ar  
 43  22  41  1   
@<TRIPOS>SUBSTRUCTURE
  1 ****  11 GROUP 4 **** **** 0

# MOE 2024.06 (io_trps.svl 2023.06)
