@<TRIPOS>MOLECULE
NONAME
50 52 1 0 0 
SMALL
USER_CHARGES


@<TRIPOS>ATOM
  1 O       -0.6200     0.2700    -0.0890 O.2   1 <1>  -0.5700 
  2 C       -1.5940     0.9430     0.2040 C.2   1 <1>   0.5440 
  3 N       -2.7820     0.2660     0.4310 N.am  1 <1>  -0.6600 
  4 C       -1.4470     2.4000     0.2710 C.ar  1 <1>   0.3960 
  5 C       -2.8270    -1.2110     0.6780 C.3   1 <1>   0.1400 
  6 C       -4.1430     0.8830     0.3680 C.3   1 <1>   0.1400 
  7 N       -2.2080     3.1460     1.0930 N.ar  1 <1>  -0.6200 
  8 C       -0.4780     3.0000    -0.5430 C.ar  1 <1>   0.1600 
  9 C       -3.8190    -1.9030    -0.2710 C.3   1 <1>   0.3440 
 10 C       -5.0860     0.0730    -0.5550 C.3   1 <1>   0.2000 
 11 C       -1.9360     4.4370     1.0350 C.ar  1 <1>   0.1600 
 12 N       -0.2140     4.2950    -0.6090 N.ar  1 <1>  -0.6200 
 13 O       -5.0730    -1.2810    -0.1830 O.3   1 <1>  -0.5600 
 14 C       -3.9540    -3.3830     0.0730 C.ar  1 <1>  -0.1430 
 15 C       -6.5610     0.5810    -0.5840 C.3   1 <1>   0.0000 
 16 C       -0.9700     5.0020     0.2080 C.ar  1 <1>   0.1670 
 17 C       -3.1190    -4.3070    -0.5400 C.ar  1 <1>  -0.1500 
 18 C       -4.8870    -3.8310     1.0000 C.ar  1 <1>  -0.1500 
 19 C       -7.2460     0.4540     0.7900 C.3   1 <1>  -0.2400 
 20 C       -6.6270     2.0550    -1.0260 C.3   1 <1>  -0.2400 
 21 C       -7.3680    -0.2460    -1.6020 C.3   1 <1>  -0.2400 
 22 C       -0.7290     6.4980     0.2060 C.3   1 <1>  -0.0970 
 23 C       -3.2150    -5.6540    -0.2340 C.ar  1 <1>  -0.1500 
 24 C       -4.9830    -5.1770     1.3070 C.ar  1 <1>  -0.1500 
 25 C       -4.1470    -6.0890     0.6910 C.ar  1 <1>  -0.1500 
 26 H       -1.8550    -1.6540     0.5500 H     1 <1>   0.0800 
 27 H       -3.1340    -1.3900     1.6920 H     1 <1>   0.0800 
 28 H       -4.5480     0.9290     1.3620 H     1 <1>   0.0800 
 29 H       -4.0750     1.8850    -0.0120 H     1 <1>   0.0800 
 30 H        0.1110     2.3580    -1.1750 H     1 <1>   0.1500 
 31 H       -3.4730    -1.8060    -1.2860 H     1 <1>   0.0800 
 32 H       -4.7000     0.1310    -1.5580 H     1 <1>   0.0800 
 33 H       -2.5090     5.0840     1.6750 H     1 <1>   0.1500 
 34 H       -2.3880    -3.9830    -1.2610 H     1 <1>   0.1500 
 35 H       -5.5440    -3.1280     1.4820 H     1 <1>   0.1500 
 36 H       -8.2780     0.7490     0.7250 H     1 <1>   0.0800 
 37 H       -6.7690     1.0750     1.5250 H     1 <1>   0.0800 
 38 H       -7.2120    -0.5660     1.1330 H     1 <1>   0.0800 
 39 H       -7.6510     2.3670    -1.1390 H     1 <1>   0.0800 
 40 H       -6.1300     2.1890    -1.9710 H     1 <1>   0.0800 
 41 H       -6.1680     2.7010    -0.3000 H     1 <1>   0.0800 
 42 H       -8.3830     0.1040    -1.6630 H     1 <1>   0.0800 
 43 H       -7.3920    -1.2830    -1.3130 H     1 <1>   0.0800 
 44 H       -6.9260    -0.1810    -2.5800 H     1 <1>   0.0800 
 45 H       -1.3830     7.0010     0.8940 H     1 <1>   0.0800 
 46 H       -0.8960     6.8880    -0.7820 H     1 <1>   0.0800 
 47 H        0.2900     6.6970     0.4860 H     1 <1>   0.0800 
 48 H       -2.5640    -6.3630    -0.7150 H     1 <1>   0.1500 
 49 H       -5.7110    -5.5120     2.0250 H     1 <1>   0.1500 
 50 H       -4.2220    -7.1360     0.9290 H     1 <1>   0.1500 
@<TRIPOS>BOND
  1   1   2  2   
  2   2   3  am  
  3   2   4  1   
  4   3   5  1   
  5   3   6  1   
  6   4   7  ar  
  7   4   8  ar  
  8   5   9  1   
  9   5  26  1   
 10   5  27  1   
 11   6  10  1   
 12   6  28  1   
 13   6  29  1   
 14   7  11  ar  
 15   8  12  ar  
 16   8  30  1   
 17   9  13  1   
 18   9  14  1   
 19   9  31  1   
 20  10  13  1   
 21  10  15  1   
 22  10  32  1   
 23  11  16  ar  
 24  11  33  1   
 25  12  16  ar  
 26  14  17  ar  
 27  14  18  ar  
 28  15  19  1   
 29  15  20  1   
 30  15  21  1   
 31  16  22  1   
 32  17  23  ar  
 33  17  34  1   
 34  18  24  ar  
 35  18  35  1   
 36  19  36  1   
 37  19  37  1   
 38  19  38  1   
 39  20  39  1   
 40  20  40  1   
 41  20  41  1   
 42  21  42  1   
 43  21  43  1   
 44  21  44  1   
 45  22  45  1   
 46  22  46  1   
 47  22  47  1   
 48  23  25  ar  
 49  23  48  1   
 50  24  25  ar  
 51  24  49  1   
 52  25  50  1   
@<TRIPOS>SUBSTRUCTURE
  1 ****   3 GROUP 4 **** **** 0

# MOE 2024.06 (io_trps.svl 2023.06)
