@<TRIPOS>MOLECULE
NONAME
39 40 1 0 0 
SMALL
USER_CHARGES


@<TRIPOS>ATOM
  1 O       -0.5810     0.2970     1.6520 O.2   1 <1>  -0.5700 
  2 C       -1.4410     0.8850     1.0350 C.2   1 <1>   0.5690 
  3 N       -2.5510     0.2280     0.5720 N.am  1 <1>  -0.6600 
  4 C       -1.2630     2.3950     0.8340 C.3   1 <1>   0.1810 
  5 C       -3.5950     0.7930    -0.3190 C.3   1 <1>   0.1400 
  6 C       -2.7770    -1.2190     0.7640 C.3   1 <1>   0.1400 
  7 O       -1.3900     2.7970    -0.5100 O.3   1 <1>  -0.5600 
  8 C       -4.5650    -0.3610    -0.6060 C.3   1 <1>   0.2000 
  9 C       -3.7190    -1.6170    -0.3740 C.3   1 <1>  -0.0800 
 10 C       -1.1140     4.1430    -0.7230 C.3   1 <1>   0.0400 
 11 O       -5.6160    -0.3470     0.3200 O.3   1 <1>  -0.5600 
 12 C       -4.5290    -2.8940    -0.0860 C.3   1 <1>   0.0200 
 13 C       -6.6860     0.4810    -0.0090 C.3   1 <1>   0.0400 
 14 C       -3.6720    -4.1480    -0.0390 C.2   1 <1>  -0.0400 
 15 O       -4.2360    -5.2830     0.2790 O.3   1 <1>  -0.0190 
 16 C       -2.3700    -4.3910    -0.2680 C.2   1 <1>  -0.1500 
 17 N       -3.3850    -6.2690     0.2780 N.2   1 <1>  -0.4100 
 18 C       -2.2520    -5.7600    -0.0470 C.2   1 <1>   0.1080 
 19 C       -0.9680    -6.5490    -0.1690 C.3   1 <1>  -0.0590 
 20 H       -0.2830     2.6720     1.1790 H     1 <1>   0.0800 
 21 H       -2.0030     2.9130     1.4160 H     1 <1>   0.0800 
 22 H       -4.0860     1.6290     0.1430 H     1 <1>   0.0800 
 23 H       -3.1300     1.1080    -1.2380 H     1 <1>   0.0800 
 24 H       -1.8490    -1.7620     0.7350 H     1 <1>   0.0800 
 25 H       -3.2520    -1.3700     1.7190 H     1 <1>   0.0800 
 26 H       -4.9690    -0.3270    -1.6040 H     1 <1>   0.0800 
 27 H       -3.1220    -1.7750    -1.2550 H     1 <1>   0.0800 
 28 H       -1.2490     4.3520    -1.7700 H     1 <1>   0.0800 
 29 H       -0.0940     4.3460    -0.4430 H     1 <1>   0.0800 
 30 H       -1.7940     4.7440    -0.1430 H     1 <1>   0.0800 
 31 H       -5.2740    -3.0230    -0.8510 H     1 <1>   0.0800 
 32 H       -5.0430    -2.7950     0.8540 H     1 <1>   0.0800 
 33 H       -7.4140     0.4130     0.7800 H     1 <1>   0.0800 
 34 H       -7.1240     0.1450    -0.9330 H     1 <1>   0.0800 
 35 H       -6.3450     1.4970    -0.0980 H     1 <1>   0.0800 
 36 H       -1.5760    -3.7270    -0.5540 H     1 <1>   0.1500 
 37 H       -0.5960    -6.4860    -1.1750 H     1 <1>   0.0800 
 38 H       -1.1470    -7.5810     0.0730 H     1 <1>   0.0800 
 39 H       -0.2320    -6.1550     0.5070 H     1 <1>   0.0800 
@<TRIPOS>BOND
  1   1   2  2   
  2   2   3  am  
  3   2   4  1   
  4   3   5  1   
  5   3   6  1   
  6   4   7  1   
  7   4  20  1   
  8   4  21  1   
  9   5   8  1   
 10   5  22  1   
 11   5  23  1   
 12   6   9  1   
 13   6  24  1   
 14   6  25  1   
 15   7  10  1   
 16   8   9  1   
 17   8  11  1   
 18   8  26  1   
 19   9  12  1   
 20   9  27  1   
 21  10  28  1   
 22  10  29  1   
 23  10  30  1   
 24  11  13  1   
 25  12  14  1   
 26  12  31  1   
 27  12  32  1   
 28  13  33  1   
 29  13  34  1   
 30  13  35  1   
 31  14  15  1   
 32  14  16  2   
 33  15  17  1   
 34  16  18  1   
 35  16  36  1   
 36  17  18  2   
 37  18  19  1   
 38  19  37  1   
 39  19  38  1   
 40  19  39  1   
@<TRIPOS>SUBSTRUCTURE
  1 ****   6 GROUP 4 **** **** 0

# MOE 2024.06 (io_trps.svl 2023.06)
