@<TRIPOS>MOLECULE
NONAME
46 48 1 0 0 
SMALL
USER_CHARGES


@<TRIPOS>ATOM
  1 CL      -1.0560    -0.8740     0.5910 Cl    1 <1>  -0.1770 
  2 C       -2.1090     0.4310     0.0940 C.ar  1 <1>   0.1770 
  3 C       -3.1970     0.1560    -0.7150 C.ar  1 <1>  -0.1440 
  4 C       -1.8370     1.7090     0.5390 C.ar  1 <1>  -0.1500 
  5 C       -4.0240     1.2040    -1.0820 C.ar  1 <1>  -0.1500 
  6 C       -3.4830    -1.2550    -1.1840 C.3   1 <1>   0.4870 
  7 C       -2.6730     2.7630     0.1790 C.ar  1 <1>   0.0830 
  8 C       -3.7820     2.4990    -0.6490 C.ar  1 <1>   0.0830 
  9 N       -3.9550    -2.0680    -0.0300 N.4   1 <1>  -0.9590 
 10 O       -2.4370     4.0280     0.6300 O.3   1 <1>  -0.3620 
 11 O       -4.7000     3.4020    -1.0980 O.3   1 <1>  -0.3620 
 12 C       -4.0820    -3.5090    -0.4280 C.3   1 <1>   0.3430 
 13 C       -5.2250    -1.5350     0.5490 C.3   1 <1>   0.3430 
 14 C       -1.3220     4.3590     1.4310 C.3   1 <1>   0.0400 
 15 C       -4.4760     4.7950    -1.0920 C.3   1 <1>   0.0400 
 16 C       -4.5080    -4.4080     0.7470 C.3   1 <1>   0.1000 
 17 C       -5.6240    -2.3690     1.7690 C.3   1 <1>  -0.1600 
 18 C       -4.7490    -5.8130     0.2180 C.2   1 <1>   0.0060 
 19 C       -5.7770    -3.8580     1.4210 C.3   1 <1>  -0.1600 
 20 N       -4.8260    -6.0890    -1.0440 N.2   1 <1>  -0.5650 
 21 N       -4.9020    -6.8960     1.0160 N.pl3 1 <1>   0.0330 
 22 C       -5.0420    -7.4180    -1.0740 C.2   1 <1>   0.0770 
 23 C       -5.0910    -7.9270     0.1750 C.2   1 <1>  -0.3020 
 24 H       -0.9770     1.8520     1.1640 H     1 <1>   0.1500 
 25 H       -4.8790     1.0410    -1.7170 H     1 <1>   0.1500 
 26 H       -2.5810    -1.6830    -1.5920 H     1 <1>   0.0800 
 27 H       -4.2320    -1.2410    -1.9590 H     1 <1>   0.0800 
 28 H       -3.2230    -1.9930     0.6900 H     1 <1>   0.4500 
 29 H       -3.1460    -3.8740    -0.8190 H     1 <1>   0.0800 
 30 H       -4.8200    -3.6030    -1.2080 H     1 <1>   0.0800 
 31 H       -6.0100    -1.5800    -0.1890 H     1 <1>   0.0800 
 32 H       -5.0970    -0.5050     0.8450 H     1 <1>   0.0800 
 33 H       -1.3570     5.4150     1.6310 H     1 <1>   0.0800 
 34 H       -0.4200     4.1210     0.8950 H     1 <1>   0.0800 
 35 H       -1.3800     3.8140     2.3560 H     1 <1>   0.0800 
 36 H       -5.2470     5.2610    -1.6790 H     1 <1>   0.0800 
 37 H       -3.5120     4.9990    -1.5230 H     1 <1>   0.0800 
 38 H       -4.5270     5.1520    -0.0790 H     1 <1>   0.0800 
 39 H       -3.7030    -4.4440     1.4580 H     1 <1>   0.0800 
 40 H       -6.5590    -1.9980     2.1510 H     1 <1>   0.0800 
 41 H       -4.8890    -2.2420     2.5450 H     1 <1>   0.0800 
 42 H       -5.9920    -4.4200     2.3140 H     1 <1>   0.0800 
 43 H       -6.6120    -3.9820     0.7500 H     1 <1>   0.0800 
 44 H       -4.8820    -6.9350     2.0400 H     1 <1>   0.2700 
 45 H       -5.1540    -7.9490    -2.0070 H     1 <1>   0.1500 
 46 H       -5.2460    -8.9410     0.4990 H     1 <1>   0.1500 
@<TRIPOS>BOND
  1   1   2  1   
  2   2   3  ar  
  3   2   4  ar  
  4   3   5  ar  
  5   3   6  1   
  6   4   7  ar  
  7   4  24  1   
  8   5   8  ar  
  9   5  25  1   
 10   6   9  1   
 11   6  26  1   
 12   6  27  1   
 13   7   8  ar  
 14   7  10  1   
 15   8  11  1   
 16   9  12  1   
 17   9  13  1   
 18   9  28  1   
 19  10  14  1   
 20  11  15  1   
 21  12  16  1   
 22  12  29  1   
 23  12  30  1   
 24  13  17  1   
 25  13  31  1   
 26  13  32  1   
 27  14  33  1   
 28  14  34  1   
 29  14  35  1   
 30  15  36  1   
 31  15  37  1   
 32  15  38  1   
 33  16  18  1   
 34  16  19  1   
 35  16  39  1   
 36  17  19  1   
 37  17  40  1   
 38  17  41  1   
 39  18  20  2   
 40  18  21  1   
 41  19  42  1   
 42  19  43  1   
 43  20  22  1   
 44  21  23  1   
 45  21  44  1   
 46  22  23  2   
 47  22  45  1   
 48  23  46  1   
@<TRIPOS>SUBSTRUCTURE
  1 ****   9 GROUP 4 **** **** 0

# MOE 2024.06 (io_trps.svl 2023.06)
