@<TRIPOS>MOLECULE
NONAME
58 60 1 0 0 
SMALL
USER_CHARGES


@<TRIPOS>ATOM
  1 S       -0.4640     0.5040     1.5460 S.o2  1 <1>   1.5760 
  2 O       -0.3570    -0.4390     2.6350 O.2   1 <1>  -0.6500 
  3 O       -0.8260     1.8810     1.7980 O.2   1 <1>  -0.6500 
  4 N       -1.5360    -0.1310     0.4130 N.am  1 <1>  -0.8490 
  5 N        0.9610     0.4810     0.6430 N.am  1 <1>  -0.8490 
  6 C       -1.2440    -1.5460     0.1150 C.3   1 <1>   0.1960 
  7 C       -2.9220    -0.0180     0.8860 C.3   1 <1>   0.1960 
  8 C        2.1280     0.6460     1.5090 C.3   1 <1>   0.1960 
  9 C        0.9420     1.4950    -0.4150 C.3   1 <1>   0.1960 
 10 C       -2.2620    -2.1370    -0.8800 C.3   1 <1>   0.3440 
 11 C       -3.9210    -0.6310    -0.1270 C.3   1 <1>   0.2000 
 12 C        3.4180     0.4880     0.6980 C.3   1 <1>  -0.1600 
 13 C        2.1850     1.3580    -1.2990 C.3   1 <1>  -0.1600 
 14 O       -3.5650    -1.9670    -0.3890 O.3   1 <1>  -0.5600 
 15 C       -1.9980    -3.6220    -1.1110 C.ar  1 <1>  -0.1430 
 16 C       -5.4150    -0.5790     0.3180 C.3   1 <1>   0.0000 
 17 C        3.4700     1.4810    -0.4710 C.3   1 <1>  -0.0800 
 18 C       -2.4890    -4.5830    -0.2370 C.ar  1 <1>  -0.1500 
 19 C       -1.2450    -4.0270    -2.2030 C.ar  1 <1>  -0.1500 
 20 C       -5.8630     0.8720     0.5720 C.3   1 <1>  -0.2400 
 21 C       -5.6680    -1.3980     1.5980 C.3   1 <1>  -0.2400 
 22 C       -6.3040    -1.1500    -0.8030 C.3   1 <1>  -0.2400 
 23 C        4.7080     1.2370    -1.3420 C.3   1 <1>  -0.2400 
 24 C       -2.2310    -5.9250    -0.4500 C.ar  1 <1>  -0.1500 
 25 C       -0.9850    -5.3700    -2.4180 C.ar  1 <1>  -0.1500 
 26 C       -1.4770    -6.3200    -1.5410 C.ar  1 <1>  -0.1500 
 27 H       -0.2590    -1.6310    -0.3080 H     1 <1>   0.0800 
 28 H       -1.2670    -2.1340     1.0170 H     1 <1>   0.0800 
 29 H       -3.0230    -0.5130     1.8370 H     1 <1>   0.0800 
 30 H       -3.1540     1.0240     1.0260 H     1 <1>   0.0800 
 31 H        2.1010     1.6160     1.9800 H     1 <1>   0.0800 
 32 H        2.1140    -0.1050     2.2840 H     1 <1>   0.0800 
 33 H        0.0630     1.3690    -1.0240 H     1 <1>   0.0800 
 34 H        0.9090     2.4820     0.0200 H     1 <1>   0.0800 
 35 H       -2.1940    -1.6120    -1.8170 H     1 <1>   0.0800 
 36 H       -3.8310    -0.0890    -1.0530 H     1 <1>   0.0800 
 37 H        4.2620     0.6420     1.3450 H     1 <1>   0.0800 
 38 H        3.4660    -0.5220     0.3270 H     1 <1>   0.0800 
 39 H        2.1510     0.4020    -1.7930 H     1 <1>   0.0800 
 40 H        2.1640     2.1220    -2.0560 H     1 <1>   0.0800 
 41 H        3.5260     2.4800    -0.0700 H     1 <1>   0.0800 
 42 H       -3.0800    -4.2840     0.6120 H     1 <1>   0.1500 
 43 H       -0.8550    -3.3010    -2.8950 H     1 <1>   0.1500 
 44 H       -6.9180     0.9080     0.7780 H     1 <1>   0.0800 
 45 H       -5.6690     1.4850    -0.2900 H     1 <1>   0.0800 
 46 H       -5.3530     1.2970     1.4180 H     1 <1>   0.0800 
 47 H       -6.7150    -1.3970     1.8450 H     1 <1>   0.0800 
 48 H       -5.1300    -0.9940     2.4350 H     1 <1>   0.0800 
 49 H       -5.3600    -2.4200     1.4560 H     1 <1>   0.0800 
 50 H       -7.3440    -1.0950    -0.5330 H     1 <1>   0.0800 
 51 H       -6.0620    -2.1820    -0.9890 H     1 <1>   0.0800 
 52 H       -6.1610    -0.6010    -1.7170 H     1 <1>   0.0800 
 53 H        4.6870     0.2460    -1.7610 H     1 <1>   0.0800 
 54 H        5.6030     1.3430    -0.7550 H     1 <1>   0.0800 
 55 H        4.7440     1.9490    -2.1460 H     1 <1>   0.0800 
 56 H       -2.6180    -6.6610     0.2320 H     1 <1>   0.1500 
 57 H       -0.4000    -5.6760    -3.2680 H     1 <1>   0.1500 
 58 H       -1.2760    -7.3640    -1.7080 H     1 <1>   0.1500 
@<TRIPOS>BOND
  1   1   2  2   
  2   1   3  2   
  3   1   4  am  
  4   1   5  am  
  5   4   6  1   
  6   4   7  1   
  7   5   8  1   
  8   5   9  1   
  9   6  10  1   
 10   6  27  1   
 11   6  28  1   
 12   7  11  1   
 13   7  29  1   
 14   7  30  1   
 15   8  12  1   
 16   8  31  1   
 17   8  32  1   
 18   9  13  1   
 19   9  33  1   
 20   9  34  1   
 21  10  14  1   
 22  10  15  1   
 23  10  35  1   
 24  11  14  1   
 25  11  16  1   
 26  11  36  1   
 27  12  17  1   
 28  12  37  1   
 29  12  38  1   
 30  13  17  1   
 31  13  39  1   
 32  13  40  1   
 33  15  18  ar  
 34  15  19  ar  
 35  16  20  1   
 36  16  21  1   
 37  16  22  1   
 38  17  23  1   
 39  17  41  1   
 40  18  24  ar  
 41  18  42  1   
 42  19  25  ar  
 43  19  43  1   
 44  20  44  1   
 45  20  45  1   
 46  20  46  1   
 47  21  47  1   
 48  21  48  1   
 49  21  49  1   
 50  22  50  1   
 51  22  51  1   
 52  22  52  1   
 53  23  53  1   
 54  23  54  1   
 55  23  55  1   
 56  24  26  ar  
 57  24  56  1   
 58  25  26  ar  
 59  25  57  1   
 60  26  58  1   
@<TRIPOS>SUBSTRUCTURE
  1 ****   6 GROUP 4 **** **** 0

# MOE 2024.06 (io_trps.svl 2023.06)
