@<TRIPOS>MOLECULE
NONAME
55 58 1 0 0 
SMALL
USER_CHARGES


@<TRIPOS>ATOM
  1 F       -2.0970     0.6260    -0.9170 F     1 <1>  -0.1900 
  2 C       -2.1800     1.8680    -0.5170 C.ar  1 <1>   0.1900 
  3 C       -3.1080     2.2060     0.4570 C.ar  1 <1>  -0.1440 
  4 C       -1.3370     2.7970    -1.0970 C.ar  1 <1>  -0.1500 
  5 C       -3.1840     3.5350     0.8480 C.ar  1 <1>  -0.1500 
  6 C       -4.0160     1.1600     1.0760 C.3   1 <1>   0.2840 
  7 C       -1.4260     4.1180    -0.6930 C.ar  1 <1>  -0.1500 
  8 C       -2.3480     4.4830     0.2760 C.ar  1 <1>  -0.1500 
  9 N       -5.0750     0.8280     0.1010 N.am  1 <1>  -0.7300 
 10 C       -6.4010     0.9380     0.3340 C.2   1 <1>   0.5690 
 11 O       -6.8520     1.2600     1.4040 O.2   1 <1>  -0.5700 
 12 C       -7.3760     0.6560    -0.7810 C.3   1 <1>  -0.0990 
 13 C       -8.5400    -0.1460    -0.2020 C.3   1 <1>   0.3430 
 14 N       -9.7030    -0.1970    -1.1440 N.4   1 <1>  -0.9590 
 15 C      -10.4390     1.1220    -1.2420 C.3   1 <1>   0.3430 
 16 C      -10.6290    -1.3250    -0.7740 C.3   1 <1>   0.3430 
 17 C      -11.1400     1.5640     0.0660 C.3   1 <1>   0.1430 
 18 C      -11.8520    -0.8820     0.0470 C.3   1 <1>  -0.1600 
 19 C      -12.3170     2.4050    -0.3820 C.ar  1 <1>   0.1670 
 20 C      -11.5860     0.3530     0.9210 C.3   1 <1>  -0.1600 
 21 C      -10.3040     2.5720     0.9070 C.3   1 <1>  -0.1600 
 22 N      -13.3570     1.9440    -1.0320 N.ar  1 <1>  -0.6200 
 23 C      -12.1580     3.7220    -0.0680 C.ar  1 <1>  -0.1430 
 24 C      -10.8560     3.9850     0.6410 C.3   1 <1>  -0.0170 
 25 C      -14.2520     2.8710    -1.3460 C.ar  1 <1>   0.7200 
 26 C      -13.1560     4.5920    -0.4390 C.ar  1 <1>   0.1600 
 27 N      -14.2190     4.1690    -1.0830 N.ar  1 <1>  -0.6200 
 28 N      -15.3310     2.4430    -1.9990 N.pl3 1 <1>  -0.9000 
 29 H       -0.6300     2.4920    -1.8480 H     1 <1>   0.1500 
 30 H       -3.8940     3.8400     1.5980 H     1 <1>   0.1500 
 31 H       -4.4480     1.5340     1.9890 H     1 <1>   0.0800 
 32 H       -3.4520     0.2730     1.3100 H     1 <1>   0.0800 
 33 H       -0.7800     4.8610    -1.1290 H     1 <1>   0.1500 
 34 H       -2.4140     5.5110     0.5880 H     1 <1>   0.1500 
 35 H       -4.7070     0.6180    -0.8290 H     1 <1>   0.3700 
 36 H       -6.8910     0.0990    -1.5610 H     1 <1>   0.0800 
 37 H       -7.7020     1.6030    -1.1650 H     1 <1>   0.0800 
 38 H       -8.8520     0.2940     0.7320 H     1 <1>   0.0800 
 39 H       -8.1950    -1.1450     0.0130 H     1 <1>   0.0800 
 40 H       -9.3340    -0.4150    -2.0790 H     1 <1>   0.4500 
 41 H      -11.2040     1.0200    -1.9960 H     1 <1>   0.0800 
 42 H       -9.7760     1.9050    -1.5700 H     1 <1>   0.0800 
 43 H      -10.0810    -2.0640    -0.2110 H     1 <1>   0.0800 
 44 H      -10.9860    -1.8080    -1.6710 H     1 <1>   0.0800 
 45 H      -12.1730    -1.7030     0.6650 H     1 <1>   0.0800 
 46 H      -12.6630    -0.6720    -0.6290 H     1 <1>   0.0800 
 47 H      -12.4750     0.6070     1.4750 H     1 <1>   0.0800 
 48 H      -10.8250     0.1020     1.6390 H     1 <1>   0.0800 
 49 H       -9.2520     2.5280     0.6900 H     1 <1>   0.0800 
 50 H      -10.4310     2.3670     1.9570 H     1 <1>   0.0800 
 51 H      -10.1960     4.5450     0.0000 H     1 <1>   0.0800 
 52 H      -11.0130     4.5260     1.5590 H     1 <1>   0.0800 
 53 H      -13.0810     5.6420    -0.2090 H     1 <1>   0.1500 
 54 H      -16.1080     3.0990    -2.0110 H     1 <1>   0.4000 
 55 H      -15.5720     1.4650    -1.8730 H     1 <1>   0.4000 
@<TRIPOS>BOND
  1   1   2  1   
  2   2   3  ar  
  3   2   4  ar  
  4   3   5  ar  
  5   3   6  1   
  6   4   7  ar  
  7   4  29  1   
  8   5   8  ar  
  9   5  30  1   
 10   6   9  1   
 11   6  31  1   
 12   6  32  1   
 13   7   8  ar  
 14   7  33  1   
 15   8  34  1   
 16   9  10  am  
 17   9  35  1   
 18  10  11  2   
 19  10  12  1   
 20  12  13  1   
 21  12  36  1   
 22  12  37  1   
 23  13  14  1   
 24  13  38  1   
 25  13  39  1   
 26  14  15  1   
 27  14  16  1   
 28  14  40  1   
 29  15  17  1   
 30  15  41  1   
 31  15  42  1   
 32  16  18  1   
 33  16  43  1   
 34  16  44  1   
 35  17  19  1   
 36  17  20  1   
 37  17  21  1   
 38  18  20  1   
 39  18  45  1   
 40  18  46  1   
 41  19  22  ar  
 42  19  23  ar  
 43  20  47  1   
 44  20  48  1   
 45  21  24  1   
 46  21  49  1   
 47  21  50  1   
 48  22  25  ar  
 49  23  24  1   
 50  23  26  ar  
 51  24  51  1   
 52  24  52  1   
 53  25  27  ar  
 54  25  28  1   
 55  26  27  ar  
 56  26  53  1   
 57  28  54  1   
 58  28  55  1   
@<TRIPOS>SUBSTRUCTURE
  1 ****  12 GROUP 4 **** **** 0

# MOE 2024.06 (io_trps.svl 2023.06)
