@<TRIPOS>MOLECULE
NONAME
44 46 1 0 0 
SMALL
USER_CHARGES


@<TRIPOS>ATOM
  1 O        2.3520    -1.2120     1.0530 O.co2 1 <1>  -0.9000 
  2 C        2.1190     0.0030     1.1700 C.2   1 <1>   0.9060 
  3 O        1.9720     0.5120     2.2890 O.co2 1 <1>  -0.9000 
  4 C        2.0290     0.8800    -0.1030 C.3   1 <1>  -0.1060 
  5 C        3.1250     0.4500    -1.1090 C.3   1 <1>   0.2000 
  6 C        2.3240     2.3710     0.2190 C.3   1 <1>  -0.1600 
  7 C        0.6310     0.7400    -0.7720 C.3   1 <1>  -0.1600 
  8 O        2.9970    -0.8940    -1.4210 O.3   1 <1>  -0.6800 
  9 C        4.5340     0.6870    -0.5470 C.3   1 <1>   0.1100 
 10 C        3.7480     2.5830     0.7520 C.3   1 <1>   0.1100 
 11 C       -0.5530     1.1910     0.1020 C.3   1 <1>  -0.1600 
 12 N        4.7570     2.1140    -0.2190 N.3   1 <1>  -0.8100 
 13 C       -1.8870     0.9260    -0.6020 C.3   1 <1>  -0.2400 
 14 C        6.1320     2.2810     0.3120 C.3   1 <1>   0.2900 
 15 C        6.6120     3.7290     0.4020 C.2   1 <1>   0.2980 
 16 O        6.1840     4.4780     1.3900 O.3   1 <1>  -0.0190 
 17 N        7.4400     4.2930    -0.3870 N.2   1 <1>  -0.5650 
 18 N        6.7780     5.6170     1.2050 N.2   1 <1>  -0.4100 
 19 C        7.5020     5.4950     0.1650 C.2   1 <1>   0.4300 
 20 C        8.3760     6.5840    -0.4370 C.3   1 <1>  -0.0140 
 21 C        9.8550     6.5910    -0.1880 C.3   1 <1>  -0.2000 
 22 C        8.9910     7.6610     0.4070 C.3   1 <1>  -0.2000 
 23 H        3.0260     0.9980    -2.0290 H     1 <1>   0.0800 
 24 H        1.6410     2.7230     0.9710 H     1 <1>   0.0800 
 25 H        2.1890     2.9770    -0.6580 H     1 <1>   0.0800 
 26 H        0.6210     1.2970    -1.6920 H     1 <1>   0.0800 
 27 H        0.4820    -0.2970    -1.0230 H     1 <1>   0.0800 
 28 H        2.7650    -1.3370    -0.5480 H     1 <1>   0.4000 
 29 H        5.2480     0.3780    -1.2910 H     1 <1>   0.0800 
 30 H        4.6700     0.0840     0.3360 H     1 <1>   0.0800 
 31 H        3.8650     2.0620     1.6890 H     1 <1>   0.0800 
 32 H        3.8800     3.6340     0.9360 H     1 <1>   0.0800 
 33 H       -0.5360     0.6570     1.0380 H     1 <1>   0.0800 
 34 H       -0.4770     2.2410     0.3180 H     1 <1>   0.0800 
 35 H       -1.9990    -0.1260    -0.7990 H     1 <1>   0.0800 
 36 H       -1.9330     1.4620    -1.5330 H     1 <1>   0.0800 
 37 H       -2.7000     1.2460     0.0230 H     1 <1>   0.0800 
 38 H        6.2030     1.8240     1.2830 H     1 <1>   0.0800 
 39 H        6.8140     1.7670    -0.3420 H     1 <1>   0.0800 
 40 H        8.0420     6.8560    -1.4220 H     1 <1>   0.1000 
 41 H       10.2670     5.8360     0.4590 H     1 <1>   0.1000 
 42 H       10.5090     6.8380    -1.0050 H     1 <1>   0.1000 
 43 H        9.0420     8.6580     0.0070 H     1 <1>   0.1000 
 44 H        8.8080     7.6500     1.4680 H     1 <1>   0.1000 
@<TRIPOS>BOND
  1   1   2  ar  
  2   2   3  ar  
  3   2   4  1   
  4   4   5  1   
  5   4   6  1   
  6   4   7  1   
  7   5   8  1   
  8   5   9  1   
  9   5  23  1   
 10   6  10  1   
 11   6  24  1   
 12   6  25  1   
 13   7  11  1   
 14   7  26  1   
 15   7  27  1   
 16   8  28  1   
 17   9  12  1   
 18   9  29  1   
 19   9  30  1   
 20  10  12  1   
 21  10  31  1   
 22  10  32  1   
 23  11  13  1   
 24  11  33  1   
 25  11  34  1   
 26  12  14  1   
 27  13  35  1   
 28  13  36  1   
 29  13  37  1   
 30  14  15  1   
 31  14  38  1   
 32  14  39  1   
 33  15  16  1   
 34  15  17  2   
 35  16  18  1   
 36  17  19  1   
 37  18  19  2   
 38  19  20  1   
 39  20  21  1   
 40  20  22  1   
 41  20  40  1   
 42  21  22  1   
 43  21  41  1   
 44  21  42  1   
 45  22  43  1   
 46  22  44  1   
@<TRIPOS>SUBSTRUCTURE
  1 ****  12 GROUP 4 **** **** 0

# MOE 2024.06 (io_trps.svl 2023.06)
