@<TRIPOS>MOLECULE
NONAME
41 43 1 0 0 
SMALL
USER_CHARGES


@<TRIPOS>ATOM
  1 CL      -2.0740    -0.3210    -1.8700 Cl    1 <1>  -0.1770 
  2 C       -2.5240     0.7040    -0.5280 C.ar  1 <1>   0.1770 
  3 C       -2.9190     0.1550     0.6820 C.ar  1 <1>   0.0860 
  4 C       -2.4740     2.0760    -0.6950 C.ar  1 <1>   0.1600 
  5 C       -3.0050    -1.2640     0.9250 C.2   1 <1>   0.5440 
  6 C       -3.2270     1.0820     1.6680 C.ar  1 <1>  -0.1500 
  7 N       -2.7860     2.9580     0.2440 N.ar  1 <1>  -0.6200 
  8 O       -2.2390    -1.7800     1.7140 O.2   1 <1>  -0.5700 
  9 N       -3.9560    -2.0440     0.3140 N.am  1 <1>  -0.6600 
 10 C       -3.1480     2.4370     1.4070 C.ar  1 <1>   0.1600 
 11 C       -5.0630    -1.5640    -0.5510 C.3   1 <1>   0.1400 
 12 C       -4.1430    -3.4760     0.6340 C.3   1 <1>   0.1400 
 13 C       -6.0600    -2.7290    -0.6280 C.3   1 <1>   0.2000 
 14 C       -5.1960    -3.9670    -0.3620 C.3   1 <1>  -0.0800 
 15 O       -7.0080    -2.6100     0.3950 O.3   1 <1>  -0.5600 
 16 C       -5.9780    -5.2000     0.1270 C.3   1 <1>   0.0200 
 17 C       -8.1210    -1.8310     0.0880 C.3   1 <1>   0.0400 
 18 C       -5.1270    -6.4560     0.2070 C.2   1 <1>  -0.0400 
 19 O       -5.6660    -7.5500     0.6780 O.3   1 <1>  -0.0190 
 20 C       -3.8550    -6.7380    -0.1190 C.2   1 <1>  -0.1500 
 21 N       -4.8250    -8.5440     0.6870 N.2   1 <1>  -0.4100 
 22 C       -3.7250    -8.0830     0.2130 C.2   1 <1>   0.1080 
 23 C       -2.4630    -8.8990     0.0430 C.3   1 <1>  -0.0590 
 24 H       -2.1630     2.4630    -1.6500 H     1 <1>   0.1500 
 25 H       -3.5250     0.7350     2.6420 H     1 <1>   0.1500 
 26 H       -3.3950     3.1320     2.1930 H     1 <1>   0.1500 
 27 H       -5.5180    -0.6770    -0.1490 H     1 <1>   0.0800 
 28 H       -4.6740    -1.3620    -1.5330 H     1 <1>   0.0800 
 29 H       -3.2140    -4.0100     0.5440 H     1 <1>   0.0800 
 30 H       -4.5070    -3.5580     1.6450 H     1 <1>   0.0800 
 31 H       -6.5640    -2.7860    -1.5780 H     1 <1>   0.0800 
 32 H       -4.6920    -4.2160    -1.2790 H     1 <1>   0.0800 
 33 H       -6.7970    -5.3900    -0.5440 H     1 <1>   0.0800 
 34 H       -6.3950    -5.0050     1.1000 H     1 <1>   0.0800 
 35 H       -8.7600    -1.8070     0.9530 H     1 <1>   0.0800 
 36 H       -8.6500    -2.2770    -0.7370 H     1 <1>   0.0800 
 37 H       -7.8090    -0.8310    -0.1570 H     1 <1>   0.0800 
 38 H       -3.0870    -6.1150    -0.5380 H     1 <1>   0.1500 
 39 H       -1.6690    -8.4660     0.6240 H     1 <1>   0.0800 
 40 H       -2.1770    -8.9180    -0.9920 H     1 <1>   0.0800 
 41 H       -2.6300    -9.9070     0.3780 H     1 <1>   0.0800 
@<TRIPOS>BOND
  1   1   2  1   
  2   2   3  ar  
  3   2   4  ar  
  4   3   5  1   
  5   3   6  ar  
  6   4   7  ar  
  7   4  24  1   
  8   5   8  2   
  9   5   9  am  
 10   6  10  ar  
 11   6  25  1   
 12   7  10  ar  
 13   9  11  1   
 14   9  12  1   
 15  10  26  1   
 16  11  13  1   
 17  11  27  1   
 18  11  28  1   
 19  12  14  1   
 20  12  29  1   
 21  12  30  1   
 22  13  14  1   
 23  13  15  1   
 24  13  31  1   
 25  14  16  1   
 26  14  32  1   
 27  15  17  1   
 28  16  18  1   
 29  16  33  1   
 30  16  34  1   
 31  17  35  1   
 32  17  36  1   
 33  17  37  1   
 34  18  19  1   
 35  18  20  2   
 36  19  21  1   
 37  20  22  1   
 38  20  38  1   
 39  21  22  2   
 40  22  23  1   
 41  23  39  1   
 42  23  40  1   
 43  23  41  1   
@<TRIPOS>SUBSTRUCTURE
  1 ****   9 GROUP 4 **** **** 0

# MOE 2024.06 (io_trps.svl 2023.06)
