@<TRIPOS>MOLECULE
NONAME
47 49 1 0 0 
SMALL
USER_CHARGES


@<TRIPOS>ATOM
  1 O       -1.9310    -0.3080     1.6260 O.2   1 <1>  -0.5700 
  2 C       -2.1170     0.3180     0.6100 C.2   1 <1>   0.5690 
  3 N       -2.3710    -0.3020    -0.5780 N.am  1 <1>  -0.7300 
  4 C       -2.1020     1.8670     0.6360 C.3   1 <1>   0.0610 
  5 C       -2.4570    -1.7560    -0.9080 C.3   1 <1>   0.2200 
  6 C       -1.7970     2.4160     2.0450 C.3   1 <1>  -0.2400 
  7 C       -3.4740     2.4200     0.2030 C.3   1 <1>  -0.2400 
  8 C       -1.0250     2.4100    -0.3240 C.3   1 <1>  -0.2400 
  9 C       -3.8220    -2.3840    -0.6640 C.3   1 <1>  -0.0800 
 10 C       -1.5160    -2.7090    -0.1690 C.3   1 <1>   0.1200 
 11 C       -3.4470    -3.8680    -0.6860 C.3   1 <1>   0.1200 
 12 C       -4.4780    -1.9910     0.6800 C.3   1 <1>  -0.0170 
 13 O       -2.1300    -3.9650    -0.2300 O.3   1 <1>  -0.5600 
 14 C       -5.8300    -2.6720     0.8790 C.ar  1 <1>  -0.1440 
 15 C       -6.9990    -2.2550     0.1990 C.ar  1 <1>   0.0000 
 16 C       -5.9430    -3.7230     1.7400 C.ar  1 <1>  -0.1500 
 17 C       -8.1920    -2.9790     0.4410 C.ar  1 <1>   0.3100 
 18 C       -7.0560    -1.1640    -0.6990 C.ar  1 <1>  -0.1500 
 19 C       -7.1750    -4.3640     1.9140 C.ar  1 <1>   0.1600 
 20 N       -8.2640    -4.0280     1.2980 N.ar  1 <1>  -0.6200 
 21 C       -9.3650    -2.5980    -0.2320 C.ar  1 <1>  -0.1500 
 22 C       -8.2170    -0.8170    -1.3360 C.ar  1 <1>  -0.1500 
 23 C       -9.3860    -1.5440    -1.1040 C.ar  1 <1>  -0.1500 
 24 H       -2.5360     0.3080    -1.3780 H     1 <1>   0.3700 
 25 H       -2.2250    -1.8580    -1.9550 H     1 <1>   0.0800 
 26 H       -1.7890     3.4910     2.0510 H     1 <1>   0.0800 
 27 H       -0.8370     2.0650     2.3820 H     1 <1>   0.0800 
 28 H       -2.5400     2.0760     2.7460 H     1 <1>   0.0800 
 29 H       -3.4830     3.4950     0.2490 H     1 <1>   0.0800 
 30 H       -4.2440     2.0460     0.8560 H     1 <1>   0.0800 
 31 H       -3.7110     2.1240    -0.8030 H     1 <1>   0.0800 
 32 H       -0.9890     3.4840    -0.2870 H     1 <1>   0.0800 
 33 H       -1.2240     2.1150    -1.3380 H     1 <1>   0.0800 
 34 H       -0.0580     2.0280    -0.0440 H     1 <1>   0.0800 
 35 H       -4.4890    -2.1680    -1.4770 H     1 <1>   0.0800 
 36 H       -1.4090    -2.4650     0.8700 H     1 <1>   0.0800 
 37 H       -0.5510    -2.7690    -0.6380 H     1 <1>   0.0800 
 38 H       -3.4660    -4.2470    -1.6930 H     1 <1>   0.0800 
 39 H       -4.0780    -4.4810    -0.0680 H     1 <1>   0.0800 
 40 H       -4.6190    -0.9270     0.7380 H     1 <1>   0.0800 
 41 H       -3.8200    -2.2570     1.4900 H     1 <1>   0.0800 
 42 H       -5.0970    -4.0860     2.2970 H     1 <1>   0.1500 
 43 H       -6.1700    -0.5880    -0.8850 H     1 <1>   0.1500 
 44 H       -7.2170    -5.1910     2.6020 H     1 <1>   0.1500 
 45 H      -10.2530    -3.1690    -0.0350 H     1 <1>   0.1500 
 46 H       -8.2470     0.0150    -2.0190 H     1 <1>   0.1500 
 47 H      -10.2940    -1.2650    -1.6120 H     1 <1>   0.1500 
@<TRIPOS>BOND
  1   1   2  2   
  2   2   3  am  
  3   2   4  1   
  4   3   5  1   
  5   3  24  1   
  6   4   6  1   
  7   4   7  1   
  8   4   8  1   
  9   5   9  1   
 10   5  10  1   
 11   5  25  1   
 12   6  26  1   
 13   6  27  1   
 14   6  28  1   
 15   7  29  1   
 16   7  30  1   
 17   7  31  1   
 18   8  32  1   
 19   8  33  1   
 20   8  34  1   
 21   9  11  1   
 22   9  12  1   
 23   9  35  1   
 24  10  13  1   
 25  10  36  1   
 26  10  37  1   
 27  11  13  1   
 28  11  38  1   
 29  11  39  1   
 30  12  14  1   
 31  12  40  1   
 32  12  41  1   
 33  14  15  ar  
 34  14  16  ar  
 35  15  17  ar  
 36  15  18  ar  
 37  16  19  ar  
 38  16  42  1   
 39  17  20  ar  
 40  17  21  ar  
 41  18  22  ar  
 42  18  43  1   
 43  19  20  ar  
 44  19  44  1   
 45  21  23  ar  
 46  21  45  1   
 47  22  23  ar  
 48  22  46  1   
 49  23  47  1   
@<TRIPOS>SUBSTRUCTURE
  1 ****  12 GROUP 4 **** **** 0

# MOE 2024.06 (io_trps.svl 2023.06)
