@<TRIPOS>MOLECULE
NONAME
53 56 1 0 0 
SMALL
USER_CHARGES


@<TRIPOS>ATOM
  1 S       -1.4130     1.1140     2.0180 S.3   1 <1>  -0.0800 
  2 C       -0.6650     1.8530     0.6180 C.2   1 <1>  -0.1400 
  3 C       -0.2870     1.9460     3.0810 C.2   1 <1>  -0.1100 
  4 C        0.3580     2.6480     0.9580 C.2   1 <1>  -0.1810 
  5 C       -1.1450     1.6040    -0.7860 C.3   1 <1>   0.0200 
  6 C        0.5720     2.7070     2.3760 C.2   1 <1>  -0.1500 
  7 C        1.1710     3.3860    -0.1080 C.3   1 <1>   0.4610 
  8 C       -0.5740     2.7260    -1.6670 C.3   1 <1>   0.1200 
  9 O        0.7920     2.9420    -1.4000 O.3   1 <1>  -0.5600 
 10 C        0.9510     4.9040    -0.0170 C.3   1 <1>  -0.1600 
 11 C        2.6610     3.0550     0.0320 C.3   1 <1>  -0.1600 
 12 C        1.8240     5.6630    -1.0180 C.3   1 <1>   0.1400 
 13 C        3.5110     3.8420    -0.9660 C.3   1 <1>   0.1400 
 14 N        3.2510     5.3000    -0.7870 N.am  1 <1>  -0.6600 
 15 C        4.2560     6.1600    -0.4040 C.2   1 <1>   0.5690 
 16 O        5.3640     5.7460    -0.1420 O.2   1 <1>  -0.5700 
 17 C        4.0120     7.6660    -0.2720 C.3   1 <1>  -0.0190 
 18 C        5.3080     8.4640    -0.4870 C.3   1 <1>   0.1100 
 19 C        3.4020     8.0130     1.0990 C.3   1 <1>  -0.1600 
 20 N        5.0570     9.9150    -0.3770 N.3   1 <1>  -0.8100 
 21 C        3.2380     9.5320     1.2380 C.3   1 <1>  -0.1600 
 22 C        4.5520    10.2690     0.9570 C.3   1 <1>   0.1100 
 23 C        6.2870    10.6730    -0.7550 C.3   1 <1>   0.1710 
 24 C        6.1440    12.1980    -0.8900 C.2   1 <1>   0.5690 
 25 O        6.0120    12.7020    -1.9760 O.2   1 <1>  -0.5700 
 26 N        6.2190    12.9930     0.1990 N.am  1 <1>  -0.8000 
 27 H       -0.3900     1.7730     4.1380 H     1 <1>   0.1500 
 28 H       -2.2190     1.6190    -0.8250 H     1 <1>   0.0800 
 29 H       -0.7980     0.6460    -1.1280 H     1 <1>   0.0800 
 30 H        1.3550     3.3120     2.7990 H     1 <1>   0.1500 
 31 H       -1.1050     3.6450    -1.4930 H     1 <1>   0.0800 
 32 H       -0.6690     2.4660    -2.7060 H     1 <1>   0.0800 
 33 H        1.2010     5.2340     0.9740 H     1 <1>   0.0800 
 34 H       -0.0840     5.1370    -0.1760 H     1 <1>   0.0800 
 35 H        2.8030     2.0000    -0.1160 H     1 <1>   0.0800 
 36 H        2.9980     3.2930     1.0230 H     1 <1>   0.0800 
 37 H        1.6560     6.7170    -0.9040 H     1 <1>   0.0800 
 38 H        1.5520     5.3900    -2.0240 H     1 <1>   0.0800 
 39 H        3.2570     3.5580    -1.9730 H     1 <1>   0.0800 
 40 H        4.5520     3.6130    -0.8120 H     1 <1>   0.0800 
 41 H        3.3450     7.9740    -1.0540 H     1 <1>   0.0800 
 42 H        5.6920     8.2370    -1.4670 H     1 <1>   0.0800 
 43 H        6.0460     8.1670     0.2400 H     1 <1>   0.0800 
 44 H        4.0550     7.6520     1.8760 H     1 <1>   0.0800 
 45 H        2.4480     7.5330     1.2180 H     1 <1>   0.0800 
 46 H        2.9010     9.7710     2.2300 H     1 <1>   0.0800 
 47 H        2.4940     9.8830     0.5440 H     1 <1>   0.0800 
 48 H        4.3600    11.3260     1.0050 H     1 <1>   0.0800 
 49 H        5.2830    10.0140     1.7060 H     1 <1>   0.0800 
 50 H        6.6240    10.3140    -1.7110 H     1 <1>   0.0800 
 51 H        7.0650    10.4650    -0.0430 H     1 <1>   0.0800 
 52 H        6.1170    14.0010     0.0800 H     1 <1>   0.3700 
 53 H        6.3130    12.6460     1.1520 H     1 <1>   0.3700 
@<TRIPOS>BOND
  1   1   2  1   
  2   1   3  1   
  3   2   4  2   
  4   2   5  1   
  5   3   6  2   
  6   3  27  1   
  7   4   6  1   
  8   4   7  1   
  9   5   8  1   
 10   5  28  1   
 11   5  29  1   
 12   6  30  1   
 13   7   9  1   
 14   7  10  1   
 15   7  11  1   
 16   8   9  1   
 17   8  31  1   
 18   8  32  1   
 19  10  12  1   
 20  10  33  1   
 21  10  34  1   
 22  11  13  1   
 23  11  35  1   
 24  11  36  1   
 25  12  14  1   
 26  12  37  1   
 27  12  38  1   
 28  13  14  1   
 29  13  39  1   
 30  13  40  1   
 31  14  15  am  
 32  15  16  2   
 33  15  17  1   
 34  17  18  1   
 35  17  19  1   
 36  17  41  1   
 37  18  20  1   
 38  18  42  1   
 39  18  43  1   
 40  19  21  1   
 41  19  44  1   
 42  19  45  1   
 43  20  22  1   
 44  20  23  1   
 45  21  22  1   
 46  21  46  1   
 47  21  47  1   
 48  22  48  1   
 49  22  49  1   
 50  23  24  1   
 51  23  50  1   
 52  23  51  1   
 53  24  25  2   
 54  24  26  am  
 55  26  52  1   
 56  26  53  1   
@<TRIPOS>SUBSTRUCTURE
  1 ****  14 GROUP 4 **** **** 0

# MOE 2024.06 (io_trps.svl 2023.06)
