@<TRIPOS>MOLECULE
NONAME
58 61 1 0 0 
SMALL
USER_CHARGES


@<TRIPOS>ATOM
  1 O       -0.1470     1.1440     2.3250 O.2   1 <1>  -0.5700 
  2 C       -0.1370     2.2890     1.9520 C.2   1 <1>   0.5690 
  3 N       -1.2770     3.0120     1.9140 N.am  1 <1>  -0.7300 
  4 C        1.1680     2.9300     1.4760 C.3   1 <1>   0.1810 
  5 C       -1.3500     4.4170     1.4430 C.3   1 <1>   0.3640 
  6 O        1.1080     4.3390     1.4400 O.3   1 <1>  -0.5600 
  7 C       -2.5190     4.5320     0.4650 C.ar  1 <1>  -0.1440 
  8 C       -0.0250     4.8770     0.7730 C.3   1 <1>   0.2610 
  9 C       -2.7190     3.5900    -0.5370 C.ar  1 <1>  -0.1500 
 10 C       -3.4000     5.6000     0.5660 C.ar  1 <1>  -0.1500 
 11 C        0.0820     6.4130     0.6830 C.2   1 <1>   0.5690 
 12 C       -3.7780     3.7140    -1.4190 C.ar  1 <1>  -0.1500 
 13 C       -4.4590     5.7260    -0.3150 C.ar  1 <1>  -0.1500 
 14 O       -0.7130     7.0850     1.3060 O.2   1 <1>  -0.5700 
 15 N        1.0510     7.0200    -0.0870 N.am  1 <1>  -0.6600 
 16 C       -4.6500     4.7830    -1.3080 C.ar  1 <1>  -0.1500 
 17 C        2.0700     6.2890    -0.8930 C.3   1 <1>   0.2350 
 18 C        1.1280     8.5100    -0.1640 C.3   1 <1>   0.1400 
 19 C        3.4290     6.3050    -0.1910 C.3   1 <1>  -0.1950 
 20 C        1.7310     9.1070     1.1130 C.3   1 <1>  -0.0220 
 21 C        4.4290     7.3970    -0.4160 C.3   1 <1>  -0.2000 
 22 C        4.6800     6.0220    -0.9630 C.3   1 <1>  -0.2000 
 23 C        2.0070    10.5950     0.9410 C.2   1 <1>  -0.2760 
 24 C        3.2440    11.0970     0.8760 C.2   1 <1>  -0.2880 
 25 C        0.7580    11.4680     0.8540 C.3   1 <1>  -0.0220 
 26 C        3.5630    12.5710     0.6850 C.3   1 <1>  -0.0220 
 27 C        1.0890    12.9550     1.0520 C.3   1 <1>  -0.1600 
 28 C        2.3240    13.3600     0.2380 C.3   1 <1>  -0.1600 
 29 H       -2.1500     2.5780     2.2170 H     1 <1>   0.3700 
 30 H        1.4040     2.5740     0.4910 H     1 <1>   0.0800 
 31 H        1.9640     2.6550     2.1450 H     1 <1>   0.0800 
 32 H       -1.5420     5.0350     2.3030 H     1 <1>   0.0800 
 33 H       -0.0200     4.4920    -0.2290 H     1 <1>   0.0800 
 34 H       -2.0540     2.7490    -0.6380 H     1 <1>   0.1500 
 35 H       -3.2630     6.3480     1.3300 H     1 <1>   0.1500 
 36 H       -3.9260     2.9790    -2.1900 H     1 <1>   0.1500 
 37 H       -5.1340     6.5590    -0.2270 H     1 <1>   0.1500 
 38 H       -5.4740     4.8800    -1.9930 H     1 <1>   0.1500 
 39 H        1.7750     5.2680    -1.0480 H     1 <1>   0.0800 
 40 H        2.1530     6.7480    -1.8630 H     1 <1>   0.0800 
 41 H        1.7280     8.8040    -1.0080 H     1 <1>   0.0800 
 42 H        0.1380     8.9070    -0.3090 H     1 <1>   0.0800 
 43 H        3.3720     5.8780     0.7960 H     1 <1>   0.1000 
 44 H        1.0610     8.9570     1.9410 H     1 <1>   0.0800 
 45 H        2.6500     8.6010     1.3420 H     1 <1>   0.0800 
 46 H        4.1910     8.1930    -1.1000 H     1 <1>   0.1000 
 47 H        5.0110     7.7390     0.4230 H     1 <1>   0.1000 
 48 H        5.4460     5.4190    -0.5040 H     1 <1>   0.1000 
 49 H        4.6310     5.8820    -2.0290 H     1 <1>   0.1000 
 50 H        4.1280    10.4890     0.9580 H     1 <1>   0.1500 
 51 H        0.2990    11.3300    -0.1090 H     1 <1>   0.0800 
 52 H        0.0480    11.1700     1.6060 H     1 <1>   0.0800 
 53 H        3.9310    12.9670     1.6150 H     1 <1>   0.0800 
 54 H        4.3370    12.6810    -0.0550 H     1 <1>   0.0800 
 55 H        0.2430    13.5540     0.7630 H     1 <1>   0.0800 
 56 H        1.2830    13.1330     2.0950 H     1 <1>   0.0800 
 57 H        2.5100    14.4140     0.3480 H     1 <1>   0.0800 
 58 H        2.1380    13.1610    -0.8030 H     1 <1>   0.0800 
@<TRIPOS>BOND
  1   1   2  2   
  2   2   3  am  
  3   2   4  1   
  4   3   5  1   
  5   3  29  1   
  6   4   6  1   
  7   4  30  1   
  8   4  31  1   
  9   5   7  1   
 10   5   8  1   
 11   5  32  1   
 12   6   8  1   
 13   7   9  ar  
 14   7  10  ar  
 15   8  11  1   
 16   8  33  1   
 17   9  12  ar  
 18   9  34  1   
 19  10  13  ar  
 20  10  35  1   
 21  11  14  2   
 22  11  15  am  
 23  12  16  ar  
 24  12  36  1   
 25  13  16  ar  
 26  13  37  1   
 27  15  17  1   
 28  15  18  1   
 29  16  38  1   
 30  17  19  1   
 31  17  39  1   
 32  17  40  1   
 33  18  20  1   
 34  18  41  1   
 35  18  42  1   
 36  19  21  1   
 37  19  22  1   
 38  19  43  1   
 39  20  23  1   
 40  20  44  1   
 41  20  45  1   
 42  21  22  1   
 43  21  46  1   
 44  21  47  1   
 45  22  48  1   
 46  22  49  1   
 47  23  24  2   
 48  23  25  1   
 49  24  26  1   
 50  24  50  1   
 51  25  27  1   
 52  25  51  1   
 53  25  52  1   
 54  26  28  1   
 55  26  53  1   
 56  26  54  1   
 57  27  28  1   
 58  27  55  1   
 59  27  56  1   
 60  28  57  1   
 61  28  58  1   
@<TRIPOS>SUBSTRUCTURE
  1 ****  11 GROUP 4 **** **** 0

# MOE 2024.06 (io_trps.svl 2023.06)
