@<TRIPOS>MOLECULE
NONAME
46 48 1 0 0 
SMALL
USER_CHARGES


@<TRIPOS>ATOM
  1 O        0.7060     0.5000    -0.1320 O.2   1 <1>  -0.5700 
  2 C        1.6390    -0.2390    -0.3870 C.2   1 <1>   0.5440 
  3 N        1.3710    -1.5350    -0.7750 N.am  1 <1>  -0.6600 
  4 C        2.9860     0.2650    -0.2650 C.ar  1 <1>   0.0860 
  5 C        0.0010    -1.9670    -1.1910 C.3   1 <1>   0.1400 
  6 C        2.2960    -2.6830    -0.5340 C.3   1 <1>   0.1400 
  7 C        3.3400     1.0760     0.8090 C.ar  1 <1>   0.1600 
  8 C        3.9840    -0.0070    -1.1940 C.ar  1 <1>  -0.1500 
  9 C       -0.5320    -3.0600    -0.2510 C.3   1 <1>   0.1200 
 10 C        1.6260    -3.7440     0.3580 C.3   1 <1>   0.1200 
 11 N        4.5370     1.5850     1.0380 N.ar  1 <1>  -0.6200 
 12 C        5.2340     0.5190    -0.9750 C.ar  1 <1>  -0.1500 
 13 O        0.3820    -4.1180    -0.1610 O.3   1 <1>  -0.5600 
 14 C        5.4870     1.3030     0.1520 C.ar  1 <1>   0.4100 
 15 N        6.7390     1.8360     0.3840 N.pl3 1 <1>  -0.8380 
 16 C        6.9330     3.0660     1.2280 C.3   1 <1>   0.3530 
 17 C        8.0020     1.2390    -0.1320 C.3   1 <1>   0.1290 
 18 C        7.6650     4.1790     0.4680 C.ar  1 <1>   0.1670 
 19 N        8.9600     4.3100     0.7450 N.ar  1 <1>  -0.6200 
 20 C        6.9820     4.9860    -0.4440 C.ar  1 <1>  -0.1430 
 21 C        9.5980     5.2690     0.0990 C.ar  1 <1>   0.1600 
 22 C        7.6740     5.9820    -1.1050 C.ar  1 <1>  -0.1500 
 23 C        5.4990     4.8010    -0.7440 C.3   1 <1>  -0.0970 
 24 C        9.0140     6.1200    -0.8200 C.ar  1 <1>  -0.1500 
 25 H        0.0430    -2.3550    -2.1940 H     1 <1>   0.0800 
 26 H       -0.6800    -1.1340    -1.1920 H     1 <1>   0.0800 
 27 H        3.2000    -2.3510    -0.0550 H     1 <1>   0.0800 
 28 H        2.5590    -3.1310    -1.4760 H     1 <1>   0.0800 
 29 H        2.5690     1.3140     1.5240 H     1 <1>   0.1500 
 30 H        3.7720    -0.6060    -2.0630 H     1 <1>   0.1500 
 31 H       -1.4580    -3.4550    -0.6280 H     1 <1>   0.0800 
 32 H       -0.7000    -2.6600     0.7330 H     1 <1>   0.0800 
 33 H        1.4830    -3.3640     1.3550 H     1 <1>   0.0800 
 34 H        2.2380    -4.6270     0.4100 H     1 <1>   0.0800 
 35 H        6.0220     0.3400    -1.6790 H     1 <1>   0.1500 
 36 H        7.5060     2.8000     2.0980 H     1 <1>   0.0800 
 37 H        5.9940     3.4490     1.5780 H     1 <1>   0.0800 
 38 H        7.8690     0.1920    -0.3390 H     1 <1>   0.0800 
 39 H        8.7830     1.3420     0.6020 H     1 <1>   0.0800 
 40 H        8.3030     1.7500    -1.0300 H     1 <1>   0.0800 
 41 H       10.6470     5.3850     0.3150 H     1 <1>   0.1500 
 42 H        7.1940     6.6290    -1.8170 H     1 <1>   0.1500 
 43 H        4.9170     4.9010     0.1540 H     1 <1>   0.0800 
 44 H        5.3280     3.8250    -1.1610 H     1 <1>   0.0800 
 45 H        5.1520     5.5320    -1.4520 H     1 <1>   0.0800 
 46 H        9.6010     6.8780    -1.3050 H     1 <1>   0.1500 
@<TRIPOS>BOND
  1   1   2  2   
  2   2   3  am  
  3   2   4  1   
  4   3   5  1   
  5   3   6  1   
  6   4   7  ar  
  7   4   8  ar  
  8   5   9  1   
  9   5  25  1   
 10   5  26  1   
 11   6  10  1   
 12   6  27  1   
 13   6  28  1   
 14   7  11  ar  
 15   7  29  1   
 16   8  12  ar  
 17   8  30  1   
 18   9  13  1   
 19   9  31  1   
 20   9  32  1   
 21  10  13  1   
 22  10  33  1   
 23  10  34  1   
 24  11  14  ar  
 25  12  14  ar  
 26  12  35  1   
 27  14  15  1   
 28  15  16  1   
 29  15  17  1   
 30  16  18  1   
 31  16  36  1   
 32  16  37  1   
 33  17  38  1   
 34  17  39  1   
 35  17  40  1   
 36  18  19  ar  
 37  18  20  ar  
 38  19  21  ar  
 39  20  22  ar  
 40  20  23  1   
 41  21  24  ar  
 42  21  41  1   
 43  22  24  ar  
 44  22  42  1   
 45  23  43  1   
 46  23  44  1   
 47  23  45  1   
 48  24  46  1   
@<TRIPOS>SUBSTRUCTURE
  1 ****  14 GROUP 4 **** **** 0

# MOE 2024.06 (io_trps.svl 2023.06)
