@<TRIPOS>MOLECULE
NONAME
59 61 1 0 0 
SMALL
USER_CHARGES


@<TRIPOS>ATOM
  1 O       -1.7020     0.0110    -2.9840 O.co2 1 <1>  -0.9000 
  2 C       -2.6120    -0.4460    -2.2690 C.2   1 <1>   0.9790 
  3 O       -2.8550    -1.6640    -2.2940 O.co2 1 <1>  -0.9000 
  4 C       -3.3560     0.4470    -1.3950 C.ar  1 <1>  -0.1790 
  5 C       -3.1990     1.8270    -1.4950 C.ar  1 <1>  -0.1500 
  6 C       -4.2320    -0.0250    -0.4160 C.ar  1 <1>  -0.1500 
  7 C       -3.8440     2.6950    -0.6370 C.ar  1 <1>  -0.1440 
  8 C       -4.8940     0.8330     0.4420 C.ar  1 <1>  -0.1500 
  9 C       -4.6930     2.2080     0.3470 C.ar  1 <1>   0.0830 
 10 C       -3.5820     4.1740    -0.7500 C.3   1 <1>   0.4870 
 11 O       -5.2680     3.1110     1.1830 O.3   1 <1>  -0.3630 
 12 N       -2.7400     4.5510     0.4170 N.4   1 <1>  -0.9590 
 13 C       -6.2680     2.7110     2.0980 C.3   1 <1>   0.0400 
 14 C       -2.6420     6.0210     0.6700 C.3   1 <1>   0.5660 
 15 C       -1.4310     3.8150     0.3570 C.3   1 <1>   0.3430 
 16 C       -3.9480     6.7380     0.3090 C.ar  1 <1>  -0.1430 
 17 C       -1.3830     6.5890     0.0020 C.3   1 <1>  -0.1600 
 18 C       -0.3470     4.5500     1.1460 C.3   1 <1>  -0.1600 
 19 C       -4.1370     7.4140    -0.8910 C.ar  1 <1>  -0.1500 
 20 C       -4.9960     6.6970     1.2190 C.ar  1 <1>  -0.1500 
 21 C       -0.1040     5.9680     0.5960 C.3   1 <1>  -0.1600 
 22 C       -5.3430     8.0330    -1.1700 C.ar  1 <1>  -0.1500 
 23 C       -6.2020     7.3150     0.9410 C.ar  1 <1>  -0.1500 
 24 C       -6.3840     7.9930    -0.2550 C.ar  1 <1>  -0.1430 
 25 C       -7.7060     8.6800    -0.5590 C.3   1 <1>   0.4860 
 26 N       -7.7960     9.9420     0.2320 N.4   1 <1>  -0.9590 
 27 C       -9.1680    10.5300     0.1650 C.3   1 <1>   0.2630 
 28 C       -6.7640    10.9400    -0.1930 C.3   1 <1>   0.2630 
 29 H       -2.5390     2.1960    -2.2650 H     1 <1>   0.1500 
 30 H       -4.3790    -1.0910    -0.3400 H     1 <1>   0.1500 
 31 H       -5.5490     0.4050     1.1760 H     1 <1>   0.1500 
 32 H       -4.5270     4.6910    -0.7280 H     1 <1>   0.0800 
 33 H       -3.0770     4.4000    -1.6740 H     1 <1>   0.0800 
 34 H       -3.2760     4.1500     1.1980 H     1 <1>   0.4500 
 35 H       -6.6370     3.5850     2.6040 H     1 <1>   0.0800 
 36 H       -5.8390     2.0300     2.8130 H     1 <1>   0.0800 
 37 H       -7.0690     2.2380     1.5560 H     1 <1>   0.0800 
 38 H       -2.5010     6.1580     1.7300 H     1 <1>   0.0800 
 39 H       -1.1100     3.7350    -0.6690 H     1 <1>   0.0800 
 40 H       -1.5560     2.8120     0.7370 H     1 <1>   0.0800 
 41 H       -1.3510     7.6560     0.1370 H     1 <1>   0.0800 
 42 H       -1.4190     6.3920    -1.0540 H     1 <1>   0.0800 
 43 H        0.5690     3.9870     1.0970 H     1 <1>   0.0800 
 44 H       -0.6360     4.5940     2.1820 H     1 <1>   0.0800 
 45 H       -3.3560     7.4710    -1.6310 H     1 <1>   0.1500 
 46 H       -4.8840     6.1760     2.1560 H     1 <1>   0.1500 
 47 H        0.2730     6.5890     1.3920 H     1 <1>   0.0800 
 48 H        0.6540     5.9360    -0.1700 H     1 <1>   0.0800 
 49 H       -5.4590     8.5450    -2.1120 H     1 <1>   0.1500 
 50 H       -6.9960     7.2540     1.6670 H     1 <1>   0.1500 
 51 H       -8.5150     8.0190    -0.2940 H     1 <1>   0.0800 
 52 H       -7.7760     8.8960    -1.6130 H     1 <1>   0.0800 
 53 H       -7.5910     9.6840     1.2090 H     1 <1>   0.4500 
 54 H       -9.4120    10.8040    -0.8490 H     1 <1>   0.0800 
 55 H       -9.2270    11.4130     0.7820 H     1 <1>   0.0800 
 56 H       -9.9000     9.8210     0.5170 H     1 <1>   0.0800 
 57 H       -6.9120    11.2200    -1.2240 H     1 <1>   0.0800 
 58 H       -5.7740    10.5230    -0.0880 H     1 <1>   0.0800 
 59 H       -6.8260    11.8260     0.4170 H     1 <1>   0.0800 
@<TRIPOS>BOND
  1   1   2  ar  
  2   2   3  ar  
  3   2   4  1   
  4   4   5  ar  
  5   4   6  ar  
  6   5   7  ar  
  7   5  29  1   
  8   6   8  ar  
  9   6  30  1   
 10   7   9  ar  
 11   7  10  1   
 12   8   9  ar  
 13   8  31  1   
 14   9  11  1   
 15  10  12  1   
 16  10  32  1   
 17  10  33  1   
 18  11  13  1   
 19  12  14  1   
 20  12  15  1   
 21  12  34  1   
 22  13  35  1   
 23  13  36  1   
 24  13  37  1   
 25  14  16  1   
 26  14  17  1   
 27  14  38  1   
 28  15  18  1   
 29  15  39  1   
 30  15  40  1   
 31  16  19  ar  
 32  16  20  ar  
 33  17  21  1   
 34  17  41  1   
 35  17  42  1   
 36  18  21  1   
 37  18  43  1   
 38  18  44  1   
 39  19  22  ar  
 40  19  45  1   
 41  20  23  ar  
 42  20  46  1   
 43  21  47  1   
 44  21  48  1   
 45  22  24  ar  
 46  22  49  1   
 47  23  24  ar  
 48  23  50  1   
 49  24  25  1   
 50  25  26  1   
 51  25  51  1   
 52  25  52  1   
 53  26  27  1   
 54  26  28  1   
 55  26  53  1   
 56  27  54  1   
 57  27  55  1   
 58  27  56  1   
 59  28  57  1   
 60  28  58  1   
 61  28  59  1   
@<TRIPOS>SUBSTRUCTURE
  1 ****  10 GROUP 4 **** **** 0

# MOE 2024.06 (io_trps.svl 2023.06)
