@<TRIPOS>MOLECULE
NONAME
45 46 1 0 0 
SMALL
USER_CHARGES


@<TRIPOS>ATOM
  1 O       -0.2770    -0.1700     0.4740 O.2   1 <1>  -0.5700 
  2 C       -1.2240     0.3740    -0.0430 C.2   1 <1>   0.5690 
  3 N       -2.2620    -0.3460    -0.5790 N.am  1 <1>  -0.6600 
  4 C       -1.2370     1.8960    -0.1030 C.3   1 <1>  -0.0990 
  5 C       -2.2440    -1.8360    -0.5200 C.3   1 <1>   0.3200 
  6 C       -3.4190     0.2560    -1.3080 C.3   1 <1>   0.1400 
  7 C       -0.1060     2.5650     0.6920 C.3   1 <1>  -0.0170 
  8 C       -3.2730    -2.3220     0.4820 C.2   1 <1>  -0.3320 
  9 C       -4.5630     0.6330    -0.3570 C.3   1 <1>   0.1200 
 10 C       -0.2350     4.0770     0.6030 C.ar  1 <1>  -0.1440 
 11 N       -4.5010    -2.8070     0.1990 N.pl3 1 <1>   0.0480 
 12 C       -3.1460    -2.3610     1.8260 C.2   1 <1>   0.0770 
 13 O       -5.6710     0.9920    -1.1120 O.3   1 <1>  -0.6800 
 14 C       -0.9600     4.7760     1.5560 C.ar  1 <1>  -0.1500 
 15 C        0.3630     4.7710    -0.4360 C.ar  1 <1>  -0.1500 
 16 C       -5.0350    -3.1020     1.4060 C.2   1 <1>   0.0360 
 17 C       -5.1610    -2.9670    -1.1100 C.3   1 <1>   0.0160 
 18 N       -4.2560    -2.8500     2.4060 N.2   1 <1>  -0.5650 
 19 C       -1.0850     6.1510     1.4690 C.ar  1 <1>  -0.1500 
 20 C        0.2360     6.1470    -0.5220 C.ar  1 <1>  -0.1500 
 21 C       -0.4870     6.8450     0.4300 C.ar  1 <1>  -0.1430 
 22 C       -0.6270     8.3540     0.3370 C.3   1 <1>  -0.0970 
 23 H       -2.1710     2.2500     0.2870 H     1 <1>   0.0800 
 24 H       -1.1590     2.1980    -1.1300 H     1 <1>   0.0800 
 25 H       -1.2740    -2.1880    -0.2130 H     1 <1>   0.0800 
 26 H       -2.4340    -2.2440    -1.4960 H     1 <1>   0.0800 
 27 H       -3.7840    -0.4530    -2.0310 H     1 <1>   0.0800 
 28 H       -3.0960     1.1300    -1.8440 H     1 <1>   0.0800 
 29 H        0.8480     2.2560     0.3010 H     1 <1>   0.0800 
 30 H       -0.1520     2.2540     1.7220 H     1 <1>   0.0800 
 31 H       -4.2990     1.4600     0.2770 H     1 <1>   0.0800 
 32 H       -4.8480    -0.2010     0.2580 H     1 <1>   0.0800 
 33 H       -2.2960    -2.0500     2.4130 H     1 <1>   0.1500 
 34 H       -5.5880     1.9070    -1.4450 H     1 <1>   0.4000 
 35 H       -1.4290     4.2520     2.3700 H     1 <1>   0.1500 
 36 H        0.9300     4.2440    -1.1820 H     1 <1>   0.1500 
 37 H       -6.0260    -3.5080     1.5060 H     1 <1>   0.1500 
 38 H       -4.4630    -3.3690    -1.8200 H     1 <1>   0.0800 
 39 H       -5.5170    -2.0110    -1.4480 H     1 <1>   0.0800 
 40 H       -5.9930    -3.6400    -1.0110 H     1 <1>   0.0800 
 41 H       -1.6510     6.6800     2.2160 H     1 <1>   0.1500 
 42 H        0.7060     6.6710    -1.3360 H     1 <1>   0.1500 
 43 H       -0.6610     8.7880     1.3200 H     1 <1>   0.0800 
 44 H       -1.5320     8.6030    -0.1860 H     1 <1>   0.0800 
 45 H        0.2080     8.7790    -0.1910 H     1 <1>   0.0800 
@<TRIPOS>BOND
  1   1   2  2   
  2   2   3  am  
  3   2   4  1   
  4   3   5  1   
  5   3   6  1   
  6   4   7  1   
  7   4  23  1   
  8   4  24  1   
  9   5   8  1   
 10   5  25  1   
 11   5  26  1   
 12   6   9  1   
 13   6  27  1   
 14   6  28  1   
 15   7  10  1   
 16   7  29  1   
 17   7  30  1   
 18   8  11  1   
 19   8  12  2   
 20   9  13  1   
 21   9  31  1   
 22   9  32  1   
 23  10  14  ar  
 24  10  15  ar  
 25  11  16  1   
 26  11  17  1   
 27  12  18  1   
 28  12  33  1   
 29  13  34  1   
 30  14  19  ar  
 31  14  35  1   
 32  15  20  ar  
 33  15  36  1   
 34  16  18  2   
 35  16  37  1   
 36  17  38  1   
 37  17  39  1   
 38  17  40  1   
 39  19  21  ar  
 40  19  41  1   
 41  20  21  ar  
 42  20  42  1   
 43  21  22  1   
 44  22  43  1   
 45  22  44  1   
 46  22  45  1   
@<TRIPOS>SUBSTRUCTURE
  1 ****   4 GROUP 4 **** **** 0

# MOE 2024.06 (io_trps.svl 2023.06)
