@<TRIPOS>MOLECULE
NONAME
46 49 1 0 0 
SMALL
USER_CHARGES


@<TRIPOS>ATOM
  1 O       -0.0880     0.1320    -0.9040 O.2   1 <1>  -0.5700 
  2 C        0.9960    -0.4050    -0.7520 C.2   1 <1>   0.5440 
  3 N        2.0960     0.3550    -0.4250 N.am  1 <1>  -0.4940 
  4 C        1.1400    -1.8440    -0.8690 C.ar  1 <1>   0.0860 
  5 C        2.2420     1.7630    -0.3700 C.2   1 <1>  -0.0880 
  6 C        0.0650    -2.7060    -0.5780 C.ar  1 <1>  -0.1520 
  7 C        2.3290    -2.4570    -1.2510 C.ar  1 <1>  -0.1500 
  8 N        3.3170     2.4160     0.1510 N.pl3 1 <1>   0.3140 
  9 C        1.3980     2.7270    -0.8070 C.2   1 <1>  -0.1500 
 10 N       -1.2200    -2.3950    -0.2160 N.pl3 1 <1>   0.0330 
 11 C        0.1860    -4.0920    -0.6260 C.ar  1 <1>   0.0000 
 12 C        2.4610    -3.8470    -1.3120 C.ar  1 <1>  -0.1500 
 13 N        3.1830     3.7580     0.0530 N.2   1 <1>  -0.7070 
 14 C        4.5050     1.8150     0.7910 C.3   1 <1>   0.0960 
 15 C        2.0310     3.9290    -0.5200 C.2   1 <1>   0.1390 
 16 C       -1.9010    -3.5640    -0.0280 C.2   1 <1>  -0.3320 
 17 C       -1.0770    -4.6070    -0.2590 C.2   1 <1>  -0.1810 
 18 C        1.4020    -4.6660    -0.9970 C.ar  1 <1>  -0.1500 
 19 C        5.5000     1.3040    -0.2610 C.3   1 <1>  -0.1600 
 20 C       -3.3560    -3.6740     0.3810 C.3   1 <1>   0.0200 
 21 C       -1.4950    -6.0590    -0.1410 C.3   1 <1>   0.0210 
 22 C        6.7000     0.6130     0.3960 C.3   1 <1>  -0.2400 
 23 C       -3.8530    -5.1150     0.1550 C.3   1 <1>  -0.1600 
 24 C       -2.8270    -6.1660     0.6270 C.3   1 <1>  -0.1600 
 25 H        2.9110    -0.1930    -0.1560 H     1 <1>   0.3700 
 26 H        3.1810    -1.8600    -1.5210 H     1 <1>   0.1500 
 27 H        0.4400     2.6090    -1.2780 H     1 <1>   0.1500 
 28 H       -1.5790    -1.4320    -0.1590 H     1 <1>   0.2700 
 29 H        3.4020    -4.2770    -1.6110 H     1 <1>   0.1500 
 30 H        4.1790     1.0140     1.4280 H     1 <1>   0.0800 
 31 H        4.9710     2.5670     1.4030 H     1 <1>   0.0800 
 32 H        1.6200     4.8990    -0.7440 H     1 <1>   0.1500 
 33 H        1.4860    -5.7370    -1.0370 H     1 <1>   0.1500 
 34 H        5.8500     2.1400    -0.8450 H     1 <1>   0.0800 
 35 H        5.0130     0.6100    -0.9230 H     1 <1>   0.0800 
 36 H       -3.9570    -2.9910    -0.1930 H     1 <1>   0.0800 
 37 H       -3.4460    -3.4170     1.4220 H     1 <1>   0.0800 
 38 H       -0.7330    -6.6190     0.3710 H     1 <1>   0.0800 
 39 H       -1.6100    -6.4640    -1.1310 H     1 <1>   0.0800 
 40 H        7.2190     1.2980     1.0450 H     1 <1>   0.0800 
 41 H        7.3890     0.2760    -0.3590 H     1 <1>   0.0800 
 42 H        6.3820    -0.2380     0.9730 H     1 <1>   0.0800 
 43 H       -4.0310    -5.2570    -0.8970 H     1 <1>   0.0800 
 44 H       -4.7860    -5.2560     0.6710 H     1 <1>   0.0800 
 45 H       -2.6340    -6.0150     1.6750 H     1 <1>   0.0800 
 46 H       -3.2310    -7.1550     0.5040 H     1 <1>   0.0800 
@<TRIPOS>BOND
  1   1   2  2   
  2   2   3  am  
  3   2   4  1   
  4   3   5  1   
  5   3  25  1   
  6   4   6  ar  
  7   4   7  ar  
  8   5   8  1   
  9   5   9  2   
 10   6  10  1   
 11   6  11  ar  
 12   7  12  ar  
 13   7  26  1   
 14   8  13  1   
 15   8  14  1   
 16   9  15  1   
 17   9  27  1   
 18  10  16  1   
 19  10  28  1   
 20  11  17  1   
 21  11  18  ar  
 22  12  18  ar  
 23  12  29  1   
 24  13  15  2   
 25  14  19  1   
 26  14  30  1   
 27  14  31  1   
 28  15  32  1   
 29  16  17  2   
 30  16  20  1   
 31  17  21  1   
 32  18  33  1   
 33  19  22  1   
 34  19  34  1   
 35  19  35  1   
 36  20  23  1   
 37  20  36  1   
 38  20  37  1   
 39  21  24  1   
 40  21  38  1   
 41  21  39  1   
 42  22  40  1   
 43  22  41  1   
 44  22  42  1   
 45  23  24  1   
 46  23  43  1   
 47  23  44  1   
 48  24  45  1   
 49  24  46  1   
@<TRIPOS>SUBSTRUCTURE
  1 ****   4 GROUP 4 **** **** 0

# MOE 2024.06 (io_trps.svl 2023.06)
