@<TRIPOS>MOLECULE
NONAME
52 53 1 0 0 
SMALL
USER_CHARGES


@<TRIPOS>ATOM
  1 O       -2.1300    -0.9420     2.4520 O.2   1 <1>  -0.5700 
  2 C       -1.9650    -0.2220     1.5000 C.2   1 <1>   0.5690 
  3 N       -2.0720    -0.6380     0.2040 N.am  1 <1>  -0.5470 
  4 C       -1.6370     1.2300     1.7400 C.3   1 <1>  -0.1790 
  5 C       -2.3350    -1.9180    -0.3030 C.ar  1 <1>   0.1170 
  6 C       -3.0070    -2.0470    -1.5120 C.ar  1 <1>  -0.1500 
  7 C       -1.9360    -3.0760     0.3560 C.ar  1 <1>  -0.1500 
  8 C       -3.2910    -3.2950    -2.0390 C.ar  1 <1>  -0.1500 
  9 C       -2.2140    -4.3250    -0.1670 C.ar  1 <1>  -0.1500 
 10 C       -2.9030    -4.4440    -1.3660 C.ar  1 <1>  -0.1440 
 11 C       -3.2430    -5.8130    -1.9250 C.3   1 <1>   0.4860 
 12 N       -4.1820    -6.4930    -0.9980 N.4   1 <1>  -0.9590 
 13 C       -4.5080    -7.8910    -1.3890 C.3   1 <1>   0.3430 
 14 C       -5.4090    -5.7020    -0.6870 C.3   1 <1>   0.3430 
 15 C       -5.0330    -8.6800    -0.1640 C.3   1 <1>   0.0000 
 16 C       -6.3860    -6.5270     0.1680 C.3   1 <1>  -0.1600 
 17 C       -5.7000    -7.7110     0.8690 C.3   1 <1>   0.2000 
 18 C       -6.1420    -9.6360    -0.6690 C.3   1 <1>   0.1200 
 19 C       -3.9040    -9.5640     0.4600 C.3   1 <1>  -0.1600 
 20 O       -4.7530    -7.1530     1.7170 O.3   1 <1>  -0.6800 
 21 O       -5.7320   -10.2660    -1.8380 O.3   1 <1>  -0.6800 
 22 C       -2.4940    -8.9440     0.5800 C.3   1 <1>  -0.1600 
 23 C       -1.5290    -9.9330     1.2390 C.3   1 <1>  -0.2400 
 24 H       -1.9910     0.0980    -0.4940 H     1 <1>   0.3700 
 25 H       -0.7150     1.4830     1.2510 H     1 <1>   0.0800 
 26 H       -1.5290     1.4070     2.7950 H     1 <1>   0.0800 
 27 H       -2.4300     1.8500     1.3650 H     1 <1>   0.0800 
 28 H       -3.3160    -1.1640    -2.0410 H     1 <1>   0.1500 
 29 H       -1.4020    -2.9990     1.2870 H     1 <1>   0.1500 
 30 H       -3.8170    -3.3550    -2.9770 H     1 <1>   0.1500 
 31 H       -1.8860    -5.1950     0.3770 H     1 <1>   0.1500 
 32 H       -2.3400    -6.3930    -2.0260 H     1 <1>   0.0800 
 33 H       -3.6940    -5.7100    -2.8980 H     1 <1>   0.0800 
 34 H       -3.7130    -6.5790    -0.0780 H     1 <1>   0.4500 
 35 H       -5.2610    -7.8780    -2.1590 H     1 <1>   0.0800 
 36 H       -3.6430    -8.3940    -1.7880 H     1 <1>   0.0800 
 37 H       -5.1230    -4.8170    -0.1380 H     1 <1>   0.0800 
 38 H       -5.8960    -5.3880    -1.5960 H     1 <1>   0.0800 
 39 H       -7.1720    -6.8900    -0.4680 H     1 <1>   0.0800 
 40 H       -6.8550    -5.8860     0.8940 H     1 <1>   0.0800 
 41 H       -6.3980    -8.2530     1.4880 H     1 <1>   0.0800 
 42 H       -7.0520    -9.1090    -0.8950 H     1 <1>   0.0800 
 43 H       -6.3550   -10.3940     0.0680 H     1 <1>   0.0800 
 44 H       -4.2240    -9.8890     1.4360 H     1 <1>   0.0800 
 45 H       -3.7920   -10.4560    -0.1330 H     1 <1>   0.0800 
 46 H       -5.1640    -6.8610     2.5590 H     1 <1>   0.4000 
 47 H       -6.3380   -11.0020    -2.0740 H     1 <1>   0.4000 
 48 H       -2.1040    -8.6980    -0.3910 H     1 <1>   0.0800 
 49 H       -2.5100    -8.0510     1.1760 H     1 <1>   0.0800 
 50 H       -1.4530   -10.8360     0.6580 H     1 <1>   0.0800 
 51 H       -1.8660   -10.1870     2.2290 H     1 <1>   0.0800 
 52 H       -0.5490    -9.4970     1.3170 H     1 <1>   0.0800 
@<TRIPOS>BOND
  1   1   2  2   
  2   2   3  am  
  3   2   4  1   
  4   3   5  1   
  5   3  24  1   
  6   4  25  1   
  7   4  26  1   
  8   4  27  1   
  9   5   6  ar  
 10   5   7  ar  
 11   6   8  ar  
 12   6  28  1   
 13   7   9  ar  
 14   7  29  1   
 15   8  10  ar  
 16   8  30  1   
 17   9  10  ar  
 18   9  31  1   
 19  10  11  1   
 20  11  12  1   
 21  11  32  1   
 22  11  33  1   
 23  12  13  1   
 24  12  14  1   
 25  12  34  1   
 26  13  15  1   
 27  13  35  1   
 28  13  36  1   
 29  14  16  1   
 30  14  37  1   
 31  14  38  1   
 32  15  17  1   
 33  15  18  1   
 34  15  19  1   
 35  16  17  1   
 36  16  39  1   
 37  16  40  1   
 38  17  20  1   
 39  17  41  1   
 40  18  21  1   
 41  18  42  1   
 42  18  43  1   
 43  19  22  1   
 44  19  44  1   
 45  19  45  1   
 46  20  46  1   
 47  21  47  1   
 48  22  23  1   
 49  22  48  1   
 50  22  49  1   
 51  23  50  1   
 52  23  51  1   
 53  23  52  1   
@<TRIPOS>SUBSTRUCTURE
  1 ****  12 GROUP 4 **** **** 0

# MOE 2024.06 (io_trps.svl 2023.06)
