@<TRIPOS>MOLECULE
NONAME
52 55 1 0 0 
SMALL
USER_CHARGES


@<TRIPOS>ATOM
  1 O        1.5320     1.1800     2.5250 O.co2 1 <1>  -0.9020 
  2 C        1.9800     0.0270     2.6050 C.2   1 <1>   0.9770 
  3 O        1.3360    -0.8550     3.1900 O.co2 1 <1>  -0.9020 
  4 C        3.2590    -0.2780     2.0110 C.ar  1 <1>  -0.1860 
  5 C        3.7850    -1.5790     2.0980 C.ar  1 <1>   0.1530 
  6 C        3.9940     0.6920     1.3450 C.ar  1 <1>  -0.1160 
  7 N        4.9410    -1.9810     1.5970 N.ar  1 <1>  -0.5830 
  8 C        5.1980     0.2880     0.8170 C.ar  1 <1>   0.3030 
  9 C        5.6090    -1.0220     0.9720 C.ar  1 <1>   0.6150 
 10 N        6.1880     0.9280     0.1050 N.pl3 1 <1>  -0.7040 
 11 N        6.8350    -1.1560     0.3560 N.pl3 1 <1>  -0.7670 
 12 C        7.1570     0.0520    -0.1430 C.cat 1 <1>   1.0690 
 13 C        7.4150    -2.4970     0.1120 C.3   1 <1>   0.3480 
 14 N        8.2770     0.4000    -0.8090 N.pl3 1 <1>  -0.5960 
 15 C        7.2720    -2.8550    -1.3650 C.3   1 <1>  -0.2470 
 16 C        8.2980     1.4920    -1.8240 C.3   1 <1>   0.1610 
 17 C        9.6320    -0.1460    -0.5110 C.3   1 <1>   0.1610 
 18 C        9.1640     2.6450    -1.3210 C.3   1 <1>  -0.1670 
 19 C       10.5500     0.9810    -0.0270 C.3   1 <1>  -0.1670 
 20 C       10.5940     2.1720    -1.0000 C.3   1 <1>   0.0930 
 21 C       11.4550     3.2930    -0.4270 C.2   1 <1>   0.2920 
 22 O       12.7550     3.1380    -0.4410 O.3   1 <1>  -0.0270 
 23 N       11.0390     4.3830     0.0810 N.2   1 <1>  -0.5700 
 24 N       13.2060     4.2250     0.1010 N.2   1 <1>  -0.4150 
 25 C       12.1980     4.9470     0.4030 C.2   1 <1>   0.3290 
 26 C       12.2410     6.3280     1.0600 C.3   1 <1>   0.0940 
 27 C       12.1780     7.4350    -0.0030 C.3   1 <1>  -0.2470 
 28 C       13.4810     6.5220     1.9470 C.3   1 <1>  -0.2470 
 29 H        3.1900    -2.3140     2.6220 H     1 <1>   0.1430 
 30 H        3.6290     1.7020     1.2530 H     1 <1>   0.1430 
 31 H        6.2110     1.9210    -0.1130 H     1 <1>   0.4450 
 32 H        6.8990    -3.2390     0.7000 H     1 <1>   0.0720 
 33 H        8.4460    -2.5310     0.4090 H     1 <1>   0.0720 
 34 H        6.2340    -2.8460    -1.6500 H     1 <1>   0.0720 
 35 H        7.6540    -3.8470    -1.5290 H     1 <1>   0.0720 
 36 H        7.8240    -2.1760    -1.9870 H     1 <1>   0.0720 
 37 H        7.3030     1.8450    -2.0380 H     1 <1>   0.0720 
 38 H        8.7090     1.1080    -2.7440 H     1 <1>   0.0720 
 39 H       10.0400    -0.6020    -1.3980 H     1 <1>   0.0720 
 40 H        9.5890    -0.8830     0.2670 H     1 <1>   0.0720 
 41 H        8.7130     3.0760    -0.4440 H     1 <1>   0.0720 
 42 H        9.2080     3.4140    -2.0730 H     1 <1>   0.0720 
 43 H       11.5460     0.5920     0.1030 H     1 <1>   0.0720 
 44 H       10.2140     1.3220     0.9370 H     1 <1>   0.0720 
 45 H       11.0550     1.8490    -1.9180 H     1 <1>   0.0720 
 46 H       11.3710     6.4140     1.6870 H     1 <1>   0.0720 
 47 H       13.0320     7.3720    -0.6540 H     1 <1>   0.0720 
 48 H       12.1640     8.4040     0.4630 H     1 <1>   0.0720 
 49 H       11.2870     7.3250    -0.5940 H     1 <1>   0.0720 
 50 H       14.3780     6.4690     1.3550 H     1 <1>   0.0720 
 51 H       13.5200     5.7510     2.6960 H     1 <1>   0.0720 
 52 H       13.4450     7.4770     2.4380 H     1 <1>   0.0720 
@<TRIPOS>BOND
  1   1   2  ar  
  2   2   3  ar  
  3   2   4  1   
  4   4   5  ar  
  5   4   6  ar  
  6   5   7  ar  
  7   5  29  1   
  8   6   8  ar  
  9   6  30  1   
 10   7   9  ar  
 11   8   9  ar  
 12   8  10  1   
 13   9  11  1   
 14  10  12  ar  
 15  10  31  1   
 16  11  12  ar  
 17  11  13  1   
 18  12  14  ar  
 19  13  15  1   
 20  13  32  1   
 21  13  33  1   
 22  14  16  1   
 23  14  17  1   
 24  15  34  1   
 25  15  35  1   
 26  15  36  1   
 27  16  18  1   
 28  16  37  1   
 29  16  38  1   
 30  17  19  1   
 31  17  39  1   
 32  17  40  1   
 33  18  20  1   
 34  18  41  1   
 35  18  42  1   
 36  19  20  1   
 37  19  43  1   
 38  19  44  1   
 39  20  21  1   
 40  20  45  1   
 41  21  22  1   
 42  21  23  2   
 43  22  24  1   
 44  23  25  1   
 45  24  25  2   
 46  25  26  1   
 47  26  27  1   
 48  26  28  1   
 49  26  46  1   
 50  27  47  1   
 51  27  48  1   
 52  27  49  1   
 53  28  50  1   
 54  28  51  1   
 55  28  52  1   
@<TRIPOS>SUBSTRUCTURE
  1 ****  12 GROUP 4 **** **** 0

# MOE 2024.06 (io_trps.svl 2023.06)
