@<TRIPOS>MOLECULE
NONAME
51 53 1 0 0 
SMALL
USER_CHARGES


@<TRIPOS>ATOM
  1 F       -0.5500     3.6100     2.9700 F     1 <1>  -0.1900 
  2 C       -0.7240     3.8940     1.7080 C.ar  1 <1>   0.1900 
  3 C       -1.7180     3.2430     1.0060 C.ar  1 <1>  -0.1500 
  4 C        0.0940     4.8360     1.1200 C.ar  1 <1>  -0.1500 
  5 C       -1.9160     3.5430    -0.3360 C.ar  1 <1>  -0.1440 
  6 C       -0.0960     5.1270    -0.2180 C.ar  1 <1>  -0.1500 
  7 C       -1.0900     4.4870    -0.9510 C.ar  1 <1>  -0.1430 
  8 C       -3.0370     2.8150    -1.0900 C.3   1 <1>   0.0440 
  9 C       -1.2320     4.8460    -2.4250 C.3   1 <1>  -0.0960 
 10 C       -4.3070     2.6020    -0.2750 C.2   1 <1>   0.5690 
 11 O       -4.6000     1.4590    -0.0090 O.2   1 <1>  -0.5700 
 12 N       -5.0900     3.6590     0.1250 N.am  1 <1>  -0.6600 
 13 C       -4.7840     5.0970    -0.0940 C.3   1 <1>   0.1400 
 14 C       -6.3370     3.4540     0.9080 C.3   1 <1>   0.1400 
 15 C       -5.9390     5.7490    -0.8560 C.3   1 <1>  -0.1600 
 16 C       -7.5120     4.0860     0.1590 C.3   1 <1>  -0.1600 
 17 C       -7.3020     5.5850    -0.1410 C.3   1 <1>   0.2800 
 18 O       -7.1940     6.2180     1.1160 O.3   1 <1>  -0.5600 
 19 C       -8.5120     6.1480    -0.9770 C.3   1 <1>   0.2000 
 20 C       -7.5670     7.5550     1.2090 C.3   1 <1>   0.1200 
 21 O       -8.0930     7.1510    -1.8710 O.3   1 <1>  -0.6800 
 22 C       -9.6430     6.7120    -0.0710 C.3   1 <1>   0.2800 
 23 C       -9.0750     7.7130     0.9560 C.3   1 <1>  -0.1600 
 24 O      -10.2160     5.6700     0.6310 O.3   1 <1>  -0.6800 
 25 C      -10.8050     7.3250    -0.8630 C.3   1 <1>  -0.2400 
 26 H       -2.3240     2.5150     1.5170 H     1 <1>   0.1500 
 27 H        0.8580     5.3240     1.6980 H     1 <1>   0.1500 
 28 H        0.5400     5.8580    -0.6870 H     1 <1>   0.1500 
 29 H       -2.6660     1.8540    -1.3960 H     1 <1>   0.0800 
 30 H       -3.3210     3.3400    -1.9800 H     1 <1>   0.0800 
 31 H       -0.4320     5.4890    -2.7450 H     1 <1>   0.0800 
 32 H       -2.1620     5.3590    -2.5930 H     1 <1>   0.0800 
 33 H       -1.2030     3.9570    -3.0280 H     1 <1>   0.0800 
 34 H       -4.6600     5.5760     0.8630 H     1 <1>   0.0800 
 35 H       -3.8740     5.2280    -0.6470 H     1 <1>   0.0800 
 36 H       -6.5280     2.4050     1.0580 H     1 <1>   0.0800 
 37 H       -6.2280     3.9150     1.8750 H     1 <1>   0.0800 
 38 H       -5.9980     5.3030    -1.8330 H     1 <1>   0.0800 
 39 H       -5.7120     6.7890    -0.9930 H     1 <1>   0.0800 
 40 H       -8.3990     3.9470     0.7450 H     1 <1>   0.0800 
 41 H       -7.6510     3.5490    -0.7620 H     1 <1>   0.0800 
 42 H       -8.9150     5.3650    -1.5940 H     1 <1>   0.0800 
 43 H       -7.3170     7.8960     2.1990 H     1 <1>   0.0800 
 44 H       -6.9870     8.1180     0.5000 H     1 <1>   0.0800 
 45 H       -7.7240     7.9020    -1.3720 H     1 <1>   0.4000 
 46 H       -9.2260     8.7170     0.6020 H     1 <1>   0.0800 
 47 H       -9.6020     7.6340     1.8900 H     1 <1>   0.0800 
 48 H      -10.9060     6.0140     1.2260 H     1 <1>   0.4000 
 49 H      -10.4670     8.1680    -1.4370 H     1 <1>   0.0800 
 50 H      -11.5850     7.6620    -0.2040 H     1 <1>   0.0800 
 51 H      -11.2060     6.6000    -1.5490 H     1 <1>   0.0800 
@<TRIPOS>BOND
  1   1   2  1   
  2   2   3  ar  
  3   2   4  ar  
  4   3   5  ar  
  5   3  26  1   
  6   4   6  ar  
  7   4  27  1   
  8   5   7  ar  
  9   5   8  1   
 10   6   7  ar  
 11   6  28  1   
 12   7   9  1   
 13   8  10  1   
 14   8  29  1   
 15   8  30  1   
 16   9  31  1   
 17   9  32  1   
 18   9  33  1   
 19  10  11  2   
 20  10  12  am  
 21  12  13  1   
 22  12  14  1   
 23  13  15  1   
 24  13  34  1   
 25  13  35  1   
 26  14  16  1   
 27  14  36  1   
 28  14  37  1   
 29  15  17  1   
 30  15  38  1   
 31  15  39  1   
 32  16  17  1   
 33  16  40  1   
 34  16  41  1   
 35  17  18  1   
 36  17  19  1   
 37  18  20  1   
 38  19  21  1   
 39  19  22  1   
 40  19  42  1   
 41  20  23  1   
 42  20  43  1   
 43  20  44  1   
 44  21  45  1   
 45  22  23  1   
 46  22  24  1   
 47  22  25  1   
 48  23  46  1   
 49  23  47  1   
 50  24  48  1   
 51  25  49  1   
 52  25  50  1   
 53  25  51  1   
@<TRIPOS>SUBSTRUCTURE
  1 ****  13 GROUP 4 **** **** 0

# MOE 2024.06 (io_trps.svl 2023.06)
