@<TRIPOS>MOLECULE
NONAME
45 48 1 0 0 
SMALL
USER_CHARGES


@<TRIPOS>ATOM
  1 O       -0.9840    -0.3720     1.7060 O.2   1 <1>  -0.5700 
  2 C       -1.6420     0.0180     0.7780 C.2   1 <1>   0.4230 
  3 C       -2.9490    -0.5020     0.4860 C.ar  1 <1>   0.0860 
  4 C       -0.9940     1.0480    -0.1270 C.3   1 <1>  -0.1790 
  5 C       -4.0680     0.2370     0.1120 C.ar  1 <1>   0.1660 
  6 C       -3.1620    -1.8670     0.5720 C.ar  1 <1>   0.1600 
  7 N       -5.2080    -0.3260    -0.1980 N.ar  1 <1>  -0.6200 
  8 C       -4.0710     1.7560     0.0570 C.3   1 <1>  -0.0960 
  9 N       -4.2960    -2.4490     0.2760 N.ar  1 <1>  -0.6200 
 10 C       -5.2880    -1.6540    -0.1170 C.ar  1 <1>   0.7200 
 11 N       -6.4820    -2.2430    -0.4540 N.pl3 1 <1>  -0.8380 
 12 C       -6.6470    -3.7230    -0.6150 C.3   1 <1>   0.2090 
 13 C       -7.7560    -1.4820    -0.5980 C.3   1 <1>   0.2090 
 14 C       -7.6350    -4.2660     0.4240 C.3   1 <1>   0.1000 
 15 C       -8.7610    -1.9850     0.4440 C.3   1 <1>  -0.1600 
 16 C       -7.8010    -5.7670     0.2250 C.2   1 <1>   0.2980 
 17 C       -8.9770    -3.5050     0.3470 C.3   1 <1>  -0.1600 
 18 O       -6.7570    -6.5370     0.4910 O.3   1 <1>  -0.2800 
 19 N       -8.8460    -6.3890    -0.1820 N.2   1 <1>  -0.5650 
 20 C       -7.1560    -7.7670     0.2360 C.ar  1 <1>   0.1400 
 21 C       -8.4600    -7.6940    -0.1850 C.ar  1 <1>   0.2270 
 22 C       -6.4740    -8.9710     0.3390 C.ar  1 <1>  -0.1500 
 23 C       -9.1440    -8.8560    -0.5260 C.ar  1 <1>  -0.1500 
 24 C       -7.1540   -10.1260    -0.0010 C.ar  1 <1>  -0.1500 
 25 C       -8.4840   -10.0680    -0.4310 C.ar  1 <1>  -0.1500 
 26 H       -1.4650     1.0620    -1.0920 H     1 <1>   0.0800 
 27 H        0.0440     0.8000    -0.2590 H     1 <1>   0.0800 
 28 H       -1.0560     2.0210     0.3240 H     1 <1>   0.0800 
 29 H       -2.3480    -2.4940     0.8950 H     1 <1>   0.1500 
 30 H       -3.4520     2.1710     0.8300 H     1 <1>   0.0800 
 31 H       -5.0710     2.1260     0.2050 H     1 <1>   0.0800 
 32 H       -3.7280     2.0910    -0.9040 H     1 <1>   0.0800 
 33 H       -5.7070    -4.2390    -0.5190 H     1 <1>   0.0800 
 34 H       -7.0240    -3.9240    -1.6030 H     1 <1>   0.0800 
 35 H       -8.1450    -1.6360    -1.5900 H     1 <1>   0.0800 
 36 H       -7.6060    -0.4250    -0.4630 H     1 <1>   0.0800 
 37 H       -7.2060    -4.1130     1.3980 H     1 <1>   0.0800 
 38 H       -9.6980    -1.4780     0.3040 H     1 <1>   0.0800 
 39 H       -8.3940    -1.7310     1.4230 H     1 <1>   0.0800 
 40 H       -9.6240    -3.8350     1.1410 H     1 <1>   0.0800 
 41 H       -9.4600    -3.7320    -0.5880 H     1 <1>   0.0800 
 42 H       -5.4530    -8.9840     0.6730 H     1 <1>   0.1500 
 43 H      -10.1640    -8.7860    -0.8540 H     1 <1>   0.1500 
 44 H       -6.6610   -11.0810     0.0650 H     1 <1>   0.1500 
 45 H       -8.9950   -10.9790    -0.6910 H     1 <1>   0.1500 
@<TRIPOS>BOND
  1   1   2  2   
  2   2   3  1   
  3   2   4  1   
  4   3   5  ar  
  5   3   6  ar  
  6   4  26  1   
  7   4  27  1   
  8   4  28  1   
  9   5   7  ar  
 10   5   8  1   
 11   6   9  ar  
 12   6  29  1   
 13   7  10  ar  
 14   8  30  1   
 15   8  31  1   
 16   8  32  1   
 17   9  10  ar  
 18  10  11  1   
 19  11  12  1   
 20  11  13  1   
 21  12  14  1   
 22  12  33  1   
 23  12  34  1   
 24  13  15  1   
 25  13  35  1   
 26  13  36  1   
 27  14  16  1   
 28  14  17  1   
 29  14  37  1   
 30  15  17  1   
 31  15  38  1   
 32  15  39  1   
 33  16  18  1   
 34  16  19  2   
 35  17  40  1   
 36  17  41  1   
 37  18  20  1   
 38  19  21  1   
 39  20  21  ar  
 40  20  22  ar  
 41  21  23  ar  
 42  22  24  ar  
 43  22  42  1   
 44  23  25  ar  
 45  23  43  1   
 46  24  25  ar  
 47  24  44  1   
 48  25  45  1   
@<TRIPOS>SUBSTRUCTURE
  1 ****  12 GROUP 4 **** **** 0

# MOE 2024.06 (io_trps.svl 2023.06)
