@<TRIPOS>MOLECULE
NONAME
50 52 1 0 0 
SMALL
USER_CHARGES


@<TRIPOS>ATOM
  1 F        0.4710     0.8980     1.5690 F     1 <1>  -0.1900 
  2 C        1.6120     1.4570     1.2630 C.ar  1 <1>   0.1900 
  3 C        2.5600     0.7100     0.5910 C.ar  1 <1>  -0.1500 
  4 C        1.8280     2.7720     1.6230 C.ar  1 <1>  -0.1500 
  5 C        3.7680     1.3060     0.2690 C.ar  1 <1>  -0.1500 
  6 C        3.0410     3.3550     1.2960 C.ar  1 <1>  -0.1500 
  7 C        4.0140     2.6280     0.6200 C.ar  1 <1>  -0.1430 
  8 C        5.3490     3.2810     0.2730 C.3   1 <1>   0.2540 
  9 N        5.1640     4.5960    -0.3630 N.3   1 <1>  -0.8100 
 10 C        6.4580     5.3290    -0.4820 C.3   1 <1>   0.1710 
 11 C        4.4810     4.4820    -1.6630 C.3   1 <1>   0.0300 
 12 C        6.4310     6.8260    -0.8710 C.2   1 <1>   0.5690 
 13 O        5.3720     7.4060    -0.9700 O.2   1 <1>  -0.5700 
 14 N        7.6180     7.4950    -1.0960 N.am  1 <1>  -0.6600 
 15 C        7.6210     8.9450    -1.4490 C.3   1 <1>   0.1400 
 16 C        8.9800     6.9030    -0.9640 C.3   1 <1>   0.1400 
 17 C        8.3960     9.7290    -0.3890 C.3   1 <1>  -0.1600 
 18 C        9.7650     7.6680     0.1030 C.3   1 <1>  -0.1600 
 19 C        9.8110     9.1630    -0.2190 C.3   1 <1>   0.2000 
 20 O       10.4490     9.8070     0.8620 O.3   1 <1>  -0.3630 
 21 C       10.9630    11.0630     0.7810 C.ar  1 <1>   0.0830 
 22 C       11.4180    11.6470     1.9580 C.ar  1 <1>   0.1600 
 23 C       11.0630    11.7910    -0.3960 C.ar  1 <1>  -0.1500 
 24 N       11.9460    12.8590     2.0610 N.ar  1 <1>  -0.6200 
 25 C       11.6100    13.0530    -0.3060 C.ar  1 <1>  -0.1500 
 26 C       12.0290    13.5320     0.9250 C.ar  1 <1>   0.1600 
 27 H        2.3530    -0.3110     0.3270 H     1 <1>   0.1500 
 28 H        1.0680     3.3260     2.1430 H     1 <1>   0.1500 
 29 H        4.5150     0.7350    -0.2560 H     1 <1>   0.1500 
 30 H        3.2320     4.3830     1.5570 H     1 <1>   0.1500 
 31 H        5.9170     2.6400    -0.3790 H     1 <1>   0.0800 
 32 H        5.9020     3.4050     1.1880 H     1 <1>   0.0800 
 33 H        7.0690     4.8130    -1.2000 H     1 <1>   0.0800 
 34 H        6.9550     5.2800     0.4700 H     1 <1>   0.0800 
 35 H        3.5220     4.0090    -1.5390 H     1 <1>   0.0800 
 36 H        5.0710     3.9040    -2.3530 H     1 <1>   0.0800 
 37 H        4.3090     5.4590    -2.0810 H     1 <1>   0.0800 
 38 H        6.6160     9.3300    -1.5120 H     1 <1>   0.0800 
 39 H        8.0810     9.0710    -2.4140 H     1 <1>   0.0800 
 40 H        9.4850     6.9780    -1.9120 H     1 <1>   0.0800 
 41 H        8.9370     5.8640    -0.6940 H     1 <1>   0.0800 
 42 H        7.8630     9.6640     0.5440 H     1 <1>   0.0800 
 43 H        8.4380    10.7620    -0.6810 H     1 <1>   0.0800 
 44 H       10.7670     7.2820     0.1520 H     1 <1>   0.0800 
 45 H        9.2930     7.5170     1.0580 H     1 <1>   0.0800 
 46 H       10.3990     9.3080    -1.1080 H     1 <1>   0.0800 
 47 H       11.3370    11.0710     2.8630 H     1 <1>   0.1500 
 48 H       10.7380    11.4140    -1.3470 H     1 <1>   0.1500 
 49 H       11.7150    13.6680    -1.1820 H     1 <1>   0.1500 
 50 H       12.4540    14.5200     0.9780 H     1 <1>   0.1500 
@<TRIPOS>BOND
  1   1   2  1   
  2   2   3  ar  
  3   2   4  ar  
  4   3   5  ar  
  5   3  27  1   
  6   4   6  ar  
  7   4  28  1   
  8   5   7  ar  
  9   5  29  1   
 10   6   7  ar  
 11   6  30  1   
 12   7   8  1   
 13   8   9  1   
 14   8  31  1   
 15   8  32  1   
 16   9  10  1   
 17   9  11  1   
 18  10  12  1   
 19  10  33  1   
 20  10  34  1   
 21  11  35  1   
 22  11  36  1   
 23  11  37  1   
 24  12  13  2   
 25  12  14  am  
 26  14  15  1   
 27  14  16  1   
 28  15  17  1   
 29  15  38  1   
 30  15  39  1   
 31  16  18  1   
 32  16  40  1   
 33  16  41  1   
 34  17  19  1   
 35  17  42  1   
 36  17  43  1   
 37  18  19  1   
 38  18  44  1   
 39  18  45  1   
 40  19  20  1   
 41  19  46  1   
 42  20  21  1   
 43  21  22  ar  
 44  21  23  ar  
 45  22  24  ar  
 46  22  47  1   
 47  23  25  ar  
 48  23  48  1   
 49  24  26  ar  
 50  25  26  ar  
 51  25  49  1   
 52  26  50  1   
@<TRIPOS>SUBSTRUCTURE
  1 ****  12 GROUP 4 **** **** 0

# MOE 2024.06 (io_trps.svl 2023.06)
