@<TRIPOS>MOLECULE
NONAME
27 27 1 0 0 
SMALL
USER_CHARGES


@<TRIPOS>ATOM
  1 O       -4.0680     2.4550    -0.0890 O.co2 1 <1>  -0.9000 
  2 C       -4.4470     1.5300     0.6460 C.2   1 <1>   0.9790 
  3 O       -3.8060     1.2680     1.6770 O.co2 1 <1>  -0.9000 
  4 C       -5.6360     0.7760     0.3220 C.ar  1 <1>  -0.1790 
  5 C       -5.6650    -0.4220    -0.4130 C.ar  1 <1>   0.0820 
  6 C       -6.8480     1.2740     0.7970 C.ar  1 <1>  -0.1500 
  7 O       -4.6070    -1.0600    -0.9760 O.3   1 <1>  -0.3630 
  8 C       -6.8710    -1.0740    -0.6110 C.ar  1 <1>  -0.1500 
  9 C       -8.0430     0.6160     0.5940 C.ar  1 <1>  -0.1500 
 10 C       -3.2960    -0.5340    -1.0110 C.3   1 <1>   0.0400 
 11 C       -8.0620    -0.5810    -0.1070 C.ar  1 <1>  -0.1430 
 12 C       -9.3160    -1.4000    -0.3030 C.3   1 <1>   0.5670 
 13 N       -9.5110    -2.0950     0.9620 N.4   1 <1>  -0.8530 
 14 C      -10.5610    -0.5810    -0.6230 C.3   1 <1>  -0.2400 
 15 H       -6.8280     2.2030     1.3440 H     1 <1>   0.1500 
 16 H       -6.8400    -1.9890    -1.1760 H     1 <1>   0.1500 
 17 H       -8.9350     1.0620     0.9970 H     1 <1>   0.1500 
 18 H       -2.6800    -1.2010    -1.5840 H     1 <1>   0.0800 
 19 H       -2.9160    -0.4650    -0.0070 H     1 <1>   0.0800 
 20 H       -3.3160     0.4350    -1.4800 H     1 <1>   0.0800 
 21 H       -9.1470    -2.1130    -1.0950 H     1 <1>   0.0800 
 22 H       -9.6330    -1.3940     1.6970 H     1 <1>   0.4500 
 23 H       -8.6460    -2.6010     1.1790 H     1 <1>   0.4500 
 24 H      -10.3080    -2.7330     0.9350 H     1 <1>   0.4500 
 25 H      -10.8280     0.0810     0.1800 H     1 <1>   0.0800 
 26 H      -11.3920    -1.2280    -0.8420 H     1 <1>   0.0800 
 27 H      -10.3720     0.0170    -1.4990 H     1 <1>   0.0800 
@<TRIPOS>BOND
  1   1   2  ar  
  2   2   3  ar  
  3   2   4  1   
  4   4   5  ar  
  5   4   6  ar  
  6   5   7  1   
  7   5   8  ar  
  8   6   9  ar  
  9   6  15  1   
 10   7  10  1   
 11   8  11  ar  
 12   8  16  1   
 13   9  11  ar  
 14   9  17  1   
 15  10  18  1   
 16  10  19  1   
 17  10  20  1   
 18  11  12  1   
 19  12  13  1   
 20  12  14  1   
 21  12  21  1   
 22  13  22  1   
 23  13  23  1   
 24  13  24  1   
 25  14  25  1   
 26  14  26  1   
 27  14  27  1   
@<TRIPOS>SUBSTRUCTURE
  1 ****   5 GROUP 4 **** **** 0

# MOE 2024.06 (io_trps.svl 2023.06)
