@<TRIPOS>MOLECULE
NONAME
44 45 1 0 0 
SMALL
USER_CHARGES


@<TRIPOS>ATOM
  1 O       -1.5190    -0.2390     2.3050 O.2   1 <1>  -0.5700 
  2 C       -1.8150     0.3830     1.3110 C.2   1 <1>   0.5690 
  3 N       -2.1660    -0.2530     0.1460 N.am  1 <1>  -0.6600 
  4 C       -1.8280     1.9120     1.4340 C.3   1 <1>   0.1810 
  5 C       -2.1590    -1.7530     0.0560 C.3   1 <1>   0.3640 
  6 C       -2.5930     0.4760    -1.0900 C.3   1 <1>   0.1400 
  7 O       -1.1340     2.5590     0.3910 O.3   1 <1>  -0.5600 
  8 C       -0.8750    -2.2930    -0.6030 C.ar  1 <1>  -0.1440 
  9 C       -3.4400    -2.2760    -0.6730 C.3   1 <1>   0.2000 
 10 C       -3.1130    -0.4720    -2.1800 C.3   1 <1>   0.1200 
 11 C       -1.0130     3.9330     0.5250 C.3   1 <1>   0.2000 
 12 C        0.1120    -1.4800    -1.1530 C.ar  1 <1>  -0.1500 
 13 C       -0.6810    -3.6690    -0.6300 C.ar  1 <1>  -0.1500 
 14 O       -4.0010    -1.3840    -1.6140 O.3   1 <1>  -0.5600 
 15 C       -4.5510    -2.6050     0.3300 C.3   1 <1>   0.1200 
 16 C       -0.9330     4.5030    -0.8860 C.3   1 <1>  -0.2400 
 17 C        0.2600     4.2320     1.3170 C.3   1 <1>  -0.2400 
 18 C        1.2390    -2.0280    -1.7400 C.ar  1 <1>  -0.1500 
 19 C        0.4450    -4.2210    -1.2160 C.ar  1 <1>  -0.1500 
 20 O       -4.2380    -3.7680     1.0290 O.3   1 <1>  -0.6800 
 21 C        1.4050    -3.4000    -1.7760 C.ar  1 <1>  -0.1500 
 22 H       -1.3710     2.1810     2.3690 H     1 <1>   0.0800 
 23 H       -2.8460     2.2540     1.4280 H     1 <1>   0.0800 
 24 H       -2.1660    -2.1620     1.0520 H     1 <1>   0.0800 
 25 H       -3.3730     1.1730    -0.8380 H     1 <1>   0.0800 
 26 H       -1.7640     1.0370    -1.4840 H     1 <1>   0.0800 
 27 H       -3.2050    -3.1710    -1.2180 H     1 <1>   0.0800 
 28 H       -2.3070    -1.0120    -2.6480 H     1 <1>   0.0800 
 29 H       -3.6400     0.0820    -2.9360 H     1 <1>   0.0800 
 30 H       -1.8830     4.3260     1.0270 H     1 <1>   0.0800 
 31 H        0.0260    -0.4090    -1.1260 H     1 <1>   0.1500 
 32 H       -1.4090    -4.3260    -0.1860 H     1 <1>   0.1500 
 33 H       -5.4870    -2.7620    -0.1760 H     1 <1>   0.0800 
 34 H       -4.6550    -1.8050     1.0430 H     1 <1>   0.0800 
 35 H       -0.0840     4.0980    -1.4060 H     1 <1>   0.0800 
 36 H       -0.8340     5.5730    -0.8460 H     1 <1>   0.0800 
 37 H       -1.8300     4.2650    -1.4280 H     1 <1>   0.0800 
 38 H        1.1120     3.7910     0.8300 H     1 <1>   0.0800 
 39 H        0.1860     3.8480     2.3170 H     1 <1>   0.0800 
 40 H        0.4120     5.2940     1.3770 H     1 <1>   0.0800 
 41 H        1.9890    -1.3840    -2.1640 H     1 <1>   0.1500 
 42 H        0.5750    -5.2890    -1.2320 H     1 <1>   0.1500 
 43 H       -4.4390    -4.5590     0.4910 H     1 <1>   0.4000 
 44 H        2.2820    -3.8260    -2.2330 H     1 <1>   0.1500 
@<TRIPOS>BOND
  1   1   2  2   
  2   2   3  am  
  3   2   4  1   
  4   3   5  1   
  5   3   6  1   
  6   4   7  1   
  7   4  22  1   
  8   4  23  1   
  9   5   8  1   
 10   5   9  1   
 11   5  24  1   
 12   6  10  1   
 13   6  25  1   
 14   6  26  1   
 15   7  11  1   
 16   8  12  ar  
 17   8  13  ar  
 18   9  14  1   
 19   9  15  1   
 20   9  27  1   
 21  10  14  1   
 22  10  28  1   
 23  10  29  1   
 24  11  16  1   
 25  11  17  1   
 26  11  30  1   
 27  12  18  ar  
 28  12  31  1   
 29  13  19  ar  
 30  13  32  1   
 31  15  20  1   
 32  15  33  1   
 33  15  34  1   
 34  16  35  1   
 35  16  36  1   
 36  16  37  1   
 37  17  38  1   
 38  17  39  1   
 39  17  40  1   
 40  18  21  ar  
 41  18  41  1   
 42  19  21  ar  
 43  19  42  1   
 44  20  43  1   
 45  21  44  1   
@<TRIPOS>SUBSTRUCTURE
  1 ****   3 GROUP 4 **** **** 0

# MOE 2024.06 (io_trps.svl 2023.06)
