@<TRIPOS>MOLECULE
NONAME
43 46 1 0 0 
SMALL
USER_CHARGES


@<TRIPOS>ATOM
  1 F       -0.9950    -0.2530    -0.5780 F     1 <1>  -0.1900 
  2 C       -1.2780    -1.5140    -0.3660 C.ar  1 <1>   0.1900 
  3 C       -0.3070    -2.4320     0.0480 C.ar  1 <1>   0.0820 
  4 C       -2.5890    -1.8940    -0.5790 C.ar  1 <1>  -0.1500 
  5 O        1.0120    -2.1790     0.2910 O.3   1 <1>  -0.3630 
  6 C       -0.7060    -3.7460     0.2380 C.ar  1 <1>  -0.1500 
  7 C       -2.9500    -3.2140    -0.3820 C.ar  1 <1>  -0.1500 
  8 C        1.5640    -0.8820     0.2550 C.3   1 <1>   0.0400 
  9 C       -2.0210    -4.1700     0.0330 C.ar  1 <1>   0.0530 
 10 C       -2.3830    -5.5540     0.2260 C.2   1 <1>   0.0870 
 11 O       -1.5010    -6.4840    -0.0640 O.3   1 <1>  -0.0190 
 12 C       -3.5040    -6.1980     0.6520 C.2   1 <1>  -0.2330 
 13 N       -1.9520    -7.6950     0.1270 N.2   1 <1>  -0.4100 
 14 C       -3.1530    -7.5430     0.5610 C.2   1 <1>   0.3720 
 15 C       -4.7800    -5.7270     1.1060 C.2   1 <1>   1.0330 
 16 N       -3.9960    -8.5920     0.8900 N.pl3 1 <1>  -0.8520 
 17 O       -4.9480    -4.5420     1.4360 O.co2 1 <1>  -0.9000 
 18 O       -5.7590    -6.4970     1.1620 O.co2 1 <1>  -0.9000 
 19 C       -4.2560    -9.5580    -0.1880 C.3   1 <1>   0.2890 
 20 C       -5.7460    -9.6260    -0.5820 C.3   1 <1>  -0.0800 
 21 C       -3.9580   -10.9940     0.2650 C.3   1 <1>  -0.1600 
 22 C       -5.8050   -11.0040    -1.2250 C.3   1 <1>  -0.1600 
 23 C       -6.6440    -9.8530     0.6520 C.3   1 <1>  -0.1600 
 24 C       -5.2840   -11.7330     0.0040 C.3   1 <1>  -0.0800 
 25 C       -6.2980   -11.2920     1.0720 C.3   1 <1>  -0.1600 
 26 H       -3.3190    -1.1700    -0.8900 H     1 <1>   0.1500 
 27 H        0.0280    -4.4630     0.5590 H     1 <1>   0.1500 
 28 H       -3.9720    -3.5100    -0.5450 H     1 <1>   0.1500 
 29 H        2.5980    -0.9500     0.5420 H     1 <1>   0.0800 
 30 H        1.0330    -0.2560     0.9510 H     1 <1>   0.0800 
 31 H        1.4890    -0.4970    -0.7470 H     1 <1>   0.0800 
 32 H       -4.9030    -8.1470     1.1430 H     1 <1>   0.4000 
 33 H       -3.6640    -9.3230    -1.0580 H     1 <1>   0.0800 
 34 H       -6.0580    -8.8120    -1.2130 H     1 <1>   0.0800 
 35 H       -3.1750   -11.4050    -0.3450 H     1 <1>   0.0800 
 36 H       -3.6640   -11.0370     1.3000 H     1 <1>   0.0800 
 37 H       -6.8060   -11.2980    -1.4930 H     1 <1>   0.0800 
 38 H       -5.1500   -11.0980    -2.0760 H     1 <1>   0.0800 
 39 H       -6.4630    -9.1420     1.4400 H     1 <1>   0.0800 
 40 H       -7.6800    -9.7850     0.3680 H     1 <1>   0.0800 
 41 H       -5.1840   -12.8000    -0.0930 H     1 <1>   0.0800 
 42 H       -7.1780   -11.9100     1.0390 H     1 <1>   0.0800 
 43 H       -5.8770   -11.3240     2.0630 H     1 <1>   0.0800 
@<TRIPOS>BOND
  1   1   2  1   
  2   2   3  ar  
  3   2   4  ar  
  4   3   5  1   
  5   3   6  ar  
  6   4   7  ar  
  7   4  26  1   
  8   5   8  1   
  9   6   9  ar  
 10   6  27  1   
 11   7   9  ar  
 12   7  28  1   
 13   8  29  1   
 14   8  30  1   
 15   8  31  1   
 16   9  10  1   
 17  10  11  1   
 18  10  12  2   
 19  11  13  1   
 20  12  14  1   
 21  12  15  1   
 22  13  14  2   
 23  14  16  1   
 24  15  17  ar  
 25  15  18  ar  
 26  16  19  1   
 27  16  32  1   
 28  19  20  1   
 29  19  21  1   
 30  19  33  1   
 31  20  22  1   
 32  20  23  1   
 33  20  34  1   
 34  21  24  1   
 35  21  35  1   
 36  21  36  1   
 37  22  24  1   
 38  22  37  1   
 39  22  38  1   
 40  23  25  1   
 41  23  39  1   
 42  23  40  1   
 43  24  25  1   
 44  24  41  1   
 45  25  42  1   
 46  25  43  1   
@<TRIPOS>SUBSTRUCTURE
  1 ****  12 GROUP 4 **** **** 0

# MOE 2024.06 (io_trps.svl 2023.06)
