@<TRIPOS>MOLECULE
NONAME
49 52 1 0 0 
SMALL
USER_CHARGES


@<TRIPOS>ATOM
  1 O       -0.5560     0.1470    -0.3240 O.2   1 <1>  -0.5700 
  2 C       -1.4170     0.8090     0.2230 C.2   1 <1>   0.5440 
  3 N       -2.5490     0.1700     0.6790 N.am  1 <1>  -0.6600 
  4 C       -1.2450     2.2390     0.3580 C.ar  1 <1>   0.0860 
  5 C       -2.6180    -1.3220     0.7950 C.3   1 <1>   0.1400 
  6 C       -3.9040     0.8050     0.6710 C.3   1 <1>   0.1400 
  7 C       -1.5870     2.8940     1.5370 C.ar  1 <1>   0.1600 
  8 C       -0.7370     3.0210    -0.6670 C.ar  1 <1>  -0.1500 
  9 C       -3.6090    -1.9110    -0.2260 C.3   1 <1>   0.3440 
 10 C       -4.8340     0.0980    -0.3370 C.3   1 <1>   0.2950 
 11 N       -1.5050     4.1950     1.7500 N.ar  1 <1>  -0.6200 
 12 C       -0.6260     4.3830    -0.4720 C.ar  1 <1>  -0.1440 
 13 O       -4.8580    -1.2790    -0.1020 O.3   1 <1>  -0.5600 
 14 C       -3.7670    -3.4130    -0.0120 C.ar  1 <1>  -0.1430 
 15 C       -6.2720     0.6100    -0.2260 C.3   1 <1>  -0.1950 
 16 C       -1.0310     4.9190     0.7490 C.ar  1 <1>   0.1670 
 17 C       -0.0610     5.2430    -1.5960 C.3   1 <1>  -0.0970 
 18 C       -2.9120    -4.2880    -0.6670 C.ar  1 <1>  -0.1500 
 19 C       -4.7370    -3.9300     0.8370 C.ar  1 <1>  -0.1500 
 20 C       -7.2310     0.4790    -1.3670 C.3   1 <1>  -0.2000 
 21 C       -6.7160     1.8340    -0.9670 C.3   1 <1>  -0.2000 
 22 C       -0.9440     6.4090     1.0270 C.3   1 <1>  -0.0970 
 23 C       -3.0230    -5.6550    -0.4780 C.ar  1 <1>  -0.1500 
 24 C       -4.8500    -5.2960     1.0280 C.ar  1 <1>  -0.1500 
 25 C       -3.9920    -6.1600     0.3700 C.ar  1 <1>  -0.1500 
 26 H       -1.6490    -1.7620     0.6400 H     1 <1>   0.0800 
 27 H       -2.9390    -1.5870     1.7860 H     1 <1>   0.0800 
 28 H       -4.3330     0.7390     1.6550 H     1 <1>   0.0800 
 29 H       -3.8400     1.8450     0.4050 H     1 <1>   0.0800 
 30 H       -1.9560     2.2960     2.3520 H     1 <1>   0.1500 
 31 H       -0.4370     2.5540    -1.5900 H     1 <1>   0.1500 
 32 H       -3.2450    -1.7330    -1.2230 H     1 <1>   0.0800 
 33 H       -4.4720     0.2590    -1.3390 H     1 <1>   0.0800 
 34 H       -6.6730     0.4680     0.7630 H     1 <1>   0.1000 
 35 H        0.3410     4.6310    -2.3840 H     1 <1>   0.0800 
 36 H        0.7310     5.8680    -1.2230 H     1 <1>   0.0800 
 37 H       -0.8350     5.8640    -2.0090 H     1 <1>   0.0800 
 38 H       -2.1520    -3.9100    -1.3290 H     1 <1>   0.1500 
 39 H       -5.4110    -3.2670     1.3510 H     1 <1>   0.1500 
 40 H       -6.8840     0.0330    -2.2830 H     1 <1>   0.1000 
 41 H       -8.2530     0.2200    -1.1470 H     1 <1>   0.1000 
 42 H       -7.3930     2.5170    -0.4830 H     1 <1>   0.1000 
 43 H       -6.0340     2.3330    -1.6330 H     1 <1>   0.1000 
 44 H       -1.2210     6.9800     0.1620 H     1 <1>   0.0800 
 45 H        0.0590     6.6620     1.3170 H     1 <1>   0.0800 
 46 H       -1.6090     6.6750     1.8290 H     1 <1>   0.0800 
 47 H       -2.3560    -6.3250    -0.9910 H     1 <1>   0.1500 
 48 H       -5.6060    -5.6860     1.6860 H     1 <1>   0.1500 
 49 H       -4.0800    -7.2220     0.5170 H     1 <1>   0.1500 
@<TRIPOS>BOND
  1   1   2  2   
  2   2   3  am  
  3   2   4  1   
  4   3   5  1   
  5   3   6  1   
  6   4   7  ar  
  7   4   8  ar  
  8   5   9  1   
  9   5  26  1   
 10   5  27  1   
 11   6  10  1   
 12   6  28  1   
 13   6  29  1   
 14   7  11  ar  
 15   7  30  1   
 16   8  12  ar  
 17   8  31  1   
 18   9  13  1   
 19   9  14  1   
 20   9  32  1   
 21  10  13  1   
 22  10  15  1   
 23  10  33  1   
 24  11  16  ar  
 25  12  16  ar  
 26  12  17  1   
 27  14  18  ar  
 28  14  19  ar  
 29  15  20  1   
 30  15  21  1   
 31  15  34  1   
 32  16  22  1   
 33  17  35  1   
 34  17  36  1   
 35  17  37  1   
 36  18  23  ar  
 37  18  38  1   
 38  19  24  ar  
 39  19  39  1   
 40  20  21  1   
 41  20  40  1   
 42  20  41  1   
 43  21  42  1   
 44  21  43  1   
 45  22  44  1   
 46  22  45  1   
 47  22  46  1   
 48  23  25  ar  
 49  23  47  1   
 50  24  25  ar  
 51  24  48  1   
 52  25  49  1   
@<TRIPOS>SUBSTRUCTURE
  1 ****   3 GROUP 4 **** **** 0

# MOE 2024.06 (io_trps.svl 2023.06)
