@<TRIPOS>MOLECULE
NONAME
65 69 1 0 0 
SMALL
USER_CHARGES


@<TRIPOS>ATOM
  1 O       -4.2420     0.4930     2.3040 O.3   1 <1>  -0.6800 
  2 C       -4.9210    -0.5230     1.6510 C.3   1 <1>   0.1200 
  3 C       -3.9260    -1.6480     1.3500 C.3   1 <1>   0.1100 
  4 N       -4.5660    -2.7780     0.6390 N.3   1 <1>  -0.8100 
  5 C       -4.8090    -2.4700    -0.7930 C.3   1 <1>   0.1100 
  6 C       -3.7300    -3.9970     0.7500 C.3   1 <1>   0.1100 
  7 C       -5.4220    -3.6710    -1.5560 C.3   1 <1>   0.3430 
  8 C       -4.3610    -5.2100     0.0230 C.3   1 <1>   0.3430 
  9 N       -5.6640    -4.8380    -0.6360 N.4   1 <1>  -0.9590 
 10 C       -6.4400    -5.9760    -1.2210 C.3   1 <1>   0.4230 
 11 C       -7.7800    -5.4650    -1.7720 C.3   1 <1>  -0.1600 
 12 C       -6.6650    -7.0600    -0.1550 C.3   1 <1>  -0.1600 
 13 C       -8.6580    -6.6180    -2.2520 C.3   1 <1>   0.2090 
 14 C       -7.5790    -8.1780    -0.6550 C.3   1 <1>   0.2090 
 15 N       -8.8520    -7.5760    -1.1330 N.pl3 1 <1>  -0.8380 
 16 C      -10.0660    -7.8310    -0.5660 C.ar  1 <1>   0.1000 
 17 C      -10.4780    -9.1310    -0.1170 C.ar  1 <1>   0.0000 
 18 C      -10.9580    -6.7800    -0.3600 C.ar  1 <1>  -0.1500 
 19 C      -11.6470    -9.2440     0.6640 C.ar  1 <1>   0.3610 
 20 C       -9.8240   -10.3330    -0.4540 C.ar  1 <1>  -0.1500 
 21 C      -12.1250    -6.9230     0.3560 C.ar  1 <1>   0.3610 
 22 N      -12.4200    -8.1280     0.8740 N.ar  1 <1>  -0.1790 
 23 C      -12.0390   -10.4860     1.1830 C.ar  1 <1>  -0.1500 
 24 C      -10.2300   -11.5450     0.0420 C.ar  1 <1>  -0.1500 
 25 C      -13.0370    -5.8350     0.5840 C.ar  1 <1>   0.0000 
 26 C      -11.3370   -11.6240     0.8830 C.ar  1 <1>  -0.1500 
 27 C      -13.2030    -5.2890     1.8570 C.ar  1 <1>  -0.1500 
 28 C      -13.7850    -5.3000    -0.4640 C.ar  1 <1>  -0.1500 
 29 C      -14.0930    -4.2540     2.0750 C.ar  1 <1>  -0.1500 
 30 C      -14.6740    -4.2640    -0.2460 C.ar  1 <1>  -0.1500 
 31 C      -14.8310    -3.7410     1.0240 C.ar  1 <1>  -0.1500 
 32 H       -4.8520     1.2120     2.5630 H     1 <1>   0.4000 
 33 H       -5.3380    -0.1150     0.7490 H     1 <1>   0.0800 
 34 H       -5.7040    -0.8780     2.2990 H     1 <1>   0.0800 
 35 H       -3.5390    -1.9950     2.2940 H     1 <1>   0.0800 
 36 H       -3.1050    -1.2610     0.7700 H     1 <1>   0.0800 
 37 H       -3.8870    -2.1840    -1.2700 H     1 <1>   0.0800 
 38 H       -5.4840    -1.6350    -0.8730 H     1 <1>   0.0800 
 39 H       -3.6020    -4.2470     1.7900 H     1 <1>   0.0800 
 40 H       -2.7510    -3.8090     0.3420 H     1 <1>   0.0800 
 41 H       -4.7590    -3.9610    -2.3540 H     1 <1>   0.0800 
 42 H       -6.3470    -3.3450    -2.0000 H     1 <1>   0.0800 
 43 H       -4.5190    -5.9860     0.7520 H     1 <1>   0.0800 
 44 H       -3.6670    -5.5850    -0.7110 H     1 <1>   0.0800 
 45 H       -6.2050    -4.4220     0.1380 H     1 <1>   0.4500 
 46 H       -5.8790    -6.4090    -2.0340 H     1 <1>   0.0800 
 47 H       -7.6210    -4.8190    -2.6140 H     1 <1>   0.0800 
 48 H       -8.3130    -4.9230    -1.0120 H     1 <1>   0.0800 
 49 H       -7.1140    -6.6290     0.7220 H     1 <1>   0.0800 
 50 H       -5.7340    -7.5170     0.1220 H     1 <1>   0.0800 
 51 H       -8.1850    -7.1290    -3.0750 H     1 <1>   0.0800 
 52 H       -9.6060    -6.2480    -2.6070 H     1 <1>   0.0800 
 53 H       -7.7630    -8.8580     0.1590 H     1 <1>   0.0800 
 54 H       -7.1120    -8.7240    -1.4580 H     1 <1>   0.0800 
 55 H      -10.7180    -5.8030    -0.7340 H     1 <1>   0.1500 
 56 H       -8.9900   -10.3070    -1.1310 H     1 <1>   0.1500 
 57 H      -13.2850    -8.2250     1.4070 H     1 <1>   0.4570 
 58 H      -12.9060   -10.5600     1.8160 H     1 <1>   0.1500 
 59 H       -9.7010   -12.4490    -0.2170 H     1 <1>   0.1500 
 60 H      -11.6320   -12.5850     1.2750 H     1 <1>   0.1500 
 61 H      -12.6310    -5.6600     2.6910 H     1 <1>   0.1500 
 62 H      -13.6790    -5.6910    -1.4620 H     1 <1>   0.1500 
 63 H      -14.2150    -3.8390     3.0620 H     1 <1>   0.1500 
 64 H      -15.2490    -3.8600    -1.0640 H     1 <1>   0.1500 
 65 H      -15.5240    -2.9330     1.1930 H     1 <1>   0.1500 
@<TRIPOS>BOND
  1   1   2  1   
  2   1  32  1   
  3   2   3  1   
  4   2  33  1   
  5   2  34  1   
  6   3   4  1   
  7   3  35  1   
  8   3  36  1   
  9   4   5  1   
 10   4   6  1   
 11   5   7  1   
 12   5  37  1   
 13   5  38  1   
 14   6   8  1   
 15   6  39  1   
 16   6  40  1   
 17   7   9  1   
 18   7  41  1   
 19   7  42  1   
 20   8   9  1   
 21   8  43  1   
 22   8  44  1   
 23   9  10  1   
 24   9  45  1   
 25  10  11  1   
 26  10  12  1   
 27  10  46  1   
 28  11  13  1   
 29  11  47  1   
 30  11  48  1   
 31  12  14  1   
 32  12  49  1   
 33  12  50  1   
 34  13  15  1   
 35  13  51  1   
 36  13  52  1   
 37  14  15  1   
 38  14  53  1   
 39  14  54  1   
 40  15  16  1   
 41  16  17  ar  
 42  16  18  ar  
 43  17  19  ar  
 44  17  20  ar  
 45  18  21  ar  
 46  18  55  1   
 47  19  22  ar  
 48  19  23  ar  
 49  20  24  ar  
 50  20  56  1   
 51  21  22  ar  
 52  21  25  1   
 53  22  57  1   
 54  23  26  ar  
 55  23  58  1   
 56  24  26  ar  
 57  24  59  1   
 58  25  27  ar  
 59  25  28  ar  
 60  26  60  1   
 61  27  29  ar  
 62  27  61  1   
 63  28  30  ar  
 64  28  62  1   
 65  29  31  ar  
 66  29  63  1   
 67  30  31  ar  
 68  30  64  1   
 69  31  65  1   
@<TRIPOS>SUBSTRUCTURE
  1 ****  15 GROUP 4 **** **** 0

# MOE 2024.06 (io_trps.svl 2023.06)
