@<TRIPOS>MOLECULE
NONAME
48 51 1 0 0 
SMALL
USER_CHARGES


@<TRIPOS>ATOM
  1 O        0.9500     4.1200    -1.2750 O.3   1 <1>  -0.0190 
  2 N        2.0710     4.2890    -1.9060 N.2   1 <1>  -0.4100 
  3 C        0.9420     3.0110    -0.5870 C.2   1 <1>  -0.0400 
  4 C        2.7740     3.2380    -1.6780 C.2   1 <1>   0.1080 
  5 C        2.0990     2.3730    -0.8210 C.2   1 <1>  -0.1500 
  6 C       -0.2380     2.6780     0.3090 C.3   1 <1>   0.0200 
  7 C        4.1470     2.9850    -2.2630 C.3   1 <1>  -0.0590 
  8 C       -0.4630     3.7120     1.4410 C.3   1 <1>  -0.0800 
  9 C       -1.1230     5.0080     0.9460 C.3   1 <1>   0.2000 
 10 C        0.8450     4.1920     2.0790 C.3   1 <1>   0.3430 
 11 O       -2.0580     5.4200     1.8860 O.3   1 <1>  -0.6800 
 12 C       -0.0070     6.0600     0.8390 C.3   1 <1>   0.3430 
 13 N        1.2500     5.3850     1.2920 N.4   1 <1>  -0.9590 
 14 C        2.2350     6.2920     1.9350 C.3   1 <1>   0.4860 
 15 C        2.5370     7.4300     0.9790 C.ar  1 <1>  -0.1440 
 16 C        2.1340     8.7200     1.2850 C.ar  1 <1>  -0.1500 
 17 C        3.2010     7.1940    -0.2170 C.ar  1 <1>  -0.1500 
 18 C        2.3840     9.7560     0.4040 C.ar  1 <1>  -0.1500 
 19 C        3.4450     8.2320    -1.0980 C.ar  1 <1>  -0.1500 
 20 C        3.0420     9.5310    -0.8020 C.ar  1 <1>  -0.0230 
 21 N        3.2900    10.6080    -1.7040 N.pl3 1 <1>   0.5930 
 22 N        2.4680    11.6830    -1.8230 N.2   1 <1>  -0.7070 
 23 C        4.3410    10.7450    -2.5520 C.2   1 <1>  -0.3020 
 24 C        3.0080    12.4420    -2.7240 C.2   1 <1>   0.1390 
 25 C        4.1890    11.9060    -3.2200 C.2   1 <1>  -0.1500 
 26 H        2.4620     1.4290    -0.4540 H     1 <1>   0.1500 
 27 H       -1.1280     2.5850    -0.2910 H     1 <1>   0.0800 
 28 H       -0.0560     1.7140     0.7520 H     1 <1>   0.0800 
 29 H        4.1270     2.0970    -2.8670 H     1 <1>   0.0800 
 30 H        4.8690     2.8590    -1.4760 H     1 <1>   0.0800 
 31 H        4.4450     3.8140    -2.8800 H     1 <1>   0.0800 
 32 H       -1.0820     3.2370     2.1830 H     1 <1>   0.0800 
 33 H       -1.6390     4.8890     0.0070 H     1 <1>   0.0800 
 34 H        1.6040     3.4260     2.0570 H     1 <1>   0.0800 
 35 H        0.6590     4.4790     3.1010 H     1 <1>   0.0800 
 36 H       -1.7160     5.4350     2.8010 H     1 <1>   0.4000 
 37 H       -0.2410     6.9070     1.4630 H     1 <1>   0.0800 
 38 H        0.1020     6.3930    -0.1810 H     1 <1>   0.0800 
 39 H        1.6890     5.0480     0.4140 H     1 <1>   0.4500 
 40 H        1.8340     6.6850     2.8540 H     1 <1>   0.0800 
 41 H        3.1440     5.7570     2.1560 H     1 <1>   0.0800 
 42 H        1.6220     8.9400     2.2070 H     1 <1>   0.1500 
 43 H        3.5310     6.2040    -0.4840 H     1 <1>   0.1500 
 44 H        2.0630    10.7560     0.6480 H     1 <1>   0.1500 
 45 H        3.9490     8.0240    -2.0270 H     1 <1>   0.1500 
 46 H        5.1250    10.0170    -2.6220 H     1 <1>   0.1500 
 47 H        2.5840    13.3800    -3.0440 H     1 <1>   0.1500 
 48 H        4.8200    12.3490    -3.9710 H     1 <1>   0.1500 
@<TRIPOS>BOND
  1   1   2  1   
  2   1   3  1   
  3   2   4  2   
  4   3   5  2   
  5   3   6  1   
  6   4   5  1   
  7   4   7  1   
  8   5  26  1   
  9   6   8  1   
 10   6  27  1   
 11   6  28  1   
 12   7  29  1   
 13   7  30  1   
 14   7  31  1   
 15   8   9  1   
 16   8  10  1   
 17   8  32  1   
 18   9  11  1   
 19   9  12  1   
 20   9  33  1   
 21  10  13  1   
 22  10  34  1   
 23  10  35  1   
 24  11  36  1   
 25  12  13  1   
 26  12  37  1   
 27  12  38  1   
 28  13  14  1   
 29  13  39  1   
 30  14  15  1   
 31  14  40  1   
 32  14  41  1   
 33  15  16  ar  
 34  15  17  ar  
 35  16  18  ar  
 36  16  42  1   
 37  17  19  ar  
 38  17  43  1   
 39  18  20  ar  
 40  18  44  1   
 41  19  20  ar  
 42  19  45  1   
 43  20  21  1   
 44  21  22  1   
 45  21  23  1   
 46  22  24  2   
 47  23  25  2   
 48  23  46  1   
 49  24  25  1   
 50  24  47  1   
 51  25  48  1   
@<TRIPOS>SUBSTRUCTURE
  1 ****  17 GROUP 4 **** **** 0

# MOE 2024.06 (io_trps.svl 2023.06)
