@<TRIPOS>MOLECULE
NONAME
48 50 1 0 0 
SMALL
USER_CHARGES


@<TRIPOS>ATOM
  1 F       -0.4140     0.5270     0.5510 F     1 <1>  -0.1900 
  2 C       -1.6940     0.7840     0.4670 C.ar  1 <1>   0.1900 
  3 C       -2.2260     1.5830    -0.5520 C.ar  1 <1>   0.0830 
  4 C       -2.4980     0.2260     1.4420 C.ar  1 <1>  -0.1500 
  5 O       -1.5410     2.1870    -1.5650 O.3   1 <1>  -0.3630 
  6 C       -3.5950     1.7980    -0.5510 C.ar  1 <1>  -0.1500 
  7 C       -3.8610     0.4610     1.4130 C.ar  1 <1>  -0.1500 
  8 C       -0.1500     2.0420    -1.7460 C.3   1 <1>   0.0400 
  9 C       -4.4400     1.2470     0.4150 C.ar  1 <1>   0.0530 
 10 C       -5.8580     1.5060     0.3770 C.2   1 <1>   0.0870 
 11 O       -6.2800     2.7030     0.0580 O.3   1 <1>  -0.0190 
 12 C       -6.9630     0.7470     0.6190 C.2   1 <1>  -0.0860 
 13 N       -7.5810     2.8100     0.0780 N.2   1 <1>  -0.4100 
 14 C       -8.0170     1.6490     0.4140 C.2   1 <1>   0.3720 
 15 C       -7.0980    -0.6360     0.9710 C.2   1 <1>   0.7160 
 16 N       -9.3860     1.3600     0.5330 N.pl3 1 <1>  -0.8210 
 17 O       -6.1670    -1.4130     0.8800 O.2   1 <1>  -0.5700 
 18 N       -8.2960    -1.1150     1.3980 N.am  1 <1>  -0.7300 
 19 C      -10.0850     2.2500     1.5030 C.3   1 <1>   0.1290 
 20 C      -10.0810     1.3520    -0.7830 C.3   1 <1>   0.1290 
 21 C       -8.6440    -2.5440     1.6140 C.3   1 <1>   0.1400 
 22 C       -8.8430    -3.2810     0.2810 C.3   1 <1>   0.2000 
 23 O       -9.4080    -4.5260     0.5220 O.3   1 <1>  -0.5600 
 24 C       -9.8190    -2.6180    -0.6850 C.3   1 <1>  -0.1600 
 25 C       -9.9840    -5.0170    -0.6440 C.3   1 <1>   0.1200 
 26 C      -10.3900    -3.7930    -1.4630 C.3   1 <1>  -0.1600 
 27 H       -2.0630    -0.3850     2.2120 H     1 <1>   0.1500 
 28 H       -4.0160     2.4100    -1.3280 H     1 <1>   0.1500 
 29 H       -4.4850     0.0280     2.1740 H     1 <1>   0.1500 
 30 H        0.1330     2.5950    -2.6230 H     1 <1>   0.0800 
 31 H        0.0790     1.0000    -1.8840 H     1 <1>   0.0800 
 32 H        0.3590     2.4390    -0.8860 H     1 <1>   0.0800 
 33 H       -9.0780    -0.4520     1.2940 H     1 <1>   0.3700 
 34 H      -11.0730     1.8730     1.7030 H     1 <1>   0.0800 
 35 H      -10.1590     3.2490     1.1060 H     1 <1>   0.0800 
 36 H       -9.5340     2.2860     2.4270 H     1 <1>   0.0800 
 37 H      -11.0780     0.9620    -0.6720 H     1 <1>   0.0800 
 38 H       -9.5420     0.7310    -1.4780 H     1 <1>   0.0800 
 39 H      -10.1320     2.3520    -1.1820 H     1 <1>   0.0800 
 40 H       -7.8520    -3.0230     2.1630 H     1 <1>   0.0800 
 41 H       -9.5500    -2.5990     2.1920 H     1 <1>   0.0800 
 42 H       -7.8900    -3.4440    -0.1950 H     1 <1>   0.0800 
 43 H      -10.5990    -2.1230    -0.1330 H     1 <1>   0.0800 
 44 H       -9.3200    -1.9040    -1.3170 H     1 <1>   0.0800 
 45 H       -9.2440    -5.6050    -1.1600 H     1 <1>   0.0800 
 46 H      -10.8270    -5.6320    -0.3800 H     1 <1>   0.0800 
 47 H       -9.9610    -3.8570    -2.4480 H     1 <1>   0.0800 
 48 H      -11.4600    -3.7260    -1.5490 H     1 <1>   0.0800 
@<TRIPOS>BOND
  1   1   2  1   
  2   2   3  ar  
  3   2   4  ar  
  4   3   5  1   
  5   3   6  ar  
  6   4   7  ar  
  7   4  27  1   
  8   5   8  1   
  9   6   9  ar  
 10   6  28  1   
 11   7   9  ar  
 12   7  29  1   
 13   8  30  1   
 14   8  31  1   
 15   8  32  1   
 16   9  10  1   
 17  10  11  1   
 18  10  12  2   
 19  11  13  1   
 20  12  14  1   
 21  12  15  1   
 22  13  14  2   
 23  14  16  1   
 24  15  17  2   
 25  15  18  am  
 26  16  19  1   
 27  16  20  1   
 28  18  21  1   
 29  18  33  1   
 30  19  34  1   
 31  19  35  1   
 32  19  36  1   
 33  20  37  1   
 34  20  38  1   
 35  20  39  1   
 36  21  22  1   
 37  21  40  1   
 38  21  41  1   
 39  22  23  1   
 40  22  24  1   
 41  22  42  1   
 42  23  25  1   
 43  24  26  1   
 44  24  43  1   
 45  24  44  1   
 46  25  26  1   
 47  25  45  1   
 48  25  46  1   
 49  26  47  1   
 50  26  48  1   
@<TRIPOS>SUBSTRUCTURE
  1 ****  12 GROUP 4 **** **** 0

# MOE 2024.06 (io_trps.svl 2023.06)
