@<TRIPOS>MOLECULE
NONAME
30 32 1 0 0 
SMALL
USER_CHARGES


@<TRIPOS>ATOM
  1 S        0.8500     1.5260     1.4870 S.3   1 <1>  -0.2860 
  2 C       -0.8760     1.8220     1.2590 C.2   1 <1>   0.2420 
  3 C        1.2790     1.9640    -0.2580 C.3   1 <1>   0.0700 
  4 N       -1.8680     1.7290     2.0750 N.2   1 <1>  -0.5650 
  5 N       -1.1520     2.2020     0.0130 N.pl3 1 <1>   0.0480 
  6 C       -0.0530     2.3230    -0.9660 C.3   1 <1>   0.0960 
  7 C       -2.9060     2.0880     1.2780 C.2   1 <1>   0.0460 
  8 C       -2.4830     2.3760     0.0180 C.2   1 <1>  -0.3020 
  9 C       -4.3330     2.1260     1.8180 C.3   1 <1>   0.3210 
 10 N       -5.3360     2.1870     0.7120 N.am  1 <1>  -0.4690 
 11 C       -5.8550     3.4380     0.3460 C.2   1 <1>   0.6160 
 12 C       -5.6790     1.0600    -0.0440 C.2   1 <1>  -0.0290 
 13 O       -5.5580     4.4370     1.0320 O.2   1 <1>  -0.5700 
 14 C       -6.6830     3.5390    -0.7670 C.2   1 <1>  -0.1360 
 15 C       -6.4920     1.1780    -1.1250 C.2   1 <1>  -0.1500 
 16 C       -5.1270    -0.3010     0.3510 C.3   1 <1>  -0.1020 
 17 C       -7.0190     2.4330    -1.5290 C.2   1 <1>  -0.1500 
 18 O       -7.7490     2.5110    -2.5300 O.3   1 <1>  -0.8500 
 19 H        1.7550     1.1090    -0.7030 H     1 <1>   0.0800 
 20 H        1.9560     2.7990    -0.2270 H     1 <1>   0.0800 
 21 H       -0.2390     1.6510    -1.7830 H     1 <1>   0.0800 
 22 H       -0.0250     3.3320    -1.3340 H     1 <1>   0.0800 
 23 H       -3.0580     2.6840    -0.8390 H     1 <1>   0.1500 
 24 H       -4.4350     2.9680     2.4770 H     1 <1>   0.0800 
 25 H       -4.5080     1.2460     2.4070 H     1 <1>   0.0800 
 26 H       -7.0740     4.4930    -1.0480 H     1 <1>   0.1500 
 27 H       -6.7830     0.3470    -1.7380 H     1 <1>   0.1500 
 28 H       -4.0530    -0.2920     0.3220 H     1 <1>   0.0800 
 29 H       -5.4740    -1.0550    -0.3310 H     1 <1>   0.0800 
 30 H       -5.4590    -0.5620     1.3380 H     1 <1>   0.0800 
@<TRIPOS>BOND
  1   1   2  1   
  2   1   3  1   
  3   2   4  2   
  4   2   5  1   
  5   3   6  1   
  6   3  19  1   
  7   3  20  1   
  8   4   7  1   
  9   5   6  1   
 10   5   8  1   
 11   6  21  1   
 12   6  22  1   
 13   7   8  2   
 14   7   9  1   
 15   8  23  1   
 16   9  10  1   
 17   9  24  1   
 18   9  25  1   
 19  10  11  am  
 20  10  12  1   
 21  11  13  2   
 22  11  14  1   
 23  12  15  2   
 24  12  16  1   
 25  14  17  2   
 26  14  26  1   
 27  15  17  1   
 28  15  27  1   
 29  16  28  1   
 30  16  29  1   
 31  16  30  1   
 32  17  18  1   
@<TRIPOS>SUBSTRUCTURE
  1 ****   8 GROUP 4 **** **** 0

# MOE 2024.06 (io_trps.svl 2023.06)
