@<TRIPOS>MOLECULE
NONAME
65 68 1 0 0 
SMALL
USER_CHARGES


@<TRIPOS>ATOM
  1 O       -1.2030     0.2470     0.0080 O.3   1 <1>  -0.3630 
  2 C       -1.8440    -0.6050     0.8470 C.ar  1 <1>   0.0830 
  3 C       -0.7570     1.5080     0.4500 C.3   1 <1>   0.1200 
  4 C       -2.0480    -1.8960     0.3870 C.ar  1 <1>  -0.1500 
  5 C       -2.2880    -0.2520     2.1180 C.ar  1 <1>  -0.1500 
  6 C        0.0460     2.1420    -0.6920 C.3   1 <1>   0.3430 
  7 C       -2.6840    -2.8390     1.1800 C.ar  1 <1>  -0.1440 
  8 C       -2.9160    -1.1920     2.9140 C.ar  1 <1>  -0.1500 
  9 N        0.5680     3.5080    -0.3580 N.4   1 <1>  -0.9590 
 10 C       -3.1100    -2.4820     2.4520 C.ar  1 <1>  -0.1500 
 11 C       -2.9050    -4.2470     0.6640 C.3   1 <1>   0.4860 
 12 C        1.0860     4.1700    -1.5930 C.3   1 <1>   0.3430 
 13 C        1.6150     3.4750     0.7110 C.3   1 <1>   0.3430 
 14 N       -4.0610    -4.2780    -0.2830 N.4   1 <1>  -0.9590 
 15 C        1.4820     5.6140    -1.2790 C.3   1 <1>  -0.1600 
 16 C        2.0230     4.9030     1.0780 C.3   1 <1>  -0.1600 
 17 C       -5.3630    -4.0560     0.4350 C.3   1 <1>   0.4230 
 18 C       -3.9630    -5.5150    -1.1220 C.3   1 <1>   0.2630 
 19 C        2.5130     5.6860    -0.1460 C.3   1 <1>  -0.1600 
 20 C       -6.5610    -4.7990    -0.1690 C.3   1 <1>  -0.1600 
 21 C       -5.7870    -2.5990     0.2380 C.3   1 <1>  -0.1600 
 22 C       -6.9970    -3.9750    -1.3900 C.3   1 <1>  -0.0800 
 23 C       -6.5000    -2.5480    -1.1230 C.3   1 <1>  -0.0800 
 24 C       -8.5200    -3.8840    -1.5760 C.3   1 <1>  -0.1600 
 25 C       -7.7370    -1.6360    -1.1540 C.3   1 <1>  -0.1600 
 26 C       -8.9490    -2.5460    -0.9830 C.3   1 <1>   0.2000 
 27 O       -9.1760    -2.7200     0.3640 O.3   1 <1>  -0.6800 
 28 H       -1.6200     2.1030     0.6880 H     1 <1>   0.0800 
 29 H       -0.1420     1.3540     1.3190 H     1 <1>   0.0800 
 30 H       -1.6940    -2.1450    -0.5980 H     1 <1>   0.1500 
 31 H       -2.1590     0.7400     2.5090 H     1 <1>   0.1500 
 32 H       -0.5990     2.2100    -1.5530 H     1 <1>   0.0800 
 33 H        0.8710     1.4930    -0.9400 H     1 <1>   0.0800 
 34 H       -3.2530    -0.9190     3.9020 H     1 <1>   0.1500 
 35 H       -0.2060     4.0930    -0.0170 H     1 <1>   0.4500 
 36 H       -3.5930    -3.1960     3.0980 H     1 <1>   0.1500 
 37 H       -3.0810    -4.9190     1.4880 H     1 <1>   0.0800 
 38 H       -2.0090    -4.5670     0.1580 H     1 <1>   0.0800 
 39 H        1.9470     3.6340    -1.9620 H     1 <1>   0.0800 
 40 H        0.3300     4.1670    -2.3620 H     1 <1>   0.0800 
 41 H        1.2380     2.9780     1.5910 H     1 <1>   0.0800 
 42 H        2.4790     2.9340     0.3600 H     1 <1>   0.0800 
 43 H       -3.9500    -3.4610    -0.8970 H     1 <1>   0.4500 
 44 H        1.8960     6.0650    -2.1640 H     1 <1>   0.0800 
 45 H        0.6040     6.1770    -1.0140 H     1 <1>   0.0800 
 46 H        1.1870     5.4100     1.5290 H     1 <1>   0.0800 
 47 H        2.8090     4.8660     1.8130 H     1 <1>   0.0800 
 48 H       -5.2580    -4.2950     1.4810 H     1 <1>   0.0800 
 49 H       -4.1000    -6.3940    -0.5130 H     1 <1>   0.0800 
 50 H       -2.9970    -5.5720    -1.5990 H     1 <1>   0.0800 
 51 H       -4.7170    -5.5080    -1.8920 H     1 <1>   0.0800 
 52 H        2.6910     6.7150     0.1240 H     1 <1>   0.0800 
 53 H        3.4490     5.2730    -0.4850 H     1 <1>   0.0800 
 54 H       -6.3880    -5.8340    -0.3960 H     1 <1>   0.0800 
 55 H       -7.3480    -4.7790     0.5650 H     1 <1>   0.0800 
 56 H       -6.4810    -2.3470     1.0200 H     1 <1>   0.0800 
 57 H       -4.9790    -1.8930     0.2890 H     1 <1>   0.0800 
 58 H       -6.5420    -4.3660    -2.2850 H     1 <1>   0.0800 
 59 H       -5.8040    -2.2480    -1.8900 H     1 <1>   0.0800 
 60 H       -9.0610    -4.7130    -1.1520 H     1 <1>   0.0800 
 61 H       -8.7320    -3.8560    -2.6310 H     1 <1>   0.0800 
 62 H       -7.8020    -1.1860    -2.1290 H     1 <1>   0.0800 
 63 H       -7.7120    -0.8430    -0.4260 H     1 <1>   0.0800 
 64 H       -9.8470    -2.1520    -1.4290 H     1 <1>   0.0800 
 65 H       -8.3510    -2.9860     0.8010 H     1 <1>   0.4000 
@<TRIPOS>BOND
  1   1   2  1   
  2   1   3  1   
  3   2   4  ar  
  4   2   5  ar  
  5   3   6  1   
  6   3  28  1   
  7   3  29  1   
  8   4   7  ar  
  9   4  30  1   
 10   5   8  ar  
 11   5  31  1   
 12   6   9  1   
 13   6  32  1   
 14   6  33  1   
 15   7  10  ar  
 16   7  11  1   
 17   8  10  ar  
 18   8  34  1   
 19   9  12  1   
 20   9  13  1   
 21   9  35  1   
 22  10  36  1   
 23  11  14  1   
 24  11  37  1   
 25  11  38  1   
 26  12  15  1   
 27  12  39  1   
 28  12  40  1   
 29  13  16  1   
 30  13  41  1   
 31  13  42  1   
 32  14  17  1   
 33  14  18  1   
 34  14  43  1   
 35  15  19  1   
 36  15  44  1   
 37  15  45  1   
 38  16  19  1   
 39  16  46  1   
 40  16  47  1   
 41  17  20  1   
 42  17  21  1   
 43  17  48  1   
 44  18  49  1   
 45  18  50  1   
 46  18  51  1   
 47  19  52  1   
 48  19  53  1   
 49  20  22  1   
 50  20  54  1   
 51  20  55  1   
 52  21  23  1   
 53  21  56  1   
 54  21  57  1   
 55  22  23  1   
 56  22  24  1   
 57  22  58  1   
 58  23  25  1   
 59  23  59  1   
 60  24  26  1   
 61  24  60  1   
 62  24  61  1   
 63  25  26  1   
 64  25  62  1   
 65  25  63  1   
 66  26  27  1   
 67  26  64  1   
 68  27  65  1   
@<TRIPOS>SUBSTRUCTURE
  1 ****   2 GROUP 4 **** **** 0

# MOE 2024.06 (io_trps.svl 2023.06)
