@<TRIPOS>MOLECULE
NONAME
60 62 1 0 0 
SMALL
USER_CHARGES


@<TRIPOS>ATOM
  1 O        1.7530     0.9310     0.0190 O.2   1 <1>  -0.5700 
  2 C        2.4390     0.0500    -0.4450 C.2   1 <1>   0.5690 
  3 N        3.0070     0.2150    -1.6910 N.am  1 <1>  -0.6600 
  4 C        2.6270    -1.2500     0.3970 C.3   1 <1>   0.4840 
  5 C        4.2280    -0.4990    -2.2000 C.3   1 <1>   0.1400 
  6 C        2.4090     1.1800    -2.6710 C.3   1 <1>   0.1400 
  7 N        1.3960    -1.6640     1.1810 N.4   1 <1>  -0.9590 
  8 C        3.8450    -1.1540     1.3270 C.3   1 <1>  -0.2400 
  9 C        5.5150     0.3340    -1.9890 C.3   1 <1>   0.3430 
 10 C        3.1100     2.5470    -2.6540 C.3   1 <1>  -0.1600 
 11 C        1.1080    -0.7900     2.3640 C.3   1 <1>   0.3430 
 12 C        1.4090    -3.1090     1.5550 C.3   1 <1>   0.3430 
 13 N        5.2150     1.7740    -1.7120 N.4   1 <1>  -0.9590 
 14 C        4.6260     2.5060    -2.8550 C.3   1 <1>   0.3430 
 15 C       -0.2610    -1.1470     2.9450 C.3   1 <1>  -0.1600 
 16 C        0.0450    -3.5080     2.1200 C.3   1 <1>  -0.1600 
 17 C        6.3130     2.4820    -1.0200 C.3   1 <1>   0.5240 
 18 C       -0.3550    -2.6320     3.3140 C.3   1 <1>  -0.1600 
 19 C        6.1320     2.1100     0.4300 C.2   1 <1>  -0.1810 
 20 C        6.8000     1.1320     1.1610 C.2   1 <1>   0.1080 
 21 C        5.2480     2.6450     1.3020 C.2   1 <1>  -0.3020 
 22 N        6.3410     1.0420     2.3660 N.2   1 <1>  -0.7070 
 23 C        7.9390     0.2440     0.7040 C.3   1 <1>  -0.0590 
 24 N        5.4080     1.9990     2.4710 N.pl3 1 <1>   0.3140 
 25 C        4.7250     2.2810     3.7410 C.3   1 <1>   0.0160 
 26 H        2.8260    -2.0310    -0.3150 H     1 <1>   0.0800 
 27 H        4.1110    -0.6970    -3.2520 H     1 <1>   0.0800 
 28 H        4.3450    -1.4530    -1.7190 H     1 <1>   0.0800 
 29 H        1.3650     1.3250    -2.4410 H     1 <1>   0.0800 
 30 H        2.4530     0.7600    -3.6630 H     1 <1>   0.0800 
 31 H        0.5930    -1.5210     0.5540 H     1 <1>   0.4500 
 32 H        3.7500    -0.3280     2.0070 H     1 <1>   0.0800 
 33 H        4.7350    -0.9870     0.7500 H     1 <1>   0.0800 
 34 H        3.9880    -2.0610     1.8850 H     1 <1>   0.0800 
 35 H        6.1580     0.2400    -2.8490 H     1 <1>   0.0800 
 36 H        6.0410    -0.0820    -1.1460 H     1 <1>   0.0800 
 37 H        2.8770     3.0540    -1.7330 H     1 <1>   0.0800 
 38 H        2.6850     3.1420    -3.4430 H     1 <1>   0.0800 
 39 H        1.1080     0.2490     2.0750 H     1 <1>   0.0800 
 40 H        1.8640    -0.9330     3.1190 H     1 <1>   0.0800 
 41 H        2.1690    -3.2880     2.2990 H     1 <1>   0.0800 
 42 H        1.6280    -3.7170     0.6920 H     1 <1>   0.0800 
 43 H        4.4610     1.7550    -1.0060 H     1 <1>   0.4500 
 44 H        5.0030     3.5170    -2.8840 H     1 <1>   0.0800 
 45 H        4.8730     2.0230    -3.7870 H     1 <1>   0.0800 
 46 H       -1.0280    -0.8940     2.2320 H     1 <1>   0.0800 
 47 H       -0.4350    -0.5500     3.8240 H     1 <1>   0.0800 
 48 H        0.0810    -4.5380     2.4330 H     1 <1>   0.0800 
 49 H       -0.6990    -3.4350     1.3460 H     1 <1>   0.0800 
 50 H        6.2040     3.5490    -1.1270 H     1 <1>   0.0800 
 51 H        7.2780     2.1810    -1.3930 H     1 <1>   0.0800 
 52 H       -1.3590    -2.8710     3.6240 H     1 <1>   0.0800 
 53 H        0.3000    -2.8370     4.1460 H     1 <1>   0.0800 
 54 H        4.5330     3.4390     1.1770 H     1 <1>   0.1500 
 55 H        8.2950     0.5220    -0.2690 H     1 <1>   0.0800 
 56 H        7.6200    -0.7820     0.6920 H     1 <1>   0.0800 
 57 H        8.7520     0.3330     1.4020 H     1 <1>   0.0800 
 58 H        3.7130     2.5840     3.5480 H     1 <1>   0.0800 
 59 H        5.2500     3.0660     4.2520 H     1 <1>   0.0800 
 60 H        4.7320     1.3950     4.3490 H     1 <1>   0.0800 
@<TRIPOS>BOND
  1   1   2  2   
  2   2   3  am  
  3   2   4  1   
  4   3   5  1   
  5   3   6  1   
  6   4   7  1   
  7   4   8  1   
  8   4  26  1   
  9   5   9  1   
 10   5  27  1   
 11   5  28  1   
 12   6  10  1   
 13   6  29  1   
 14   6  30  1   
 15   7  11  1   
 16   7  12  1   
 17   7  31  1   
 18   8  32  1   
 19   8  33  1   
 20   8  34  1   
 21   9  13  1   
 22   9  35  1   
 23   9  36  1   
 24  10  14  1   
 25  10  37  1   
 26  10  38  1   
 27  11  15  1   
 28  11  39  1   
 29  11  40  1   
 30  12  16  1   
 31  12  41  1   
 32  12  42  1   
 33  13  14  1   
 34  13  17  1   
 35  13  43  1   
 36  14  44  1   
 37  14  45  1   
 38  15  18  1   
 39  15  46  1   
 40  15  47  1   
 41  16  18  1   
 42  16  48  1   
 43  16  49  1   
 44  17  19  1   
 45  17  50  1   
 46  17  51  1   
 47  18  52  1   
 48  18  53  1   
 49  19  20  1   
 50  19  21  2   
 51  20  22  2   
 52  20  23  1   
 53  21  24  1   
 54  21  54  1   
 55  22  24  1   
 56  23  55  1   
 57  23  56  1   
 58  23  57  1   
 59  24  25  1   
 60  25  58  1   
 61  25  59  1   
 62  25  60  1   
@<TRIPOS>SUBSTRUCTURE
  1 ****   2 GROUP 4 **** **** 0

# MOE 2024.06 (io_trps.svl 2023.06)
