@<TRIPOS>MOLECULE
NONAME
40 41 1 0 0 
SMALL
USER_CHARGES


@<TRIPOS>ATOM
  1 CL      -1.4040    -0.2680     1.5330 Cl    1 <1>  -0.1770 
  2 C       -2.1950    -1.2960     0.3530 C.ar  1 <1>   0.1770 
  3 C       -2.7220    -0.8270    -0.8580 C.ar  1 <1>   0.0820 
  4 C       -2.2950    -2.6290     0.6990 C.ar  1 <1>  -0.1500 
  5 O       -2.6870     0.4440    -1.3340 O.3   1 <1>  -0.3630 
  6 C       -3.3590    -1.7410    -1.6860 C.ar  1 <1>  -0.1500 
  7 C       -2.9310    -3.5460    -0.1330 C.ar  1 <1>   0.0860 
  8 C       -1.7540     1.4140    -0.9160 C.3   1 <1>   0.0400 
  9 C       -3.4590    -3.0730    -1.3320 C.ar  1 <1>  -0.1500 
 10 C       -3.0460    -4.9400     0.2350 C.2   1 <1>   0.5440 
 11 O       -2.2780    -5.7430    -0.2590 O.2   1 <1>  -0.5700 
 12 N       -3.9880    -5.3710     1.1420 N.am  1 <1>  -0.6600 
 13 C       -4.1500    -6.8290     1.4380 C.3   1 <1>   0.3210 
 14 C       -5.0040    -4.4710     1.7810 C.3   1 <1>   0.1400 
 15 C       -5.3870    -7.3900     0.7440 C.2   1 <1>   0.0460 
 16 C       -6.0160    -3.8380     0.8030 C.3   1 <1>   0.1200 
 17 N       -6.6140    -7.2630     1.2960 N.2   1 <1>  -0.5650 
 18 C       -5.4630    -8.0290    -0.4480 C.2   1 <1>  -0.3320 
 19 O       -6.3760    -4.7160    -0.2080 O.3   1 <1>  -0.6800 
 20 C       -7.4010    -7.8300     0.4410 C.2   1 <1>   0.0360 
 21 N       -6.7630    -8.3160    -0.6430 N.pl3 1 <1>   0.0330 
 22 C       -4.3800    -8.3790    -1.4530 C.3   1 <1>  -0.0600 
 23 H       -1.8750    -2.9680     1.6290 H     1 <1>   0.1500 
 24 H       -3.7770    -1.3980    -2.6160 H     1 <1>   0.1500 
 25 H       -1.7550     2.2090    -1.6380 H     1 <1>   0.0800 
 26 H       -0.7760     0.9670    -0.8670 H     1 <1>   0.0800 
 27 H       -2.0550     1.7990     0.0420 H     1 <1>   0.0800 
 28 H       -3.9590    -3.7700    -1.9850 H     1 <1>   0.1500 
 29 H       -4.2440    -6.9720     2.4990 H     1 <1>   0.0800 
 30 H       -3.2840    -7.3790     1.1170 H     1 <1>   0.0800 
 31 H       -4.4960    -3.6860     2.3130 H     1 <1>   0.0800 
 32 H       -5.5580    -5.0310     2.5150 H     1 <1>   0.0800 
 33 H       -5.6090    -2.9550     0.3440 H     1 <1>   0.0800 
 34 H       -6.9090    -3.5600     1.3340 H     1 <1>   0.0800 
 35 H       -6.3750    -5.6400     0.1540 H     1 <1>   0.4000 
 36 H       -8.4670    -7.9140     0.5600 H     1 <1>   0.1500 
 37 H       -7.1830    -8.7900    -1.4470 H     1 <1>   0.2700 
 38 H       -3.4180    -8.0430    -1.1100 H     1 <1>   0.0800 
 39 H       -4.5820    -7.9000    -2.3950 H     1 <1>   0.0800 
 40 H       -4.3360    -9.4430    -1.6020 H     1 <1>   0.0800 
@<TRIPOS>BOND
  1   1   2  1   
  2   2   3  ar  
  3   2   4  ar  
  4   3   5  1   
  5   3   6  ar  
  6   4   7  ar  
  7   4  23  1   
  8   5   8  1   
  9   6   9  ar  
 10   6  24  1   
 11   7   9  ar  
 12   7  10  1   
 13   8  25  1   
 14   8  26  1   
 15   8  27  1   
 16   9  28  1   
 17  10  11  2   
 18  10  12  am  
 19  12  13  1   
 20  12  14  1   
 21  13  15  1   
 22  13  29  1   
 23  13  30  1   
 24  14  16  1   
 25  14  31  1   
 26  14  32  1   
 27  15  17  1   
 28  15  18  2   
 29  16  19  1   
 30  16  33  1   
 31  16  34  1   
 32  17  20  2   
 33  18  21  1   
 34  18  22  1   
 35  19  35  1   
 36  20  21  1   
 37  20  36  1   
 38  21  37  1   
 39  22  38  1   
 40  22  39  1   
 41  22  40  1   
@<TRIPOS>SUBSTRUCTURE
  1 ****  10 GROUP 4 **** **** 0

# MOE 2024.06 (io_trps.svl 2023.06)
