@<TRIPOS>MOLECULE
NONAME
55 57 1 0 0 
SMALL
USER_CHARGES


@<TRIPOS>ATOM
  1 O        0.2880     0.5580     1.3280 O.2   1 <1>  -0.5700 
  2 C       -0.0520     1.4790     0.6120 C.2   1 <1>   0.5440 
  3 N       -1.3870     1.6340     0.3700 N.am  1 <1>  -0.7300 
  4 C        0.9270     2.3600    -0.0010 C.ar  1 <1>   0.0860 
  5 C       -2.4740     0.8410     1.0040 C.3   1 <1>   0.2200 
  6 C        2.2250     1.9180    -0.2590 C.ar  1 <1>  -0.1500 
  7 C        0.6170     3.6750    -0.3580 C.ar  1 <1>  -0.1500 
  8 C       -2.6500    -0.5340     0.3230 C.3   1 <1>   0.2000 
  9 C       -3.7650     1.6650     0.9560 C.3   1 <1>  -0.1600 
 10 C        3.1650     2.7390    -0.8540 C.ar  1 <1>  -0.1500 
 11 C        1.5520     4.5020    -0.9540 C.ar  1 <1>  -0.1500 
 12 O       -1.5280    -1.3220     0.5500 O.3   1 <1>  -0.6800 
 13 C       -3.8820    -1.2760     0.8580 C.3   1 <1>   0.2090 
 14 C       -4.9280     0.8780     1.5600 C.3   1 <1>   0.2090 
 15 C        2.8290     4.0340    -1.2050 C.ar  1 <1>  -0.1500 
 16 N       -5.1020    -0.3930     0.8020 N.pl3 1 <1>  -0.8380 
 17 C       -6.2720    -0.8160     0.2510 C.ar  1 <1>   0.4100 
 18 N       -6.4780    -2.1160     0.1790 N.ar  1 <1>  -0.6200 
 19 C       -7.2320     0.0970    -0.2290 C.ar  1 <1>  -0.1500 
 20 C       -7.6170    -2.5570    -0.3330 C.ar  1 <1>   0.7710 
 21 C       -8.3950    -0.3690    -0.7440 C.ar  1 <1>   0.2180 
 22 N       -8.5610    -1.7110    -0.7760 N.ar  1 <1>  -0.1790 
 23 N       -7.8430    -3.8990    -0.4120 N.pl3 1 <1>  -0.8380 
 24 C       -9.5010     0.5300    -1.2850 C.3   1 <1>  -0.0170 
 25 C       -6.8850    -4.8760     0.2090 C.3   1 <1>   0.1290 
 26 C       -8.9530    -4.5880    -1.1440 C.3   1 <1>   0.1290 
 27 C      -10.7940     0.4090    -0.4690 C.3   1 <1>  -0.2400 
 28 H       -1.6770     2.2500    -0.3890 H     1 <1>   0.3700 
 29 H       -2.2220     0.6700     2.0390 H     1 <1>   0.0800 
 30 H        2.4970     0.9120     0.0140 H     1 <1>   0.1500 
 31 H       -0.3660     4.0630    -0.1590 H     1 <1>   0.1500 
 32 H       -2.7510    -0.4060    -0.7400 H     1 <1>   0.0800 
 33 H       -3.6290     2.5710     1.5180 H     1 <1>   0.0800 
 34 H       -4.0090     1.9190    -0.0600 H     1 <1>   0.0800 
 35 H        4.1600     2.3710    -1.0430 H     1 <1>   0.1500 
 36 H        1.2910     5.5110    -1.2220 H     1 <1>   0.1500 
 37 H       -0.7610    -0.7330     0.7830 H     1 <1>   0.4000 
 38 H       -3.7100    -1.5690     1.8790 H     1 <1>   0.0800 
 39 H       -4.0200    -2.1650     0.2680 H     1 <1>   0.0800 
 40 H       -5.8250     1.4700     1.5470 H     1 <1>   0.0800 
 41 H       -4.7120     0.6430     2.5900 H     1 <1>   0.0800 
 42 H        3.5590     4.6750    -1.6690 H     1 <1>   0.1500 
 43 H       -7.0190     1.1470    -0.1890 H     1 <1>   0.1500 
 44 H       -9.4090    -2.1430    -1.1130 H     1 <1>   0.4570 
 45 H       -9.1720     1.5550    -1.2580 H     1 <1>   0.0800 
 46 H       -9.6960     0.2850    -2.3150 H     1 <1>   0.0800 
 47 H       -7.4140    -5.7420     0.5700 H     1 <1>   0.0800 
 48 H       -6.3640    -4.4380     1.0440 H     1 <1>   0.0800 
 49 H       -6.1600    -5.1900    -0.5220 H     1 <1>   0.0800 
 50 H       -8.5590    -5.4330    -1.6850 H     1 <1>   0.0800 
 51 H       -9.4280    -3.9390    -1.8570 H     1 <1>   0.0800 
 52 H       -9.6860    -4.9470    -0.4410 H     1 <1>   0.0800 
 53 H      -10.6130     0.6510     0.5650 H     1 <1>   0.0800 
 54 H      -11.2080    -0.5820    -0.5260 H     1 <1>   0.0800 
 55 H      -11.5290     1.0990    -0.8480 H     1 <1>   0.0800 
@<TRIPOS>BOND
  1   1   2  2   
  2   2   3  am  
  3   2   4  1   
  4   3   5  1   
  5   3  28  1   
  6   4   6  ar  
  7   4   7  ar  
  8   5   8  1   
  9   5   9  1   
 10   5  29  1   
 11   6  10  ar  
 12   6  30  1   
 13   7  11  ar  
 14   7  31  1   
 15   8  12  1   
 16   8  13  1   
 17   8  32  1   
 18   9  14  1   
 19   9  33  1   
 20   9  34  1   
 21  10  15  ar  
 22  10  35  1   
 23  11  15  ar  
 24  11  36  1   
 25  12  37  1   
 26  13  16  1   
 27  13  38  1   
 28  13  39  1   
 29  14  16  1   
 30  14  40  1   
 31  14  41  1   
 32  15  42  1   
 33  16  17  1   
 34  17  18  ar  
 35  17  19  ar  
 36  18  20  ar  
 37  19  21  ar  
 38  19  43  1   
 39  20  22  ar  
 40  20  23  1   
 41  21  22  ar  
 42  21  24  1   
 43  22  44  1   
 44  23  25  1   
 45  23  26  1   
 46  24  27  1   
 47  24  45  1   
 48  24  46  1   
 49  25  47  1   
 50  25  48  1   
 51  25  49  1   
 52  26  50  1   
 53  26  51  1   
 54  26  52  1   
 55  27  53  1   
 56  27  54  1   
 57  27  55  1   
@<TRIPOS>SUBSTRUCTURE
  1 ****   8 GROUP 4 **** **** 0

# MOE 2024.06 (io_trps.svl 2023.06)
