@<TRIPOS>MOLECULE
NONAME
33 34 1 0 0 
SMALL
USER_CHARGES


@<TRIPOS>ATOM
  1 S        0.5420     0.5120     0.5370 S.3   1 <1>  -0.4600 
  2 C       -0.1150    -1.1240     0.1250 C.3   1 <1>   0.1500 
  3 C        1.7080     0.8740    -0.8280 C.3   1 <1>   0.1310 
  4 C       -1.3970    -1.3010     0.9330 C.3   1 <1>  -0.2400 
  5 C        0.9450    -2.1610     0.4890 C.3   1 <1>  -0.2400 
  6 C        2.3090     2.2700    -0.7080 C.2   1 <1>   0.5690 
  7 O        3.0810     2.6300    -1.5630 O.2   1 <1>  -0.5700 
  8 N        1.9480     3.0610     0.3410 N.am  1 <1>  -0.4940 
  9 C        2.2580     4.3930     0.6390 C.2   1 <1>   0.2510 
 10 N        1.4120     5.1390     1.2760 N.2   1 <1>  -0.3380 
 11 N        3.3990     5.0610     0.3540 N.pl3 1 <1>   0.3340 
 12 N        1.9600     6.3450     1.4150 N.2   1 <1>  -0.3380 
 13 C        3.1390     6.2980     0.8670 C.2   1 <1>   0.3120 
 14 C        4.6590     4.7990    -0.1750 C.2   1 <1>  -0.1810 
 15 N        4.0410     7.3390     0.8110 N.2   1 <1>  -0.5760 
 16 C        5.5540     5.8160    -0.2180 C.2   1 <1>  -0.1360 
 17 C        5.1910     7.0960     0.2860 C.2   1 <1>   0.3750 
 18 C        6.2080     8.2130     0.2030 C.3   1 <1>  -0.1790 
 19 H       -0.3270    -1.1340    -0.9310 H     1 <1>   0.0800 
 20 H        1.1620     0.7870    -1.7490 H     1 <1>   0.0800 
 21 H        2.4870     0.1360    -0.7930 H     1 <1>   0.0800 
 22 H       -1.1900    -1.2380     1.9860 H     1 <1>   0.0800 
 23 H       -1.8370    -2.2600     0.7240 H     1 <1>   0.0800 
 24 H       -2.1060    -0.5360     0.6720 H     1 <1>   0.0800 
 25 H        1.2010    -2.0850     1.5320 H     1 <1>   0.0800 
 26 H        1.8330    -2.0210    -0.0990 H     1 <1>   0.0800 
 27 H        0.5700    -3.1510     0.3010 H     1 <1>   0.0800 
 28 H        1.1960     2.6750     0.9200 H     1 <1>   0.3700 
 29 H        4.8620     3.8040    -0.5230 H     1 <1>   0.1500 
 30 H        6.5430     5.6880    -0.6220 H     1 <1>   0.1500 
 31 H        6.4750     8.3890    -0.8230 H     1 <1>   0.0800 
 32 H        7.0870     7.9500     0.7610 H     1 <1>   0.0800 
 33 H        5.7980     9.1190     0.6120 H     1 <1>   0.0800 
@<TRIPOS>BOND
  1   1   2  1   
  2   1   3  1   
  3   2   4  1   
  4   2   5  1   
  5   2  19  1   
  6   3   6  1   
  7   3  20  1   
  8   3  21  1   
  9   4  22  1   
 10   4  23  1   
 11   4  24  1   
 12   5  25  1   
 13   5  26  1   
 14   5  27  1   
 15   6   7  2   
 16   6   8  am  
 17   8   9  1   
 18   8  28  1   
 19   9  10  2   
 20   9  11  1   
 21  10  12  1   
 22  11  13  1   
 23  11  14  1   
 24  12  13  2   
 25  13  15  1   
 26  14  16  2   
 27  14  29  1   
 28  15  17  2   
 29  16  17  1   
 30  16  30  1   
 31  17  18  1   
 32  18  31  1   
 33  18  32  1   
 34  18  33  1   
@<TRIPOS>SUBSTRUCTURE
  1 ****   8 GROUP 4 **** **** 0

# MOE 2024.06 (io_trps.svl 2023.06)
