@<TRIPOS>MOLECULE
NONAME
48 50 1 0 0 
SMALL
USER_CHARGES


@<TRIPOS>ATOM
  1 F        0.9190     1.5260    -0.5040 F     1 <1>  -0.1900 
  2 C       -0.2740     1.8020    -0.0440 C.ar  1 <1>   0.1900 
  3 C       -0.9250     2.9530    -0.4790 C.ar  1 <1>  -0.1440 
  4 C       -0.8270     0.9300     0.8750 C.ar  1 <1>  -0.1500 
  5 C       -2.1850     3.2310     0.0400 C.ar  1 <1>  -0.1500 
  6 C       -0.3110     3.9010    -1.5080 C.3   1 <1>   0.0450 
  7 C       -2.0780     1.2460     1.3650 C.ar  1 <1>   0.1900 
  8 C       -2.7660     2.3780     0.9670 C.ar  1 <1>  -0.1500 
  9 C       -0.1730     5.3330    -1.0020 C.2   1 <1>   0.5690 
 10 F       -2.6310     0.4470     2.2360 F     1 <1>  -0.1900 
 11 O       -0.8740     6.1610    -1.5290 O.2   1 <1>  -0.5700 
 12 N        0.7340     5.6880    -0.0250 N.am  1 <1>  -0.6600 
 13 C        1.7490     4.7690     0.5660 C.3   1 <1>   0.1400 
 14 C        0.7420     7.0720     0.5310 C.3   1 <1>   0.1400 
 15 C        3.0250     4.7310    -0.2970 C.3   1 <1>   0.3430 
 16 C        2.1180     7.7360     0.3940 C.3   1 <1>  -0.1600 
 17 N        3.7580     6.0420    -0.3840 N.4   1 <1>  -0.9590 
 18 C        2.9390     7.2270    -0.7920 C.3   1 <1>   0.3430 
 19 C        4.9690     5.9260    -1.2380 C.3   1 <1>   0.5230 
 20 C        5.9040     7.0520    -0.8500 C.2   1 <1>  -0.0400 
 21 O        6.1520     7.2330     0.4340 O.3   1 <1>  -0.2800 
 22 C        6.5590     7.9700    -1.5940 C.2   1 <1>  -0.1500 
 23 C        6.9700     8.2600     0.5410 C.2   1 <1>  -0.0400 
 24 C        7.2600     8.7620    -0.6770 C.2   1 <1>  -0.1500 
 25 C        7.4340     8.6890     1.9170 C.3   1 <1>  -0.0600 
 26 H       -0.3110     0.0450     1.1960 H     1 <1>   0.1500 
 27 H       -2.7210     4.1130    -0.2760 H     1 <1>   0.1500 
 28 H       -0.9530     3.9100    -2.3720 H     1 <1>   0.0800 
 29 H        0.6460     3.5560    -1.8440 H     1 <1>   0.0800 
 30 H       -3.7400     2.5850     1.3750 H     1 <1>   0.1500 
 31 H        1.3450     3.7790     0.6430 H     1 <1>   0.0800 
 32 H        1.9920     5.0810     1.5670 H     1 <1>   0.0800 
 33 H        0.4470     7.0440     1.5670 H     1 <1>   0.0800 
 34 H        0.0150     7.6810     0.0170 H     1 <1>   0.0800 
 35 H        2.7510     4.4060    -1.2860 H     1 <1>   0.0800 
 36 H        3.6870     3.9860     0.1160 H     1 <1>   0.0800 
 37 H        2.6730     7.6370     1.3090 H     1 <1>   0.0800 
 38 H        1.9460     8.7890     0.2570 H     1 <1>   0.0800 
 39 H        4.1510     6.2760     0.5410 H     1 <1>   0.4500 
 40 H        3.5970     8.0230    -1.1040 H     1 <1>   0.0800 
 41 H        2.2900     6.9830    -1.6190 H     1 <1>   0.0800 
 42 H        4.7140     5.9850    -2.2830 H     1 <1>   0.0800 
 43 H        5.4670     4.9890    -1.0500 H     1 <1>   0.0800 
 44 H        6.5780     8.1100    -2.6620 H     1 <1>   0.1500 
 45 H        7.8960     9.5940    -0.9280 H     1 <1>   0.1500 
 46 H        7.9570     7.8800     2.3950 H     1 <1>   0.0800 
 47 H        6.5890     8.9650     2.5210 H     1 <1>   0.0800 
 48 H        8.0970     9.5310     1.8390 H     1 <1>   0.0800 
@<TRIPOS>BOND
  1   1   2  1   
  2   2   3  ar  
  3   2   4  ar  
  4   3   5  ar  
  5   3   6  1   
  6   4   7  ar  
  7   4  26  1   
  8   5   8  ar  
  9   5  27  1   
 10   6   9  1   
 11   6  28  1   
 12   6  29  1   
 13   7   8  ar  
 14   7  10  1   
 15   8  30  1   
 16   9  11  2   
 17   9  12  am  
 18  12  13  1   
 19  12  14  1   
 20  13  15  1   
 21  13  31  1   
 22  13  32  1   
 23  14  16  1   
 24  14  33  1   
 25  14  34  1   
 26  15  17  1   
 27  15  35  1   
 28  15  36  1   
 29  16  18  1   
 30  16  37  1   
 31  16  38  1   
 32  17  18  1   
 33  17  19  1   
 34  17  39  1   
 35  18  40  1   
 36  18  41  1   
 37  19  20  1   
 38  19  42  1   
 39  19  43  1   
 40  20  21  1   
 41  20  22  2   
 42  21  23  1   
 43  22  24  1   
 44  22  44  1   
 45  23  24  2   
 46  23  25  1   
 47  24  45  1   
 48  25  46  1   
 49  25  47  1   
 50  25  48  1   
@<TRIPOS>SUBSTRUCTURE
  1 ****  13 GROUP 4 **** **** 0

# MOE 2024.06 (io_trps.svl 2023.06)
