@<TRIPOS>MOLECULE
NONAME
49 51 1 0 0 
SMALL
USER_CHARGES


@<TRIPOS>ATOM
  1 CL       1.4070     0.1830     0.8960 Cl    1 <1>  -0.1770 
  2 C        0.9250     1.8280     0.5980 C.ar  1 <1>   0.1770 
  3 C        1.8820     2.8020     0.4750 C.ar  1 <1>  -0.1500 
  4 C       -0.4270     2.1260     0.4890 C.ar  1 <1>  -0.1500 
  5 C        1.4970     4.1240     0.2360 C.ar  1 <1>   0.3610 
  6 C       -0.8160     3.4230     0.2530 C.ar  1 <1>  -0.1500 
  7 N        2.4430     5.1270     0.1090 N.ar  1 <1>  -0.1790 
  8 C        0.1320     4.4550     0.1200 C.ar  1 <1>   0.0000 
  9 C        2.1720     6.4160    -0.1180 C.ar  1 <1>   0.4610 
 10 C       -0.1960     5.8210    -0.1260 C.ar  1 <1>  -0.1430 
 11 N        3.2260     7.2540    -0.2080 N.pl3 1 <1>  -0.8690 
 12 C        0.7970     6.7480    -0.2380 C.ar  1 <1>  -0.1500 
 13 C       -1.6550     6.2430    -0.2650 C.3   1 <1>  -0.0970 
 14 C        3.4500     8.7220    -0.4450 C.3   1 <1>   0.2890 
 15 C        4.2400     9.3130     0.7340 C.3   1 <1>   0.1400 
 16 C        2.2080     9.5870    -0.7060 C.3   1 <1>  -0.1600 
 17 N        4.6340    10.7160     0.4130 N.am  1 <1>  -0.6600 
 18 C        2.5990    11.0620    -0.9270 C.3   1 <1>  -0.1600 
 19 C        5.9560    11.0400     0.2060 C.2   1 <1>   0.5690 
 20 C        3.4610    11.6140     0.2180 C.3   1 <1>   0.1400 
 21 O        6.8110    10.1860     0.2810 O.2   1 <1>  -0.5700 
 22 C        6.3900    12.4790    -0.1330 C.3   1 <1>  -0.0190 
 23 C        7.7710    12.5520    -0.8110 C.3   1 <1>  -0.2400 
 24 C        6.3980    13.3670     1.1230 C.3   1 <1>  -0.2400 
 25 H        2.9170     2.5290     0.5660 H     1 <1>   0.1500 
 26 H       -1.1500     1.3340     0.5920 H     1 <1>   0.1500 
 27 H       -1.8670     3.6410     0.1710 H     1 <1>   0.1500 
 28 H        3.4180     4.8590     0.1960 H     1 <1>   0.4570 
 29 H        4.1660     6.8550    -0.1210 H     1 <1>   0.4000 
 30 H        0.5220     7.7610    -0.4260 H     1 <1>   0.1500 
 31 H       -2.1170     5.7240    -1.0870 H     1 <1>   0.0800 
 32 H       -1.7420     7.2990    -0.4500 H     1 <1>   0.0800 
 33 H       -2.1970     6.0190     0.6370 H     1 <1>   0.0800 
 34 H        4.0840     8.8020    -1.3140 H     1 <1>   0.0800 
 35 H        5.1100     8.7120     0.9270 H     1 <1>   0.0800 
 36 H        3.6310     9.3150     1.6210 H     1 <1>   0.0800 
 37 H        1.5560     9.5480     0.1490 H     1 <1>   0.0800 
 38 H        1.6950     9.2360    -1.5840 H     1 <1>   0.0800 
 39 H        1.7100    11.6610    -1.0180 H     1 <1>   0.0800 
 40 H        3.1480    11.1580    -1.8490 H     1 <1>   0.0800 
 41 H        3.7610    12.6210    -0.0040 H     1 <1>   0.0800 
 42 H        2.8860    11.6390     1.1280 H     1 <1>   0.0800 
 43 H        5.6890    12.8830    -0.8390 H     1 <1>   0.0800 
 44 H        8.5360    12.1890    -0.1470 H     1 <1>   0.0800 
 45 H        8.0050    13.5650    -1.0870 H     1 <1>   0.0800 
 46 H        7.7790    11.9440    -1.6990 H     1 <1>   0.0800 
 47 H        7.1190    12.9960     1.8320 H     1 <1>   0.0800 
 48 H        5.4320    13.3680     1.5940 H     1 <1>   0.0800 
 49 H        6.6550    14.3800     0.8680 H     1 <1>   0.0800 
@<TRIPOS>BOND
  1   1   2  1   
  2   2   3  ar  
  3   2   4  ar  
  4   3   5  ar  
  5   3  25  1   
  6   4   6  ar  
  7   4  26  1   
  8   5   7  ar  
  9   5   8  ar  
 10   6   8  ar  
 11   6  27  1   
 12   7   9  ar  
 13   7  28  1   
 14   8  10  ar  
 15   9  11  1   
 16   9  12  ar  
 17  10  12  ar  
 18  10  13  1   
 19  11  14  1   
 20  11  29  1   
 21  12  30  1   
 22  13  31  1   
 23  13  32  1   
 24  13  33  1   
 25  14  15  1   
 26  14  16  1   
 27  14  34  1   
 28  15  17  1   
 29  15  35  1   
 30  15  36  1   
 31  16  18  1   
 32  16  37  1   
 33  16  38  1   
 34  17  19  am  
 35  17  20  1   
 36  18  20  1   
 37  18  39  1   
 38  18  40  1   
 39  19  21  2   
 40  19  22  1   
 41  20  41  1   
 42  20  42  1   
 43  22  23  1   
 44  22  24  1   
 45  22  43  1   
 46  23  44  1   
 47  23  45  1   
 48  23  46  1   
 49  24  47  1   
 50  24  48  1   
 51  24  49  1   
@<TRIPOS>SUBSTRUCTURE
  1 ****  11 GROUP 4 **** **** 0

# MOE 2024.06 (io_trps.svl 2023.06)
