@<TRIPOS>MOLECULE
NONAME
52 55 1 0 0 
SMALL
USER_CHARGES


@<TRIPOS>ATOM
  1 O       -2.0770     1.3160    -2.9280 O.2   1 <1>  -0.5700 
  2 C       -1.9940     2.0110    -1.9530 C.2   1 <1>   0.6590 
  3 O       -3.0270     2.3980    -1.2340 O.3   1 <1>  -0.4300 
  4 C       -0.7050     2.5130    -1.3690 C.3   1 <1>  -0.0990 
  5 C       -2.6590     3.0930    -0.0660 C.3   1 <1>   0.2800 
  6 C       -1.2050     3.5450    -0.3480 C.3   1 <1>  -0.0190 
  7 C       -2.7200     2.0760     1.0940 C.3   1 <1>  -0.1600 
  8 C       -3.6880     4.2280     0.1750 C.3   1 <1>  -0.1600 
  9 C       -1.1290     4.9600    -0.9160 C.2   1 <1>   0.5690 
 10 C       -4.1090     1.4220     1.2570 C.3   1 <1>  -0.1600 
 11 C       -4.9380     3.8110     0.9790 C.3   1 <1>  -0.1600 
 12 O       -1.4730     5.1540    -2.0550 O.2   1 <1>  -0.5700 
 13 N       -0.6600     5.9530    -0.0970 N.am  1 <1>  -0.4940 
 14 C       -5.2710     2.3260     0.8060 C.3   1 <1>  -0.1600 
 15 C       -0.4860     7.3410    -0.3240 C.2   1 <1>  -0.0880 
 16 N       -1.2430     8.1680    -1.1010 N.pl3 1 <1>   0.3140 
 17 C        0.4720     8.1210     0.2280 C.2   1 <1>  -0.1810 
 18 N       -0.7960     9.4370    -1.0520 N.2   1 <1>  -0.7070 
 19 C       -2.4640     7.8660    -1.8600 C.3   1 <1>   0.0160 
 20 C        0.2360     9.4160    -0.2510 C.2   1 <1>   0.2350 
 21 C        1.6050     7.7070     1.1540 C.3   1 <1>  -0.0590 
 22 C        1.0160    10.5930     0.0660 C.ar  1 <1>   0.0540 
 23 C        1.2620    10.9790     1.3820 C.ar  1 <1>  -0.1500 
 24 C        1.5460    11.3850    -0.9500 C.ar  1 <1>  -0.1500 
 25 C        2.0250    12.0960     1.6730 C.ar  1 <1>  -0.1500 
 26 C        2.3090    12.5040    -0.6680 C.ar  1 <1>  -0.1500 
 27 C        2.5520    12.8600     0.6470 C.ar  1 <1>  -0.1500 
 28 H       -0.0760     2.9350    -2.1320 H     1 <1>   0.0800 
 29 H       -0.2020     1.6950    -0.8880 H     1 <1>   0.0800 
 30 H       -0.6130     3.5020     0.5470 H     1 <1>   0.0800 
 31 H       -2.4830     2.5950     2.0050 H     1 <1>   0.0800 
 32 H       -1.9800     1.3050     0.9680 H     1 <1>   0.0800 
 33 H       -3.9910     4.6240    -0.7790 H     1 <1>   0.0800 
 34 H       -3.2270     5.0290     0.7230 H     1 <1>   0.0800 
 35 H       -4.2440     1.1490     2.2890 H     1 <1>   0.0800 
 36 H       -4.1460     0.5140     0.6780 H     1 <1>   0.0800 
 37 H       -5.7780     4.4100     0.6740 H     1 <1>   0.0800 
 38 H       -4.7690     4.0000     2.0250 H     1 <1>   0.0800 
 39 H       -0.2940     5.6460     0.8020 H     1 <1>   0.3700 
 40 H       -6.1590     2.0770     1.3610 H     1 <1>   0.0800 
 41 H       -5.4800     2.1410    -0.2350 H     1 <1>   0.0800 
 42 H       -3.0490     7.1420    -1.3270 H     1 <1>   0.0800 
 43 H       -2.1900     7.4790    -2.8230 H     1 <1>   0.0800 
 44 H       -3.0340     8.7680    -1.9860 H     1 <1>   0.0800 
 45 H        1.7760     6.6490     1.0960 H     1 <1>   0.0800 
 46 H        1.3670     7.9700     2.1680 H     1 <1>   0.0800 
 47 H        2.5110     8.2110     0.8680 H     1 <1>   0.0800 
 48 H        0.8430    10.3980     2.1830 H     1 <1>   0.1500 
 49 H        1.3490    11.1080    -1.9710 H     1 <1>   0.1500 
 50 H        2.2050    12.3760     2.6970 H     1 <1>   0.1500 
 51 H        2.7100    13.0970    -1.4710 H     1 <1>   0.1500 
 52 H        3.1450    13.7300     0.8700 H     1 <1>   0.1500 
@<TRIPOS>BOND
  1   1   2  2   
  2   2   3  1   
  3   2   4  1   
  4   3   5  1   
  5   4   6  1   
  6   4  28  1   
  7   4  29  1   
  8   5   6  1   
  9   5   7  1   
 10   5   8  1   
 11   6   9  1   
 12   6  30  1   
 13   7  10  1   
 14   7  31  1   
 15   7  32  1   
 16   8  11  1   
 17   8  33  1   
 18   8  34  1   
 19   9  12  2   
 20   9  13  am  
 21  10  14  1   
 22  10  35  1   
 23  10  36  1   
 24  11  14  1   
 25  11  37  1   
 26  11  38  1   
 27  13  15  1   
 28  13  39  1   
 29  14  40  1   
 30  14  41  1   
 31  15  16  1   
 32  15  17  2   
 33  16  18  1   
 34  16  19  1   
 35  17  20  1   
 36  17  21  1   
 37  18  20  2   
 38  19  42  1   
 39  19  43  1   
 40  19  44  1   
 41  20  22  1   
 42  21  45  1   
 43  21  46  1   
 44  21  47  1   
 45  22  23  ar  
 46  22  24  ar  
 47  23  25  ar  
 48  23  48  1   
 49  24  26  ar  
 50  24  49  1   
 51  25  27  ar  
 52  25  50  1   
 53  26  27  ar  
 54  26  51  1   
 55  27  52  1   
@<TRIPOS>SUBSTRUCTURE
  1 ****  13 GROUP 4 **** **** 0

# MOE 2024.06 (io_trps.svl 2023.06)
