@<TRIPOS>MOLECULE
NONAME
42 43 1 0 0 
SMALL
USER_CHARGES


@<TRIPOS>ATOM
  1 O        1.9430    -1.0310     2.4240 O.2   1 <1>  -0.5700 
  2 C        1.8900    -1.0980     1.2160 C.2   1 <1>   0.5690 
  3 N        1.9550     0.0260     0.4500 N.am  1 <1>  -0.7300 
  4 C        1.7470    -2.4700     0.4980 C.3   1 <1>   0.2510 
  5 C        2.0400     1.4030     0.9620 C.3   1 <1>   0.2200 
  6 N        0.3510    -2.9420     0.2380 N.3   1 <1>  -0.8100 
  7 C        2.4700    -3.5820     1.2710 C.3   1 <1>  -0.2400 
  8 C        0.7580     2.1380     0.5940 C.3   1 <1>  -0.1600 
  9 C        3.1100     2.1510     0.1780 C.3   1 <1>  -0.1600 
 10 C        0.2590    -3.7900    -0.9710 C.3   1 <1>   0.2900 
 11 C       -0.6610    -1.8690     0.2140 C.3   1 <1>   0.0300 
 12 C        0.9290     2.5670    -0.8680 C.3   1 <1>  -0.1600 
 13 C        2.4410     2.5910    -1.1300 C.3   1 <1>  -0.1600 
 14 C       -0.9420    -4.7170    -0.9110 C.2   1 <1>  -0.0400 
 15 O       -1.3150    -5.3540    -1.9890 O.3   1 <1>  -0.0190 
 16 C       -1.7740    -5.0670     0.0810 C.2   1 <1>  -0.1500 
 17 N       -2.3540    -6.1070    -1.7730 N.2   1 <1>  -0.4100 
 18 C       -2.6530    -5.9550    -0.5320 C.2   1 <1>   0.1080 
 19 C       -3.8030    -6.6500     0.1610 C.3   1 <1>  -0.0590 
 20 H        1.8610    -0.0340    -0.5620 H     1 <1>   0.3700 
 21 H        2.2460    -2.3540    -0.4480 H     1 <1>   0.0800 
 22 H        2.2270     1.4080     2.0240 H     1 <1>   0.0800 
 23 H        1.9750    -3.7480     2.2120 H     1 <1>   0.0800 
 24 H        3.4830    -3.2840     1.4730 H     1 <1>   0.0800 
 25 H        2.4890    -4.4990     0.7150 H     1 <1>   0.0800 
 26 H        0.6840     3.0170     1.2100 H     1 <1>   0.0800 
 27 H       -0.1180     1.5340     0.7540 H     1 <1>   0.0800 
 28 H        3.9910     1.5540     0.0180 H     1 <1>   0.0800 
 29 H        3.3890     3.0260     0.7380 H     1 <1>   0.0800 
 30 H        1.1370    -4.4030    -1.0670 H     1 <1>   0.0800 
 31 H        0.1890    -3.1680    -1.8470 H     1 <1>   0.0800 
 32 H       -0.6930    -1.3710     1.1690 H     1 <1>   0.0800 
 33 H       -1.6380    -2.2800     0.0280 H     1 <1>   0.0800 
 34 H       -0.4360    -1.1500    -0.5540 H     1 <1>   0.0800 
 35 H        0.4840     3.5330    -1.0390 H     1 <1>   0.0800 
 36 H        0.4590     1.8490    -1.5180 H     1 <1>   0.0800 
 37 H        2.6850     1.9020    -1.9200 H     1 <1>   0.0800 
 38 H        2.7730     3.5750    -1.4160 H     1 <1>   0.0800 
 39 H       -1.7730    -4.7490     1.1070 H     1 <1>   0.1500 
 40 H       -3.4300    -7.2560     0.9650 H     1 <1>   0.0800 
 41 H       -4.3260    -7.2800    -0.5370 H     1 <1>   0.0800 
 42 H       -4.4860    -5.9200     0.5530 H     1 <1>   0.0800 
@<TRIPOS>BOND
  1   1   2  2   
  2   2   3  am  
  3   2   4  1   
  4   3   5  1   
  5   3  20  1   
  6   4   6  1   
  7   4   7  1   
  8   4  21  1   
  9   5   8  1   
 10   5   9  1   
 11   5  22  1   
 12   6  10  1   
 13   6  11  1   
 14   7  23  1   
 15   7  24  1   
 16   7  25  1   
 17   8  12  1   
 18   8  26  1   
 19   8  27  1   
 20   9  13  1   
 21   9  28  1   
 22   9  29  1   
 23  10  14  1   
 24  10  30  1   
 25  10  31  1   
 26  11  32  1   
 27  11  33  1   
 28  11  34  1   
 29  12  13  1   
 30  12  35  1   
 31  12  36  1   
 32  13  37  1   
 33  13  38  1   
 34  14  15  1   
 35  14  16  2   
 36  15  17  1   
 37  16  18  1   
 38  16  39  1   
 39  17  18  2   
 40  18  19  1   
 41  19  40  1   
 42  19  41  1   
 43  19  42  1   
@<TRIPOS>SUBSTRUCTURE
  1 ****   6 GROUP 4 **** **** 0

# MOE 2024.06 (io_trps.svl 2023.06)
