@<TRIPOS>MOLECULE
NONAME
55 57 1 0 0 
SMALL
USER_CHARGES


@<TRIPOS>ATOM
  1 O       -0.5170    -1.5050    -2.0330 O.3   1 <1>  -0.6800 
  2 C        0.6110    -2.2340    -1.6920 C.3   1 <1>   0.1200 
  3 C        1.1350    -1.7900    -0.2950 C.3   1 <1>   0.0000 
  4 C        2.4110    -2.5660     0.1280 C.3   1 <1>   0.4230 
  5 C        1.4580    -0.2680    -0.3800 C.3   1 <1>  -0.1600 
  6 C        0.0790    -2.0590     0.8160 C.3   1 <1>  -0.1600 
  7 N        2.2390    -4.0770     0.1500 N.4   1 <1>  -0.9590 
  8 C        3.6760    -2.0160    -0.5680 C.3   1 <1>   0.2090 
  9 C        2.7260     0.1610     0.3660 C.3   1 <1>   0.2090 
 10 C        0.2010    -3.4520     1.4760 C.3   1 <1>  -0.1600 
 11 C        0.8550    -4.5000     0.5690 C.3   1 <1>   0.3430 
 12 C        2.6480    -4.7950    -1.1010 C.3   1 <1>   0.2630 
 13 N        3.9310    -0.5940    -0.1490 N.pl3 1 <1>  -0.8380 
 14 C        5.1560    -0.0080    -0.1810 C.ar  1 <1>   0.4100 
 15 N        5.2950     1.1580     0.4650 N.ar  1 <1>  -0.6200 
 16 C        6.2600    -0.5640    -0.8450 C.ar  1 <1>  -0.1500 
 17 C        6.4500     1.7520     0.4620 C.ar  1 <1>   0.5270 
 18 C        7.4620     0.0820    -0.8290 C.ar  1 <1>   0.2180 
 19 N        7.5350     1.2500    -0.1620 N.ar  1 <1>  -0.1790 
 20 C        6.5850     3.0790     1.1950 C.3   1 <1>  -0.0170 
 21 C        8.7020    -0.4500    -1.5270 C.3   1 <1>  -0.0970 
 22 C        6.7260     4.2680     0.2300 C.3   1 <1>  -0.1600 
 23 C        6.8460     5.5900     0.9940 C.3   1 <1>  -0.2400 
 24 H       -0.8180    -1.6930    -2.9460 H     1 <1>   0.4000 
 25 H        0.3310    -3.2690    -1.7140 H     1 <1>   0.0800 
 26 H        1.3520    -2.0560    -2.4520 H     1 <1>   0.0800 
 27 H        2.5570    -2.2910     1.1590 H     1 <1>   0.0800 
 28 H        0.6210     0.3080    -0.0230 H     1 <1>   0.0800 
 29 H        1.5980     0.0300    -1.4060 H     1 <1>   0.0800 
 30 H        0.1740    -1.3240     1.5980 H     1 <1>   0.0800 
 31 H       -0.9150    -1.9390     0.4170 H     1 <1>   0.0800 
 32 H        2.8610    -4.4070     0.9030 H     1 <1>   0.4500 
 33 H        3.5570    -2.0490    -1.6360 H     1 <1>   0.0800 
 34 H        4.5180    -2.6200    -0.2810 H     1 <1>   0.0800 
 35 H        2.6150    -0.0150     1.4240 H     1 <1>   0.0800 
 36 H        2.8540     1.2210     0.2220 H     1 <1>   0.0800 
 37 H       -0.7810    -3.7930     1.7560 H     1 <1>   0.0800 
 38 H        0.7730    -3.3760     2.3850 H     1 <1>   0.0800 
 39 H        0.2320    -4.6320    -0.3000 H     1 <1>   0.0800 
 40 H        0.9010    -5.4470     1.0840 H     1 <1>   0.0800 
 41 H        2.0400    -4.4840    -1.9340 H     1 <1>   0.0800 
 42 H        2.5320    -5.8600    -0.9740 H     1 <1>   0.0800 
 43 H        3.6810    -4.5950    -1.3330 H     1 <1>   0.0800 
 44 H        6.1500    -1.4900    -1.3740 H     1 <1>   0.1500 
 45 H        8.4090     1.7760    -0.1230 H     1 <1>   0.4570 
 46 H        5.7080     3.2270     1.8040 H     1 <1>   0.0800 
 47 H        7.4300     3.0390     1.8600 H     1 <1>   0.0800 
 48 H        8.4900    -1.3830    -2.0190 H     1 <1>   0.0800 
 49 H        9.4920    -0.6190    -0.8160 H     1 <1>   0.0800 
 50 H        9.0450     0.2480    -2.2710 H     1 <1>   0.0800 
 51 H        7.5940     4.1510    -0.3960 H     1 <1>   0.0800 
 52 H        5.8590     4.3140    -0.4090 H     1 <1>   0.0800 
 53 H        7.7150     5.5920     1.6290 H     1 <1>   0.0800 
 54 H        5.9740     5.7590     1.6020 H     1 <1>   0.0800 
 55 H        6.9330     6.4100     0.3010 H     1 <1>   0.0800 
@<TRIPOS>BOND
  1   1   2  1   
  2   1  24  1   
  3   2   3  1   
  4   2  25  1   
  5   2  26  1   
  6   3   4  1   
  7   3   5  1   
  8   3   6  1   
  9   4   7  1   
 10   4   8  1   
 11   4  27  1   
 12   5   9  1   
 13   5  28  1   
 14   5  29  1   
 15   6  10  1   
 16   6  30  1   
 17   6  31  1   
 18   7  11  1   
 19   7  12  1   
 20   7  32  1   
 21   8  13  1   
 22   8  33  1   
 23   8  34  1   
 24   9  13  1   
 25   9  35  1   
 26   9  36  1   
 27  10  11  1   
 28  10  37  1   
 29  10  38  1   
 30  11  39  1   
 31  11  40  1   
 32  12  41  1   
 33  12  42  1   
 34  12  43  1   
 35  13  14  1   
 36  14  15  ar  
 37  14  16  ar  
 38  15  17  ar  
 39  16  18  ar  
 40  16  44  1   
 41  17  19  ar  
 42  17  20  1   
 43  18  19  ar  
 44  18  21  1   
 45  19  45  1   
 46  20  22  1   
 47  20  46  1   
 48  20  47  1   
 49  21  48  1   
 50  21  49  1   
 51  21  50  1   
 52  22  23  1   
 53  22  51  1   
 54  22  52  1   
 55  23  53  1   
 56  23  54  1   
 57  23  55  1   
@<TRIPOS>SUBSTRUCTURE
  1 ****  13 GROUP 4 **** **** 0

# MOE 2024.06 (io_trps.svl 2023.06)
