@<TRIPOS>MOLECULE
NONAME
45 47 1 0 0 
SMALL
USER_CHARGES


@<TRIPOS>ATOM
  1 O        0.5210    -0.7600     1.4180 O.3   1 <1>  -0.0190 
  2 N        0.0690    -1.9730     1.3120 N.2   1 <1>  -0.4100 
  3 C        1.4120    -0.6670     0.4600 C.2   1 <1>   0.2980 
  4 C        0.6890    -2.5170     0.3410 C.2   1 <1>   0.3350 
  5 N        1.5640    -1.7170    -0.2450 N.2   1 <1>  -0.5650 
  6 C        2.1630     0.6410     0.2790 C.3   1 <1>   0.0200 
  7 C        0.4640    -3.9520    -0.1390 C.3   1 <1>   0.5240 
  8 C        1.2390     1.7740    -0.1880 C.3   1 <1>  -0.2400 
  9 N       -0.9060    -4.4560     0.2280 N.4   1 <1>  -0.9590 
 10 C       -1.0010    -5.9490     0.0950 C.3   1 <1>   0.3430 
 11 C       -1.9630    -3.7490    -0.5540 C.3   1 <1>   0.3430 
 12 C       -2.3840    -6.4930     0.4980 C.3   1 <1>   0.2000 
 13 C       -3.3440    -4.2200    -0.0920 C.3   1 <1>  -0.1600 
 14 O       -2.3970    -7.8270     0.1140 O.3   1 <1>  -0.5600 
 15 C       -3.5130    -5.7420    -0.2270 C.3   1 <1>  -0.1600 
 16 C       -3.3750    -8.6420     0.6910 C.3   1 <1>   0.2630 
 17 C       -3.1470   -10.0590     0.2030 C.ar  1 <1>  -0.1430 
 18 C       -1.9370   -10.6920     0.4500 C.ar  1 <1>   0.1600 
 19 C       -4.1250   -10.7440    -0.4900 C.ar  1 <1>  -0.1500 
 20 N       -1.6320   -11.9240     0.0760 N.ar  1 <1>  -0.6200 
 21 C       -3.8240   -12.0290    -0.8910 C.ar  1 <1>  -0.1500 
 22 C       -2.5830   -12.5620    -0.5870 C.ar  1 <1>   0.1600 
 23 H        2.9440     0.4980    -0.4460 H     1 <1>   0.0800 
 24 H        2.6230     0.9110     1.2130 H     1 <1>   0.0800 
 25 H        1.2180    -4.5740     0.3120 H     1 <1>   0.0800 
 26 H        0.5960    -3.9860    -1.2070 H     1 <1>   0.0800 
 27 H        0.7810     1.5170    -1.1270 H     1 <1>   0.0800 
 28 H        1.8040     2.6800    -0.3190 H     1 <1>   0.0800 
 29 H        0.4660     1.9530     0.5380 H     1 <1>   0.0800 
 30 H       -1.0410    -4.1890     1.2160 H     1 <1>   0.4500 
 31 H       -0.2530    -6.4220     0.7100 H     1 <1>   0.0800 
 32 H       -0.8230    -6.2250    -0.9310 H     1 <1>   0.0800 
 33 H       -1.8460    -3.9590    -1.6050 H     1 <1>   0.0800 
 34 H       -1.8810    -2.6820    -0.4090 H     1 <1>   0.0800 
 35 H       -2.4970    -6.4360     1.5680 H     1 <1>   0.0800 
 36 H       -4.0940    -3.7280    -0.6870 H     1 <1>   0.0800 
 37 H       -3.5000    -3.9180     0.9300 H     1 <1>   0.0800 
 38 H       -4.4680    -6.0230     0.1820 H     1 <1>   0.0800 
 39 H       -3.5000    -6.0060    -1.2710 H     1 <1>   0.0800 
 40 H       -4.3480    -8.2940     0.3930 H     1 <1>   0.0800 
 41 H       -3.2830    -8.6010     1.7630 H     1 <1>   0.0800 
 42 H       -1.1750   -10.1540     0.9850 H     1 <1>   0.1500 
 43 H       -5.0820   -10.3060    -0.7150 H     1 <1>   0.1500 
 44 H       -4.5420   -12.6140    -1.4350 H     1 <1>   0.1500 
 45 H       -2.3610   -13.5670    -0.9050 H     1 <1>   0.1500 
@<TRIPOS>BOND
  1   1   2  1   
  2   1   3  1   
  3   2   4  2   
  4   3   5  2   
  5   3   6  1   
  6   4   5  1   
  7   4   7  1   
  8   6   8  1   
  9   6  23  1   
 10   6  24  1   
 11   7   9  1   
 12   7  25  1   
 13   7  26  1   
 14   8  27  1   
 15   8  28  1   
 16   8  29  1   
 17   9  10  1   
 18   9  11  1   
 19   9  30  1   
 20  10  12  1   
 21  10  31  1   
 22  10  32  1   
 23  11  13  1   
 24  11  33  1   
 25  11  34  1   
 26  12  14  1   
 27  12  15  1   
 28  12  35  1   
 29  13  15  1   
 30  13  36  1   
 31  13  37  1   
 32  14  16  1   
 33  15  38  1   
 34  15  39  1   
 35  16  17  1   
 36  16  40  1   
 37  16  41  1   
 38  17  18  ar  
 39  17  19  ar  
 40  18  20  ar  
 41  18  42  1   
 42  19  21  ar  
 43  19  43  1   
 44  20  22  ar  
 45  21  22  ar  
 46  21  44  1   
 47  22  45  1   
@<TRIPOS>SUBSTRUCTURE
  1 ****  10 GROUP 4 **** **** 0

# MOE 2024.06 (io_trps.svl 2023.06)
