@<TRIPOS>MOLECULE
NONAME
51 53 1 0 0 
SMALL
USER_CHARGES


@<TRIPOS>ATOM
  1 O        0.6790     0.2570    -1.3870 O.2   1 <1>  -0.5700 
  2 C        1.8250     0.1790    -1.0060 C.2   1 <1>   0.7150 
  3 N        2.2470    -1.0800    -0.7210 N.am  1 <1>  -0.7300 
  4 C        2.6210     1.3660    -0.8920 C.2   1 <1>  -0.2370 
  5 C        3.3880    -1.6320     0.0610 C.3   1 <1>   0.1400 
  6 N        3.9670     1.4300    -0.7550 N.pl3 1 <1>   0.3140 
  7 C        2.2110     2.6610    -0.9200 C.2   1 <1>  -0.1500 
  8 C        4.4680    -0.6210     0.4750 C.3   1 <1>   0.2000 
  9 N        4.4190     2.6860    -0.6900 N.2   1 <1>  -0.7070 
 10 C        4.9060     0.3040    -0.6570 C.3   1 <1>   0.0960 
 11 C        3.3460     3.4540    -0.7910 C.2   1 <1>   0.2030 
 12 O        5.5760    -1.3350     0.9160 O.3   1 <1>  -0.6800 
 13 C        3.3450     4.9100    -0.7660 C.2   1 <1>   0.7160 
 14 O        2.3140     5.5560    -0.8400 O.2   1 <1>  -0.5700 
 15 N        4.5330     5.5760    -0.6450 N.am  1 <1>  -0.7300 
 16 C        4.7270     7.0430    -0.5950 C.3   1 <1>   0.1400 
 17 C        4.9410     7.4900     0.8500 C.3   1 <1>  -0.0170 
 18 C        5.1510     8.9990     0.9130 C.ar  1 <1>  -0.1430 
 19 C        6.3810     9.5690     0.5900 C.ar  1 <1>   0.0830 
 20 C        4.0970     9.8150     1.2940 C.ar  1 <1>  -0.1500 
 21 O        7.3830     8.7330     0.2090 O.3   1 <1>  -0.3620 
 22 C        6.5380    10.9520     0.6610 C.ar  1 <1>  -0.1500 
 23 C        4.2590    11.1880     1.3610 C.ar  1 <1>  -0.1500 
 24 C        8.6630     9.2140    -0.1310 C.3   1 <1>   0.1200 
 25 C        5.4800    11.7550     1.0450 C.ar  1 <1>  -0.1500 
 26 C        9.5360     8.0170    -0.5100 C.3   1 <1>  -0.1600 
 27 C       10.9520     8.4590    -0.8940 C.3   1 <1>  -0.2400 
 28 H        1.5100    -1.7640    -0.9140 H     1 <1>   0.3700 
 29 H        3.8450    -2.4010    -0.5380 H     1 <1>   0.0800 
 30 H        2.9970    -2.0940     0.9520 H     1 <1>   0.0800 
 31 H        1.2050     3.0300    -1.0250 H     1 <1>   0.1500 
 32 H        4.1270    -0.0390     1.3160 H     1 <1>   0.0800 
 33 H        5.8790     0.7080    -0.4430 H     1 <1>   0.0800 
 34 H        4.9290    -0.2120    -1.5980 H     1 <1>   0.0800 
 35 H        5.9830    -1.8590     0.1990 H     1 <1>   0.4000 
 36 H        5.3630     4.9840    -0.5580 H     1 <1>   0.3700 
 37 H        3.8620     7.5400    -1.0010 H     1 <1>   0.0800 
 38 H        5.5810     7.3100    -1.1940 H     1 <1>   0.0800 
 39 H        5.8000     6.9910     1.2620 H     1 <1>   0.0800 
 40 H        4.0820     7.2150     1.4350 H     1 <1>   0.0800 
 41 H        3.1420     9.3850     1.5400 H     1 <1>   0.1500 
 42 H        7.4720    11.4220     0.4210 H     1 <1>   0.1500 
 43 H        3.4350    11.8120     1.6590 H     1 <1>   0.1500 
 44 H        9.0700     9.7270     0.7220 H     1 <1>   0.0800 
 45 H        8.5620     9.8890    -0.9630 H     1 <1>   0.0800 
 46 H        5.6050    12.8230     1.0990 H     1 <1>   0.1500 
 47 H        9.0870     7.5010    -1.3410 H     1 <1>   0.0800 
 48 H        9.5890     7.3410     0.3260 H     1 <1>   0.0800 
 49 H       10.9240     9.1240    -1.7390 H     1 <1>   0.0800 
 50 H       11.5460     7.6000    -1.1550 H     1 <1>   0.0800 
 51 H       11.4270     8.9630    -0.0700 H     1 <1>   0.0800 
@<TRIPOS>BOND
  1   1   2  2   
  2   2   3  am  
  3   2   4  1   
  4   3   5  1   
  5   3  28  1   
  6   4   6  1   
  7   4   7  2   
  8   5   8  1   
  9   5  29  1   
 10   5  30  1   
 11   6   9  1   
 12   6  10  1   
 13   7  11  1   
 14   7  31  1   
 15   8  10  1   
 16   8  12  1   
 17   8  32  1   
 18   9  11  2   
 19  10  33  1   
 20  10  34  1   
 21  11  13  1   
 22  12  35  1   
 23  13  14  2   
 24  13  15  am  
 25  15  16  1   
 26  15  36  1   
 27  16  17  1   
 28  16  37  1   
 29  16  38  1   
 30  17  18  1   
 31  17  39  1   
 32  17  40  1   
 33  18  19  ar  
 34  18  20  ar  
 35  19  21  1   
 36  19  22  ar  
 37  20  23  ar  
 38  20  41  1   
 39  21  24  1   
 40  22  25  ar  
 41  22  42  1   
 42  23  25  ar  
 43  23  43  1   
 44  24  26  1   
 45  24  44  1   
 46  24  45  1   
 47  25  46  1   
 48  26  27  1   
 49  26  47  1   
 50  26  48  1   
 51  27  49  1   
 52  27  50  1   
 53  27  51  1   
@<TRIPOS>SUBSTRUCTURE
  1 ****  15 GROUP 4 **** **** 0

# MOE 2024.06 (io_trps.svl 2023.06)
