@<TRIPOS>MOLECULE
NONAME
51 52 1 0 0 
SMALL
USER_CHARGES


@<TRIPOS>ATOM
  1 O        1.2760     0.2650    -1.0330 O.co2 1 <1>  -0.9000 
  2 C        0.8810     1.4080    -0.7470 C.2   1 <1>   0.9790 
  3 O       -0.3400     1.6320    -0.7350 O.co2 1 <1>  -0.9000 
  4 C        1.8550     2.4490    -0.4800 C.ar  1 <1>  -0.1790 
  5 C        1.6650     3.4830     0.4450 C.ar  1 <1>   0.1660 
  6 C        3.0640     2.4280    -1.1660 C.ar  1 <1>  -0.1500 
  7 N        2.5400     4.4450     0.6870 N.ar  1 <1>  -0.6200 
  8 C        0.3960     3.5680     1.2740 C.3   1 <1>  -0.0960 
  9 C        3.9880     3.4180    -0.9250 C.ar  1 <1>   0.0730 
 10 C        3.6670     4.4190    -0.0020 C.ar  1 <1>   0.4100 
 11 C        5.2660     3.4470    -1.5580 C.1   1 <1>   0.4840 
 12 N        4.5320     5.4570     0.2830 N.pl3 1 <1>  -0.8380 
 13 N        6.3200     3.6230    -1.9660 N.1   1 <1>  -0.5570 
 14 C        4.8870     6.5070    -0.7270 C.3   1 <1>   0.2090 
 15 C        5.2620     5.4830     1.5800 C.3   1 <1>   0.2090 
 16 C        6.3680     6.9750    -0.6070 C.3   1 <1>   0.4230 
 17 C        6.7980     5.4720     1.3660 C.3   1 <1>   0.3430 
 18 N        7.2330     5.8830    -0.0260 N.4   1 <1>  -0.9590 
 19 C        6.5000     8.2870     0.2010 C.3   1 <1>  -0.1600 
 20 C        8.6870     6.1970    -0.1620 C.3   1 <1>   0.3430 
 21 C        7.0730     9.4190    -0.6530 C.3   1 <1>   0.1200 
 22 C        9.6060     5.0560     0.3160 C.3   1 <1>  -0.0800 
 23 O        8.2600     8.9830    -1.2130 O.3   1 <1>  -0.6800 
 24 C       11.0680     5.4420     0.0530 C.3   1 <1>  -0.2400 
 25 C        9.3070     3.7130    -0.3700 C.3   1 <1>  -0.2400 
 26 H        3.2550     1.6320    -1.8690 H     1 <1>   0.1500 
 27 H        0.1510     2.6030     1.6790 H     1 <1>   0.0800 
 28 H       -0.4160     3.8970     0.6520 H     1 <1>   0.0800 
 29 H        0.5130     4.2600     2.0870 H     1 <1>   0.0800 
 30 H        4.2140     7.3400    -0.6210 H     1 <1>   0.0800 
 31 H        4.7290     6.1170    -1.7170 H     1 <1>   0.0800 
 32 H        4.9720     4.6390     2.1840 H     1 <1>   0.0800 
 33 H        4.9790     6.3710     2.1170 H     1 <1>   0.0800 
 34 H        6.7110     7.1820    -1.6080 H     1 <1>   0.0800 
 35 H        7.1600     4.4770     1.5640 H     1 <1>   0.0800 
 36 H        7.2460     6.1250     2.0960 H     1 <1>   0.0800 
 37 H        7.0500     5.0600    -0.6310 H     1 <1>   0.4500 
 38 H        7.1280     8.1660     1.0640 H     1 <1>   0.0800 
 39 H        5.5390     8.6070     0.5630 H     1 <1>   0.0800 
 40 H        8.9190     7.0900     0.3940 H     1 <1>   0.0800 
 41 H        8.9040     6.4020    -1.1980 H     1 <1>   0.0800 
 42 H        7.2770    10.2900    -0.0500 H     1 <1>   0.0800 
 43 H        6.4000     9.6880    -1.4510 H     1 <1>   0.0800 
 44 H        9.4970     4.9370     1.3800 H     1 <1>   0.0800 
 45 H        8.6930     9.7120    -1.7080 H     1 <1>   0.4000 
 46 H       11.2490     5.5590    -1.0020 H     1 <1>   0.0800 
 47 H       11.7310     4.6800     0.4270 H     1 <1>   0.0800 
 48 H       11.3120     6.3660     0.5470 H     1 <1>   0.0800 
 49 H        9.3450     3.8140    -1.4420 H     1 <1>   0.0800 
 50 H        8.3390     3.3390    -0.0940 H     1 <1>   0.0800 
 51 H       10.0340     2.9750    -0.0780 H     1 <1>   0.0800 
@<TRIPOS>BOND
  1   1   2  ar  
  2   2   3  ar  
  3   2   4  1   
  4   4   5  ar  
  5   4   6  ar  
  6   5   7  ar  
  7   5   8  1   
  8   6   9  ar  
  9   6  26  1   
 10   7  10  ar  
 11   8  27  1   
 12   8  28  1   
 13   8  29  1   
 14   9  10  ar  
 15   9  11  1   
 16  10  12  1   
 17  11  13  3   
 18  12  14  1   
 19  12  15  1   
 20  14  16  1   
 21  14  30  1   
 22  14  31  1   
 23  15  17  1   
 24  15  32  1   
 25  15  33  1   
 26  16  18  1   
 27  16  19  1   
 28  16  34  1   
 29  17  18  1   
 30  17  35  1   
 31  17  36  1   
 32  18  20  1   
 33  18  37  1   
 34  19  21  1   
 35  19  38  1   
 36  19  39  1   
 37  20  22  1   
 38  20  40  1   
 39  20  41  1   
 40  21  23  1   
 41  21  42  1   
 42  21  43  1   
 43  22  24  1   
 44  22  25  1   
 45  22  44  1   
 46  23  45  1   
 47  24  46  1   
 48  24  47  1   
 49  24  48  1   
 50  25  49  1   
 51  25  50  1   
 52  25  51  1   
@<TRIPOS>SUBSTRUCTURE
  1 ****  12 GROUP 4 **** **** 0

# MOE 2024.06 (io_trps.svl 2023.06)
