@<TRIPOS>MOLECULE
NONAME
45 48 1 0 0 
SMALL
USER_CHARGES


@<TRIPOS>ATOM
  1 S       -1.4310     0.2140     2.5660 S.3   1 <1>  -0.0800 
  2 C       -2.0250     0.9940     1.1220 C.2   1 <1>  -0.1400 
  3 C       -0.7300     1.7090     3.1220 C.2   1 <1>  -0.1100 
  4 C       -1.6970     2.3070     1.0950 C.2   1 <1>  -0.0540 
  5 C       -2.7980     0.1240     0.1500 C.3   1 <1>  -0.0600 
  6 C       -0.9320     2.7330     2.2570 C.2   1 <1>  -0.0860 
  7 C       -2.0770     3.2000     0.0260 C.ar  1 <1>   0.0540 
  8 C       -0.4290     4.0750     2.5010 C.2   1 <1>   0.7160 
  9 C       -1.2620     3.3640    -1.0890 C.ar  1 <1>  -0.1500 
 10 C       -3.2550     3.9340     0.0990 C.ar  1 <1>  -0.1500 
 11 O        0.0290     4.3650     3.5890 O.2   1 <1>  -0.5700 
 12 N       -0.4290     5.0400     1.5450 N.am  1 <1>  -0.7300 
 13 C       -1.6070     4.2470    -2.0950 C.ar  1 <1>  -0.1500 
 14 C       -3.6060     4.8160    -0.9070 C.ar  1 <1>  -0.1500 
 15 C        0.2130     6.3730     1.6710 C.3   1 <1>   0.3210 
 16 C       -2.7800     4.9750    -2.0050 C.ar  1 <1>  -0.1500 
 17 C        0.7720     6.8800     0.3410 C.2   1 <1>   0.3350 
 18 N        0.7200     6.2660    -0.7760 N.2   1 <1>  -0.4100 
 19 N        1.3760     8.0590     0.2600 N.2   1 <1>  -0.5650 
 20 O        1.3020     7.0190    -1.6580 O.3   1 <1>  -0.0190 
 21 C        1.6770     8.0770    -0.9830 C.2   1 <1>   0.2980 
 22 C        2.4050     9.1870    -1.7550 C.3   1 <1>   0.3800 
 23 O        3.6260     8.7090    -2.2380 O.3   1 <1>  -0.5600 
 24 C        2.8110    10.3960    -0.9140 C.3   1 <1>  -0.1600 
 25 C        4.6130     8.8440    -1.2660 C.3   1 <1>   0.1200 
 26 C        4.1860    10.0160    -0.3840 C.3   1 <1>  -0.1600 
 27 H       -0.2140     1.6930     4.0660 H     1 <1>   0.1500 
 28 H       -2.1750    -0.6810    -0.1950 H     1 <1>   0.0800 
 29 H       -3.1200     0.7010    -0.6980 H     1 <1>   0.0800 
 30 H       -3.6640    -0.2880     0.6370 H     1 <1>   0.0800 
 31 H       -0.3480     2.8010    -1.1610 H     1 <1>   0.1500 
 32 H       -3.8960     3.8110     0.9540 H     1 <1>   0.1500 
 33 H       -0.7560     4.8100     0.6000 H     1 <1>   0.3700 
 34 H       -0.9590     4.3720    -2.9470 H     1 <1>   0.1500 
 35 H       -4.5210     5.3790    -0.8360 H     1 <1>   0.1500 
 36 H        1.0160     6.3250     2.3850 H     1 <1>   0.0800 
 37 H       -0.5150     7.0780     2.0300 H     1 <1>   0.0800 
 38 H       -3.0470     5.6640    -2.7880 H     1 <1>   0.1500 
 39 H        1.8050     9.4850    -2.5950 H     1 <1>   0.0800 
 40 H        2.1050    10.6130    -0.1310 H     1 <1>   0.0800 
 41 H        2.8890    11.2530    -1.5590 H     1 <1>   0.0800 
 42 H        5.5560     9.0230    -1.7550 H     1 <1>   0.0800 
 43 H        4.6580     7.9270    -0.7020 H     1 <1>   0.0800 
 44 H        4.1300     9.6930     0.6410 H     1 <1>   0.0800 
 45 H        4.8810    10.8340    -0.4580 H     1 <1>   0.0800 
@<TRIPOS>BOND
  1   1   2  1   
  2   1   3  1   
  3   2   4  2   
  4   2   5  1   
  5   3   6  2   
  6   3  27  1   
  7   4   6  1   
  8   4   7  1   
  9   5  28  1   
 10   5  29  1   
 11   5  30  1   
 12   6   8  1   
 13   7   9  ar  
 14   7  10  ar  
 15   8  11  2   
 16   8  12  am  
 17   9  13  ar  
 18   9  31  1   
 19  10  14  ar  
 20  10  32  1   
 21  12  15  1   
 22  12  33  1   
 23  13  16  ar  
 24  13  34  1   
 25  14  16  ar  
 26  14  35  1   
 27  15  17  1   
 28  15  36  1   
 29  15  37  1   
 30  16  38  1   
 31  17  18  2   
 32  17  19  1   
 33  18  20  1   
 34  19  21  2   
 35  20  21  1   
 36  21  22  1   
 37  22  23  1   
 38  22  24  1   
 39  22  39  1   
 40  23  25  1   
 41  24  26  1   
 42  24  40  1   
 43  24  41  1   
 44  25  26  1   
 45  25  42  1   
 46  25  43  1   
 47  26  44  1   
 48  26  45  1   
@<TRIPOS>SUBSTRUCTURE
  1 ****  12 GROUP 4 **** **** 0

# MOE 2024.06 (io_trps.svl 2023.06)
