@<TRIPOS>MOLECULE
NONAME
45 47 1 0 0 
SMALL
USER_CHARGES


@<TRIPOS>ATOM
  1 O       -4.0490     2.2690    -0.1650 O.2   1 <1>  -0.5700 
  2 C       -2.8320     2.2460    -0.0680 C.2   1 <1>   0.5440 
  3 N       -2.2070     1.0360    -0.3090 N.am  1 <1>  -0.6600 
  4 C       -2.1280     3.4720     0.3190 C.ar  1 <1>   0.3960 
  5 C       -0.7700     0.7380    -0.1160 C.3   1 <1>   0.1400 
  6 C       -2.9440    -0.1750    -0.7300 C.3   1 <1>   0.1400 
  7 N       -0.8650     3.7020    -0.0740 N.ar  1 <1>  -0.6200 
  8 C       -2.8190     4.3970     1.1070 C.ar  1 <1>   0.1600 
  9 C       -0.6780    -0.7830    -0.1620 C.3   1 <1>  -0.1600 
 10 C       -1.8650    -1.2130    -1.0190 C.3   1 <1>  -0.1600 
 11 C       -0.3570     4.8470     0.3490 C.ar  1 <1>   0.4100 
 12 N       -2.3340     5.5470     1.5550 N.ar  1 <1>  -0.6200 
 13 N        0.9540     5.1340    -0.0370 N.pl3 1 <1>  -0.8380 
 14 C       -1.0950     5.7340     1.1530 C.ar  1 <1>   0.1600 
 15 C        1.2800     6.5050    -0.5300 C.3   1 <1>   0.2090 
 16 C        1.8730     4.0570    -0.5060 C.3   1 <1>   0.2090 
 17 C        2.2730     7.1720     0.4190 C.3   1 <1>   0.0960 
 18 C        2.4530     3.3460     0.7110 C.3   1 <1>  -0.2400 
 19 N        2.5930     8.5200    -0.0690 N.pl3 1 <1>   0.3140 
 20 N        1.6370     9.4460    -0.2670 N.2   1 <1>  -0.7070 
 21 C        3.8120     9.0040    -0.3790 C.2   1 <1>  -0.3020 
 22 C        2.2710    10.4940    -0.6960 C.2   1 <1>   0.1390 
 23 C        3.6400    10.2780    -0.7880 C.2   1 <1>  -0.1500 
 24 H       -0.4130     1.1290     0.8220 H     1 <1>   0.0800 
 25 H       -0.2110     1.1730    -0.9280 H     1 <1>   0.0800 
 26 H       -3.5470     0.0280    -1.6000 H     1 <1>   0.0800 
 27 H       -3.5770    -0.4990     0.0790 H     1 <1>   0.0800 
 28 H       -3.8330     4.1660     1.3830 H     1 <1>   0.1500 
 29 H       -0.7880    -1.1690     0.8360 H     1 <1>   0.0800 
 30 H        0.2620    -1.1140    -0.5650 H     1 <1>   0.0800 
 31 H       -1.6020    -1.1600    -2.0610 H     1 <1>   0.0800 
 32 H       -2.1980    -2.2090    -0.7910 H     1 <1>   0.0800 
 33 H       -0.6120     6.6380     1.4720 H     1 <1>   0.1500 
 34 H        0.3830     7.0990    -0.5930 H     1 <1>   0.0800 
 35 H        1.7010     6.4450    -1.5190 H     1 <1>   0.0800 
 36 H        2.6740     4.4760    -1.0900 H     1 <1>   0.0800 
 37 H        1.3460     3.3560    -1.1330 H     1 <1>   0.0800 
 38 H        3.1770     6.5970     0.4750 H     1 <1>   0.0800 
 39 H        1.8410     7.2620     1.3980 H     1 <1>   0.0800 
 40 H        2.9890     4.0420     1.3290 H     1 <1>   0.0800 
 41 H        3.1290     2.5740     0.3920 H     1 <1>   0.0800 
 42 H        1.6630     2.8940     1.2840 H     1 <1>   0.0800 
 43 H        4.7170     8.4300    -0.2940 H     1 <1>   0.1500 
 44 H        1.7810    11.4200    -0.9490 H     1 <1>   0.1500 
 45 H        4.3740    10.9920    -1.1170 H     1 <1>   0.1500 
@<TRIPOS>BOND
  1   1   2  2   
  2   2   3  am  
  3   2   4  1   
  4   3   5  1   
  5   3   6  1   
  6   4   7  ar  
  7   4   8  ar  
  8   5   9  1   
  9   5  24  1   
 10   5  25  1   
 11   6  10  1   
 12   6  26  1   
 13   6  27  1   
 14   7  11  ar  
 15   8  12  ar  
 16   8  28  1   
 17   9  10  1   
 18   9  29  1   
 19   9  30  1   
 20  10  31  1   
 21  10  32  1   
 22  11  13  1   
 23  11  14  ar  
 24  12  14  ar  
 25  13  15  1   
 26  13  16  1   
 27  14  33  1   
 28  15  17  1   
 29  15  34  1   
 30  15  35  1   
 31  16  18  1   
 32  16  36  1   
 33  16  37  1   
 34  17  19  1   
 35  17  38  1   
 36  17  39  1   
 37  18  40  1   
 38  18  41  1   
 39  18  42  1   
 40  19  20  1   
 41  19  21  1   
 42  20  22  2   
 43  21  23  2   
 44  21  43  1   
 45  22  23  1   
 46  22  44  1   
 47  23  45  1   
@<TRIPOS>SUBSTRUCTURE
  1 ****  11 GROUP 4 **** **** 0

# MOE 2024.06 (io_trps.svl 2023.06)
