@<TRIPOS>MOLECULE
NONAME
52 55 1 0 0 
SMALL
USER_CHARGES


@<TRIPOS>ATOM
  1 S       -1.0860    -1.5260     2.3790 S.3   1 <1>  -0.3320 
  2 C       -0.7410    -2.9270     1.3010 C.ar  1 <1>   0.1020 
  3 C        0.5420    -0.8580     2.9410 C.3   1 <1>  -0.0100 
  4 C       -1.8050    -3.5900     0.7580 C.ar  1 <1>  -0.1500 
  5 C        0.5690    -3.3320     1.0220 C.ar  1 <1>  -0.1500 
  6 C       -1.6210    -4.6910    -0.0900 C.ar  1 <1>   0.3100 
  7 C        0.7770    -4.4040     0.1960 C.ar  1 <1>  -0.1500 
  8 N       -2.7260    -5.2990    -0.5800 N.ar  1 <1>  -0.6200 
  9 C       -0.3000    -5.1110    -0.3820 C.ar  1 <1>   0.0000 
 10 C       -2.5510    -6.3250    -1.3640 C.ar  1 <1>   0.4100 
 11 C       -0.1440    -6.2210    -1.2440 C.ar  1 <1>  -0.1430 
 12 N       -3.6660    -6.9750    -1.8510 N.pl3 1 <1>  -0.8380 
 13 C       -1.2760    -6.8050    -1.7200 C.ar  1 <1>  -0.1500 
 14 C        1.2290    -6.7460    -1.6360 C.3   1 <1>  -0.0970 
 15 C       -3.9020    -8.3880    -1.4320 C.3   1 <1>   0.2090 
 16 C       -4.9070    -6.2070    -2.1510 C.3   1 <1>   0.2090 
 17 C       -4.8370    -8.4370    -0.2140 C.3   1 <1>   0.2000 
 18 C       -5.8810    -6.2680    -0.9660 C.3   1 <1>  -0.1600 
 19 O       -5.1090    -9.7760     0.0740 O.3   1 <1>  -0.5600 
 20 C       -6.1570    -7.7090    -0.5050 C.3   1 <1>  -0.1600 
 21 C       -5.3970   -10.0460     1.4120 C.3   1 <1>   0.2630 
 22 C       -5.7190   -11.5230     1.5670 C.ar  1 <1>  -0.1430 
 23 C       -4.9880   -12.4840     0.8820 C.ar  1 <1>   0.1600 
 24 C       -6.7390   -11.9370     2.4010 C.ar  1 <1>  -0.1500 
 25 N       -5.1810   -13.7920     0.9670 N.ar  1 <1>  -0.6200 
 26 C       -6.9590   -13.2950     2.4970 C.ar  1 <1>  -0.1500 
 27 C       -6.1630   -14.1640     1.7710 C.ar  1 <1>   0.1600 
 28 H        0.3430    -0.0210     3.5860 H     1 <1>   0.0800 
 29 H        1.0920    -0.5470     2.0710 H     1 <1>   0.0800 
 30 H        1.0540    -1.6380     3.4760 H     1 <1>   0.0800 
 31 H       -2.8100    -3.2790     0.9720 H     1 <1>   0.1500 
 32 H        1.4030    -2.8110     1.4480 H     1 <1>   0.1500 
 33 H        1.7830    -4.7140    -0.0180 H     1 <1>   0.1500 
 34 H       -1.2410    -7.6430    -2.3880 H     1 <1>   0.1500 
 35 H        1.7870    -5.9770    -2.1390 H     1 <1>   0.0800 
 36 H        1.1410    -7.5880    -2.3000 H     1 <1>   0.0800 
 37 H        1.7690    -7.0600    -0.7610 H     1 <1>   0.0800 
 38 H       -2.9690    -8.8580    -1.1770 H     1 <1>   0.0800 
 39 H       -4.3490    -8.9250    -2.2510 H     1 <1>   0.0800 
 40 H       -5.3700    -6.6260    -3.0270 H     1 <1>   0.0800 
 41 H       -4.6570    -5.1810    -2.3660 H     1 <1>   0.0800 
 42 H       -4.3250    -7.9870     0.6210 H     1 <1>   0.0800 
 43 H       -6.8040    -5.7930    -1.2450 H     1 <1>   0.0800 
 44 H       -5.4600    -5.7040    -0.1520 H     1 <1>   0.0800 
 45 H       -6.7720    -7.6820     0.3750 H     1 <1>   0.0800 
 46 H       -6.6850    -8.2340    -1.2820 H     1 <1>   0.0800 
 47 H       -6.2380    -9.4470     1.7150 H     1 <1>   0.0800 
 48 H       -4.5370    -9.7920     2.0070 H     1 <1>   0.0800 
 49 H       -4.1980   -12.1560     0.2270 H     1 <1>   0.1500 
 50 H       -7.3400   -11.2380     2.9550 H     1 <1>   0.1500 
 51 H       -7.7380   -13.6790     3.1290 H     1 <1>   0.1500 
 52 H       -6.3440   -15.2220     1.8550 H     1 <1>   0.1500 
@<TRIPOS>BOND
  1   1   2  1   
  2   1   3  1   
  3   2   4  ar  
  4   2   5  ar  
  5   3  28  1   
  6   3  29  1   
  7   3  30  1   
  8   4   6  ar  
  9   4  31  1   
 10   5   7  ar  
 11   5  32  1   
 12   6   8  ar  
 13   6   9  ar  
 14   7   9  ar  
 15   7  33  1   
 16   8  10  ar  
 17   9  11  ar  
 18  10  12  1   
 19  10  13  ar  
 20  11  13  ar  
 21  11  14  1   
 22  12  15  1   
 23  12  16  1   
 24  13  34  1   
 25  14  35  1   
 26  14  36  1   
 27  14  37  1   
 28  15  17  1   
 29  15  38  1   
 30  15  39  1   
 31  16  18  1   
 32  16  40  1   
 33  16  41  1   
 34  17  19  1   
 35  17  20  1   
 36  17  42  1   
 37  18  20  1   
 38  18  43  1   
 39  18  44  1   
 40  19  21  1   
 41  20  45  1   
 42  20  46  1   
 43  21  22  1   
 44  21  47  1   
 45  21  48  1   
 46  22  23  ar  
 47  22  24  ar  
 48  23  25  ar  
 49  23  49  1   
 50  24  26  ar  
 51  24  50  1   
 52  25  27  ar  
 53  26  27  ar  
 54  26  51  1   
 55  27  52  1   
@<TRIPOS>SUBSTRUCTURE
  1 ****  10 GROUP 4 **** **** 0

# MOE 2024.06 (io_trps.svl 2023.06)
