@<TRIPOS>MOLECULE
NONAME
43 44 1 0 0 
SMALL
USER_CHARGES


@<TRIPOS>ATOM
  1 O        0.9110     3.0030     1.5140 O.co2 1 <1>  -0.9000 
  2 C       -0.2940     3.2320     1.4120 C.2   1 <1>   0.9060 
  3 O       -0.8640     4.0840     2.1020 O.co2 1 <1>  -0.9000 
  4 C       -0.9990     2.6280     0.2260 C.3   1 <1>  -0.1860 
  5 C       -2.5070     2.9150     0.0470 C.3   1 <1>   0.2000 
  6 C       -0.2230     3.1500    -0.9770 C.3   1 <1>   0.3430 
  7 O       -3.0910     3.1220     1.2710 O.3   1 <1>  -0.6800 
  8 C       -2.7940     4.1450    -0.8230 C.3   1 <1>  -0.1600 
  9 N       -0.3800     4.6410    -1.1680 N.4   1 <1>  -0.9590 
 10 C       -1.6880     5.1790    -0.6530 C.3   1 <1>   0.3430 
 11 C        0.7490     5.3320    -0.4680 C.3   1 <1>   0.3430 
 12 C        0.8940     6.7700    -0.9720 C.3   1 <1>  -0.1600 
 13 C        2.1040     7.4490    -0.3160 C.3   1 <1>  -0.1600 
 14 C        2.2320     8.9160    -0.7450 C.3   1 <1>  -0.0170 
 15 C        3.4500     9.5570    -0.1000 C.ar  1 <1>  -0.1430 
 16 C        4.6230     9.7260    -0.8210 C.ar  1 <1>  -0.1500 
 17 C        3.3970     9.9800     1.2190 C.ar  1 <1>  -0.1500 
 18 C        5.7280    10.3140    -0.2300 C.ar  1 <1>  -0.1500 
 19 C        4.5020    10.5660     1.8120 C.ar  1 <1>  -0.1500 
 20 C        5.6690    10.7340     1.0870 C.ar  1 <1>  -0.1500 
 21 H       -0.8590     1.5670     0.2920 H     1 <1>   0.0800 
 22 H       -2.9980     2.0600    -0.3870 H     1 <1>   0.0800 
 23 H       -0.5820     2.6400    -1.8550 H     1 <1>   0.0800 
 24 H        0.8210     2.9020    -0.8550 H     1 <1>   0.0800 
 25 H       -2.4110     3.5800     1.8550 H     1 <1>   0.4000 
 26 H       -2.8520     3.8590    -1.8570 H     1 <1>   0.0800 
 27 H       -3.7440     4.5710    -0.5520 H     1 <1>   0.0800 
 28 H       -0.2980     4.8420    -2.1680 H     1 <1>   0.4500 
 29 H       -1.5980     5.4070     0.3980 H     1 <1>   0.0800 
 30 H       -1.9440     6.0880    -1.1710 H     1 <1>   0.0800 
 31 H        0.5800     5.3360     0.5990 H     1 <1>   0.0800 
 32 H        1.6690     4.7980    -0.6440 H     1 <1>   0.0800 
 33 H        1.0290     6.7690    -2.0400 H     1 <1>   0.0800 
 34 H        0.0110     7.3310    -0.7260 H     1 <1>   0.0800 
 35 H        2.0050     7.4060     0.7570 H     1 <1>   0.0800 
 36 H        3.0080     6.9260    -0.5810 H     1 <1>   0.0800 
 37 H        1.3520     9.4630    -0.4530 H     1 <1>   0.0800 
 38 H        2.3160     8.9800    -1.8160 H     1 <1>   0.0800 
 39 H        4.6820     9.4030    -1.8440 H     1 <1>   0.1500 
 40 H        2.4950     9.8530     1.7920 H     1 <1>   0.1500 
 41 H        6.6350    10.4430    -0.7950 H     1 <1>   0.1500 
 42 H        4.4530    10.8890     2.8360 H     1 <1>   0.1500 
 43 H        6.5280    11.1910     1.5460 H     1 <1>   0.1500 
@<TRIPOS>BOND
  1   1   2  ar  
  2   2   3  ar  
  3   2   4  1   
  4   4   5  1   
  5   4   6  1   
  6   4  21  1   
  7   5   7  1   
  8   5   8  1   
  9   5  22  1   
 10   6   9  1   
 11   6  23  1   
 12   6  24  1   
 13   7  25  1   
 14   8  10  1   
 15   8  26  1   
 16   8  27  1   
 17   9  10  1   
 18   9  11  1   
 19   9  28  1   
 20  10  29  1   
 21  10  30  1   
 22  11  12  1   
 23  11  31  1   
 24  11  32  1   
 25  12  13  1   
 26  12  33  1   
 27  12  34  1   
 28  13  14  1   
 29  13  35  1   
 30  13  36  1   
 31  14  15  1   
 32  14  37  1   
 33  14  38  1   
 34  15  16  ar  
 35  15  17  ar  
 36  16  18  ar  
 37  16  39  1   
 38  17  19  ar  
 39  17  40  1   
 40  18  20  ar  
 41  18  41  1   
 42  19  20  ar  
 43  19  42  1   
 44  20  43  1   
@<TRIPOS>SUBSTRUCTURE
  1 ****  11 GROUP 4 **** **** 0

# MOE 2024.06 (io_trps.svl 2023.06)
