@<TRIPOS>MOLECULE
NONAME
38 39 1 0 0 
SMALL
USER_CHARGES


@<TRIPOS>ATOM
  1 O        1.2200     1.6880     0.2790 O.2   1 <1>  -0.5700 
  2 C        1.2690     0.5000     0.0180 C.2   1 <1>   0.5440 
  3 N        0.1460    -0.2460     0.2410 N.am  1 <1>  -0.7300 
  4 C        2.4750    -0.0790    -0.5460 C.ar  1 <1>   0.0860 
  5 C       -1.1740     0.2260     0.7210 C.3   1 <1>   0.0600 
  6 C        2.7750    -1.4620    -0.5150 C.ar  1 <1>   0.4100 
  7 C        3.3950     0.7480    -1.1800 C.ar  1 <1>  -0.1500 
  8 N        3.8450    -2.0070    -1.0930 N.ar  1 <1>  -0.6200 
  9 N        1.9830    -2.3790     0.1460 N.pl3 1 <1>  -0.8380 
 10 C        4.5110     0.1860    -1.7560 C.ar  1 <1>  -0.1500 
 11 C        4.6810    -1.1830    -1.6890 C.ar  1 <1>   0.1600 
 12 C        1.5720    -3.6330    -0.5370 C.3   1 <1>   0.3900 
 13 C        2.0540    -2.4420     1.6320 C.3   1 <1>   0.1290 
 14 C        0.0610    -3.7200    -0.4780 C.2   1 <1>  -0.1810 
 15 C       -0.7320    -4.4150     0.3530 C.2   1 <1>  -0.0400 
 16 C       -0.8460    -3.0550    -1.3050 C.2   1 <1>   0.1080 
 17 O       -1.9710    -4.1610     0.0320 O.3   1 <1>  -0.0190 
 18 C       -0.4450    -5.3550     1.5050 C.3   1 <1>  -0.0600 
 19 N       -2.0540    -3.3360    -0.9710 N.2   1 <1>  -0.4100 
 20 C       -0.5050    -2.1260    -2.4520 C.3   1 <1>  -0.0590 
 21 H        0.2610    -1.2680     0.1510 H     1 <1>   0.3700 
 22 H       -1.2170     1.3020     0.6980 H     1 <1>   0.0800 
 23 H       -1.3340    -0.1100     1.7300 H     1 <1>   0.0800 
 24 H       -1.9500    -0.1710     0.0900 H     1 <1>   0.0800 
 25 H        3.2310     1.8120    -1.2230 H     1 <1>   0.1500 
 26 H        5.2400     0.7990    -2.2550 H     1 <1>   0.1500 
 27 H        5.5530    -1.6180    -2.1480 H     1 <1>   0.1500 
 28 H        2.0230    -4.4790    -0.0490 H     1 <1>   0.0800 
 29 H        1.8940    -3.6280    -1.5650 H     1 <1>   0.0800 
 30 H        2.4560    -1.5230     2.0240 H     1 <1>   0.0800 
 31 H        2.6920    -3.2540     1.9350 H     1 <1>   0.0800 
 32 H        1.0690    -2.5890     2.0400 H     1 <1>   0.0800 
 33 H        0.6130    -5.4600     1.6560 H     1 <1>   0.0800 
 34 H       -0.8660    -6.3220     1.2960 H     1 <1>   0.0800 
 35 H       -0.8900    -4.9710     2.4050 H     1 <1>   0.0800 
 36 H        0.4770    -1.7100    -2.3330 H     1 <1>   0.0800 
 37 H       -1.2160    -1.3200    -2.4850 H     1 <1>   0.0800 
 38 H       -0.5500    -2.6670    -3.3790 H     1 <1>   0.0800 
@<TRIPOS>BOND
  1   1   2  2   
  2   2   3  am  
  3   2   4  1   
  4   3   5  1   
  5   3  21  1   
  6   4   6  ar  
  7   4   7  ar  
  8   5  22  1   
  9   5  23  1   
 10   5  24  1   
 11   6   8  ar  
 12   6   9  1   
 13   7  10  ar  
 14   7  25  1   
 15   8  11  ar  
 16   9  12  1   
 17   9  13  1   
 18  10  11  ar  
 19  10  26  1   
 20  11  27  1   
 21  12  14  1   
 22  12  28  1   
 23  12  29  1   
 24  13  30  1   
 25  13  31  1   
 26  13  32  1   
 27  14  15  2   
 28  14  16  1   
 29  15  17  1   
 30  15  18  1   
 31  16  19  2   
 32  16  20  1   
 33  17  19  1   
 34  18  33  1   
 35  18  34  1   
 36  18  35  1   
 37  20  36  1   
 38  20  37  1   
 39  20  38  1   
@<TRIPOS>SUBSTRUCTURE
  1 ****   9 GROUP 4 **** **** 0

# MOE 2024.06 (io_trps.svl 2023.06)
