@<TRIPOS>MOLECULE
NONAME
56 59 1 0 0 
SMALL
USER_CHARGES


@<TRIPOS>ATOM
  1 F       -0.6470    -1.6970     1.8550 F     1 <1>  -0.1900 
  2 C       -1.7490    -2.0660     1.2620 C.ar  1 <1>   0.1900 
  3 C       -2.9270    -1.4160     1.5740 C.ar  1 <1>  -0.1500 
  4 C       -1.7000    -3.0950     0.3410 C.ar  1 <1>  -0.1500 
  5 C       -4.0910    -1.8140     0.9400 C.ar  1 <1>  -0.1500 
  6 C       -2.8730    -3.4800    -0.2840 C.ar  1 <1>  -0.1500 
  7 C       -4.0840    -2.8490     0.0040 C.ar  1 <1>   0.0000 
  8 C       -5.3040    -3.2630    -0.6530 C.ar  1 <1>   0.0000 
  9 C       -5.7190    -4.5890    -0.6150 C.ar  1 <1>  -0.1500 
 10 C       -6.0940    -2.3510    -1.3440 C.ar  1 <1>  -0.1500 
 11 C       -6.8860    -5.0280    -1.2350 C.ar  1 <1>   0.0860 
 12 C       -7.2550    -2.7540    -1.9750 C.ar  1 <1>  -0.1500 
 13 C       -7.2870    -6.4230    -1.1670 C.2   1 <1>   0.5440 
 14 C       -7.6440    -4.0800    -1.9230 C.ar  1 <1>  -0.1500 
 15 O       -6.4490    -7.3070    -1.1430 O.2   1 <1>  -0.5700 
 16 N       -8.6080    -6.8070    -1.0840 N.am  1 <1>  -0.6600 
 17 C       -8.9670    -8.2190    -1.3700 C.3   1 <1>   0.1400 
 18 C       -9.5310    -6.1430    -0.1240 C.3   1 <1>   0.1400 
 19 C       -8.8750    -9.0230    -0.0550 C.3   1 <1>   0.4230 
 20 C       -9.4820    -6.9190     1.2010 C.3   1 <1>  -0.1600 
 21 N       -8.9960   -10.5290    -0.2390 N.4   1 <1>  -0.9590 
 22 C       -9.8030    -8.4370     1.0530 C.3   1 <1>   0.0000 
 23 C       -9.3180   -11.2750     1.0200 C.3   1 <1>   0.3430 
 24 C       -9.9010   -10.9760    -1.3480 C.3   1 <1>   0.2630 
 25 C       -9.4970    -9.1460     2.4060 C.3   1 <1>  -0.1600 
 26 C      -11.2950    -8.6360     0.6620 C.3   1 <1>   0.1200 
 27 C       -8.8150   -10.5190     2.2490 C.3   1 <1>  -0.1600 
 28 O      -12.1460    -7.9570     1.5180 O.3   1 <1>  -0.6800 
 29 H       -2.9270    -0.6200     2.2960 H     1 <1>   0.1500 
 30 H       -0.7650    -3.5790     0.1220 H     1 <1>   0.1500 
 31 H       -5.0180    -1.3220     1.1750 H     1 <1>   0.1500 
 32 H       -2.8530    -4.2770    -1.0070 H     1 <1>   0.1500 
 33 H       -5.1160    -5.3060    -0.0850 H     1 <1>   0.1500 
 34 H       -5.7900    -1.3190    -1.3920 H     1 <1>   0.1500 
 35 H       -7.8530    -2.0370    -2.5100 H     1 <1>   0.1500 
 36 H       -8.5440    -4.3860    -2.4260 H     1 <1>   0.1500 
 37 H       -9.9550    -8.2490    -1.7920 H     1 <1>   0.0800 
 38 H       -8.2770    -8.6190    -2.0930 H     1 <1>   0.0800 
 39 H       -9.2320    -5.1220     0.0470 H     1 <1>   0.0800 
 40 H      -10.5310    -6.1320    -0.5240 H     1 <1>   0.0800 
 41 H       -7.8720    -8.8480     0.2990 H     1 <1>   0.0800 
 42 H       -8.4900    -6.7950     1.6030 H     1 <1>   0.0800 
 43 H      -10.1540    -6.4520     1.9000 H     1 <1>   0.0800 
 44 H       -8.0410   -10.8190    -0.5020 H     1 <1>   0.4500 
 45 H      -10.3850   -11.3980     1.1090 H     1 <1>   0.0800 
 46 H       -8.8730   -12.2580     0.9880 H     1 <1>   0.0800 
 47 H      -10.9150   -10.6610    -1.1600 H     1 <1>   0.0800 
 48 H       -9.8870   -12.0510    -1.4310 H     1 <1>   0.0800 
 49 H       -9.5790   -10.5620    -2.2900 H     1 <1>   0.0800 
 50 H       -8.8500    -8.5370     3.0160 H     1 <1>   0.0800 
 51 H      -10.4030    -9.2710     2.9720 H     1 <1>   0.0800 
 52 H      -11.5750    -9.6740     0.6890 H     1 <1>   0.0800 
 53 H      -11.4970    -8.2560    -0.3230 H     1 <1>   0.0800 
 54 H       -9.0030   -11.1090     3.1300 H     1 <1>   0.0800 
 55 H       -7.7470   -10.3970     2.1750 H     1 <1>   0.0800 
 56 H      -12.0790    -8.2770     2.4390 H     1 <1>   0.4000 
@<TRIPOS>BOND
  1   1   2  1   
  2   2   3  ar  
  3   2   4  ar  
  4   3   5  ar  
  5   3  29  1   
  6   4   6  ar  
  7   4  30  1   
  8   5   7  ar  
  9   5  31  1   
 10   6   7  ar  
 11   6  32  1   
 12   7   8  1   
 13   8   9  ar  
 14   8  10  ar  
 15   9  11  ar  
 16   9  33  1   
 17  10  12  ar  
 18  10  34  1   
 19  11  13  1   
 20  11  14  ar  
 21  12  14  ar  
 22  12  35  1   
 23  13  15  2   
 24  13  16  am  
 25  14  36  1   
 26  16  17  1   
 27  16  18  1   
 28  17  19  1   
 29  17  37  1   
 30  17  38  1   
 31  18  20  1   
 32  18  39  1   
 33  18  40  1   
 34  19  21  1   
 35  19  22  1   
 36  19  41  1   
 37  20  22  1   
 38  20  42  1   
 39  20  43  1   
 40  21  23  1   
 41  21  24  1   
 42  21  44  1   
 43  22  25  1   
 44  22  26  1   
 45  23  27  1   
 46  23  45  1   
 47  23  46  1   
 48  24  47  1   
 49  24  48  1   
 50  24  49  1   
 51  25  27  1   
 52  25  50  1   
 53  25  51  1   
 54  26  28  1   
 55  26  52  1   
 56  26  53  1   
 57  27  54  1   
 58  27  55  1   
 59  28  56  1   
@<TRIPOS>SUBSTRUCTURE
  1 ****  13 GROUP 4 **** **** 0

# MOE 2024.06 (io_trps.svl 2023.06)
