@<TRIPOS>MOLECULE
NONAME
39 42 1 0 0 
SMALL
USER_CHARGES


@<TRIPOS>ATOM
  1 S        2.3390     4.3680    -1.5190 S.3   1 <1>  -0.1570 
  2 C        3.3440     3.0770    -0.8350 C.2   1 <1>   0.2420 
  3 C        1.5530     3.1980    -2.6120 C.2   1 <1>  -0.0490 
  4 N        4.2550     3.0720     0.0780 N.2   1 <1>  -0.5650 
  5 N        3.0580     1.9010    -1.4240 N.pl3 1 <1>   0.3340 
  6 C        2.0570     1.9670    -2.4180 C.2   1 <1>  -0.1810 
  7 C        4.6150     1.7630     0.0940 C.2   1 <1>   0.0460 
  8 C        3.8980     1.0410    -0.8080 C.2   1 <1>  -0.3020 
  9 C        5.7100     1.2600     1.0320 C.3   1 <1>   0.3900 
 10 N        7.0290     1.7070     0.5310 N.pl3 1 <1>  -0.8690 
 11 C        7.6650     2.6880     1.2330 C.ar  1 <1>   0.4100 
 12 N        7.6540     3.8460     0.6170 N.ar  1 <1>  -0.6200 
 13 C        8.2510     2.4900     2.4910 C.ar  1 <1>   0.1600 
 14 C        8.1890     4.8470     1.3340 C.ar  1 <1>   0.3960 
 15 N        8.8210     3.4390     3.2080 N.ar  1 <1>  -0.6200 
 16 C        8.1740     6.2230     0.8330 C.2   1 <1>   0.5440 
 17 C        8.7650     4.6120     2.5870 C.ar  1 <1>   0.1600 
 18 O        9.1020     6.9640     1.1150 O.2   1 <1>  -0.5700 
 19 N        7.1380     6.7550     0.0850 N.am  1 <1>  -0.6600 
 20 C        7.0830     8.1760    -0.3220 C.3   1 <1>   0.1400 
 21 C        5.8570     6.0700    -0.2290 C.3   1 <1>   0.1400 
 22 C        5.6000     8.4600    -0.5280 C.3   1 <1>  -0.1600 
 23 C        5.0060     7.1160    -0.9400 C.3   1 <1>  -0.1600 
 24 H        0.7970     3.5850    -3.2750 H     1 <1>   0.1500 
 25 H        1.7880     1.0580    -2.9230 H     1 <1>   0.1500 
 26 H        3.9340    -0.0050    -1.0510 H     1 <1>   0.1500 
 27 H        5.6920     0.1850     1.0660 H     1 <1>   0.0800 
 28 H        5.5290     1.6400     2.0230 H     1 <1>   0.0800 
 29 H        6.8790     2.0650    -0.4180 H     1 <1>   0.4000 
 30 H        8.2340     1.4960     2.8970 H     1 <1>   0.1500 
 31 H        9.2000     5.4510     3.1030 H     1 <1>   0.1500 
 32 H        7.6250     8.2940    -1.2440 H     1 <1>   0.0800 
 33 H        7.5090     8.8150     0.4330 H     1 <1>   0.0800 
 34 H        5.3840     5.7510     0.6850 H     1 <1>   0.0800 
 35 H        6.0210     5.2160    -0.8640 H     1 <1>   0.0800 
 36 H        5.4380     9.2250    -1.2650 H     1 <1>   0.0800 
 37 H        5.1740     8.7760     0.4080 H     1 <1>   0.0800 
 38 H        3.9670     7.0270    -0.6750 H     1 <1>   0.0800 
 39 H        5.1070     6.9800    -2.0030 H     1 <1>   0.0800 
@<TRIPOS>BOND
  1   1   2  1   
  2   1   3  1   
  3   2   4  2   
  4   2   5  1   
  5   3   6  2   
  6   3  24  1   
  7   4   7  1   
  8   5   6  1   
  9   5   8  1   
 10   6  25  1   
 11   7   8  2   
 12   7   9  1   
 13   8  26  1   
 14   9  10  1   
 15   9  27  1   
 16   9  28  1   
 17  10  11  1   
 18  10  29  1   
 19  11  12  ar  
 20  11  13  ar  
 21  12  14  ar  
 22  13  15  ar  
 23  13  30  1   
 24  14  16  1   
 25  14  17  ar  
 26  15  17  ar  
 27  16  18  2   
 28  16  19  am  
 29  17  31  1   
 30  19  20  1   
 31  19  21  1   
 32  20  22  1   
 33  20  32  1   
 34  20  33  1   
 35  21  23  1   
 36  21  34  1   
 37  21  35  1   
 38  22  23  1   
 39  22  36  1   
 40  22  37  1   
 41  23  38  1   
 42  23  39  1   
@<TRIPOS>SUBSTRUCTURE
  1 ****  12 GROUP 4 **** **** 0

# MOE 2024.06 (io_trps.svl 2023.06)
