@<TRIPOS>MOLECULE
NONAME
49 51 1 0 0 
SMALL
USER_CHARGES


@<TRIPOS>ATOM
  1 S       -0.1880     0.4670     2.2070 S.o2  1 <1>   1.2040 
  2 O        1.0570     0.8010     2.8620 O.2   1 <1>  -0.6500 
  3 O       -1.4440     0.7070     2.8850 O.2   1 <1>  -0.6500 
  4 C       -0.2270     1.2380     0.5700 C.ar  1 <1>  -0.0090 
  5 C       -0.1270    -1.2770     1.8000 C.3   1 <1>  -0.0550 
  6 C       -1.4100     1.7420     0.0390 C.ar  1 <1>  -0.1500 
  7 C        0.9210     1.3180    -0.2090 C.ar  1 <1>  -0.1500 
  8 C       -1.3910    -1.7860     1.0810 C.3   1 <1>  -0.0990 
  9 C       -1.4490     2.2970    -1.2280 C.ar  1 <1>  -0.1500 
 10 C        0.8910     1.8710    -1.4770 C.ar  1 <1>  -0.1500 
 11 C       -1.3240    -3.2700     0.7670 C.2   1 <1>   0.5690 
 12 C       -0.2960     2.3600    -1.9890 C.ar  1 <1>  -0.1500 
 13 O       -0.2400    -3.8010     0.7200 O.2   1 <1>  -0.5700 
 14 N       -2.4730    -3.9660     0.5280 N.am  1 <1>  -0.6600 
 15 C       -3.8500    -3.4160     0.4520 C.3   1 <1>   0.1400 
 16 C       -2.4730    -5.4200     0.2340 C.3   1 <1>   0.1400 
 17 C       -4.6880    -4.5480    -0.1410 C.3   1 <1>   0.2000 
 18 C       -3.9470    -5.8300     0.2270 C.3   1 <1>  -0.0800 
 19 O       -5.9690    -4.5620     0.3840 O.3   1 <1>  -0.6800 
 20 C       -4.2560    -7.0040    -0.7140 C.3   1 <1>   0.0210 
 21 C       -3.4130    -8.2140    -0.3650 C.2   1 <1>   0.1080 
 22 N       -3.4650    -8.7960     0.7930 N.2   1 <1>  -0.7070 
 23 C       -2.4960    -8.8210    -1.2180 C.2   1 <1>  -0.1500 
 24 N       -2.5730    -9.8020     0.7080 N.pl3 1 <1>   0.3000 
 25 C       -1.9730    -9.8360    -0.5000 C.2   1 <1>  -0.3320 
 26 C       -0.9180   -10.8520    -0.8990 C.3   1 <1>  -0.0600 
 27 H        0.7320    -1.4690     1.1840 H     1 <1>   0.0800 
 28 H       -0.0020    -1.8410     2.7050 H     1 <1>   0.0800 
 29 H       -2.3140     1.7030     0.6250 H     1 <1>   0.1500 
 30 H        1.8540     0.9460     0.1820 H     1 <1>   0.1500 
 31 H       -2.2420    -1.5980     1.7090 H     1 <1>   0.0800 
 32 H       -1.5250    -1.2580     0.1550 H     1 <1>   0.0800 
 33 H       -2.3740     2.6830    -1.6210 H     1 <1>   0.1500 
 34 H        1.7920     1.9230    -2.0650 H     1 <1>   0.1500 
 35 H       -0.3220     2.7930    -2.9750 H     1 <1>   0.1500 
 36 H       -4.1900    -3.1730     1.4440 H     1 <1>   0.0800 
 37 H       -3.8810    -2.5470    -0.1810 H     1 <1>   0.0800 
 38 H       -2.0200    -5.5820    -0.7300 H     1 <1>   0.0800 
 39 H       -1.9180    -5.9650     0.9800 H     1 <1>   0.0800 
 40 H       -4.7580    -4.4240    -1.2090 H     1 <1>   0.0800 
 41 H       -4.1960    -6.1150     1.2350 H     1 <1>   0.0800 
 42 H       -5.9560    -4.8870     1.3050 H     1 <1>   0.4000 
 43 H       -4.0680    -6.7210    -1.7340 H     1 <1>   0.0800 
 44 H       -5.2940    -7.2710    -0.6260 H     1 <1>   0.0800 
 45 H       -2.2720    -8.5230    -2.2260 H     1 <1>   0.1500 
 46 H       -2.3980   -10.4430     1.4900 H     1 <1>   0.2700 
 47 H       -0.5950   -10.6710    -1.9090 H     1 <1>   0.0800 
 48 H       -1.3200   -11.8480    -0.8410 H     1 <1>   0.0800 
 49 H       -0.0650   -10.7770    -0.2490 H     1 <1>   0.0800 
@<TRIPOS>BOND
  1   1   2  2   
  2   1   3  2   
  3   1   4  1   
  4   1   5  1   
  5   4   6  ar  
  6   4   7  ar  
  7   5   8  1   
  8   5  27  1   
  9   5  28  1   
 10   6   9  ar  
 11   6  29  1   
 12   7  10  ar  
 13   7  30  1   
 14   8  11  1   
 15   8  31  1   
 16   8  32  1   
 17   9  12  ar  
 18   9  33  1   
 19  10  12  ar  
 20  10  34  1   
 21  11  13  2   
 22  11  14  am  
 23  12  35  1   
 24  14  15  1   
 25  14  16  1   
 26  15  17  1   
 27  15  36  1   
 28  15  37  1   
 29  16  18  1   
 30  16  38  1   
 31  16  39  1   
 32  17  18  1   
 33  17  19  1   
 34  17  40  1   
 35  18  20  1   
 36  18  41  1   
 37  19  42  1   
 38  20  21  1   
 39  20  43  1   
 40  20  44  1   
 41  21  22  2   
 42  21  23  1   
 43  22  24  1   
 44  23  25  2   
 45  23  45  1   
 46  24  25  1   
 47  24  46  1   
 48  25  26  1   
 49  26  47  1   
 50  26  48  1   
 51  26  49  1   
@<TRIPOS>SUBSTRUCTURE
  1 ****  11 GROUP 4 **** **** 0

# MOE 2024.06 (io_trps.svl 2023.06)
