@<TRIPOS>MOLECULE
NONAME
50 53 1 0 0 
SMALL
USER_CHARGES


@<TRIPOS>ATOM
  1 O       -0.6340     0.4150    -1.2560 O.2   1 <1>  -0.5700 
  2 C       -1.6120     0.8000    -0.6440 C.2   1 <1>   0.5440 
  3 N       -1.5220     1.9750     0.0730 N.am  1 <1>  -0.6600 
  4 C       -2.8180     0.0090    -0.6850 C.ar  1 <1>   0.0860 
  5 C       -2.4190     2.3550     1.2050 C.3   1 <1>   0.1400 
  6 C       -0.3570     2.8970    -0.0770 C.3   1 <1>   0.1400 
  7 C       -2.7720    -1.3580    -0.4230 C.ar  1 <1>   0.1600 
  8 C       -4.0640     0.5460    -0.9960 C.ar  1 <1>  -0.1500 
  9 C       -2.7760     3.8500     1.1300 C.3   1 <1>   0.1200 
 10 C       -0.8220     4.3630    -0.0690 C.3   1 <1>   0.1200 
 11 N       -3.8050    -2.1830    -0.4140 N.ar  1 <1>  -0.6200 
 12 C       -5.1480    -0.2980    -0.9980 C.ar  1 <1>  -0.1500 
 13 O       -1.6170     4.6300     1.0530 O.3   1 <1>  -0.5600 
 14 C       -4.9860    -1.6480    -0.7010 C.ar  1 <1>   0.4100 
 15 N       -6.0750    -2.4790    -0.7080 N.pl3 1 <1>  -0.8690 
 16 C       -5.9700    -3.9450    -0.5700 C.3   1 <1>   0.2090 
 17 C       -7.3680    -4.5260    -0.3670 C.3   1 <1>  -0.1600 
 18 C       -7.3410    -6.0520    -0.2150 C.3   1 <1>   0.2000 
 19 O       -8.6830    -6.4990    -0.2260 O.3   1 <1>  -0.3630 
 20 C       -6.6470    -6.5280     1.0760 C.3   1 <1>   0.1200 
 21 C       -8.9160    -7.7710     0.1860 C.ar  1 <1>   0.0830 
 22 O       -6.7500    -7.9340     1.2020 O.3   1 <1>  -0.3630 
 23 C       -7.9460    -8.4920     0.8860 C.ar  1 <1>   0.0830 
 24 C      -10.1370    -8.3560    -0.1020 C.ar  1 <1>  -0.1500 
 25 C       -8.2000    -9.7960     1.2740 C.ar  1 <1>  -0.1500 
 26 C      -10.3890    -9.6600     0.2940 C.ar  1 <1>  -0.1500 
 27 C       -9.4220   -10.3800     0.9780 C.ar  1 <1>  -0.1500 
 28 H       -1.9080     2.1680     2.1330 H     1 <1>   0.0800 
 29 H       -3.3190     1.7690     1.2030 H     1 <1>   0.0800 
 30 H        0.1640     2.6980    -0.9980 H     1 <1>   0.0800 
 31 H        0.3310     2.7350     0.7350 H     1 <1>   0.0800 
 32 H       -1.8080    -1.7860    -0.2060 H     1 <1>   0.1500 
 33 H       -4.1610     1.5920    -1.2300 H     1 <1>   0.1500 
 34 H       -3.3130     4.1480     2.0130 H     1 <1>   0.0800 
 35 H       -3.3870     4.0530     0.2680 H     1 <1>   0.0800 
 36 H       -1.3910     4.5820    -0.9560 H     1 <1>   0.0800 
 37 H        0.0280     5.0210    -0.0340 H     1 <1>   0.0800 
 38 H       -6.1290     0.0710    -1.2280 H     1 <1>   0.1500 
 39 H       -6.9180    -2.1480    -1.1780 H     1 <1>   0.4000 
 40 H       -5.3400    -4.1730     0.2740 H     1 <1>   0.0800 
 41 H       -5.5150    -4.3520    -1.4580 H     1 <1>   0.0800 
 42 H       -7.9700    -4.2810    -1.2240 H     1 <1>   0.0800 
 43 H       -7.8100    -4.0900     0.5110 H     1 <1>   0.0800 
 44 H       -6.8520    -6.4940    -1.0660 H     1 <1>   0.0800 
 45 H       -7.1100    -6.0820     1.9380 H     1 <1>   0.0800 
 46 H       -5.6010    -6.2810     1.0700 H     1 <1>   0.0800 
 47 H      -10.8800    -7.7910    -0.6340 H     1 <1>   0.1500 
 48 H       -7.4450   -10.3450     1.8070 H     1 <1>   0.1500 
 49 H      -11.3380   -10.1150     0.0680 H     1 <1>   0.1500 
 50 H       -9.6200   -11.3930     1.2810 H     1 <1>   0.1500 
@<TRIPOS>BOND
  1   1   2  2   
  2   2   3  am  
  3   2   4  1   
  4   3   5  1   
  5   3   6  1   
  6   4   7  ar  
  7   4   8  ar  
  8   5   9  1   
  9   5  28  1   
 10   5  29  1   
 11   6  10  1   
 12   6  30  1   
 13   6  31  1   
 14   7  11  ar  
 15   7  32  1   
 16   8  12  ar  
 17   8  33  1   
 18   9  13  1   
 19   9  34  1   
 20   9  35  1   
 21  10  13  1   
 22  10  36  1   
 23  10  37  1   
 24  11  14  ar  
 25  12  14  ar  
 26  12  38  1   
 27  14  15  1   
 28  15  16  1   
 29  15  39  1   
 30  16  17  1   
 31  16  40  1   
 32  16  41  1   
 33  17  18  1   
 34  17  42  1   
 35  17  43  1   
 36  18  19  1   
 37  18  20  1   
 38  18  44  1   
 39  19  21  1   
 40  20  22  1   
 41  20  45  1   
 42  20  46  1   
 43  21  23  ar  
 44  21  24  ar  
 45  22  23  1   
 46  23  25  ar  
 47  24  26  ar  
 48  24  47  1   
 49  25  27  ar  
 50  25  48  1   
 51  26  27  ar  
 52  26  49  1   
 53  27  50  1   
@<TRIPOS>SUBSTRUCTURE
  1 ****  15 GROUP 4 **** **** 0

# MOE 2024.06 (io_trps.svl 2023.06)
