@<TRIPOS>MOLECULE
NONAME
51 54 1 0 0 
SMALL
USER_CHARGES


@<TRIPOS>ATOM
  1 O        3.5790     2.7340     1.1700 O.co2 1 <1>  -0.9000 
  2 C        3.3330     1.5410     0.9800 C.2   1 <1>   0.9060 
  3 O        3.7100     0.6780     1.7940 O.co2 1 <1>  -0.9000 
  4 C        2.5470     1.0800    -0.2710 C.3   1 <1>  -0.1060 
  5 C        3.2370    -0.2000    -0.7900 C.3   1 <1>   0.4230 
  6 C        2.5880     2.1380    -1.4230 C.3   1 <1>  -0.1600 
  7 C        1.0620     0.7990     0.0780 C.3   1 <1>  -0.1600 
  8 N        3.0640    -1.3210     0.1950 N.4   1 <1>  -0.9590 
  9 C        4.7290     0.0830    -1.1280 C.3   1 <1>   0.1100 
 10 C        3.8810     2.1410    -2.2590 C.3   1 <1>   0.1100 
 11 C        0.9030    -0.4240     0.9920 C.3   1 <1>  -0.1600 
 12 C        1.6390    -1.6480     0.4470 C.3   1 <1>   0.3430 
 13 C        3.8960    -2.5290    -0.0430 C.3   1 <1>   0.2630 
 14 N        4.9460     1.4880    -1.5010 N.3   1 <1>  -0.8100 
 15 C        6.3250     1.9730    -1.6360 C.3   1 <1>   0.2480 
 16 C        6.4250     3.4670    -1.3270 C.2   1 <1>  -0.0380 
 17 N        5.7040     3.9710    -0.2670 N.pl3 1 <1>  -0.6000 
 18 C        7.1970     4.3100    -2.0580 C.2   1 <1>  -0.1360 
 19 C        5.7370     5.3100     0.0930 C.ar  1 <1>   0.1000 
 20 C        7.2840     5.6940    -1.7580 C.2   1 <1>   0.4690 
 21 C        6.5300     6.2040    -0.6420 C.ar  1 <1>   0.0860 
 22 C        4.9860     5.7690     1.1720 C.ar  1 <1>  -0.1500 
 23 O        7.9920     6.4200    -2.4470 O.2   1 <1>  -0.5700 
 24 C        6.5430     7.5490    -0.2560 C.ar  1 <1>  -0.1500 
 25 C        5.0140     7.0980     1.5340 C.ar  1 <1>  -0.1500 
 26 C        5.7980     7.9930     0.8160 C.ar  1 <1>  -0.1500 
 27 H        2.7510    -0.4800    -1.7070 H     1 <1>   0.0800 
 28 H        2.4510     3.1220    -1.0060 H     1 <1>   0.0800 
 29 H        1.7720     1.9900    -2.1060 H     1 <1>   0.0800 
 30 H        0.6440     1.6660     0.5630 H     1 <1>   0.0800 
 31 H        0.4990     0.6240    -0.8220 H     1 <1>   0.0800 
 32 H        3.3990    -0.8410     1.0760 H     1 <1>   0.4500 
 33 H        5.0500    -0.5540    -1.9320 H     1 <1>   0.0800 
 34 H        5.3290    -0.1140    -0.2550 H     1 <1>   0.0800 
 35 H        4.1470     3.1590    -2.4900 H     1 <1>   0.0800 
 36 H        3.7340     1.6150    -3.1860 H     1 <1>   0.0800 
 37 H       -0.1410    -0.6570     1.0990 H     1 <1>   0.0800 
 38 H        1.2790    -0.1970     1.9760 H     1 <1>   0.0800 
 39 H        1.1740    -1.9710    -0.4700 H     1 <1>   0.0800 
 40 H        1.5700    -2.4470     1.1670 H     1 <1>   0.0800 
 41 H        3.6290    -2.9890    -0.9800 H     1 <1>   0.0800 
 42 H        3.7480    -3.2410     0.7520 H     1 <1>   0.0800 
 43 H        4.9400    -2.2640    -0.0670 H     1 <1>   0.0800 
 44 H        6.9490     1.4510    -0.9320 H     1 <1>   0.0800 
 45 H        6.6860     1.7700    -2.6290 H     1 <1>   0.0800 
 46 H        5.0160     3.3580     0.2430 H     1 <1>   0.4000 
 47 H        7.7770     3.9720    -2.8940 H     1 <1>   0.1500 
 48 H        4.3820     5.0620     1.7170 H     1 <1>   0.1500 
 49 H        7.1510     8.2400    -0.8150 H     1 <1>   0.1500 
 50 H        4.4300     7.4400     2.3700 H     1 <1>   0.1500 
 51 H        5.8180     9.0300     1.1020 H     1 <1>   0.1500 
@<TRIPOS>BOND
  1   1   2  ar  
  2   2   3  ar  
  3   2   4  1   
  4   4   5  1   
  5   4   6  1   
  6   4   7  1   
  7   5   8  1   
  8   5   9  1   
  9   5  27  1   
 10   6  10  1   
 11   6  28  1   
 12   6  29  1   
 13   7  11  1   
 14   7  30  1   
 15   7  31  1   
 16   8  12  1   
 17   8  13  1   
 18   8  32  1   
 19   9  14  1   
 20   9  33  1   
 21   9  34  1   
 22  10  14  1   
 23  10  35  1   
 24  10  36  1   
 25  11  12  1   
 26  11  37  1   
 27  11  38  1   
 28  12  39  1   
 29  12  40  1   
 30  13  41  1   
 31  13  42  1   
 32  13  43  1   
 33  14  15  1   
 34  15  16  1   
 35  15  44  1   
 36  15  45  1   
 37  16  17  1   
 38  16  18  2   
 39  17  19  1   
 40  17  46  1   
 41  18  20  1   
 42  18  47  1   
 43  19  21  ar  
 44  19  22  ar  
 45  20  21  1   
 46  20  23  2   
 47  21  24  ar  
 48  22  25  ar  
 49  22  48  1   
 50  24  26  ar  
 51  24  49  1   
 52  25  26  ar  
 53  25  50  1   
 54  26  51  1   
@<TRIPOS>SUBSTRUCTURE
  1 ****  17 GROUP 4 **** **** 0

# MOE 2024.06 (io_trps.svl 2023.06)
