@<TRIPOS>MOLECULE
NONAME
53 55 1 0 0 
SMALL
USER_CHARGES


@<TRIPOS>ATOM
  1 O       -3.4490     0.6730     0.9320 O.2   1 <1>  -0.5700 
  2 C       -3.1830     1.3100    -0.0710 C.2   1 <1>   0.5440 
  3 N       -3.7130     0.8380    -1.2450 N.am  1 <1>  -0.6600 
  4 C       -2.3730     2.5050    -0.0200 C.ar  1 <1>   0.0860 
  5 C       -5.1700     1.0920    -1.4900 C.3   1 <1>   0.1400 
  6 C       -3.2910    -0.5330    -1.6880 C.3   1 <1>   0.1400 
  7 C       -2.0120     3.2170    -1.1490 C.ar  1 <1>   0.1600 
  8 C       -1.9010     3.0230     1.1700 C.ar  1 <1>   0.1600 
  9 C       -6.0730     0.0460    -0.7750 C.3   1 <1>   0.4230 
 10 C       -4.2960    -1.6320    -1.2590 C.3   1 <1>   0.3430 
 11 N       -1.2810     4.3090    -1.1130 N.ar  1 <1>  -0.6200 
 12 N       -1.1680     4.1130     1.2430 N.ar  1 <1>  -0.6200 
 13 N       -5.2710    -1.1170    -0.2350 N.4   1 <1>  -0.9590 
 14 C       -7.2090    -0.4480    -1.6990 C.3   1 <1>   0.1200 
 15 C       -0.8910     4.7080     0.0900 C.ar  1 <1>   0.4770 
 16 C       -6.1780    -2.1310     0.3930 C.3   1 <1>   0.4230 
 17 O       -7.9940    -1.4060    -1.0480 O.3   1 <1>  -0.5600 
 18 C       -0.0370     5.9820     0.1400 C.3   1 <1>   0.0630 
 19 C       -7.3080    -2.5380    -0.5840 C.3   1 <1>   0.1200 
 20 C       -5.3720    -3.3300     0.9160 C.3   1 <1>  -0.1600 
 21 C        1.3610     5.7100     0.7190 C.3   1 <1>  -0.2400 
 22 C       -0.7300     7.1030     0.9310 C.3   1 <1>  -0.2400 
 23 C       -6.1890    -4.2140     1.8720 C.3   1 <1>  -0.1600 
 24 C       -5.3280    -5.3480     2.4350 C.3   1 <1>  -0.2400 
 25 H       -5.4310     2.0770    -1.1400 H     1 <1>   0.0800 
 26 H       -5.3500     1.0760    -2.5510 H     1 <1>   0.0800 
 27 H       -3.1750    -0.5470    -2.7590 H     1 <1>   0.0800 
 28 H       -2.3290    -0.7610    -1.2620 H     1 <1>   0.0800 
 29 H       -2.3340     2.8770    -2.1180 H     1 <1>   0.1500 
 30 H       -2.1360     2.5220     2.0950 H     1 <1>   0.1500 
 31 H       -6.5420     0.5470     0.0560 H     1 <1>   0.0800 
 32 H       -3.7400    -2.4640    -0.8600 H     1 <1>   0.0800 
 33 H       -4.8310    -1.9820    -2.1250 H     1 <1>   0.0800 
 34 H       -4.6750    -0.6900     0.5070 H     1 <1>   0.4500 
 35 H       -6.8210    -0.8820    -2.6040 H     1 <1>   0.0800 
 36 H       -7.8550     0.3710    -1.9630 H     1 <1>   0.0800 
 37 H       -6.6540    -1.6710     1.2450 H     1 <1>   0.0800 
 38 H        0.0930     6.3310    -0.8700 H     1 <1>   0.0800 
 39 H       -8.0270    -3.1620    -0.0840 H     1 <1>   0.0800 
 40 H       -6.9200    -3.0790    -1.4290 H     1 <1>   0.0800 
 41 H       -5.0310    -3.9380     0.0970 H     1 <1>   0.0800 
 42 H       -4.5150    -2.9640     1.4560 H     1 <1>   0.0800 
 43 H        1.2870     5.3840     1.7420 H     1 <1>   0.0800 
 44 H        1.9630     6.6010     0.6820 H     1 <1>   0.0800 
 45 H        1.8500     4.9410     0.1490 H     1 <1>   0.0800 
 46 H       -0.8590     6.8130     1.9590 H     1 <1>   0.0800 
 47 H       -1.6980     7.3050     0.5090 H     1 <1>   0.0800 
 48 H       -0.1450     8.0050     0.8960 H     1 <1>   0.0800 
 49 H       -6.5630    -3.6230     2.6920 H     1 <1>   0.0800 
 50 H       -7.0320    -4.6480     1.3620 H     1 <1>   0.0800 
 51 H       -4.4910    -4.9550     2.9870 H     1 <1>   0.0800 
 52 H       -4.9570    -5.9760     1.6440 H     1 <1>   0.0800 
 53 H       -5.9130    -5.9570     3.1020 H     1 <1>   0.0800 
@<TRIPOS>BOND
  1   1   2  2   
  2   2   3  am  
  3   2   4  1   
  4   3   5  1   
  5   3   6  1   
  6   4   7  ar  
  7   4   8  ar  
  8   5   9  1   
  9   5  25  1   
 10   5  26  1   
 11   6  10  1   
 12   6  27  1   
 13   6  28  1   
 14   7  11  ar  
 15   7  29  1   
 16   8  12  ar  
 17   8  30  1   
 18   9  13  1   
 19   9  14  1   
 20   9  31  1   
 21  10  13  1   
 22  10  32  1   
 23  10  33  1   
 24  11  15  ar  
 25  12  15  ar  
 26  13  16  1   
 27  13  34  1   
 28  14  17  1   
 29  14  35  1   
 30  14  36  1   
 31  15  18  1   
 32  16  19  1   
 33  16  20  1   
 34  16  37  1   
 35  17  19  1   
 36  18  21  1   
 37  18  22  1   
 38  18  38  1   
 39  19  39  1   
 40  19  40  1   
 41  20  23  1   
 42  20  41  1   
 43  20  42  1   
 44  21  43  1   
 45  21  44  1   
 46  21  45  1   
 47  22  46  1   
 48  22  47  1   
 49  22  48  1   
 50  23  24  1   
 51  23  49  1   
 52  23  50  1   
 53  24  51  1   
 54  24  52  1   
 55  24  53  1   
@<TRIPOS>SUBSTRUCTURE
  1 ****   2 GROUP 4 **** **** 0

# MOE 2024.06 (io_trps.svl 2023.06)
