@<TRIPOS>MOLECULE
NONAME
44 45 1 0 0 
SMALL
USER_CHARGES


@<TRIPOS>ATOM
  1 S        0.4520     0.2120    -1.4290 S.o2  1 <1>   1.3330 
  2 O       -0.4490     1.0880    -2.1420 O.2   1 <1>  -0.6500 
  3 O        0.7080    -1.1170    -1.9390 O.2   1 <1>  -0.6500 
  4 N       -0.1570     0.0500     0.1490 N.am  1 <1>  -0.8490 
  5 C        2.0310     1.0330    -1.2000 C.3   1 <1>  -0.0550 
  6 C       -0.7480     1.2880     0.6710 C.3   1 <1>   0.1160 
  7 C       -1.1290    -1.0430     0.2510 C.3   1 <1>   0.1160 
  8 C        3.1130     0.1570    -0.5310 C.3   1 <1>  -0.0800 
  9 C        4.4910     0.7940    -0.4450 C.3   1 <1>   0.2200 
 10 C        2.8340    -0.2350     0.9250 C.3   1 <1>   0.1200 
 11 N        4.3920     2.2030     0.0050 N.am  1 <1>  -0.7300 
 12 C        5.1050    -0.0320     0.6760 C.3   1 <1>   0.1200 
 13 O        4.0680    -0.2310     1.5880 O.3   1 <1>  -0.5600 
 14 C        4.4310     3.2980    -0.8090 C.2   1 <1>   0.5440 
 15 O        4.5130     3.1220    -2.0070 O.2   1 <1>  -0.5700 
 16 C        4.3380     4.6250    -0.2580 C.ar  1 <1>   0.0860 
 17 C        5.3480     5.5720    -0.4060 C.ar  1 <1>   0.1900 
 18 C        3.2260     5.0530     0.4610 C.ar  1 <1>   0.1900 
 19 F        6.4350     5.2300    -1.0460 F     1 <1>  -0.1900 
 20 C        5.2730     6.8630     0.1060 C.ar  1 <1>  -0.1440 
 21 F        2.2340     4.2270     0.6560 F     1 <1>  -0.1900 
 22 C        3.1070     6.3250     0.9900 C.ar  1 <1>  -0.1500 
 23 C        4.1360     7.2350     0.8090 C.ar  1 <1>  -0.1500 
 24 C        6.4090     7.8560    -0.0940 C.3   1 <1>  -0.0970 
 25 H        2.3980     1.3300    -2.1640 H     1 <1>   0.0800 
 26 H        1.8810     1.9280    -0.6310 H     1 <1>   0.0800 
 27 H       -1.0430     1.1520     1.6970 H     1 <1>   0.0800 
 28 H       -1.6140     1.5670     0.0920 H     1 <1>   0.0800 
 29 H       -0.0320     2.0910     0.6290 H     1 <1>   0.0800 
 30 H       -1.4870    -1.1310     1.2620 H     1 <1>   0.0800 
 31 H       -0.6650    -1.9760    -0.0230 H     1 <1>   0.0800 
 32 H       -1.9620    -0.8650    -0.4080 H     1 <1>   0.0800 
 33 H        3.2070    -0.7530    -1.0980 H     1 <1>   0.0800 
 34 H        5.0470     0.7230    -1.3650 H     1 <1>   0.0800 
 35 H        2.3960    -1.2160     1.0000 H     1 <1>   0.0800 
 36 H        2.2030     0.4840     1.4180 H     1 <1>   0.0800 
 37 H        4.2340     2.3030     1.0110 H     1 <1>   0.3700 
 38 H        5.9280     0.4650     1.1600 H     1 <1>   0.0800 
 39 H        5.4180    -0.9960     0.3140 H     1 <1>   0.0800 
 40 H        2.2210     6.6010     1.5350 H     1 <1>   0.1500 
 41 H        4.0480     8.2270     1.2180 H     1 <1>   0.1500 
 42 H        6.1740     8.8110     0.3420 H     1 <1>   0.0800 
 43 H        6.5930     7.9980    -1.1450 H     1 <1>   0.0800 
 44 H        7.3080     7.4840     0.3640 H     1 <1>   0.0800 
@<TRIPOS>BOND
  1   1   2  2   
  2   1   3  2   
  3   1   4  am  
  4   1   5  1   
  5   4   6  1   
  6   4   7  1   
  7   5   8  1   
  8   5  25  1   
  9   5  26  1   
 10   6  27  1   
 11   6  28  1   
 12   6  29  1   
 13   7  30  1   
 14   7  31  1   
 15   7  32  1   
 16   8   9  1   
 17   8  10  1   
 18   8  33  1   
 19   9  11  1   
 20   9  12  1   
 21   9  34  1   
 22  10  13  1   
 23  10  35  1   
 24  10  36  1   
 25  11  14  am  
 26  11  37  1   
 27  12  13  1   
 28  12  38  1   
 29  12  39  1   
 30  14  15  2   
 31  14  16  1   
 32  16  17  ar  
 33  16  18  ar  
 34  17  19  1   
 35  17  20  ar  
 36  18  21  1   
 37  18  22  ar  
 38  20  23  ar  
 39  20  24  1   
 40  22  23  ar  
 41  22  40  1   
 42  23  41  1   
 43  24  42  1   
 44  24  43  1   
 45  24  44  1   
@<TRIPOS>SUBSTRUCTURE
  1 ****  11 GROUP 4 **** **** 0

# MOE 2024.06 (io_trps.svl 2023.06)
