@<TRIPOS>MOLECULE
NONAME
62 66 1 0 0 
SMALL
USER_CHARGES


@<TRIPOS>ATOM
  1 O        0.9490    -1.1700    -0.3080 O.3   1 <1>  -0.5600 
  2 C       -0.0710    -2.0780     0.0610 C.3   1 <1>   0.4180 
  3 C        0.8080     0.1630     0.1160 C.3   1 <1>   0.1200 
  4 C       -1.4430    -1.4180     0.0220 C.2   1 <1>  -0.2880 
  5 C        0.2640    -2.6350     1.4490 C.3   1 <1>  -0.1600 
  6 C       -0.0180    -3.2200    -0.9650 C.3   1 <1>  -0.1600 
  7 C       -0.4600     0.7950    -0.4710 C.3   1 <1>  -0.0220 
  8 C       -1.6420    -0.1240    -0.2350 C.2   1 <1>  -0.2760 
  9 C        1.6340    -3.3270     1.4950 C.3   1 <1>   0.3430 
 10 C        1.1580    -4.1840    -0.7640 C.3   1 <1>   0.3430 
 11 C       -3.0070     0.5360    -0.3240 C.3   1 <1>  -0.1020 
 12 N        2.1730    -3.5450     0.1140 N.4   1 <1>  -0.9590 
 13 C        3.5100    -4.1970     0.0720 C.3   1 <1>   0.4860 
 14 C        4.6590    -3.1870     0.1360 C.ar  1 <1>  -0.1440 
 15 C        5.9610    -3.6610    -0.2160 C.ar  1 <1>   0.4610 
 16 C        4.4810    -1.8630     0.4360 C.ar  1 <1>  -0.1500 
 17 N        6.9420    -2.7590    -0.3300 N.ar  1 <1>  -0.1790 
 18 N        6.2680    -4.9570    -0.4280 N.pl3 1 <1>  -0.8380 
 19 C        5.5610    -0.9420     0.3720 C.ar  1 <1>   0.0000 
 20 C        6.8150    -1.4130    -0.0440 C.ar  1 <1>   0.3610 
 21 C        5.8910    -6.0890     0.4980 C.3   1 <1>   0.2090 
 22 C        7.1690    -5.4520    -1.5390 C.3   1 <1>   0.2090 
 23 C        5.4240     0.4170     0.6870 C.ar  1 <1>  -0.1500 
 24 C        7.8940    -0.5290    -0.1440 C.ar  1 <1>  -0.1500 
 25 C        7.1250    -6.9080     0.9230 C.3   1 <1>   0.1200 
 26 C        8.3280    -6.3140    -1.0040 C.3   1 <1>   0.1200 
 27 C        6.4930     1.2730     0.5860 C.ar  1 <1>  -0.1500 
 28 C        7.7350     0.8010     0.1680 C.ar  1 <1>  -0.1500 
 29 O        7.8320    -7.3400    -0.2000 O.3   1 <1>  -0.5600 
 30 H        1.6750     0.7120    -0.2080 H     1 <1>   0.0800 
 31 H        0.7640     0.1810     1.1910 H     1 <1>   0.0800 
 32 H       -2.2530    -2.1010     0.2100 H     1 <1>   0.1500 
 33 H       -0.4910    -3.3500     1.7240 H     1 <1>   0.0800 
 34 H        0.2200    -1.8520     2.1840 H     1 <1>   0.0800 
 35 H        0.0140    -2.7980    -1.9540 H     1 <1>   0.0800 
 36 H       -0.9250    -3.7960    -0.9090 H     1 <1>   0.0800 
 37 H       -0.3340     0.9720    -1.5240 H     1 <1>   0.0800 
 38 H       -0.6240     1.7430     0.0100 H     1 <1>   0.0800 
 39 H        1.5400    -4.2690     2.0120 H     1 <1>   0.0800 
 40 H        2.3170    -2.7070     2.0520 H     1 <1>   0.0800 
 41 H        1.5850    -4.4240    -1.7250 H     1 <1>   0.0800 
 42 H        0.8060    -5.0960    -0.3090 H     1 <1>   0.0800 
 43 H       -3.1440     0.9730    -1.2970 H     1 <1>   0.0800 
 44 H       -3.0970     1.3090     0.4190 H     1 <1>   0.0800 
 45 H       -3.7880    -0.1840    -0.1610 H     1 <1>   0.0800 
 46 H        2.2580    -2.5910    -0.2900 H     1 <1>   0.4500 
 47 H        3.6040    -4.7450    -0.8520 H     1 <1>   0.0800 
 48 H        3.5900    -4.9030     0.8810 H     1 <1>   0.0800 
 49 H        3.5310    -1.4370     0.7120 H     1 <1>   0.1500 
 50 H        7.8680    -3.1100    -0.5560 H     1 <1>   0.4570 
 51 H        5.2010    -6.7510     0.0020 H     1 <1>   0.0800 
 52 H        5.4240    -5.7100     1.3900 H     1 <1>   0.0800 
 53 H        7.5640    -4.6350    -2.1170 H     1 <1>   0.0800 
 54 H        6.5890    -6.0620    -2.2130 H     1 <1>   0.0800 
 55 H        4.4690     0.7980     1.0100 H     1 <1>   0.1500 
 56 H        8.8600    -0.8780    -0.4640 H     1 <1>   0.1500 
 57 H        6.8220    -7.7830     1.4720 H     1 <1>   0.0800 
 58 H        7.7830    -6.3260     1.5450 H     1 <1>   0.0800 
 59 H        9.0220    -5.7290    -0.4260 H     1 <1>   0.0800 
 60 H        8.8600    -6.7710    -1.8200 H     1 <1>   0.0800 
 61 H        6.3830     2.3180     0.8290 H     1 <1>   0.1500 
 62 H        8.5610     1.4910     0.0940 H     1 <1>   0.1500 
@<TRIPOS>BOND
  1   1   2  1   
  2   1   3  1   
  3   2   4  1   
  4   2   5  1   
  5   2   6  1   
  6   3   7  1   
  7   3  30  1   
  8   3  31  1   
  9   4   8  2   
 10   4  32  1   
 11   5   9  1   
 12   5  33  1   
 13   5  34  1   
 14   6  10  1   
 15   6  35  1   
 16   6  36  1   
 17   7   8  1   
 18   7  37  1   
 19   7  38  1   
 20   8  11  1   
 21   9  12  1   
 22   9  39  1   
 23   9  40  1   
 24  10  12  1   
 25  10  41  1   
 26  10  42  1   
 27  11  43  1   
 28  11  44  1   
 29  11  45  1   
 30  12  13  1   
 31  12  46  1   
 32  13  14  1   
 33  13  47  1   
 34  13  48  1   
 35  14  15  ar  
 36  14  16  ar  
 37  15  17  ar  
 38  15  18  1   
 39  16  19  ar  
 40  16  49  1   
 41  17  20  ar  
 42  17  50  1   
 43  18  21  1   
 44  18  22  1   
 45  19  20  ar  
 46  19  23  ar  
 47  20  24  ar  
 48  21  25  1   
 49  21  51  1   
 50  21  52  1   
 51  22  26  1   
 52  22  53  1   
 53  22  54  1   
 54  23  27  ar  
 55  23  55  1   
 56  24  28  ar  
 57  24  56  1   
 58  25  29  1   
 59  25  57  1   
 60  25  58  1   
 61  26  29  1   
 62  26  59  1   
 63  26  60  1   
 64  27  28  ar  
 65  27  61  1   
 66  28  62  1   
@<TRIPOS>SUBSTRUCTURE
  1 ****  16 GROUP 4 **** **** 0

# MOE 2024.06 (io_trps.svl 2023.06)
