@<TRIPOS>MOLECULE
NONAME
64 67 1 0 0 
SMALL
USER_CHARGES


@<TRIPOS>ATOM
  1 O       -0.1790     1.2480    -1.0230 O.3   1 <1>  -0.3630 
  2 C        1.0140     1.4470    -0.4030 C.ar  1 <1>   0.0820 
  3 C       -1.2060     2.2150    -1.1040 C.3   1 <1>   0.2000 
  4 C        1.9450     0.4400    -0.4870 C.ar  1 <1>  -0.1440 
  5 C        1.3070     2.6090     0.3310 C.ar  1 <1>  -0.1500 
  6 C       -2.4950     1.4640    -1.4310 C.3   1 <1>  -0.2400 
  7 C       -0.8560     3.2160    -2.2070 C.3   1 <1>  -0.2400 
  8 C        3.2080     0.5450     0.1440 C.ar  1 <1>   0.0000 
  9 C        1.5820    -0.8060    -1.2690 C.3   1 <1>   0.4870 
 10 C        2.5090     2.7250     0.9670 C.ar  1 <1>  -0.1500 
 11 C        3.4790     1.7070     0.9030 C.ar  1 <1>   0.0000 
 12 C        4.2240    -0.4400     0.0660 C.ar  1 <1>  -0.1500 
 13 N        1.1440    -1.8760    -0.3140 N.4   1 <1>  -0.9590 
 14 C        4.7120     1.8220     1.5720 C.ar  1 <1>  -0.1500 
 15 C        5.4140    -0.2980     0.7240 C.ar  1 <1>  -0.1500 
 16 C        0.9670    -3.2020    -1.0140 C.3   1 <1>   0.3430 
 17 C       -0.0880    -1.4200     0.4100 C.3   1 <1>   0.3430 
 18 C        5.6600     0.8430     1.4900 C.ar  1 <1>  -0.1500 
 19 C        0.3260    -4.3300    -0.1350 C.3   1 <1>   0.4230 
 20 C       -0.5620    -2.5240     1.3510 C.3   1 <1>  -0.1600 
 21 N        0.1210    -5.6720    -0.8450 N.4   1 <1>  -0.9590 
 22 C       -0.9510    -3.8190     0.5880 C.3   1 <1>   0.0000 
 23 C       -0.8740    -6.5810    -0.1730 C.3   1 <1>   0.3430 
 24 C       -0.2030    -5.6170    -2.3130 C.3   1 <1>   0.2630 
 25 C       -1.4250    -4.8690     1.6310 C.3   1 <1>  -0.1600 
 26 C       -2.0790    -3.5460    -0.4530 C.3   1 <1>   0.1200 
 27 C       -0.9480    -6.3010     1.3270 C.3   1 <1>  -0.1600 
 28 O       -2.9970    -2.6310     0.0260 O.3   1 <1>  -0.6800 
 29 H       -1.3150     2.6990    -0.1490 H     1 <1>   0.0800 
 30 H        0.6000     3.4140     0.4030 H     1 <1>   0.1500 
 31 H       -2.4080     0.9510    -2.3710 H     1 <1>   0.0800 
 32 H       -3.3130     2.1580    -1.4980 H     1 <1>   0.0800 
 33 H       -2.7210     0.7560    -0.6540 H     1 <1>   0.0800 
 34 H       -0.7470     2.7130    -3.1510 H     1 <1>   0.0800 
 35 H        0.0560     3.7360    -1.9770 H     1 <1>   0.0800 
 36 H       -1.6410     3.9450    -2.3000 H     1 <1>   0.0800 
 37 H        2.4380    -1.1280    -1.8380 H     1 <1>   0.0800 
 38 H        0.7870    -0.5800    -1.9620 H     1 <1>   0.0800 
 39 H        2.7370     3.6110     1.5340 H     1 <1>   0.1500 
 40 H        4.0820    -1.3210    -0.5280 H     1 <1>   0.1500 
 41 H        1.8930    -1.9170     0.3940 H     1 <1>   0.4500 
 42 H        4.9010     2.7070     2.1550 H     1 <1>   0.1500 
 43 H        6.1840    -1.0500     0.6610 H     1 <1>   0.1500 
 44 H        0.3330    -3.0430    -1.8700 H     1 <1>   0.0800 
 45 H        1.9270    -3.5400    -1.3680 H     1 <1>   0.0800 
 46 H        0.1270    -0.5310     0.9840 H     1 <1>   0.0800 
 47 H       -0.8700    -1.1740    -0.2920 H     1 <1>   0.0800 
 48 H        6.6020     0.9400     2.0040 H     1 <1>   0.1500 
 49 H        1.0370    -4.5170     0.6540 H     1 <1>   0.0800 
 50 H        0.2110    -2.7200     2.0740 H     1 <1>   0.0800 
 51 H       -1.4060    -2.1500     1.9070 H     1 <1>   0.0800 
 52 H        1.0190    -6.1780    -0.7640 H     1 <1>   0.4500 
 53 H       -1.8540    -6.4300    -0.5960 H     1 <1>   0.0800 
 54 H       -0.6010    -7.6120    -0.3380 H     1 <1>   0.0800 
 55 H       -1.1400    -5.1100    -2.4780 H     1 <1>   0.0800 
 56 H       -0.2870    -6.6160    -2.7130 H     1 <1>   0.0800 
 57 H        0.5720    -5.1050    -2.8610 H     1 <1>   0.0800 
 58 H       -1.0740    -4.6180     2.6180 H     1 <1>   0.0800 
 59 H       -2.5020    -4.8600     1.6900 H     1 <1>   0.0800 
 60 H       -2.6140    -4.4420    -0.7160 H     1 <1>   0.0800 
 61 H       -1.6840    -3.1150    -1.3560 H     1 <1>   0.0800 
 62 H       -1.6290    -7.0010     1.7820 H     1 <1>   0.0800 
 63 H        0.0180    -6.4760     1.7680 H     1 <1>   0.0800 
 64 H       -3.6620    -3.0420     0.6190 H     1 <1>   0.4000 
@<TRIPOS>BOND
  1   1   2  1   
  2   1   3  1   
  3   2   4  ar  
  4   2   5  ar  
  5   3   6  1   
  6   3   7  1   
  7   3  29  1   
  8   4   8  ar  
  9   4   9  1   
 10   5  10  ar  
 11   5  30  1   
 12   6  31  1   
 13   6  32  1   
 14   6  33  1   
 15   7  34  1   
 16   7  35  1   
 17   7  36  1   
 18   8  11  ar  
 19   8  12  ar  
 20   9  13  1   
 21   9  37  1   
 22   9  38  1   
 23  10  11  ar  
 24  10  39  1   
 25  11  14  ar  
 26  12  15  ar  
 27  12  40  1   
 28  13  16  1   
 29  13  17  1   
 30  13  41  1   
 31  14  18  ar  
 32  14  42  1   
 33  15  18  ar  
 34  15  43  1   
 35  16  19  1   
 36  16  44  1   
 37  16  45  1   
 38  17  20  1   
 39  17  46  1   
 40  17  47  1   
 41  18  48  1   
 42  19  21  1   
 43  19  22  1   
 44  19  49  1   
 45  20  22  1   
 46  20  50  1   
 47  20  51  1   
 48  21  23  1   
 49  21  24  1   
 50  21  52  1   
 51  22  25  1   
 52  22  26  1   
 53  23  27  1   
 54  23  53  1   
 55  23  54  1   
 56  24  55  1   
 57  24  56  1   
 58  24  57  1   
 59  25  27  1   
 60  25  58  1   
 61  25  59  1   
 62  26  28  1   
 63  26  60  1   
 64  26  61  1   
 65  27  62  1   
 66  27  63  1   
 67  28  64  1   
@<TRIPOS>SUBSTRUCTURE
  1 ****  13 GROUP 4 **** **** 0

# MOE 2024.06 (io_trps.svl 2023.06)
