@<TRIPOS>MOLECULE
NONAME
47 49 1 0 0 
SMALL
USER_CHARGES


@<TRIPOS>ATOM
  1 F       -0.7610    -0.4500    -0.9340 F     1 <1>  -0.1900 
  2 C       -0.6020    -1.5620    -0.2650 C.ar  1 <1>   0.1900 
  3 C       -1.6540    -2.0580     0.4980 C.ar  1 <1>  -0.1440 
  4 C        0.6240    -2.1930    -0.3470 C.ar  1 <1>  -0.1500 
  5 C       -1.4590    -3.2420     1.2010 C.ar  1 <1>  -0.1500 
  6 C       -3.0020    -1.3380     0.5640 C.3   1 <1>   0.0450 
  7 C        0.7770    -3.3620     0.3690 C.ar  1 <1>   0.1900 
  8 C       -0.2390    -3.9000     1.1400 C.ar  1 <1>  -0.1500 
  9 C       -3.9970    -1.7730    -0.5090 C.2   1 <1>   0.5690 
 10 F        1.9240    -3.9850     0.3180 F     1 <1>  -0.1900 
 11 O       -3.7860    -2.8050    -1.1040 O.2   1 <1>  -0.5700 
 12 N       -5.1200    -1.0200    -0.7670 N.am  1 <1>  -0.6600 
 13 C       -5.5660     0.1790    -0.0090 C.3   1 <1>   0.1400 
 14 C       -6.0550    -1.3810    -1.8670 C.3   1 <1>   0.1400 
 15 C       -6.9400    -0.0990     0.6070 C.3   1 <1>  -0.1600 
 16 C       -7.4370    -1.6710    -1.2780 C.3   1 <1>  -0.1600 
 17 C       -7.9900    -0.4930    -0.4570 C.3   1 <1>   0.2800 
 18 O       -8.1590     0.5600    -1.3680 O.3   1 <1>  -0.5600 
 19 C       -9.3590    -0.8960     0.1350 C.3   1 <1>  -0.1600 
 20 C       -8.8340     1.7120    -0.9570 C.3   1 <1>   0.1200 
 21 C      -10.2550     0.2720     0.5590 C.3   1 <1>   0.2800 
 22 C      -10.2550     1.3540    -0.5190 C.3   1 <1>  -0.1600 
 23 O       -9.7560     0.8180     1.7150 O.3   1 <1>  -0.6800 
 24 C      -11.6710    -0.1930     0.8900 C.3   1 <1>  -0.2400 
 25 H        1.4210    -1.7920    -0.9430 H     1 <1>   0.1500 
 26 H       -2.2580    -3.6610     1.7890 H     1 <1>   0.1500 
 27 H       -2.8310    -0.2830     0.4730 H     1 <1>   0.0800 
 28 H       -3.4510    -1.5150     1.5230 H     1 <1>   0.0800 
 29 H       -0.0770    -4.8170     1.6770 H     1 <1>   0.1500 
 30 H       -5.6310     1.0160    -0.6850 H     1 <1>   0.0800 
 31 H       -4.8740     0.4330     0.7720 H     1 <1>   0.0800 
 32 H       -5.7020    -2.2440    -2.4060 H     1 <1>   0.0800 
 33 H       -6.1170    -0.5600    -2.5620 H     1 <1>   0.0800 
 34 H       -7.2460     0.7620     1.1630 H     1 <1>   0.0800 
 35 H       -6.8370    -0.9050     1.3110 H     1 <1>   0.0800 
 36 H       -7.3620    -2.5450    -0.6570 H     1 <1>   0.0800 
 37 H       -8.1140    -1.9020    -2.0810 H     1 <1>   0.0800 
 38 H       -9.2250    -1.5720     0.9610 H     1 <1>   0.0800 
 39 H       -9.8910    -1.4430    -0.6220 H     1 <1>   0.0800 
 40 H       -8.8670     2.3830    -1.7980 H     1 <1>   0.0800 
 41 H       -8.2810     2.1870    -0.1670 H     1 <1>   0.0800 
 42 H      -10.7890     0.9980    -1.3820 H     1 <1>   0.0800 
 43 H      -10.7660     2.2300    -0.1620 H     1 <1>   0.0800 
 44 H       -8.8630     1.1620     1.5460 H     1 <1>   0.4000 
 45 H      -12.1350    -0.6260     0.0220 H     1 <1>   0.0800 
 46 H      -12.2700     0.6380     1.2160 H     1 <1>   0.0800 
 47 H      -11.6470    -0.9350     1.6680 H     1 <1>   0.0800 
@<TRIPOS>BOND
  1   1   2  1   
  2   2   3  ar  
  3   2   4  ar  
  4   3   5  ar  
  5   3   6  1   
  6   4   7  ar  
  7   4  25  1   
  8   5   8  ar  
  9   5  26  1   
 10   6   9  1   
 11   6  27  1   
 12   6  28  1   
 13   7   8  ar  
 14   7  10  1   
 15   8  29  1   
 16   9  11  2   
 17   9  12  am  
 18  12  13  1   
 19  12  14  1   
 20  13  15  1   
 21  13  30  1   
 22  13  31  1   
 23  14  16  1   
 24  14  32  1   
 25  14  33  1   
 26  15  17  1   
 27  15  34  1   
 28  15  35  1   
 29  16  17  1   
 30  16  36  1   
 31  16  37  1   
 32  17  18  1   
 33  17  19  1   
 34  18  20  1   
 35  19  21  1   
 36  19  38  1   
 37  19  39  1   
 38  20  22  1   
 39  20  40  1   
 40  20  41  1   
 41  21  22  1   
 42  21  23  1   
 43  21  24  1   
 44  22  42  1   
 45  22  43  1   
 46  23  44  1   
 47  24  45  1   
 48  24  46  1   
 49  24  47  1   
@<TRIPOS>SUBSTRUCTURE
  1 ****  12 GROUP 4 **** **** 0

# MOE 2024.06 (io_trps.svl 2023.06)
