@<TRIPOS>MOLECULE
NONAME
37 38 1 0 0 
SMALL
USER_CHARGES


@<TRIPOS>ATOM
  1 O        2.3930     2.3100    -0.2360 O.2   1 <1>  -0.5700 
  2 C        1.9130     1.1970    -0.1010 C.2   1 <1>   0.5440 
  3 N        0.6480     1.1170     0.4080 N.am  1 <1>  -0.7300 
  4 C        2.6790     0.0160    -0.4600 C.ar  1 <1>   0.0860 
  5 C       -0.2280     2.2360     0.8290 C.3   1 <1>   0.0600 
  6 C        2.1290    -1.2840    -0.5770 C.ar  1 <1>   0.4100 
  7 C        4.0430     0.1430    -0.7060 C.ar  1 <1>  -0.1500 
  8 N        2.8390    -2.3670    -0.9000 N.ar  1 <1>  -0.6200 
  9 N        0.7820    -1.5460    -0.3910 N.pl3 1 <1>  -0.8380 
 10 C        4.7710    -0.9750    -1.0390 C.ar  1 <1>  -0.1500 
 11 C        4.1250    -2.1930    -1.1200 C.ar  1 <1>   0.1600 
 12 C        0.3900    -2.6210     0.5640 C.3   1 <1>   0.2090 
 13 C       -0.0510    -1.6540    -1.6170 C.3   1 <1>   0.2090 
 14 C       -0.3660    -3.6360    -0.2790 C.3   1 <1>  -0.0190 
 15 C       -1.0460    -2.7770    -1.3450 C.3   1 <1>  -0.1600 
 16 C       -1.3240    -4.4780     0.5470 C.2   1 <1>   0.5690 
 17 O       -2.0850    -3.9350     1.3110 O.2   1 <1>  -0.5700 
 18 N       -1.2990    -5.8290     0.3940 N.am  1 <1>  -0.7300 
 19 C       -2.1710    -6.7870     1.1220 C.3   1 <1>   0.0600 
 20 H        0.2470     0.1660     0.4180 H     1 <1>   0.3700 
 21 H        0.3030     3.1710     0.7670 H     1 <1>   0.0800 
 22 H       -0.5470     2.0830     1.8450 H     1 <1>   0.0800 
 23 H       -1.0900     2.2820     0.1870 H     1 <1>   0.0800 
 24 H        4.5220     1.1050    -0.6360 H     1 <1>   0.1500 
 25 H        5.8260    -0.9060    -1.2330 H     1 <1>   0.1500 
 26 H        4.7000    -3.0660    -1.3800 H     1 <1>   0.1500 
 27 H       -0.2520    -2.1970     1.3180 H     1 <1>   0.0800 
 28 H        1.2460    -3.0670     1.0410 H     1 <1>   0.0800 
 29 H        0.5740    -1.9080    -2.4580 H     1 <1>   0.0800 
 30 H       -0.5550    -0.7240    -1.8160 H     1 <1>   0.0800 
 31 H        0.3610    -4.2710    -0.7500 H     1 <1>   0.0800 
 32 H       -1.2740    -3.3340    -2.2350 H     1 <1>   0.0800 
 33 H       -1.9530    -2.3510    -0.9530 H     1 <1>   0.0800 
 34 H       -0.6400    -6.2460    -0.2670 H     1 <1>   0.3700 
 35 H       -2.8320    -6.2600     1.7890 H     1 <1>   0.0800 
 36 H       -1.5660    -7.4650     1.6980 H     1 <1>   0.0800 
 37 H       -2.7630    -7.3460     0.4190 H     1 <1>   0.0800 
@<TRIPOS>BOND
  1   1   2  2   
  2   2   3  am  
  3   2   4  1   
  4   3   5  1   
  5   3  20  1   
  6   4   6  ar  
  7   4   7  ar  
  8   5  21  1   
  9   5  22  1   
 10   5  23  1   
 11   6   8  ar  
 12   6   9  1   
 13   7  10  ar  
 14   7  24  1   
 15   8  11  ar  
 16   9  12  1   
 17   9  13  1   
 18  10  11  ar  
 19  10  25  1   
 20  11  26  1   
 21  12  14  1   
 22  12  27  1   
 23  12  28  1   
 24  13  15  1   
 25  13  29  1   
 26  13  30  1   
 27  14  15  1   
 28  14  16  1   
 29  14  31  1   
 30  15  32  1   
 31  15  33  1   
 32  16  17  2   
 33  16  18  am  
 34  18  19  1   
 35  18  34  1   
 36  19  35  1   
 37  19  36  1   
 38  19  37  1   
@<TRIPOS>SUBSTRUCTURE
  1 ****   9 GROUP 4 **** **** 0

# MOE 2024.06 (io_trps.svl 2023.06)
