@<TRIPOS>MOLECULE
NONAME
45 46 1 0 0 
SMALL
USER_CHARGES


@<TRIPOS>ATOM
  1 O        3.1290    -1.1720     2.3970 O.2   1 <1>  -0.5700 
  2 C        2.2530    -1.1580     1.5490 C.2   1 <1>   0.5440 
  3 N        1.7120     0.0500     1.2220 N.am  1 <1>  -0.7300 
  4 C        1.8210    -2.3860     0.9070 C.ar  1 <1>   0.0860 
  5 C        2.1350     1.3490     1.7650 C.3   1 <1>   0.3200 
  6 C        1.3600    -2.4520    -0.4190 C.ar  1 <1>   0.0830 
  7 C        1.8670    -3.5800     1.6280 C.ar  1 <1>  -0.1500 
  8 C        3.3770     1.7840     1.0270 C.2   1 <1>  -0.3320 
  9 O        1.3330    -1.3080    -1.1540 O.3   1 <1>  -0.3630 
 10 C        0.9450    -3.6620    -0.9700 C.ar  1 <1>  -0.1500 
 11 C        1.4730    -4.7830     1.0810 C.ar  1 <1>   0.0830 
 12 N        4.5100     1.0580     1.0630 N.pl3 1 <1>   0.3000 
 13 C        3.6310     2.8620     0.2550 C.2   1 <1>  -0.1500 
 14 C        1.3680    -1.3200    -2.5660 C.3   1 <1>   0.0400 
 15 C        0.9900    -4.8370    -0.2290 C.ar  1 <1>   0.0830 
 16 O        1.5510    -5.8830     1.8720 O.3   1 <1>  -0.3630 
 17 N        5.4930     1.6330     0.3380 N.2   1 <1>  -0.7070 
 18 C        4.9570     2.7150    -0.1450 C.2   1 <1>   0.1080 
 19 O        0.5740    -6.0330    -0.7250 O.3   1 <1>  -0.3620 
 20 C        2.5110    -6.8520     1.5130 C.3   1 <1>   0.0400 
 21 C        5.7260     3.6810    -1.0370 C.3   1 <1>   0.3010 
 22 C       -0.1270    -6.1430    -1.9440 C.3   1 <1>   0.0400 
 23 O        4.8970     4.7140    -1.5010 O.3   1 <1>  -0.5600 
 24 C        5.5440     5.6290    -2.3240 C.3   1 <1>   0.0400 
 25 H        1.2410     0.0960     0.3130 H     1 <1>   0.3700 
 26 H        2.3440     1.2540     2.8180 H     1 <1>   0.0800 
 27 H        1.3470     2.0700     1.6330 H     1 <1>   0.0800 
 28 H        2.2200    -3.5680     2.6450 H     1 <1>   0.1500 
 29 H        0.5800    -3.6880    -1.9750 H     1 <1>   0.1500 
 30 H        4.6090     0.1610     1.5650 H     1 <1>   0.2700 
 31 H        2.9860     3.6780    -0.0200 H     1 <1>   0.1500 
 32 H        1.5530    -0.3150    -2.9030 H     1 <1>   0.0800 
 33 H        0.4180    -1.6580    -2.9390 H     1 <1>   0.0800 
 34 H        2.1640    -1.9650    -2.8930 H     1 <1>   0.0800 
 35 H        2.5650    -7.5780     2.3030 H     1 <1>   0.0800 
 36 H        3.4640    -6.3700     1.3880 H     1 <1>   0.0800 
 37 H        2.2080    -7.3310     0.6000 H     1 <1>   0.0800 
 38 H        6.1160     3.1460    -1.8840 H     1 <1>   0.0800 
 39 H        6.5350     4.1130    -0.4770 H     1 <1>   0.0800 
 40 H       -0.4230    -7.1690    -2.0660 H     1 <1>   0.0800 
 41 H        0.5230    -5.8530    -2.7500 H     1 <1>   0.0800 
 42 H       -1.0000    -5.5150    -1.9030 H     1 <1>   0.0800 
 43 H        4.8270     6.3730    -2.6240 H     1 <1>   0.0800 
 44 H        5.9230     5.1200    -3.1940 H     1 <1>   0.0800 
 45 H        6.3440     6.0960    -1.7770 H     1 <1>   0.0800 
@<TRIPOS>BOND
  1   1   2  2   
  2   2   3  am  
  3   2   4  1   
  4   3   5  1   
  5   3  25  1   
  6   4   6  ar  
  7   4   7  ar  
  8   5   8  1   
  9   5  26  1   
 10   5  27  1   
 11   6   9  1   
 12   6  10  ar  
 13   7  11  ar  
 14   7  28  1   
 15   8  12  1   
 16   8  13  2   
 17   9  14  1   
 18  10  15  ar  
 19  10  29  1   
 20  11  15  ar  
 21  11  16  1   
 22  12  17  1   
 23  12  30  1   
 24  13  18  1   
 25  13  31  1   
 26  14  32  1   
 27  14  33  1   
 28  14  34  1   
 29  15  19  1   
 30  16  20  1   
 31  17  18  2   
 32  18  21  1   
 33  19  22  1   
 34  20  35  1   
 35  20  36  1   
 36  20  37  1   
 37  21  23  1   
 38  21  38  1   
 39  21  39  1   
 40  22  40  1   
 41  22  41  1   
 42  22  42  1   
 43  23  24  1   
 44  24  43  1   
 45  24  44  1   
 46  24  45  1   
@<TRIPOS>SUBSTRUCTURE
  1 ****   2 GROUP 4 **** **** 0

# MOE 2024.06 (io_trps.svl 2023.06)
