@<TRIPOS>MOLECULE
NONAME
44 46 1 0 0 
SMALL
USER_CHARGES


@<TRIPOS>ATOM
  1 O       -0.3450     0.0330    -0.2310 O.2   1 <1>  -0.5700 
  2 C       -1.3680     0.6860    -0.0880 C.2   1 <1>   0.7160 
  3 N       -2.5590    -0.0230    -0.1190 N.am  1 <1>  -0.6600 
  4 C       -1.3040     2.1430     0.0950 C.2   1 <1>   0.2030 
  5 C       -3.9190     0.5600    -0.0210 C.3   1 <1>   0.1400 
  6 C       -2.6270    -1.4950    -0.2680 C.3   1 <1>   0.1400 
  7 N       -2.2380     2.8930     0.6620 N.2   1 <1>  -0.7070 
  8 C       -0.2290     2.9640    -0.3070 C.2   1 <1>  -0.1810 
  9 C       -4.8700    -0.6230    -0.2090 C.3   1 <1>   0.2000 
 10 C       -4.0530    -1.8640     0.1440 C.3   1 <1>  -0.0800 
 11 N       -1.7710     4.1440     0.6280 N.pl3 1 <1>   0.3000 
 12 C       -0.5620     4.2230     0.0460 C.2   1 <1>  -0.3320 
 13 C        1.0450     2.5010    -0.9980 C.3   1 <1>  -0.0590 
 14 O       -5.9740    -0.5330     0.6240 O.3   1 <1>  -0.6800 
 15 C       -4.5930    -3.1390    -0.5240 C.3   1 <1>  -0.0170 
 16 C        0.1760     5.5420    -0.1160 C.3   1 <1>   0.0200 
 17 C       -3.7770    -4.3600    -0.1370 C.ar  1 <1>   0.1670 
 18 C        0.6730     6.0450     1.2390 C.3   1 <1>  -0.2400 
 19 N       -2.7080    -4.6160    -0.8740 N.ar  1 <1>  -0.6200 
 20 C       -4.1670    -5.1410     0.9500 C.ar  1 <1>   0.1600 
 21 C       -2.0600    -5.6900    -0.4550 C.ar  1 <1>   0.1600 
 22 N       -3.5200    -6.2150     1.3720 N.ar  1 <1>  -0.6200 
 23 C       -2.4530    -6.4630     0.6320 C.ar  1 <1>   0.1600 
 24 H       -4.0440     1.0030     0.9520 H     1 <1>   0.0800 
 25 H       -4.0650     1.3020    -0.7870 H     1 <1>   0.0800 
 26 H       -2.4420    -1.7530    -1.2970 H     1 <1>   0.0800 
 27 H       -1.8960    -1.9830     0.3560 H     1 <1>   0.0800 
 28 H       -5.2130    -0.6560    -1.2300 H     1 <1>   0.0800 
 29 H       -4.0490    -1.9940     1.2120 H     1 <1>   0.0800 
 30 H       -2.2960     4.9380     1.0140 H     1 <1>   0.2700 
 31 H        0.7990     1.9480    -1.8870 H     1 <1>   0.0800 
 32 H        1.6040     1.8610    -0.3390 H     1 <1>   0.0800 
 33 H        1.6680     3.3300    -1.2740 H     1 <1>   0.0800 
 34 H       -5.6880    -0.3970     1.5480 H     1 <1>   0.4000 
 35 H       -4.5780    -3.0290    -1.5950 H     1 <1>   0.0800 
 36 H       -5.6180    -3.2850    -0.2300 H     1 <1>   0.0800 
 37 H        1.0170     5.4190    -0.7750 H     1 <1>   0.0800 
 38 H       -0.4780     6.2720    -0.5620 H     1 <1>   0.0800 
 39 H        1.3220     5.3120     1.6860 H     1 <1>   0.0800 
 40 H       -0.1520     6.2260     1.9040 H     1 <1>   0.0800 
 41 H        1.2230     6.9610     1.1140 H     1 <1>   0.0800 
 42 H       -5.0500    -4.8620     1.4960 H     1 <1>   0.1500 
 43 H       -1.1750    -5.9730    -0.9960 H     1 <1>   0.1500 
 44 H       -1.8600    -7.3200     0.8970 H     1 <1>   0.1500 
@<TRIPOS>BOND
  1   1   2  2   
  2   2   3  am  
  3   2   4  1   
  4   3   5  1   
  5   3   6  1   
  6   4   7  2   
  7   4   8  1   
  8   5   9  1   
  9   5  24  1   
 10   5  25  1   
 11   6  10  1   
 12   6  26  1   
 13   6  27  1   
 14   7  11  1   
 15   8  12  2   
 16   8  13  1   
 17   9  10  1   
 18   9  14  1   
 19   9  28  1   
 20  10  15  1   
 21  10  29  1   
 22  11  12  1   
 23  11  30  1   
 24  12  16  1   
 25  13  31  1   
 26  13  32  1   
 27  13  33  1   
 28  14  34  1   
 29  15  17  1   
 30  15  35  1   
 31  15  36  1   
 32  16  18  1   
 33  16  37  1   
 34  16  38  1   
 35  17  19  ar  
 36  17  20  ar  
 37  18  39  1   
 38  18  40  1   
 39  18  41  1   
 40  19  21  ar  
 41  20  22  ar  
 42  20  42  1   
 43  21  23  ar  
 44  21  43  1   
 45  22  23  ar  
 46  23  44  1   
@<TRIPOS>SUBSTRUCTURE
  1 ****   3 GROUP 4 **** **** 0

# MOE 2024.06 (io_trps.svl 2023.06)
