@<TRIPOS>MOLECULE
NONAME
42 44 1 0 0 
SMALL
USER_CHARGES


@<TRIPOS>ATOM
  1 S        0.3910    -1.7040     2.1950 S.3   1 <1>  -0.3320 
  2 C       -0.1190    -2.7020     0.8220 C.ar  1 <1>   0.7720 
  3 C        1.0160    -0.1290     1.4430 C.3   1 <1>  -0.0100 
  4 N       -0.6100    -3.9080     1.1610 N.ar  1 <1>  -0.1790 
  5 N        0.0000    -2.2470    -0.3810 N.ar  1 <1>  -0.6200 
  6 C       -1.0280    -4.7620     0.2140 C.ar  1 <1>   0.4610 
  7 C       -0.4090    -3.0670    -1.3550 C.ar  1 <1>   0.4100 
  8 N       -1.5110    -5.9680     0.6000 N.pl3 1 <1>  -0.8690 
  9 C       -0.9250    -4.3210    -1.0930 C.ar  1 <1>  -0.1500 
 10 N       -0.2770    -2.5730    -2.5890 N.pl3 1 <1>  -0.9000 
 11 C       -1.8410    -7.1510    -0.2470 C.3   1 <1>   0.2890 
 12 C       -3.3210    -7.5100    -0.1300 C.3   1 <1>  -0.0800 
 13 C       -1.2210    -8.3730     0.4170 C.3   1 <1>   0.1200 
 14 C       -3.3750    -8.3680     1.1440 C.3   1 <1>   0.1200 
 15 C       -4.3180    -6.3350    -0.1370 C.3   1 <1>  -0.0160 
 16 O       -2.0480    -8.6060     1.5120 O.3   1 <1>  -0.5600 
 17 C       -5.7500    -6.8440    -0.0940 C.ar  1 <1>  -0.1430 
 18 C       -6.3850    -7.3260    -1.2210 C.ar  1 <1>  -0.1500 
 19 C       -6.4920    -6.8530     1.0720 C.ar  1 <1>  -0.1500 
 20 C       -7.6880    -7.7870    -1.1300 C.ar  1 <1>   0.1600 
 21 C       -7.7900    -7.3360     1.0540 C.ar  1 <1>   0.1600 
 22 N       -8.4040    -7.8060    -0.0190 N.ar  1 <1>  -0.6200 
 23 H        1.3400     0.5130     2.2420 H     1 <1>   0.0800 
 24 H        0.2100     0.3230     0.8920 H     1 <1>   0.0800 
 25 H        1.8370    -0.3710     0.7900 H     1 <1>   0.0800 
 26 H       -0.6420    -4.1470     2.1450 H     1 <1>   0.4570 
 27 H       -1.6050    -6.2550     1.5860 H     1 <1>   0.4000 
 28 H       -1.2440    -4.9360    -1.9100 H     1 <1>   0.1500 
 29 H        0.1120    -1.6350    -2.7300 H     1 <1>   0.4000 
 30 H       -0.5300    -3.0560    -3.4550 H     1 <1>   0.4000 
 31 H       -1.5130    -7.0330    -1.2650 H     1 <1>   0.0800 
 32 H       -3.5680    -8.1570    -0.9540 H     1 <1>   0.0800 
 33 H       -0.2110    -8.2100     0.7490 H     1 <1>   0.0800 
 34 H       -1.2630    -9.2360    -0.2270 H     1 <1>   0.0800 
 35 H       -3.8620    -9.3120     0.9650 H     1 <1>   0.0800 
 36 H       -3.8590    -7.8610     1.9620 H     1 <1>   0.0800 
 37 H       -4.1810    -5.7510    -1.0300 H     1 <1>   0.0800 
 38 H       -4.1470    -5.6890     0.7050 H     1 <1>   0.0800 
 39 H       -5.8840    -7.3510    -2.1710 H     1 <1>   0.1500 
 40 H       -6.0790    -6.4900     1.9950 H     1 <1>   0.1500 
 41 H       -8.1670    -8.1600    -2.0190 H     1 <1>   0.1500 
 42 H       -8.3530    -7.3360     1.9720 H     1 <1>   0.1500 
@<TRIPOS>BOND
  1   1   2  1   
  2   1   3  1   
  3   2   4  ar  
  4   2   5  ar  
  5   3  23  1   
  6   3  24  1   
  7   3  25  1   
  8   4   6  ar  
  9   4  26  1   
 10   5   7  ar  
 11   6   8  1   
 12   6   9  ar  
 13   7   9  ar  
 14   7  10  1   
 15   8  11  1   
 16   8  27  1   
 17   9  28  1   
 18  10  29  1   
 19  10  30  1   
 20  11  12  1   
 21  11  13  1   
 22  11  31  1   
 23  12  14  1   
 24  12  15  1   
 25  12  32  1   
 26  13  16  1   
 27  13  33  1   
 28  13  34  1   
 29  14  16  1   
 30  14  35  1   
 31  14  36  1   
 32  15  17  1   
 33  15  37  1   
 34  15  38  1   
 35  17  18  ar  
 36  17  19  ar  
 37  18  20  ar  
 38  18  39  1   
 39  19  21  ar  
 40  19  40  1   
 41  20  22  ar  
 42  20  41  1   
 43  21  22  ar  
 44  21  42  1   
@<TRIPOS>SUBSTRUCTURE
  1 ****   8 GROUP 4 **** **** 0

# MOE 2024.06 (io_trps.svl 2023.06)
