@<TRIPOS>MOLECULE
NONAME
54 56 1 0 0 
SMALL
USER_CHARGES


@<TRIPOS>ATOM
  1 O       -0.6370     1.0020     1.3000 O.co2 1 <1>  -0.9000 
  2 C       -0.8030     2.2340     1.2260 C.2   1 <1>   0.9790 
  3 O        0.1940     2.9740     1.3080 O.co2 1 <1>  -0.9000 
  4 C       -2.1370     2.7950     1.0480 C.ar  1 <1>  -0.1790 
  5 C       -2.3460     4.1740     0.9630 C.ar  1 <1>  -0.1500 
  6 C       -3.2670     1.9790     0.9540 C.ar  1 <1>  -0.1500 
  7 C       -3.6110     4.7070     0.7940 C.ar  1 <1>  -0.1500 
  8 C       -4.5360     2.5010     0.7850 C.ar  1 <1>  -0.1500 
  9 C       -4.7170     3.8790     0.7030 C.ar  1 <1>   0.0830 
 10 O       -5.9240     4.4760     0.5380 O.3   1 <1>  -0.3630 
 11 C       -7.1040     3.7240     0.4320 C.3   1 <1>   0.1200 
 12 C       -8.2520     4.7150     0.2500 C.3   1 <1>  -0.1600 
 13 C       -9.5880     3.9860     0.1220 C.3   1 <1>   0.3430 
 14 N      -10.7060     4.9670     0.0550 N.4   1 <1>  -0.9590 
 15 C      -12.0240     4.3040     0.3550 C.3   1 <1>   0.3430 
 16 C      -10.7570     5.7110    -1.2350 C.3   1 <1>   0.3430 
 17 C      -13.2580     5.1790     0.0210 C.3   1 <1>   0.0000 
 18 C      -11.7210     6.8940    -1.1030 C.3   1 <1>  -0.1600 
 19 C      -14.3470     4.9040     1.0790 C.3   1 <1>   0.2000 
 20 C      -12.8560     6.6710    -0.0840 C.3   1 <1>  -0.1600 
 21 C      -13.9150     4.6690    -1.2760 C.3   1 <1>  -0.1600 
 22 O      -15.3150     5.9040     0.9980 O.3   1 <1>  -0.5600 
 23 C      -14.9760     3.5730     0.6500 C.3   1 <1>  -0.1600 
 24 C      -14.7840     3.4730    -0.8690 C.3   1 <1>  -0.1600 
 25 C      -16.1070     6.0710     2.1340 C.3   1 <1>   0.0400 
 26 H       -1.4900     4.8240     1.0330 H     1 <1>   0.1500 
 27 H       -3.1260     0.9120     1.0170 H     1 <1>   0.1500 
 28 H       -3.7390     5.7710     0.7330 H     1 <1>   0.1500 
 29 H       -5.3580     1.8170     0.7210 H     1 <1>   0.1500 
 30 H       -7.0090     3.0700    -0.4190 H     1 <1>   0.0800 
 31 H       -7.2170     3.1500     1.3360 H     1 <1>   0.0800 
 32 H       -8.2740     5.3660     1.1070 H     1 <1>   0.0800 
 33 H       -8.0540     5.2930    -0.6350 H     1 <1>   0.0800 
 34 H       -9.7190     3.3520     0.9840 H     1 <1>   0.0800 
 35 H       -9.5880     3.3630    -0.7590 H     1 <1>   0.0800 
 36 H      -10.5560     5.6780     0.7840 H     1 <1>   0.4500 
 37 H      -12.1020     3.3830    -0.1990 H     1 <1>   0.0800 
 38 H      -12.0510     4.0520     1.4020 H     1 <1>   0.0800 
 39 H       -9.7810     6.0760    -1.5110 H     1 <1>   0.0800 
 40 H      -11.1020     5.0500    -2.0150 H     1 <1>   0.0800 
 41 H      -11.1700     7.7780    -0.8300 H     1 <1>   0.0800 
 42 H      -12.1470     7.0830    -2.0730 H     1 <1>   0.0800 
 43 H      -13.9510     4.8810     2.0810 H     1 <1>   0.0800 
 44 H      -13.7040     7.2760    -0.3630 H     1 <1>   0.0800 
 45 H      -12.5380     7.0120     0.8860 H     1 <1>   0.0800 
 46 H      -14.5670     5.4350    -1.6640 H     1 <1>   0.0800 
 47 H      -13.2110     4.4050    -2.0440 H     1 <1>   0.0800 
 48 H      -14.4570     2.7610     1.1270 H     1 <1>   0.0800 
 49 H      -16.0160     3.5100     0.9180 H     1 <1>   0.0800 
 50 H      -14.3060     2.5420    -1.1250 H     1 <1>   0.0800 
 51 H      -15.7350     3.5200    -1.3740 H     1 <1>   0.0800 
 52 H      -16.8200     6.8510     1.9300 H     1 <1>   0.0800 
 53 H      -15.4850     6.3610     2.9630 H     1 <1>   0.0800 
 54 H      -16.6290     5.1570     2.3520 H     1 <1>   0.0800 
@<TRIPOS>BOND
  1   1   2  ar  
  2   2   3  ar  
  3   2   4  1   
  4   4   5  ar  
  5   4   6  ar  
  6   5   7  ar  
  7   5  26  1   
  8   6   8  ar  
  9   6  27  1   
 10   7   9  ar  
 11   7  28  1   
 12   8   9  ar  
 13   8  29  1   
 14   9  10  1   
 15  10  11  1   
 16  11  12  1   
 17  11  30  1   
 18  11  31  1   
 19  12  13  1   
 20  12  32  1   
 21  12  33  1   
 22  13  14  1   
 23  13  34  1   
 24  13  35  1   
 25  14  15  1   
 26  14  16  1   
 27  14  36  1   
 28  15  17  1   
 29  15  37  1   
 30  15  38  1   
 31  16  18  1   
 32  16  39  1   
 33  16  40  1   
 34  17  19  1   
 35  17  20  1   
 36  17  21  1   
 37  18  20  1   
 38  18  41  1   
 39  18  42  1   
 40  19  22  1   
 41  19  23  1   
 42  19  43  1   
 43  20  44  1   
 44  20  45  1   
 45  21  24  1   
 46  21  46  1   
 47  21  47  1   
 48  22  25  1   
 49  23  24  1   
 50  23  48  1   
 51  23  49  1   
 52  24  50  1   
 53  24  51  1   
 54  25  52  1   
 55  25  53  1   
 56  25  54  1   
@<TRIPOS>SUBSTRUCTURE
  1 ****  12 GROUP 4 **** **** 0

# MOE 2024.06 (io_trps.svl 2023.06)
