@<TRIPOS>MOLECULE
NONAME
48 52 1 0 0 
SMALL
USER_CHARGES


@<TRIPOS>ATOM
  1 O       -0.9250     0.6460     1.6510 O.3   1 <1>  -0.2800 
  2 C       -0.2460     1.7910     1.5730 C.ar  1 <1>   0.1400 
  3 C       -1.8230     0.6450     0.6720 C.2   1 <1>  -0.0400 
  4 C       -0.7120     2.5510     0.5150 C.ar  1 <1>   0.0000 
  5 C        0.7850     2.2260     2.3930 C.ar  1 <1>  -0.1500 
  6 C       -1.7410     1.7780    -0.0580 C.2   1 <1>  -0.1500 
  7 C       -2.7150    -0.5800     0.5810 C.3   1 <1>   0.5230 
  8 C       -0.1320     3.7930     0.2560 C.ar  1 <1>  -0.1500 
  9 C        1.3540     3.4560     2.1310 C.ar  1 <1>  -0.1500 
 10 N       -3.9530    -0.2770    -0.1940 N.4   1 <1>  -0.9590 
 11 C        0.8960     4.2350     1.0650 C.ar  1 <1>  -0.1500 
 12 C       -4.8300     0.6720     0.5790 C.3   1 <1>   0.3430 
 13 C       -4.6870    -1.5260    -0.5450 C.3   1 <1>   0.3430 
 14 C       -6.0900     1.0730    -0.2080 C.3   1 <1>   0.1430 
 15 C       -5.9110    -1.1820    -1.3990 C.3   1 <1>  -0.1600 
 16 C       -6.9730     1.8930     0.7010 C.ar  1 <1>   0.1670 
 17 C       -6.8450    -0.1830    -0.6920 C.3   1 <1>  -0.1600 
 18 C       -5.7960     2.0620    -1.3690 C.3   1 <1>  -0.1600 
 19 N       -7.2720     1.5650     1.9330 N.ar  1 <1>  -0.6200 
 20 C       -7.4110     3.0320     0.0950 C.ar  1 <1>  -0.1430 
 21 C       -6.8940     3.1440    -1.3170 C.3   1 <1>  -0.0170 
 22 C       -8.0440     2.4530     2.5460 C.ar  1 <1>   0.7200 
 23 C       -8.2160     3.8710     0.8270 C.ar  1 <1>   0.1600 
 24 N       -8.5410     3.5840     2.0680 N.ar  1 <1>  -0.6200 
 25 N       -8.3780     2.1650     3.8040 N.pl3 1 <1>  -0.9000 
 26 H        1.1210     1.6080     3.2070 H     1 <1>   0.1500 
 27 H       -2.3000     2.1050    -0.9150 H     1 <1>   0.1500 
 28 H       -2.9790    -0.8950     1.5780 H     1 <1>   0.0800 
 29 H       -2.1610    -1.3770     0.1130 H     1 <1>   0.0800 
 30 H       -0.4850     4.3910    -0.5650 H     1 <1>   0.1500 
 31 H        2.1570     3.8230     2.7480 H     1 <1>   0.1500 
 32 H       -3.6600     0.1830    -1.0630 H     1 <1>   0.4500 
 33 H        1.3560     5.1910     0.8800 H     1 <1>   0.1500 
 34 H       -4.2830     1.5630     0.8410 H     1 <1>   0.0800 
 35 H       -5.1430     0.2030     1.4980 H     1 <1>   0.0800 
 36 H       -5.0100    -2.0250     0.3550 H     1 <1>   0.0800 
 37 H       -4.0430    -2.1960    -1.0930 H     1 <1>   0.0800 
 38 H       -6.4580    -2.0880    -1.6010 H     1 <1>   0.0800 
 39 H       -5.5890    -0.7910    -2.3480 H     1 <1>   0.0800 
 40 H       -7.6520     0.0990    -1.3480 H     1 <1>   0.0800 
 41 H       -7.2880    -0.6710     0.1610 H     1 <1>   0.0800 
 42 H       -5.7690     1.5870    -2.3330 H     1 <1>   0.0800 
 43 H       -4.8510     2.5480    -1.2000 H     1 <1>   0.0800 
 44 H       -7.6880     2.9200    -2.0100 H     1 <1>   0.0800 
 45 H       -6.4990     4.1250    -1.5210 H     1 <1>   0.0800 
 46 H       -8.5930     4.7830     0.3970 H     1 <1>   0.1500 
 47 H       -9.1520     2.7110     4.1750 H     1 <1>   0.4000 
 48 H       -8.3530     1.1840     4.0640 H     1 <1>   0.4000 
@<TRIPOS>BOND
  1   1   2  1   
  2   1   3  1   
  3   2   4  ar  
  4   2   5  ar  
  5   3   6  2   
  6   3   7  1   
  7   4   6  1   
  8   4   8  ar  
  9   5   9  ar  
 10   5  26  1   
 11   6  27  1   
 12   7  10  1   
 13   7  28  1   
 14   7  29  1   
 15   8  11  ar  
 16   8  30  1   
 17   9  11  ar  
 18   9  31  1   
 19  10  12  1   
 20  10  13  1   
 21  10  32  1   
 22  11  33  1   
 23  12  14  1   
 24  12  34  1   
 25  12  35  1   
 26  13  15  1   
 27  13  36  1   
 28  13  37  1   
 29  14  16  1   
 30  14  17  1   
 31  14  18  1   
 32  15  17  1   
 33  15  38  1   
 34  15  39  1   
 35  16  19  ar  
 36  16  20  ar  
 37  17  40  1   
 38  17  41  1   
 39  18  21  1   
 40  18  42  1   
 41  18  43  1   
 42  19  22  ar  
 43  20  21  1   
 44  20  23  ar  
 45  21  44  1   
 46  21  45  1   
 47  22  24  ar  
 48  22  25  1   
 49  23  24  ar  
 50  23  46  1   
 51  25  47  1   
 52  25  48  1   
@<TRIPOS>SUBSTRUCTURE
  1 ****  12 GROUP 4 **** **** 0

# MOE 2024.06 (io_trps.svl 2023.06)
