@<TRIPOS>MOLECULE
NONAME
40 40 1 0 0 
SMALL
USER_CHARGES


@<TRIPOS>ATOM
  1 S        0.5490    -0.1980    -0.3770 S.o2  1 <1>   1.0900 
  2 O        0.3420    -0.7610     0.9350 O.2   1 <1>  -0.6500 
  3 O        1.8100    -0.3910    -1.0530 O.2   1 <1>  -0.6500 
  4 C        0.2580     1.5630    -0.2720 C.3   1 <1>  -0.0550 
  5 C       -0.7530    -0.7770    -1.4470 C.3   1 <1>  -0.1350 
  6 C        1.2800     2.2650     0.6380 C.3   1 <1>  -0.0990 
  7 C        1.0970     3.7690     0.6540 C.2   1 <1>   0.5690 
  8 O       -0.0030     4.2170     0.4360 O.2   1 <1>  -0.5700 
  9 N        2.1930     4.5340     0.9070 N.am  1 <1>  -0.4930 
 10 C        2.3160     5.9460     0.9450 C.2   1 <1>   0.0630 
 11 C        1.4720     6.9050     1.5150 C.2   1 <1>   0.1080 
 12 C        3.3460     6.6560     0.4310 C.2   1 <1>  -0.3320 
 13 N        1.9320     8.1090     1.3690 N.2   1 <1>  -0.7070 
 14 C        0.1730     6.6460     2.2450 C.3   1 <1>  -0.0590 
 15 N        3.0850     7.9620     0.6950 N.pl3 1 <1>   0.3140 
 16 C        4.5780     6.1650    -0.3160 C.3   1 <1>  -0.0600 
 17 C        3.8980     9.1390     0.3260 C.3   1 <1>   0.0960 
 18 C        3.5040     9.6660    -1.0620 C.3   1 <1>  -0.1600 
 19 C        4.3520    10.8790    -1.4620 C.3   1 <1>  -0.2400 
 20 H       -0.7280     1.7450     0.1120 H     1 <1>   0.0800 
 21 H        0.3150     1.9980    -1.2530 H     1 <1>   0.0800 
 22 H       -0.6690    -1.8380    -1.5810 H     1 <1>   0.0800 
 23 H       -0.6880    -0.3080    -2.4090 H     1 <1>   0.0800 
 24 H       -1.7140    -0.5660    -1.0200 H     1 <1>   0.0800 
 25 H        2.2720     2.0320     0.2960 H     1 <1>   0.0800 
 26 H        1.1750     1.8960     1.6430 H     1 <1>   0.0800 
 27 H        3.0790     4.0470     1.0160 H     1 <1>   0.3700 
 28 H        0.2220     5.7120     2.7720 H     1 <1>   0.0800 
 29 H       -0.6330     6.6110     1.5360 H     1 <1>   0.0800 
 30 H       -0.0130     7.4360     2.9480 H     1 <1>   0.0800 
 31 H        4.5470     5.0990    -0.4460 H     1 <1>   0.0800 
 32 H        5.4690     6.4170     0.2310 H     1 <1>   0.0800 
 33 H        4.6250     6.6200    -1.2900 H     1 <1>   0.0800 
 34 H        4.9350     8.8640     0.3460 H     1 <1>   0.0800 
 35 H        3.7320     9.9010     1.0660 H     1 <1>   0.0800 
 36 H        2.4650     9.9480    -1.0460 H     1 <1>   0.0800 
 37 H        3.6320     8.8870    -1.7940 H     1 <1>   0.0800 
 38 H        4.2200    11.6790    -0.7540 H     1 <1>   0.0800 
 39 H        4.0510    11.2310    -2.4330 H     1 <1>   0.0800 
 40 H        5.3940    10.6170    -1.5010 H     1 <1>   0.0800 
@<TRIPOS>BOND
  1   1   2  2   
  2   1   3  2   
  3   1   4  1   
  4   1   5  1   
  5   4   6  1   
  6   4  20  1   
  7   4  21  1   
  8   5  22  1   
  9   5  23  1   
 10   5  24  1   
 11   6   7  1   
 12   6  25  1   
 13   6  26  1   
 14   7   8  2   
 15   7   9  am  
 16   9  10  1   
 17   9  27  1   
 18  10  11  1   
 19  10  12  2   
 20  11  13  2   
 21  11  14  1   
 22  12  15  1   
 23  12  16  1   
 24  13  15  1   
 25  14  28  1   
 26  14  29  1   
 27  14  30  1   
 28  15  17  1   
 29  16  31  1   
 30  16  32  1   
 31  16  33  1   
 32  17  18  1   
 33  17  34  1   
 34  17  35  1   
 35  18  19  1   
 36  18  36  1   
 37  18  37  1   
 38  19  38  1   
 39  19  39  1   
 40  19  40  1   
@<TRIPOS>SUBSTRUCTURE
  1 ****   9 GROUP 4 **** **** 0

# MOE 2024.06 (io_trps.svl 2023.06)
