@<TRIPOS>MOLECULE
NONAME
48 51 1 0 0 
SMALL
USER_CHARGES


@<TRIPOS>ATOM
  1 O       -0.6330     0.1190     0.3750 O.2   1 <1>  -0.5700 
  2 C       -1.6020     0.7520     0.0050 C.2   1 <1>   0.5440 
  3 N       -2.8100     0.1070    -0.1150 N.am  1 <1>  -0.6600 
  4 C       -1.4570     2.1580    -0.2800 C.ar  1 <1>   0.0860 
  5 C       -4.1380     0.7640    -0.1440 C.3   1 <1>   0.1400 
  6 C       -2.9570    -1.3480     0.1150 C.3   1 <1>   0.1400 
  7 C       -0.7310     2.9930     0.5440 C.ar  1 <1>   0.1600 
  8 C       -2.0180     2.7660    -1.3860 C.ar  1 <1>   0.1600 
  9 C       -5.1050    -0.2520     0.4770 C.3   1 <1>  -0.0800 
 10 C       -4.4630    -1.6190     0.1740 C.3   1 <1>  -0.0800 
 11 N       -0.5990     4.2850     0.3280 N.ar  1 <1>  -0.6200 
 12 N       -1.9100     4.0530    -1.6350 N.ar  1 <1>  -0.6200 
 13 C       -6.6030    -0.1180     0.0590 C.3   1 <1>   0.2800 
 14 C       -5.0080    -2.2030    -1.1390 C.3   1 <1>  -0.1600 
 15 C       -1.2050     4.7480    -0.7550 C.ar  1 <1>   0.5880 
 16 O       -6.7010     0.4690    -1.1890 O.3   1 <1>  -0.6800 
 17 C       -7.2470    -1.5120    -0.0640 C.3   1 <1>  -0.1600 
 18 C       -7.4200     0.7570     1.0340 C.3   1 <1>  -0.1600 
 19 C       -6.5280    -2.4400    -1.0670 C.3   1 <1>  -0.1600 
 20 C       -1.0700     6.2400    -1.0240 C.3   1 <1>  -0.0680 
 21 C       -6.9380     2.2110     1.1890 C.3   1 <1>  -0.2400 
 22 C       -1.4150     7.2600     0.0240 C.3   1 <1>  -0.2000 
 23 C       -2.2850     7.1100    -1.1840 C.3   1 <1>  -0.2000 
 24 H       -4.1320     1.6870     0.4080 H     1 <1>   0.0800 
 25 H       -4.3850     0.9630    -1.1720 H     1 <1>   0.0800 
 26 H       -2.4770    -1.9020    -0.6730 H     1 <1>   0.0800 
 27 H       -2.4950    -1.6030     1.0550 H     1 <1>   0.0800 
 28 H       -0.2460     2.5730     1.4110 H     1 <1>   0.1500 
 29 H       -2.5740     2.1660    -2.0860 H     1 <1>   0.1500 
 30 H       -5.0480    -0.1290     1.5440 H     1 <1>   0.0800 
 31 H       -4.6660    -2.3180     0.9670 H     1 <1>   0.0800 
 32 H       -4.8000    -1.5100    -1.9380 H     1 <1>   0.0800 
 33 H       -4.5100    -3.1280    -1.3740 H     1 <1>   0.0800 
 34 H       -7.6350     0.4830    -1.4640 H     1 <1>   0.4000 
 35 H       -7.2130    -1.9760     0.9060 H     1 <1>   0.0800 
 36 H       -8.2850    -1.4270    -0.3300 H     1 <1>   0.0800 
 37 H       -8.4470     0.7710     0.7130 H     1 <1>   0.0800 
 38 H       -7.4070     0.2940     2.0050 H     1 <1>   0.0800 
 39 H       -6.7200    -3.4610    -0.7890 H     1 <1>   0.0800 
 40 H       -6.9400    -2.2910    -2.0510 H     1 <1>   0.0800 
 41 H       -0.2270     6.4470    -1.6570 H     1 <1>   0.1000 
 42 H       -6.8830     2.7000     0.2320 H     1 <1>   0.0800 
 43 H       -5.9700     2.2470     1.6550 H     1 <1>   0.0800 
 44 H       -7.6260     2.7580     1.8090 H     1 <1>   0.0800 
 45 H       -1.7790     6.9110     0.9750 H     1 <1>   0.1000 
 46 H       -0.7890     8.1300     0.1160 H     1 <1>   0.1000 
 47 H       -2.2690     7.8740    -1.9420 H     1 <1>   0.1000 
 48 H       -3.2550     6.6570    -1.0750 H     1 <1>   0.1000 
@<TRIPOS>BOND
  1   1   2  2   
  2   2   3  am  
  3   2   4  1   
  4   3   5  1   
  5   3   6  1   
  6   4   7  ar  
  7   4   8  ar  
  8   5   9  1   
  9   5  24  1   
 10   5  25  1   
 11   6  10  1   
 12   6  26  1   
 13   6  27  1   
 14   7  11  ar  
 15   7  28  1   
 16   8  12  ar  
 17   8  29  1   
 18   9  10  1   
 19   9  13  1   
 20   9  30  1   
 21  10  14  1   
 22  10  31  1   
 23  11  15  ar  
 24  12  15  ar  
 25  13  16  1   
 26  13  17  1   
 27  13  18  1   
 28  14  19  1   
 29  14  32  1   
 30  14  33  1   
 31  15  20  1   
 32  16  34  1   
 33  17  19  1   
 34  17  35  1   
 35  17  36  1   
 36  18  21  1   
 37  18  37  1   
 38  18  38  1   
 39  19  39  1   
 40  19  40  1   
 41  20  22  1   
 42  20  23  1   
 43  20  41  1   
 44  21  42  1   
 45  21  43  1   
 46  21  44  1   
 47  22  23  1   
 48  22  45  1   
 49  22  46  1   
 50  23  47  1   
 51  23  48  1   
@<TRIPOS>SUBSTRUCTURE
  1 ****   5 GROUP 4 **** **** 0

# MOE 2024.06 (io_trps.svl 2023.06)
