@<TRIPOS>MOLECULE
NONAME
45 47 1 0 0 
SMALL
USER_CHARGES


@<TRIPOS>ATOM
  1 O       -0.1850     0.4600    -0.0020 O.3   1 <1>  -0.3630 
  2 C       -1.3200    -0.2710    -0.1530 C.ar  1 <1>   0.0830 
  3 C       -0.3440     1.8160     0.3590 C.3   1 <1>   0.2000 
  4 C       -2.5650     0.3520    -0.2710 C.ar  1 <1>   0.0820 
  5 C       -1.2320    -1.6520    -0.1850 C.ar  1 <1>  -0.1500 
  6 C       -1.4820     2.4360    -0.4710 C.3   1 <1>   0.1200 
  7 C        1.0170     2.4960     0.1390 C.3   1 <1>   0.3430 
  8 O       -2.6710     1.7060    -0.2670 O.3   1 <1>  -0.3630 
  9 C       -3.7110    -0.4120    -0.3980 C.ar  1 <1>  -0.1500 
 10 C       -2.3820    -2.4120    -0.3180 C.ar  1 <1>  -0.1500 
 11 N        1.0760     3.9480     0.5490 N.4   1 <1>  -0.9590 
 12 C       -3.6190    -1.7950    -0.4220 C.ar  1 <1>  -0.1500 
 13 C        2.3880     4.5270     0.1320 C.3   1 <1>   0.3430 
 14 C        0.8450     4.1180     2.0250 C.3   1 <1>   0.2630 
 15 C        2.3330     6.0550     0.1660 C.3   1 <1>  -0.1600 
 16 C        3.6290     6.6740    -0.3730 C.3   1 <1>  -0.0170 
 17 C        3.5280     8.1890    -0.3270 C.ar  1 <1>  -0.1430 
 18 C        3.9950     8.9020     0.7700 C.ar  1 <1>   0.1600 
 19 C        2.9610     8.8860    -1.3760 C.ar  1 <1>  -0.1500 
 20 N        3.9310    10.2150     0.9050 N.ar  1 <1>  -0.6200 
 21 C        2.8920    10.2570    -1.2540 C.ar  1 <1>  -0.1500 
 22 C        3.3830    10.8620    -0.1100 C.ar  1 <1>   0.1600 
 23 H       -0.6040     1.8300     1.4030 H     1 <1>   0.0800 
 24 H       -0.2720    -2.1280    -0.1020 H     1 <1>   0.1500 
 25 H       -1.2520     2.4050    -1.5220 H     1 <1>   0.0800 
 26 H       -1.6770     3.4510    -0.1780 H     1 <1>   0.0800 
 27 H        1.2580     2.4150    -0.9090 H     1 <1>   0.0800 
 28 H        1.7580     1.9440     0.6920 H     1 <1>   0.0800 
 29 H       -4.6670     0.0730    -0.4810 H     1 <1>   0.1500 
 30 H       -2.3150    -3.4870    -0.3410 H     1 <1>   0.1500 
 31 H        0.3460     4.4690     0.0410 H     1 <1>   0.4500 
 32 H       -4.5100    -2.3900    -0.5230 H     1 <1>   0.1500 
 33 H        2.6170     4.2140    -0.8750 H     1 <1>   0.0800 
 34 H        3.1750     4.1710     0.7800 H     1 <1>   0.0800 
 35 H        1.6050     3.5980     2.5860 H     1 <1>   0.0800 
 36 H       -0.1190     3.7270     2.3060 H     1 <1>   0.0800 
 37 H        0.8740     5.1620     2.2940 H     1 <1>   0.0800 
 38 H        2.1890     6.4030     1.1740 H     1 <1>   0.0800 
 39 H        1.5130     6.4030    -0.4380 H     1 <1>   0.0800 
 40 H        3.8000     6.3620    -1.3900 H     1 <1>   0.0800 
 41 H        4.4720     6.3530     0.2150 H     1 <1>   0.0800 
 42 H        4.4450     8.3660     1.5870 H     1 <1>   0.1500 
 43 H        2.5880     8.3930    -2.2560 H     1 <1>   0.1500 
 44 H        2.4640    10.8560    -2.0370 H     1 <1>   0.1500 
 45 H        3.3220    11.9340    -0.0260 H     1 <1>   0.1500 
@<TRIPOS>BOND
  1   1   2  1   
  2   1   3  1   
  3   2   4  ar  
  4   2   5  ar  
  5   3   6  1   
  6   3   7  1   
  7   3  23  1   
  8   4   8  1   
  9   4   9  ar  
 10   5  10  ar  
 11   5  24  1   
 12   6   8  1   
 13   6  25  1   
 14   6  26  1   
 15   7  11  1   
 16   7  27  1   
 17   7  28  1   
 18   9  12  ar  
 19   9  29  1   
 20  10  12  ar  
 21  10  30  1   
 22  11  13  1   
 23  11  14  1   
 24  11  31  1   
 25  12  32  1   
 26  13  15  1   
 27  13  33  1   
 28  13  34  1   
 29  14  35  1   
 30  14  36  1   
 31  14  37  1   
 32  15  16  1   
 33  15  38  1   
 34  15  39  1   
 35  16  17  1   
 36  16  40  1   
 37  16  41  1   
 38  17  18  ar  
 39  17  19  ar  
 40  18  20  ar  
 41  18  42  1   
 42  19  21  ar  
 43  19  43  1   
 44  20  22  ar  
 45  21  22  ar  
 46  21  44  1   
 47  22  45  1   
@<TRIPOS>SUBSTRUCTURE
  1 ****  11 GROUP 4 **** **** 0

# MOE 2024.06 (io_trps.svl 2023.06)
