@<TRIPOS>MOLECULE
NONAME
53 56 1 0 0 
SMALL
USER_CHARGES


@<TRIPOS>ATOM
  1 S       -0.1670     0.2300     0.5970 S.3   1 <1>  -0.3320 
  2 C       -1.6470    -0.7330     0.2430 C.ar  1 <1>   0.1020 
  3 C       -0.4900     1.9630     0.0440 C.3   1 <1>  -0.0100 
  4 C       -1.6210    -2.0640     0.5770 C.ar  1 <1>  -0.1500 
  5 C       -2.7730    -0.1600    -0.3440 C.ar  1 <1>  -0.1500 
  6 C       -2.7320    -2.8900     0.3370 C.ar  1 <1>   0.0000 
  7 C       -3.8730    -0.9480    -0.5890 C.ar  1 <1>  -0.1500 
  8 C       -3.8690    -2.3090    -0.2570 C.ar  1 <1>   0.3610 
  9 C       -2.7820    -4.2820     0.6570 C.ar  1 <1>  -0.1440 
 10 N       -4.9740    -3.1040    -0.5030 N.ar  1 <1>  -0.1790 
 11 C       -3.9100    -4.9950     0.3840 C.ar  1 <1>  -0.1500 
 12 C       -1.5800    -4.9620     1.3020 C.3   1 <1>  -0.0970 
 13 C       -5.0530    -4.4030    -0.2140 C.ar  1 <1>   0.4610 
 14 N       -6.1840    -5.0840    -0.4910 N.pl3 1 <1>  -0.8380 
 15 C       -7.4690    -4.5480    -1.0480 C.3   1 <1>   0.2090 
 16 C       -6.4270    -6.4960    -0.0620 C.3   1 <1>   0.2090 
 17 C       -8.5660    -5.4990    -0.5660 C.3   1 <1>   0.2000 
 18 C       -7.8500    -6.8490    -0.5050 C.3   1 <1>  -0.0800 
 19 O       -8.9370    -5.0970     0.7230 O.3   1 <1>  -0.5600 
 20 C       -8.5160    -7.9030     0.3970 C.3   1 <1>   0.0200 
 21 C      -10.3100    -5.0580     0.9670 C.3   1 <1>   0.0400 
 22 C       -7.8180    -9.2510     0.3440 C.2   1 <1>  -0.0400 
 23 O       -8.0730   -10.1240     1.2810 O.3   1 <1>  -0.0190 
 24 C       -6.9380    -9.8090    -0.5040 C.2   1 <1>  -0.1500 
 25 N       -7.4100   -11.2310     1.1110 N.2   1 <1>  -0.4100 
 26 C       -6.7180   -11.0710     0.0410 C.2   1 <1>   0.1080 
 27 C       -5.7960   -12.1200    -0.5380 C.3   1 <1>  -0.0590 
 28 H        0.3940     2.5390     0.2540 H     1 <1>   0.0800 
 29 H       -1.3290     2.3410     0.5990 H     1 <1>   0.0800 
 30 H       -0.6890     1.9460    -1.0130 H     1 <1>   0.0800 
 31 H       -0.7300    -2.4620     1.0280 H     1 <1>   0.1500 
 32 H       -2.7840     0.8830    -0.6010 H     1 <1>   0.1500 
 33 H       -4.7420    -0.5050    -1.0420 H     1 <1>   0.1500 
 34 H       -5.7940    -2.6810    -0.9160 H     1 <1>   0.4570 
 35 H       -3.9550    -6.0410     0.6230 H     1 <1>   0.1500 
 36 H       -1.7730    -6.0050     1.4820 H     1 <1>   0.0800 
 37 H       -1.3520    -4.4980     2.2460 H     1 <1>   0.0800 
 38 H       -0.7200    -4.8870     0.6600 H     1 <1>   0.0800 
 39 H       -7.6790    -3.5470    -0.7150 H     1 <1>   0.0800 
 40 H       -7.4250    -4.5760    -2.1240 H     1 <1>   0.0800 
 41 H       -5.7090    -7.1650    -0.5050 H     1 <1>   0.0800 
 42 H       -6.3540    -6.5530     1.0130 H     1 <1>   0.0800 
 43 H       -9.4220    -5.4970    -1.2210 H     1 <1>   0.0800 
 44 H       -7.7980    -7.2360    -1.5070 H     1 <1>   0.0800 
 45 H       -9.5400    -8.0430     0.1020 H     1 <1>   0.0800 
 46 H       -8.5140    -7.5590     1.4170 H     1 <1>   0.0800 
 47 H      -10.4590    -4.7700     1.9930 H     1 <1>   0.0800 
 48 H      -10.7350    -6.0330     0.8030 H     1 <1>   0.0800 
 49 H      -10.7680    -4.3320     0.3190 H     1 <1>   0.0800 
 50 H       -6.4880    -9.4250    -1.4000 H     1 <1>   0.1500 
 51 H       -6.0900   -12.3500    -1.5450 H     1 <1>   0.0800 
 52 H       -5.8460   -13.0180     0.0520 H     1 <1>   0.0800 
 53 H       -4.7840   -11.7590    -0.5350 H     1 <1>   0.0800 
@<TRIPOS>BOND
  1   1   2  1   
  2   1   3  1   
  3   2   4  ar  
  4   2   5  ar  
  5   3  28  1   
  6   3  29  1   
  7   3  30  1   
  8   4   6  ar  
  9   4  31  1   
 10   5   7  ar  
 11   5  32  1   
 12   6   8  ar  
 13   6   9  ar  
 14   7   8  ar  
 15   7  33  1   
 16   8  10  ar  
 17   9  11  ar  
 18   9  12  1   
 19  10  13  ar  
 20  10  34  1   
 21  11  13  ar  
 22  11  35  1   
 23  12  36  1   
 24  12  37  1   
 25  12  38  1   
 26  13  14  1   
 27  14  15  1   
 28  14  16  1   
 29  15  17  1   
 30  15  39  1   
 31  15  40  1   
 32  16  18  1   
 33  16  41  1   
 34  16  42  1   
 35  17  18  1   
 36  17  19  1   
 37  17  43  1   
 38  18  20  1   
 39  18  44  1   
 40  19  21  1   
 41  20  22  1   
 42  20  45  1   
 43  20  46  1   
 44  21  47  1   
 45  21  48  1   
 46  21  49  1   
 47  22  23  1   
 48  22  24  2   
 49  23  25  1   
 50  24  26  1   
 51  24  50  1   
 52  25  26  2   
 53  26  27  1   
 54  27  51  1   
 55  27  52  1   
 56  27  53  1   
@<TRIPOS>SUBSTRUCTURE
  1 ****  13 GROUP 4 **** **** 0

# MOE 2024.06 (io_trps.svl 2023.06)
