@<TRIPOS>MOLECULE
NONAME
43 44 1 0 0 
SMALL
USER_CHARGES


@<TRIPOS>ATOM
  1 O        0.1160    -0.0480     1.1310 O.2   1 <1>  -0.5700 
  2 C        1.0620    -0.5610     0.5860 C.2   1 <1>   0.5690 
  3 N        2.0140     0.1280    -0.1000 N.am  1 <1>  -0.4930 
  4 C        1.1940    -2.0670     0.6700 C.3   1 <1>  -0.0990 
  5 C        2.1290     1.5210    -0.3350 C.2   1 <1>   0.0630 
  6 C        0.1270    -2.7600    -0.1860 C.3   1 <1>  -0.0160 
  7 C        1.1460     2.4600    -0.6690 C.2   1 <1>   0.1080 
  8 C        3.2810     2.2260    -0.3060 C.2   1 <1>  -0.3320 
  9 C        0.2940    -4.2690    -0.1190 C.ar  1 <1>  -0.1430 
 10 N        1.6410     3.6460    -0.8350 N.2   1 <1>  -0.7070 
 11 C       -0.3320     2.1960    -0.8510 C.3   1 <1>  -0.0590 
 12 N        2.9570     3.5100    -0.6040 N.pl3 1 <1>   0.3140 
 13 C        4.6950     1.7530     0.0030 C.3   1 <1>  -0.0600 
 14 C       -0.2420    -4.9910     0.9380 C.ar  1 <1>   0.1600 
 15 C        0.9830    -4.9480    -1.1040 C.ar  1 <1>  -0.1500 
 16 C        3.8620     4.6760    -0.6860 C.3   1 <1>   0.0960 
 17 N       -0.1430    -6.3020     1.0900 N.ar  1 <1>  -0.6200 
 18 C        1.0930    -6.3150    -0.9640 C.ar  1 <1>  -0.1500 
 19 C        3.9980     5.3620     0.6810 C.3   1 <1>  -0.1600 
 20 C        0.5210    -6.9320     0.1350 C.ar  1 <1>   0.1600 
 21 C        4.9460     6.5650     0.6120 C.3   1 <1>  -0.2400 
 22 H        2.8090    -0.4060    -0.4400 H     1 <1>   0.3700 
 23 H        1.0770    -2.3600     1.6970 H     1 <1>   0.0800 
 24 H        2.1730    -2.3720     0.3480 H     1 <1>   0.0800 
 25 H        0.2060    -2.4280    -1.2070 H     1 <1>   0.0800 
 26 H       -0.8530    -2.4880     0.1690 H     1 <1>   0.0800 
 27 H       -0.4870     1.2190    -1.2680 H     1 <1>   0.0800 
 28 H       -0.7550     2.9300    -1.5110 H     1 <1>   0.0800 
 29 H       -0.8240     2.2570     0.1020 H     1 <1>   0.0800 
 30 H        4.7000     0.7100     0.2620 H     1 <1>   0.0800 
 31 H        5.0970     2.3060     0.8330 H     1 <1>   0.0800 
 32 H        5.3300     1.8960    -0.8530 H     1 <1>   0.0800 
 33 H       -0.7810    -4.4610     1.7050 H     1 <1>   0.1500 
 34 H        1.4170    -4.4400    -1.9480 H     1 <1>   0.1500 
 35 H        3.4500     5.3650    -1.4010 H     1 <1>   0.0800 
 36 H        4.8200     4.3480    -1.0410 H     1 <1>   0.0800 
 37 H        1.6160    -6.9000    -1.6980 H     1 <1>   0.1500 
 38 H        4.3710     4.6580     1.4040 H     1 <1>   0.0800 
 39 H        3.0250     5.6950     1.0040 H     1 <1>   0.0800 
 40 H        0.6130    -8.0010     0.2330 H     1 <1>   0.1500 
 41 H        5.9300     6.2560     0.3080 H     1 <1>   0.0800 
 42 H        5.0170     7.0310     1.5800 H     1 <1>   0.0800 
 43 H        4.5770     7.2940    -0.0890 H     1 <1>   0.0800 
@<TRIPOS>BOND
  1   1   2  2   
  2   2   3  am  
  3   2   4  1   
  4   3   5  1   
  5   3  22  1   
  6   4   6  1   
  7   4  23  1   
  8   4  24  1   
  9   5   7  1   
 10   5   8  2   
 11   6   9  1   
 12   6  25  1   
 13   6  26  1   
 14   7  10  2   
 15   7  11  1   
 16   8  12  1   
 17   8  13  1   
 18   9  14  ar  
 19   9  15  ar  
 20  10  12  1   
 21  11  27  1   
 22  11  28  1   
 23  11  29  1   
 24  12  16  1   
 25  13  30  1   
 26  13  31  1   
 27  13  32  1   
 28  14  17  ar  
 29  14  33  1   
 30  15  18  ar  
 31  15  34  1   
 32  16  19  1   
 33  16  35  1   
 34  16  36  1   
 35  17  20  ar  
 36  18  20  ar  
 37  18  37  1   
 38  19  21  1   
 39  19  38  1   
 40  19  39  1   
 41  20  40  1   
 42  21  41  1   
 43  21  42  1   
 44  21  43  1   
@<TRIPOS>SUBSTRUCTURE
  1 ****   3 GROUP 4 **** **** 0

# MOE 2024.06 (io_trps.svl 2023.06)
