@<TRIPOS>MOLECULE
NONAME
18 18 1 0 0 
SMALL
USER_CHARGES


@<TRIPOS>ATOM
  1 O        4.6050     7.2580     0.4110 O.3   1 <1>  -0.6800 
  2 C        5.6260     6.8410    -0.4080 C.3   1 <1>   0.3380 
  3 C        5.7390     5.3290    -0.2540 C.2   1 <1>  -0.1380 
  4 C        6.8820     7.5910     0.0210 C.3   1 <1>  -0.2400 
  5 C        6.7590     4.5800     0.1900 C.2   1 <1>  -0.2880 
  6 C        4.6530     4.4660    -0.6040 C.2   1 <1>  -0.1500 
  7 C        6.4130     3.0980     0.1650 C.3   1 <1>   0.1160 
  8 C        4.9970     3.1930    -0.3810 C.2   1 <1>  -0.2880 
  9 H        4.6360     6.7130     1.2190 H     1 <1>   0.4000 
 10 H        5.3650     7.0980    -1.4210 H     1 <1>   0.0800 
 11 H        7.1260     7.3680     1.0440 H     1 <1>   0.0800 
 12 H        6.7320     8.6490    -0.0900 H     1 <1>   0.0800 
 13 H        7.7070     7.2980    -0.6020 H     1 <1>   0.0800 
 14 H        7.7310     4.8820     0.5370 H     1 <1>   0.1500 
 15 H        3.7210     4.8490    -0.9840 H     1 <1>   0.1500 
 16 H        6.4290     2.6710     1.1520 H     1 <1>   0.0800 
 17 H        7.0580     2.5520    -0.5020 H     1 <1>   0.0800 
 18 H        4.4240     2.2950    -0.5330 H     1 <1>   0.1500 
@<TRIPOS>BOND
  1   1   2  1   
  2   1   9  1   
  3   2   3  1   
  4   2   4  1   
  5   2  10  1   
  6   3   5  2   
  7   3   6  1   
  8   4  11  1   
  9   4  12  1   
 10   4  13  1   
 11   5   7  1   
 12   5  14  1   
 13   6   8  2   
 14   6  15  1   
 15   7   8  1   
 16   7  16  1   
 17   7  17  1   
 18   8  18  1   
@<TRIPOS>SUBSTRUCTURE
  1 ****   3 GROUP 4 **** **** 0

# MOE 2024.06 (io_trps.svl 2023.06)
