@<TRIPOS>MOLECULE
NONAME
48 49 1 0 0 
SMALL
USER_CHARGES


@<TRIPOS>ATOM
  1 S        0.5470     0.4630    -0.6570 S.o2  1 <1>   1.3330 
  2 O       -0.5330     1.3230    -1.0850 O.2   1 <1>  -0.6500 
  3 O        0.5760    -0.9170    -1.0900 O.2   1 <1>  -0.6500 
  4 N        0.5400     0.4690     1.0430 N.am  1 <1>  -0.8490 
  5 C        2.1190     1.2160    -1.0800 C.3   1 <1>  -0.0550 
  6 C       -0.3630    -0.5490     1.5890 C.3   1 <1>   0.1160 
  7 C        0.2100     1.7810     1.6130 C.3   1 <1>   0.1160 
  8 C        3.3470     0.3140    -0.8250 C.3   1 <1>  -0.0800 
  9 C        4.6860     0.9190    -1.2200 C.3   1 <1>   0.2200 
 10 C        3.5800    -0.0720     0.6400 C.3   1 <1>   0.1200 
 11 N        4.7780     2.3200    -0.7540 N.am  1 <1>  -0.7300 
 12 C        5.6310     0.0660    -0.3860 C.3   1 <1>   0.1200 
 13 O        4.9640    -0.1560     0.8220 O.3   1 <1>  -0.5600 
 14 C        4.4490     3.4340    -1.4660 C.2   1 <1>   0.5440 
 15 O        4.2160     3.2980    -2.6520 O.2   1 <1>  -0.5700 
 16 C        4.3650     4.7360    -0.8280 C.ar  1 <1>   0.0860 
 17 C        3.9830     4.9200     0.5130 C.ar  1 <1>   0.0820 
 18 C        4.6800     5.8750    -1.5710 C.ar  1 <1>  -0.1500 
 19 O        3.6440     3.8300     1.2530 O.3   1 <1>  -0.3630 
 20 C        3.9450     6.2020     1.0600 C.ar  1 <1>  -0.1500 
 21 C        4.6370     7.1410    -1.0210 C.ar  1 <1>  -0.1500 
 22 C        3.4560     3.8790     2.6510 C.3   1 <1>   0.0400 
 23 C        4.2710     7.3120     0.3020 C.ar  1 <1>  -0.1440 
 24 C        4.2300     8.7080     0.8970 C.3   1 <1>  -0.0970 
 25 H        2.1060     1.4650    -2.1240 H     1 <1>   0.0800 
 26 H        2.2180     2.1340    -0.5390 H     1 <1>   0.0800 
 27 H       -0.3390    -0.5320     2.6650 H     1 <1>   0.0800 
 28 H       -0.0550    -1.5280     1.2620 H     1 <1>   0.0800 
 29 H       -1.3710    -0.3740     1.2520 H     1 <1>   0.0800 
 30 H        0.2930     1.7490     2.6850 H     1 <1>   0.0800 
 31 H       -0.7960     2.0650     1.3480 H     1 <1>   0.0800 
 32 H        0.8880     2.5310     1.2420 H     1 <1>   0.0800 
 33 H        3.2180    -0.5980    -1.3820 H     1 <1>   0.0800 
 34 H        4.8870     0.8540    -2.2770 H     1 <1>   0.0800 
 35 H        3.1320    -1.0210     0.8830 H     1 <1>   0.0800 
 36 H        3.2140     0.6860     1.3110 H     1 <1>   0.0800 
 37 H        4.8300     2.4150     0.2660 H     1 <1>   0.3700 
 38 H        6.5730     0.5510    -0.1990 H     1 <1>   0.0800 
 39 H        5.7940    -0.8890    -0.8530 H     1 <1>   0.0800 
 40 H        4.9650     5.7580    -2.6020 H     1 <1>   0.1500 
 41 H        3.6570     6.3560     2.0820 H     1 <1>   0.1500 
 42 H        4.8910     7.9940    -1.6260 H     1 <1>   0.1500 
 43 H        3.2990     2.8750     3.0030 H     1 <1>   0.0800 
 44 H        2.5930     4.4820     2.8680 H     1 <1>   0.0800 
 45 H        4.3390     4.2900     3.1080 H     1 <1>   0.0800 
 46 H        3.6990     9.3740     0.2390 H     1 <1>   0.0800 
 47 H        5.2310     9.0770     1.0290 H     1 <1>   0.0800 
 48 H        3.7330     8.7070     1.8500 H     1 <1>   0.0800 
@<TRIPOS>BOND
  1   1   2  2   
  2   1   3  2   
  3   1   4  am  
  4   1   5  1   
  5   4   6  1   
  6   4   7  1   
  7   5   8  1   
  8   5  25  1   
  9   5  26  1   
 10   6  27  1   
 11   6  28  1   
 12   6  29  1   
 13   7  30  1   
 14   7  31  1   
 15   7  32  1   
 16   8   9  1   
 17   8  10  1   
 18   8  33  1   
 19   9  11  1   
 20   9  12  1   
 21   9  34  1   
 22  10  13  1   
 23  10  35  1   
 24  10  36  1   
 25  11  14  am  
 26  11  37  1   
 27  12  13  1   
 28  12  38  1   
 29  12  39  1   
 30  14  15  2   
 31  14  16  1   
 32  16  17  ar  
 33  16  18  ar  
 34  17  19  1   
 35  17  20  ar  
 36  18  21  ar  
 37  18  40  1   
 38  19  22  1   
 39  20  23  ar  
 40  20  41  1   
 41  21  23  ar  
 42  21  42  1   
 43  22  43  1   
 44  22  44  1   
 45  22  45  1   
 46  23  24  1   
 47  24  46  1   
 48  24  47  1   
 49  24  48  1   
@<TRIPOS>SUBSTRUCTURE
  1 ****  19 GROUP 4 **** **** 0

# MOE 2024.06 (io_trps.svl 2023.06)
