@<TRIPOS>MOLECULE
NONAME
53 55 1 0 0 
SMALL
USER_CHARGES


@<TRIPOS>ATOM
  1 O        2.7240     0.7410     2.4240 O.2   1 <1>  -0.5700 
  2 C        2.5770     0.0860     1.4090 C.2   1 <1>   0.5440 
  3 N        2.1140     0.7480     0.2800 N.am  1 <1>  -0.6600 
  4 C        2.9620    -1.3260     1.4150 C.ar  1 <1>   0.3960 
  5 C        1.9950     0.1030    -1.0700 C.3   1 <1>   0.1400 
  6 C        1.8390     2.2150     0.2910 C.3   1 <1>   0.1400 
  7 N        3.8290    -1.7790     0.4870 N.ar  1 <1>  -0.6200 
  8 C        2.4380    -2.1600     2.4000 C.ar  1 <1>  -0.1500 
  9 C        3.3280     0.1680    -1.8480 C.3   1 <1>   0.3430 
 10 C        3.0990     3.0090    -0.0840 C.3   1 <1>  -0.1600 
 11 C        4.1560    -3.0580     0.5510 C.ar  1 <1>   0.1670 
 12 C        2.7830    -3.4910     2.4540 C.ar  1 <1>  -0.1500 
 13 N        4.2550     1.1830    -1.2580 N.4   1 <1>  -0.9590 
 14 C        3.7740     2.5840    -1.3930 C.3   1 <1>   0.3430 
 15 C        3.6650    -3.9410     1.4990 C.ar  1 <1>  -0.1500 
 16 C        5.1340    -3.5540    -0.4950 C.3   1 <1>  -0.0970 
 17 C        5.6650     0.9870    -1.6430 C.3   1 <1>   0.5230 
 18 C        6.5000     1.8780    -0.7520 C.2   1 <1>  -0.3320 
 19 N        6.7220     1.6610     0.5790 N.pl3 1 <1>   0.0480 
 20 C        7.1430     3.0120    -1.1290 C.2   1 <1>  -0.1500 
 21 C        7.4940     2.6770     1.0180 C.2   1 <1>  -0.3020 
 22 C        6.2510     0.5490     1.4310 C.3   1 <1>   0.0160 
 23 C        7.7880     3.5500    -0.0010 C.2   1 <1>  -0.0860 
 24 C        8.5650     4.7610     0.0010 C.2   1 <1>   0.5950 
 25 O        8.6860     5.4680    -0.9670 O.2   1 <1>  -0.5700 
 26 C        9.2620     5.1820     1.2760 C.3   1 <1>  -0.1790 
 27 H        1.2270     0.5970    -1.6380 H     1 <1>   0.0800 
 28 H        1.6920    -0.9250    -0.9660 H     1 <1>   0.0800 
 29 H        1.5060     2.5160     1.2720 H     1 <1>   0.0800 
 30 H        1.0400     2.4390    -0.3950 H     1 <1>   0.0800 
 31 H        1.7600    -1.7490     3.1280 H     1 <1>   0.1500 
 32 H        3.1390     0.3820    -2.8870 H     1 <1>   0.0800 
 33 H        3.7880    -0.8050    -1.7930 H     1 <1>   0.0800 
 34 H        3.8100     2.9500     0.7220 H     1 <1>   0.0800 
 35 H        2.8230     4.0450    -0.1710 H     1 <1>   0.0800 
 36 H        2.3840    -4.1490     3.2080 H     1 <1>   0.1500 
 37 H        4.2160     1.0070    -0.2440 H     1 <1>   0.4500 
 38 H        4.6060     3.2440    -1.5800 H     1 <1>   0.0800 
 39 H        3.0840     2.6700    -2.2160 H     1 <1>   0.0800 
 40 H        3.9680    -4.9730     1.4980 H     1 <1>   0.1500 
 41 H        6.0490    -2.9950    -0.4310 H     1 <1>   0.0800 
 42 H        4.7140    -3.4300    -1.4760 H     1 <1>   0.0800 
 43 H        5.3610    -4.5940    -0.3490 H     1 <1>   0.0800 
 44 H        5.8110     1.2590    -2.6760 H     1 <1>   0.0800 
 45 H        5.9570    -0.0410    -1.5070 H     1 <1>   0.0800 
 46 H        7.1910     3.4740    -2.1030 H     1 <1>   0.1500 
 47 H        7.8120     2.7470     2.0440 H     1 <1>   0.1500 
 48 H        6.1280    -0.3420     0.8450 H     1 <1>   0.0800 
 49 H        5.3200     0.8210     1.8910 H     1 <1>   0.0800 
 50 H        6.9770     0.3600     2.2010 H     1 <1>   0.0800 
 51 H        9.9050     4.3920     1.6150 H     1 <1>   0.0800 
 52 H        8.5320     5.4010     2.0310 H     1 <1>   0.0800 
 53 H        9.8550     6.0610     1.0960 H     1 <1>   0.0800 
@<TRIPOS>BOND
  1   1   2  2   
  2   2   3  am  
  3   2   4  1   
  4   3   5  1   
  5   3   6  1   
  6   4   7  ar  
  7   4   8  ar  
  8   5   9  1   
  9   5  27  1   
 10   5  28  1   
 11   6  10  1   
 12   6  29  1   
 13   6  30  1   
 14   7  11  ar  
 15   8  12  ar  
 16   8  31  1   
 17   9  13  1   
 18   9  32  1   
 19   9  33  1   
 20  10  14  1   
 21  10  34  1   
 22  10  35  1   
 23  11  15  ar  
 24  11  16  1   
 25  12  15  ar  
 26  12  36  1   
 27  13  14  1   
 28  13  17  1   
 29  13  37  1   
 30  14  38  1   
 31  14  39  1   
 32  15  40  1   
 33  16  41  1   
 34  16  42  1   
 35  16  43  1   
 36  17  18  1   
 37  17  44  1   
 38  17  45  1   
 39  18  19  1   
 40  18  20  2   
 41  19  21  1   
 42  19  22  1   
 43  20  23  1   
 44  20  46  1   
 45  21  23  2   
 46  21  47  1   
 47  22  48  1   
 48  22  49  1   
 49  22  50  1   
 50  23  24  1   
 51  24  25  2   
 52  24  26  1   
 53  26  51  1   
 54  26  52  1   
 55  26  53  1   
@<TRIPOS>SUBSTRUCTURE
  1 ****  13 GROUP 4 **** **** 0

# MOE 2024.06 (io_trps.svl 2023.06)
