@<TRIPOS>MOLECULE
NONAME
41 44 1 0 0 
SMALL
USER_CHARGES


@<TRIPOS>ATOM
  1 S       -1.3800     1.4380     1.0530 S.3   1 <1>  -0.0800 
  2 C       -0.5220     2.6040     0.0680 C.2   1 <1>  -0.1400 
  3 C        0.0350     1.2320     2.0750 C.2   1 <1>  -0.1100 
  4 C        0.7330     2.7930     0.4950 C.2   1 <1>  -0.1810 
  5 C       -1.1560     3.2960    -1.1080 C.3   1 <1>   0.0200 
  6 C        1.0530     2.0080     1.6540 C.2   1 <1>  -0.1500 
  7 C        1.6740     3.7600    -0.2280 C.3   1 <1>   0.4610 
  8 C       -0.2940     4.5270    -1.4300 C.3   1 <1>   0.1200 
  9 O        1.0770     4.2040    -1.4340 O.3   1 <1>  -0.5600 
 10 C        1.9950     4.9780     0.6490 C.3   1 <1>  -0.1600 
 11 C        2.9660     3.0440    -0.6370 C.3   1 <1>  -0.1600 
 12 C        2.9920     5.9160    -0.0340 C.3   1 <1>   0.1400 
 13 C        3.9590     4.0020    -1.2980 C.3   1 <1>   0.1400 
 14 N        4.2210     5.1480    -0.3830 N.am  1 <1>  -0.6600 
 15 C        5.4970     5.4550     0.0320 C.2   1 <1>   0.5690 
 16 O        6.4470     4.7850    -0.2990 O.2   1 <1>  -0.5700 
 17 C        5.7750     6.6410     0.9520 C.3   1 <1>   0.0820 
 18 C        5.5340     8.0050     0.3100 C.2   1 <1>  -0.1810 
 19 C        5.3030     8.2480    -0.9950 C.2   1 <1>  -0.1100 
 20 C        5.5370     9.1940     1.1120 C.2   1 <1>  -0.1500 
 21 S        5.0690     9.9620    -1.2850 S.3   1 <1>  -0.0800 
 22 C        5.3040    10.3210     0.4150 C.2   1 <1>  -0.1100 
 23 H       -0.0470     0.5420     2.8950 H     1 <1>   0.1500 
 24 H       -2.1580     3.6030    -0.8690 H     1 <1>   0.0800 
 25 H       -1.1880     2.6310    -1.9520 H     1 <1>   0.0800 
 26 H        2.0240     2.0600     2.1150 H     1 <1>   0.1500 
 27 H       -0.4610     5.3010    -0.7020 H     1 <1>   0.0800 
 28 H       -0.5440     4.9110    -2.4030 H     1 <1>   0.0800 
 29 H        2.4220     4.6420     1.5760 H     1 <1>   0.0800 
 30 H        1.0940     5.5080     0.8910 H     1 <1>   0.0800 
 31 H        2.7280     2.2420    -1.3100 H     1 <1>   0.0800 
 32 H        3.4370     2.6150     0.2280 H     1 <1>   0.0800 
 33 H        3.2110     6.7410     0.6170 H     1 <1>   0.0800 
 34 H        2.5600     6.3140    -0.9380 H     1 <1>   0.0800 
 35 H        3.5510     4.3740    -2.2230 H     1 <1>   0.0800 
 36 H        4.8700     3.4750    -1.5260 H     1 <1>   0.0800 
 37 H        6.8000     6.5920     1.2710 H     1 <1>   0.0800 
 38 H        5.1630     6.5390     1.8270 H     1 <1>   0.0800 
 39 H        5.2430     7.5920    -1.8470 H     1 <1>   0.1500 
 40 H        5.7160     9.1500     2.1730 H     1 <1>   0.1500 
 41 H        5.2440    11.3520     0.7150 H     1 <1>   0.1500 
@<TRIPOS>BOND
  1   1   2  1   
  2   1   3  1   
  3   2   4  2   
  4   2   5  1   
  5   3   6  2   
  6   3  23  1   
  7   4   6  1   
  8   4   7  1   
  9   5   8  1   
 10   5  24  1   
 11   5  25  1   
 12   6  26  1   
 13   7   9  1   
 14   7  10  1   
 15   7  11  1   
 16   8   9  1   
 17   8  27  1   
 18   8  28  1   
 19  10  12  1   
 20  10  29  1   
 21  10  30  1   
 22  11  13  1   
 23  11  31  1   
 24  11  32  1   
 25  12  14  1   
 26  12  33  1   
 27  12  34  1   
 28  13  14  1   
 29  13  35  1   
 30  13  36  1   
 31  14  15  am  
 32  15  16  2   
 33  15  17  1   
 34  17  18  1   
 35  17  37  1   
 36  17  38  1   
 37  18  19  2   
 38  18  20  1   
 39  19  21  1   
 40  19  39  1   
 41  20  22  2   
 42  20  40  1   
 43  21  22  1   
 44  22  41  1   
@<TRIPOS>SUBSTRUCTURE
  1 ****  12 GROUP 4 **** **** 0

# MOE 2024.06 (io_trps.svl 2023.06)
