@<TRIPOS>MOLECULE
NONAME
33 34 1 0 0 
SMALL
USER_CHARGES


@<TRIPOS>ATOM
  1 N       -0.7120    -0.1110     0.2120 N.ar  1 <1>  -0.6200 
  2 C       -1.6390     0.7620    -0.1290 C.ar  1 <1>   0.4100 
  3 C        0.4370     0.3910     0.6100 C.ar  1 <1>   0.4760 
  4 N       -2.8440     0.2530    -0.5550 N.pl3 1 <1>  -0.8690 
  5 C       -1.4110     2.1320    -0.0580 C.ar  1 <1>  -0.1430 
  6 N        0.7720     1.6610     0.7180 N.ar  1 <1>  -0.6200 
  7 C        1.5020    -0.6060     0.9980 C.3   1 <1>  -0.0970 
  8 C       -3.0520    -1.1760    -0.9080 C.3   1 <1>   0.2090 
  9 C       -0.1670     2.5200     0.3790 C.ar  1 <1>   0.1600 
 10 C       -2.5120     3.1220    -0.4510 C.3   1 <1>  -0.0170 
 11 C       -3.3120    -1.9860     0.3600 C.3   1 <1>   0.0960 
 12 C       -2.1620     4.6030    -0.2610 C.3   1 <1>  -0.2400 
 13 N       -3.3260    -3.4160     0.0300 N.pl3 1 <1>   0.3140 
 14 N       -4.3080    -3.9920    -0.6520 N.2   1 <1>  -0.7070 
 15 C       -2.4050    -4.3410     0.3150 C.2   1 <1>   0.0370 
 16 C       -3.9110    -5.2200    -0.7240 C.2   1 <1>   0.3660 
 17 N       -2.7360    -5.4940    -0.1420 N.2   1 <1>  -0.5650 
 18 H       -3.4830     0.9060    -1.0120 H     1 <1>   0.4000 
 19 H        1.3400    -1.5390     0.4920 H     1 <1>   0.0800 
 20 H        1.4680    -0.7660     2.0580 H     1 <1>   0.0800 
 21 H        2.4720    -0.2290     0.7300 H     1 <1>   0.0800 
 22 H       -2.1730    -1.5500    -1.4080 H     1 <1>   0.0800 
 23 H       -3.8920    -1.2650    -1.5750 H     1 <1>   0.0800 
 24 H        0.0910     3.5610     0.4620 H     1 <1>   0.1500 
 25 H       -3.3890     2.9060     0.1350 H     1 <1>   0.0800 
 26 H       -2.7620     2.9620    -1.4860 H     1 <1>   0.0800 
 27 H       -4.2630    -1.7200     0.7800 H     1 <1>   0.0800 
 28 H       -2.5380    -1.8070     1.0820 H     1 <1>   0.0800 
 29 H       -1.9320     4.8080     0.7700 H     1 <1>   0.0800 
 30 H       -3.0000     5.2150    -0.5470 H     1 <1>   0.0800 
 31 H       -1.3220     4.8760    -0.8750 H     1 <1>   0.0800 
 32 H       -1.5040    -4.1210     0.8590 H     1 <1>   0.1500 
 33 H       -4.4740    -5.9960    -1.2180 H     1 <1>   0.1500 
@<TRIPOS>BOND
  1   1   2  ar  
  2   1   3  ar  
  3   2   4  1   
  4   2   5  ar  
  5   3   6  ar  
  6   3   7  1   
  7   4   8  1   
  8   4  18  1   
  9   5   9  ar  
 10   5  10  1   
 11   6   9  ar  
 12   7  19  1   
 13   7  20  1   
 14   7  21  1   
 15   8  11  1   
 16   8  22  1   
 17   8  23  1   
 18   9  24  1   
 19  10  12  1   
 20  10  25  1   
 21  10  26  1   
 22  11  13  1   
 23  11  27  1   
 24  11  28  1   
 25  12  29  1   
 26  12  30  1   
 27  12  31  1   
 28  13  14  1   
 29  13  15  1   
 30  14  16  2   
 31  15  17  2   
 32  15  32  1   
 33  16  17  1   
 34  16  33  1   
@<TRIPOS>SUBSTRUCTURE
  1 ****   1 GROUP 4 **** **** 0

# MOE 2024.06 (io_trps.svl 2023.06)
