@<TRIPOS>MOLECULE
NONAME
51 54 1 0 0 
SMALL
USER_CHARGES


@<TRIPOS>ATOM
  1 O        1.2930     0.1730     1.2890 O.3   1 <1>  -0.6800 
  2 C        1.4800     0.0440    -0.0860 C.3   1 <1>   0.2000 
  3 C        2.2450    -1.2440    -0.3930 C.3   1 <1>  -0.0800 
  4 C        2.4710     1.1180    -0.5400 C.3   1 <1>   0.3430 
  5 C        3.7140    -0.8950    -0.1170 C.3   1 <1>   0.3430 
  6 C        1.7790    -2.5130     0.3470 C.3   1 <1>  -0.0160 
  7 N        3.8230     0.5940    -0.1670 N.4   1 <1>  -0.9590 
  8 C        2.7080    -3.6730     0.0310 C.ar  1 <1>  -0.1430 
  9 C        4.2650     1.1400     1.1340 C.3   1 <1>   0.5230 
 10 C        2.7090    -4.2910    -1.2040 C.ar  1 <1>  -0.1500 
 11 C        3.6030    -4.1670     0.9610 C.ar  1 <1>  -0.1500 
 12 C        4.5380     2.6020     0.8940 C.2   1 <1>  -0.3320 
 13 C        3.5930    -5.3280    -1.4500 C.ar  1 <1>   0.1600 
 14 C        4.4450    -5.2100     0.6130 C.ar  1 <1>   0.1600 
 15 N        3.7240     3.5800     1.4060 N.pl3 1 <1>   0.0330 
 16 C        5.5430     3.1800     0.1880 C.2   1 <1>  -0.1810 
 17 N        4.4670    -5.7920    -0.5730 N.ar  1 <1>  -0.6200 
 18 C        4.2040     4.7930     0.9950 C.ar  1 <1>  -0.1520 
 19 C        5.3440     4.5780     0.2310 C.ar  1 <1>   0.0000 
 20 C        6.7140     2.5460    -0.5400 C.3   1 <1>  -0.0590 
 21 C        3.7300     6.0850     1.2310 C.ar  1 <1>  -0.1500 
 22 C        6.0260     5.6740    -0.3100 C.ar  1 <1>  -0.1500 
 23 C        4.4110     7.1500     0.6900 C.ar  1 <1>  -0.1500 
 24 C        5.5630     6.9500    -0.0830 C.ar  1 <1>  -0.1430 
 25 C        6.2800     8.1580    -0.6570 C.3   1 <1>  -0.0970 
 26 H        0.4930    -0.3150     1.5830 H     1 <1>   0.4000 
 27 H        0.5270     0.1220    -0.5830 H     1 <1>   0.0800 
 28 H        2.1620    -1.4300    -1.4500 H     1 <1>   0.0800 
 29 H        2.2570     2.0710    -0.0860 H     1 <1>   0.0800 
 30 H        2.4120     1.2210    -1.6100 H     1 <1>   0.0800 
 31 H        4.3550    -1.3610    -0.8490 H     1 <1>   0.0800 
 32 H        3.9880    -1.2530     0.8620 H     1 <1>   0.0800 
 33 H        0.7770    -2.7670     0.0450 H     1 <1>   0.0800 
 34 H        1.7680    -2.3530     1.4110 H     1 <1>   0.0800 
 35 H        4.5140     0.9250    -0.8510 H     1 <1>   0.4500 
 36 H        3.5060     1.0030     1.8880 H     1 <1>   0.0800 
 37 H        5.1720     0.6540     1.4540 H     1 <1>   0.0800 
 38 H        2.0310    -3.9850    -1.9800 H     1 <1>   0.1500 
 39 H        3.6560    -3.7620     1.9550 H     1 <1>   0.1500 
 40 H        3.5820    -5.8010    -2.4180 H     1 <1>   0.1500 
 41 H        5.1360    -5.5870     1.3490 H     1 <1>   0.1500 
 42 H        2.9090     3.4710     2.0210 H     1 <1>   0.2700 
 43 H        7.6340     2.9570    -0.1610 H     1 <1>   0.0800 
 44 H        6.6530     2.7620    -1.5910 H     1 <1>   0.0800 
 45 H        6.7360     1.4820    -0.3980 H     1 <1>   0.0800 
 46 H        2.8480     6.2410     1.8260 H     1 <1>   0.1500 
 47 H        6.9070     5.4980    -0.8980 H     1 <1>   0.1500 
 48 H        4.0620     8.1530     0.8610 H     1 <1>   0.1500 
 49 H        5.6180     8.7030    -1.3060 H     1 <1>   0.0800 
 50 H        7.1450     7.8590    -1.2220 H     1 <1>   0.0800 
 51 H        6.5990     8.8060     0.1390 H     1 <1>   0.0800 
@<TRIPOS>BOND
  1   1   2  1   
  2   1  26  1   
  3   2   3  1   
  4   2   4  1   
  5   2  27  1   
  6   3   5  1   
  7   3   6  1   
  8   3  28  1   
  9   4   7  1   
 10   4  29  1   
 11   4  30  1   
 12   5   7  1   
 13   5  31  1   
 14   5  32  1   
 15   6   8  1   
 16   6  33  1   
 17   6  34  1   
 18   7   9  1   
 19   7  35  1   
 20   8  10  ar  
 21   8  11  ar  
 22   9  12  1   
 23   9  36  1   
 24   9  37  1   
 25  10  13  ar  
 26  10  38  1   
 27  11  14  ar  
 28  11  39  1   
 29  12  15  1   
 30  12  16  2   
 31  13  17  ar  
 32  13  40  1   
 33  14  17  ar  
 34  14  41  1   
 35  15  18  1   
 36  15  42  1   
 37  16  19  1   
 38  16  20  1   
 39  18  19  ar  
 40  18  21  ar  
 41  19  22  ar  
 42  20  43  1   
 43  20  44  1   
 44  20  45  1   
 45  21  23  ar  
 46  21  46  1   
 47  22  24  ar  
 48  22  47  1   
 49  23  24  ar  
 50  23  48  1   
 51  24  25  1   
 52  25  49  1   
 53  25  50  1   
 54  25  51  1   
@<TRIPOS>SUBSTRUCTURE
  1 ****   7 GROUP 4 **** **** 0

# MOE 2024.06 (io_trps.svl 2023.06)
