@<TRIPOS>MOLECULE
NONAME
54 56 1 0 0 
SMALL
USER_CHARGES


@<TRIPOS>ATOM
  1 O        0.8430     0.1420    -0.5260 O.2   1 <1>  -0.5700 
  2 C        1.8250    -0.4650    -0.1330 C.2   1 <1>   0.7150 
  3 N        2.9030     0.2760     0.3280 N.am  1 <1>  -0.6600 
  4 C        1.8050    -1.9160    -0.1570 C.2   1 <1>   0.0550 
  5 C        3.9820    -0.3210     1.1780 C.3   1 <1>   0.1400 
  6 C        2.9030     1.7650     0.1840 C.3   1 <1>   0.1400 
  7 O        2.9100    -2.6200    -0.3710 O.3   1 <1>  -0.2800 
  8 C        0.7750    -2.7790    -0.0090 C.2   1 <1>   0.0460 
  9 C        5.2440    -0.6300     0.3590 C.3   1 <1>   0.1400 
 10 C        4.2920     2.3930    -0.0100 C.3   1 <1>  -0.1600 
 11 C        2.4640    -3.8570    -0.3330 C.2   1 <1>   0.2980 
 12 N        1.2150    -4.0270    -0.1190 N.2   1 <1>  -0.5650 
 13 C       -0.6970    -2.5290     0.2490 C.3   1 <1>  -0.0590 
 14 N        5.9930     0.6120     0.0010 N.am  1 <1>  -0.6600 
 15 C        5.2470     1.5610    -0.8710 C.3   1 <1>   0.1400 
 16 C        3.4600    -4.9720    -0.5430 C.3   1 <1>  -0.0600 
 17 C        7.2540     0.8400     0.4980 C.2   1 <1>   0.5690 
 18 O        7.8260     0.0140     1.1710 O.2   1 <1>  -0.5700 
 19 C        7.9720     2.1500     0.2090 C.3   1 <1>  -0.0990 
 20 C        9.1280     2.4440     1.1730 C.3   1 <1>   0.0210 
 21 C        9.7780     3.7690     0.8200 C.2   1 <1>   0.1080 
 22 N        9.1830     4.9010     1.0380 N.2   1 <1>  -0.7070 
 23 C       11.0330     3.9350     0.2340 C.2   1 <1>  -0.1810 
 24 N       10.0530     5.8280     0.6020 N.pl3 1 <1>   0.3000 
 25 C       11.1790     5.2730     0.1090 C.2   1 <1>  -0.3320 
 26 C       11.9900     2.8250    -0.1600 C.3   1 <1>  -0.0590 
 27 C       12.3230     6.1030    -0.4500 C.3   1 <1>  -0.0600 
 28 H        3.6250    -1.2330     1.6230 H     1 <1>   0.0800 
 29 H        4.2310     0.3460     1.9840 H     1 <1>   0.0800 
 30 H        2.4290     2.2000     1.0470 H     1 <1>   0.0800 
 31 H        2.3060     2.0290    -0.6740 H     1 <1>   0.0800 
 32 H        4.9820    -1.1590    -0.5400 H     1 <1>   0.0800 
 33 H        5.8700    -1.2830     0.9420 H     1 <1>   0.0800 
 34 H        4.7400     2.5940     0.9470 H     1 <1>   0.0800 
 35 H        4.1470     3.3450    -0.4870 H     1 <1>   0.0800 
 36 H       -0.8980    -1.4830     0.3880 H     1 <1>   0.0800 
 37 H       -1.0040    -3.0590     1.1320 H     1 <1>   0.0800 
 38 H       -1.2720    -2.8840    -0.5860 H     1 <1>   0.0800 
 39 H        5.9350     2.2110    -1.3820 H     1 <1>   0.0800 
 40 H        4.7010     1.0180    -1.6250 H     1 <1>   0.0800 
 41 H        3.9180    -4.8690    -1.5090 H     1 <1>   0.0800 
 42 H        2.9610    -5.9220    -0.4900 H     1 <1>   0.0800 
 43 H        4.2170    -4.9290     0.2170 H     1 <1>   0.0800 
 44 H        7.2740     2.9630     0.2840 H     1 <1>   0.0800 
 45 H        8.3510     2.1190    -0.7950 H     1 <1>   0.0800 
 46 H        9.8540     1.6530     1.1330 H     1 <1>   0.0800 
 47 H        8.7540     2.5000     2.1800 H     1 <1>   0.0800 
 48 H        9.8500     6.8330     0.6570 H     1 <1>   0.2700 
 49 H       11.4970     2.1350    -0.8200 H     1 <1>   0.0800 
 50 H       12.3150     2.2960     0.7180 H     1 <1>   0.0800 
 51 H       12.8530     3.2190    -0.6620 H     1 <1>   0.0800 
 52 H       13.1310     5.4750    -0.7750 H     1 <1>   0.0800 
 53 H       12.6970     6.7720     0.3050 H     1 <1>   0.0800 
 54 H       11.9830     6.6810    -1.2910 H     1 <1>   0.0800 
@<TRIPOS>BOND
  1   1   2  2   
  2   2   3  am  
  3   2   4  1   
  4   3   5  1   
  5   3   6  1   
  6   4   7  1   
  7   4   8  2   
  8   5   9  1   
  9   5  28  1   
 10   5  29  1   
 11   6  10  1   
 12   6  30  1   
 13   6  31  1   
 14   7  11  1   
 15   8  12  1   
 16   8  13  1   
 17   9  14  1   
 18   9  32  1   
 19   9  33  1   
 20  10  15  1   
 21  10  34  1   
 22  10  35  1   
 23  11  12  2   
 24  11  16  1   
 25  13  36  1   
 26  13  37  1   
 27  13  38  1   
 28  14  15  1   
 29  14  17  am  
 30  15  39  1   
 31  15  40  1   
 32  16  41  1   
 33  16  42  1   
 34  16  43  1   
 35  17  18  2   
 36  17  19  1   
 37  19  20  1   
 38  19  44  1   
 39  19  45  1   
 40  20  21  1   
 41  20  46  1   
 42  20  47  1   
 43  21  22  2   
 44  21  23  1   
 45  22  24  1   
 46  23  25  2   
 47  23  26  1   
 48  24  25  1   
 49  24  48  1   
 50  25  27  1   
 51  26  49  1   
 52  26  50  1   
 53  26  51  1   
 54  27  52  1   
 55  27  53  1   
 56  27  54  1   
@<TRIPOS>SUBSTRUCTURE
  1 ****  14 GROUP 4 **** **** 0

# MOE 2024.06 (io_trps.svl 2023.06)
