@<TRIPOS>MOLECULE
NONAME
44 46 1 0 0 
SMALL
USER_CHARGES


@<TRIPOS>ATOM
  1 BR      -0.5130    -0.1340    -0.0500 Br    1 <1>  -0.1110 
  2 C       -1.8860     1.2110    -0.1210 C.ar  1 <1>   0.1110 
  3 C       -2.7470     1.3420     0.9500 C.ar  1 <1>  -0.1500 
  4 C       -1.9760     2.0130    -1.2420 C.ar  1 <1>  -0.1500 
  5 C       -3.7340     2.3120     0.8920 C.ar  1 <1>  -0.1500 
  6 C       -2.9670     2.9800    -1.2880 C.ar  1 <1>  -0.1500 
  7 C       -3.8500     3.1360    -0.2250 C.ar  1 <1>  -0.1430 
  8 C       -4.9350     4.2040    -0.3050 C.3   1 <1>   0.3640 
  9 N       -5.0290     4.9460     0.9560 N.am  1 <1>  -0.7300 
 10 C       -6.3440     3.6110    -0.4980 C.3   1 <1>  -0.1600 
 11 C       -6.2630     5.0080     1.4720 C.2   1 <1>   0.5770 
 12 C       -7.2270     4.3100     0.5600 C.3   1 <1>   0.0530 
 13 O       -6.5440     5.5380     2.5160 O.2   1 <1>  -0.5700 
 14 C       -8.3350     3.4660     1.2200 C.3   1 <1>   0.2250 
 15 C       -8.3580     5.2080     0.0220 C.3   1 <1>   0.2250 
 16 N       -9.2630     4.0240     0.1830 N.am  1 <1>  -0.5100 
 17 C      -10.6100     4.1010     0.3370 C.2   1 <1>   0.7800 
 18 O      -11.2270     3.2970     1.0090 O.2   1 <1>  -0.5700 
 19 O      -11.2230     5.1080    -0.2900 O.3   1 <1>  -0.4300 
 20 C      -12.6020     5.4070    -0.2780 C.3   1 <1>   0.2800 
 21 C      -13.0620     5.7310     1.1480 C.3   1 <1>  -0.2400 
 22 C      -12.7470     6.6550    -1.1500 C.3   1 <1>  -0.2400 
 23 C      -13.4000     4.2580    -0.9050 C.3   1 <1>  -0.2400 
 24 H       -2.6470     0.7000     1.8070 H     1 <1>   0.1500 
 25 H       -1.2870     1.8820    -2.0570 H     1 <1>   0.1500 
 26 H       -4.4110     2.4210     1.7220 H     1 <1>   0.1500 
 27 H       -3.0430     3.6080    -2.1590 H     1 <1>   0.1500 
 28 H       -4.7180     4.9030    -1.0960 H     1 <1>   0.0800 
 29 H       -4.1980     5.2880     1.4400 H     1 <1>   0.3700 
 30 H       -6.3210     2.5510    -0.3170 H     1 <1>   0.0800 
 31 H       -6.6970     3.7740    -1.5000 H     1 <1>   0.0800 
 32 H       -8.6120     3.7890     2.2090 H     1 <1>   0.0000 
 33 H       -8.2040     2.4030     1.1190 H     1 <1>   0.0000 
 34 H       -8.2460     5.4970    -1.0080 H     1 <1>   0.0000 
 35 H       -8.6420     6.0100     0.6820 H     1 <1>   0.0000 
 36 H      -12.4350     6.4900     1.5800 H     1 <1>   0.0800 
 37 H      -13.0410     4.8570     1.7720 H     1 <1>   0.0800 
 38 H      -14.0740     6.0930     1.1330 H     1 <1>   0.0800 
 39 H      -12.1740     7.4660    -0.7390 H     1 <1>   0.0800 
 40 H      -13.7760     6.9590    -1.2010 H     1 <1>   0.0800 
 41 H      -12.4030     6.4540    -2.1490 H     1 <1>   0.0800 
 42 H      -13.3780     3.3840    -0.2800 H     1 <1>   0.0800 
 43 H      -13.0040     4.0110    -1.8720 H     1 <1>   0.0800 
 44 H      -14.4290     4.5460    -1.0210 H     1 <1>   0.0800 
@<TRIPOS>BOND
  1   1   2  1   
  2   2   3  ar  
  3   2   4  ar  
  4   3   5  ar  
  5   3  24  1   
  6   4   6  ar  
  7   4  25  1   
  8   5   7  ar  
  9   5  26  1   
 10   6   7  ar  
 11   6  27  1   
 12   7   8  1   
 13   8   9  1   
 14   8  10  1   
 15   8  28  1   
 16   9  11  am  
 17   9  29  1   
 18  10  12  1   
 19  10  30  1   
 20  10  31  1   
 21  11  12  1   
 22  11  13  2   
 23  12  14  1   
 24  12  15  1   
 25  14  16  1   
 26  14  32  1   
 27  14  33  1   
 28  15  16  1   
 29  15  34  1   
 30  15  35  1   
 31  16  17  am  
 32  17  18  2   
 33  17  19  1   
 34  19  20  1   
 35  20  21  1   
 36  20  22  1   
 37  20  23  1   
 38  21  36  1   
 39  21  37  1   
 40  21  38  1   
 41  22  39  1   
 42  22  40  1   
 43  22  41  1   
 44  23  42  1   
 45  23  43  1   
 46  23  44  1   
@<TRIPOS>SUBSTRUCTURE
  1 ****  12 GROUP 4 **** **** 0

# MOE 2024.06 (io_trps.svl 2023.06)
