@<TRIPOS>MOLECULE
NONAME
43 44 1 0 0 
SMALL
USER_CHARGES


@<TRIPOS>ATOM
  1 S        0.4660     0.0010    -0.4100 S.o2  1 <1>   1.3330 
  2 O        1.8690     0.0290    -0.0650 O.2   1 <1>  -0.6500 
  3 O        0.0740    -0.1270    -1.7960 O.2   1 <1>  -0.6500 
  4 N       -0.2570    -1.2620     0.4640 N.am  1 <1>  -0.8490 
  5 C       -0.3380     1.4600     0.2470 C.3   1 <1>  -0.0550 
  6 C        0.3270    -1.4560     1.7950 C.3   1 <1>   0.1160 
  7 C       -0.2380    -2.5260    -0.2770 C.3   1 <1>   0.1160 
  8 C        0.1180     2.7650    -0.4360 C.3   1 <1>  -0.0800 
  9 C       -0.6950     3.9990    -0.0360 C.3   1 <1>   0.2000 
 10 C        1.5740     3.1500    -0.1370 C.3   1 <1>   0.1400 
 11 O       -0.8820     3.9940     1.3380 O.3   1 <1>  -0.6800 
 12 C        0.2270     5.1650    -0.3830 C.3   1 <1>   0.1400 
 13 N        1.5870     4.6350    -0.1100 N.am  1 <1>  -0.6600 
 14 C        2.6780     5.3680     0.3210 C.2   1 <1>   0.5440 
 15 O        3.6920     4.7490     0.5990 O.2   1 <1>  -0.5700 
 16 C        2.6560     6.8300     0.4190 C.ar  1 <1>   0.3960 
 17 N        1.8190     7.3990     1.3070 N.ar  1 <1>  -0.6200 
 18 C        3.4910     7.6030    -0.4050 C.ar  1 <1>  -0.1440 
 19 C        1.8250     8.7150     1.3840 C.ar  1 <1>   0.1600 
 20 C        3.4740     8.9800    -0.3070 C.ar  1 <1>  -0.1500 
 21 C        4.4320     6.9570    -1.4170 C.3   1 <1>  -0.0970 
 22 C        2.6190     9.5410     0.6120 C.ar  1 <1>  -0.1500 
 23 H       -1.3970     1.3560     0.1110 H     1 <1>   0.0800 
 24 H       -0.1530     1.5260     1.3010 H     1 <1>   0.0800 
 25 H       -0.2230    -2.2090     2.3330 H     1 <1>   0.0800 
 26 H        0.2850    -0.5400     2.3580 H     1 <1>   0.0800 
 27 H        1.3570    -1.7660     1.7140 H     1 <1>   0.0800 
 28 H       -0.7180    -3.3020     0.2950 H     1 <1>   0.0800 
 29 H        0.7760    -2.8190    -0.4930 H     1 <1>   0.0800 
 30 H       -0.7720    -2.4170    -1.2070 H     1 <1>   0.0800 
 31 H        0.0260     2.6440    -1.5020 H     1 <1>   0.0800 
 32 H       -1.6570     4.0560    -0.5160 H     1 <1>   0.0800 
 33 H        2.2470     2.7790    -0.8930 H     1 <1>   0.0800 
 34 H        1.8880     2.7790     0.8240 H     1 <1>   0.0800 
 35 H       -0.0320     4.2350     1.7650 H     1 <1>   0.4000 
 36 H       -0.0110     6.0360     0.2000 H     1 <1>   0.0800 
 37 H        0.1470     5.3990    -1.4300 H     1 <1>   0.0800 
 38 H        1.1590     9.1650     2.1020 H     1 <1>   0.1500 
 39 H        4.1040     9.6000    -0.9200 H     1 <1>   0.1500 
 40 H        4.8850     7.6940    -2.0550 H     1 <1>   0.0800 
 41 H        3.8960     6.2590    -2.0360 H     1 <1>   0.0800 
 42 H        5.2150     6.4270    -0.9030 H     1 <1>   0.0800 
 43 H        2.5670    10.6080     0.7330 H     1 <1>   0.1500 
@<TRIPOS>BOND
  1   1   2  2   
  2   1   3  2   
  3   1   4  am  
  4   1   5  1   
  5   4   6  1   
  6   4   7  1   
  7   5   8  1   
  8   5  23  1   
  9   5  24  1   
 10   6  25  1   
 11   6  26  1   
 12   6  27  1   
 13   7  28  1   
 14   7  29  1   
 15   7  30  1   
 16   8   9  1   
 17   8  10  1   
 18   8  31  1   
 19   9  11  1   
 20   9  12  1   
 21   9  32  1   
 22  10  13  1   
 23  10  33  1   
 24  10  34  1   
 25  11  35  1   
 26  12  13  1   
 27  12  36  1   
 28  12  37  1   
 29  13  14  am  
 30  14  15  2   
 31  14  16  1   
 32  16  17  ar  
 33  16  18  ar  
 34  17  19  ar  
 35  18  20  ar  
 36  18  21  1   
 37  19  22  ar  
 38  19  38  1   
 39  20  22  ar  
 40  20  39  1   
 41  21  40  1   
 42  21  41  1   
 43  21  42  1   
 44  22  43  1   
@<TRIPOS>SUBSTRUCTURE
  1 ****  13 GROUP 4 **** **** 0

# MOE 2024.06 (io_trps.svl 2023.06)
