@<TRIPOS>MOLECULE
NONAME
49 52 1 0 0 
SMALL
USER_CHARGES


@<TRIPOS>ATOM
  1 S        0.1320    -0.1300     0.3540 S.3   1 <1>  -0.4600 
  2 C       -1.4710    -0.3450     1.1710 C.3   1 <1>   0.0700 
  3 C        0.5650     1.6480     0.4100 C.3   1 <1>   0.0700 
  4 C       -2.5570    -0.1890     0.0950 C.3   1 <1>   0.4230 
  5 C       -0.6340     2.5900     0.5900 C.3   1 <1>   0.0700 
  6 N       -3.6530    -1.1810     0.3070 N.4   1 <1>  -0.9060 
  7 C       -3.1090     1.2450     0.0490 C.3   1 <1>   0.0700 
  8 S       -1.8720     2.3220    -0.7160 S.3   1 <1>  -0.4600 
  9 C       -4.4890    -1.4290    -0.9040 C.3   1 <1>   0.4230 
 10 C       -5.6830    -2.3200    -0.5570 C.3   1 <1>  -0.0800 
 11 C       -3.7170    -2.3840    -1.8090 C.3   1 <1>   0.1200 
 12 C       -5.0940    -3.7400    -0.6290 C.3   1 <1>   0.1200 
 13 C       -6.4370    -2.0210     0.7570 C.3   1 <1>  -0.0170 
 14 O       -3.7900    -3.5780    -1.1020 O.3   1 <1>  -0.5600 
 15 C       -7.6590    -2.9220     0.8870 C.ar  1 <1>  -0.1440 
 16 C       -8.8560    -2.6880     0.1660 C.ar  1 <1>   0.0000 
 17 C       -7.6250    -4.0070     1.7150 C.ar  1 <1>  -0.1500 
 18 C       -9.9150    -3.6150     0.3310 C.ar  1 <1>   0.3100 
 19 C       -9.0690    -1.5930    -0.7050 C.ar  1 <1>  -0.1500 
 20 C       -8.7360    -4.8540     1.8160 C.ar  1 <1>   0.1600 
 21 N       -9.8360    -4.6870     1.1570 N.ar  1 <1>  -0.6200 
 22 C      -11.1060    -3.4240    -0.3860 C.ar  1 <1>  -0.1500 
 23 C      -10.2440    -1.4340    -1.3870 C.ar  1 <1>  -0.1500 
 24 C      -11.2760    -2.3610    -1.2300 C.ar  1 <1>  -0.1500 
 25 H       -1.4500    -1.3440     1.5680 H     1 <1>   0.0800 
 26 H       -1.5450     0.3650     1.9740 H     1 <1>   0.0800 
 27 H        1.2590     1.7690     1.2230 H     1 <1>   0.0800 
 28 H        1.0750     1.8650    -0.5130 H     1 <1>   0.0800 
 29 H       -2.0950    -0.3970    -0.8570 H     1 <1>   0.0800 
 30 H       -0.3100     3.6120     0.4930 H     1 <1>   0.0800 
 31 H       -1.1090     2.4690     1.5460 H     1 <1>   0.0800 
 32 H       -3.2280    -2.1060     0.4930 H     1 <1>   0.4500 
 33 H       -4.2300    -0.9330     1.1150 H     1 <1>   0.4500 
 34 H       -3.3240     1.6410     1.0260 H     1 <1>   0.0800 
 35 H       -3.9770     1.3190    -0.5800 H     1 <1>   0.0800 
 36 H       -4.7770    -0.5150    -1.3980 H     1 <1>   0.0800 
 37 H       -6.3870    -2.2410    -1.3680 H     1 <1>   0.0800 
 38 H       -2.6880    -2.1130    -1.9650 H     1 <1>   0.0800 
 39 H       -4.2070    -2.5180    -2.7600 H     1 <1>   0.0800 
 40 H       -5.6400    -4.3620    -1.3200 H     1 <1>   0.0800 
 41 H       -5.0450    -4.2260     0.3300 H     1 <1>   0.0800 
 42 H       -6.7490    -0.9920     0.7920 H     1 <1>   0.0800 
 43 H       -5.7960    -2.1920     1.6030 H     1 <1>   0.0800 
 44 H       -6.7630    -4.2510     2.3070 H     1 <1>   0.1500 
 45 H       -8.3000    -0.8590    -0.8390 H     1 <1>   0.1500 
 46 H       -8.6700    -5.6990     2.4800 H     1 <1>   0.1500 
 47 H      -11.8880    -4.1480    -0.2460 H     1 <1>   0.1500 
 48 H      -10.3960    -0.5980    -2.0490 H     1 <1>   0.1500 
 49 H      -12.1960    -2.2280    -1.7740 H     1 <1>   0.1500 
@<TRIPOS>BOND
  1   1   2  1   
  2   1   3  1   
  3   2   4  1   
  4   2  25  1   
  5   2  26  1   
  6   3   5  1   
  7   3  27  1   
  8   3  28  1   
  9   4   6  1   
 10   4   7  1   
 11   4  29  1   
 12   5   8  1   
 13   5  30  1   
 14   5  31  1   
 15   6   9  1   
 16   6  32  1   
 17   6  33  1   
 18   7   8  1   
 19   7  34  1   
 20   7  35  1   
 21   9  10  1   
 22   9  11  1   
 23   9  36  1   
 24  10  12  1   
 25  10  13  1   
 26  10  37  1   
 27  11  14  1   
 28  11  38  1   
 29  11  39  1   
 30  12  14  1   
 31  12  40  1   
 32  12  41  1   
 33  13  15  1   
 34  13  42  1   
 35  13  43  1   
 36  15  16  ar  
 37  15  17  ar  
 38  16  18  ar  
 39  16  19  ar  
 40  17  20  ar  
 41  17  44  1   
 42  18  21  ar  
 43  18  22  ar  
 44  19  23  ar  
 45  19  45  1   
 46  20  21  ar  
 47  20  46  1   
 48  22  24  ar  
 49  22  47  1   
 50  23  24  ar  
 51  23  48  1   
 52  24  49  1   
@<TRIPOS>SUBSTRUCTURE
  1 ****  10 GROUP 4 **** **** 0

# MOE 2024.06 (io_trps.svl 2023.06)
