@<TRIPOS>MOLECULE
NONAME
43 45 1 0 0 
SMALL
USER_CHARGES


@<TRIPOS>ATOM
  1 N        0.8650     0.6940     1.3270 N.ar  1 <1>  -0.6200 
  2 C        1.8640    -0.0810     0.9110 C.ar  1 <1>   0.7710 
  3 C       -0.3680     0.2870     1.1170 C.ar  1 <1>   0.4100 
  4 N        1.6650    -1.2630     0.2900 N.ar  1 <1>  -0.1260 
  5 N        3.1250     0.3370     1.1030 N.pl3 1 <1>  -0.8690 
  6 N       -1.3330     1.1030     1.5530 N.pl3 1 <1>  -0.9000 
  7 C       -0.6520    -0.9330     0.4680 C.ar  1 <1>   0.0000 
  8 C        0.3880    -1.7070     0.0560 C.ar  1 <1>   0.1560 
  9 C        3.5290     1.6020     1.7500 C.3   1 <1>   0.3890 
 10 C       -1.7840    -1.6620     0.0810 C.2   1 <1>   0.1390 
 11 N       -0.1280    -2.8130    -0.5310 N.pl3 1 <1>   0.3140 
 12 C        4.3630     2.3360     0.7310 C.2   1 <1>  -0.3320 
 13 N       -1.4770    -2.7710    -0.5090 N.2   1 <1>  -0.7070 
 14 C        0.5650    -3.9650    -1.1380 C.3   1 <1>   0.0160 
 15 N        3.8760     3.0490    -0.3090 N.pl3 1 <1>   0.0480 
 16 C        5.7100     2.4240     0.6600 C.2   1 <1>   0.0770 
 17 C        4.9760     3.5080    -0.9470 C.2   1 <1>   0.0360 
 18 C        2.4700     3.2960    -0.7090 C.3   1 <1>   0.0960 
 19 N        6.0920     3.1510    -0.4010 N.2   1 <1>  -0.5650 
 20 C        1.7990     4.3900     0.1430 C.3   1 <1>  -0.0800 
 21 C        0.3140     4.4950    -0.2250 C.3   1 <1>  -0.2400 
 22 C        2.4730     5.7570    -0.0410 C.3   1 <1>  -0.2400 
 23 H        2.4860    -1.7930     0.0200 H     1 <1>   0.4570 
 24 H        3.9490    -0.1250     0.7130 H     1 <1>   0.4000 
 25 H       -2.3370     0.9200     1.4850 H     1 <1>   0.4000 
 26 H       -1.0970     1.9660     2.0520 H     1 <1>   0.4000 
 27 H        4.1250     1.3840     2.6210 H     1 <1>   0.0800 
 28 H        2.6880     2.1970     2.0600 H     1 <1>   0.0800 
 29 H       -2.7990    -1.3390     0.2540 H     1 <1>   0.1500 
 30 H        1.3150    -3.6220    -1.8260 H     1 <1>   0.0800 
 31 H       -0.1530    -4.5610    -1.6740 H     1 <1>   0.0800 
 32 H        1.0090    -4.5660    -0.3670 H     1 <1>   0.0800 
 33 H        6.4450     1.9960     1.3230 H     1 <1>   0.1500 
 34 H        4.9100     4.1190    -1.8310 H     1 <1>   0.1500 
 35 H        1.9240     2.3770    -0.6130 H     1 <1>   0.0800 
 36 H        2.4530     3.5840    -1.7450 H     1 <1>   0.0800 
 37 H        1.8600     4.1140     1.1810 H     1 <1>   0.0800 
 38 H        0.1940     4.7820    -1.2550 H     1 <1>   0.0800 
 39 H       -0.1710     5.2330     0.3910 H     1 <1>   0.0800 
 40 H       -0.1810     3.5520    -0.0700 H     1 <1>   0.0800 
 41 H        2.4510     6.0610    -1.0730 H     1 <1>   0.0800 
 42 H        3.4990     5.7240     0.2850 H     1 <1>   0.0800 
 43 H        1.9670     6.5050     0.5450 H     1 <1>   0.0800 
@<TRIPOS>BOND
  1   1   2  ar  
  2   1   3  ar  
  3   2   4  ar  
  4   2   5  1   
  5   3   6  1   
  6   3   7  ar  
  7   4   8  ar  
  8   4  23  1   
  9   5   9  1   
 10   5  24  1   
 11   6  25  1   
 12   6  26  1   
 13   7   8  ar  
 14   7  10  1   
 15   8  11  1   
 16   9  12  1   
 17   9  27  1   
 18   9  28  1   
 19  10  13  2   
 20  10  29  1   
 21  11  13  1   
 22  11  14  1   
 23  12  15  1   
 24  12  16  2   
 25  14  30  1   
 26  14  31  1   
 27  14  32  1   
 28  15  17  1   
 29  15  18  1   
 30  16  19  1   
 31  16  33  1   
 32  17  19  2   
 33  17  34  1   
 34  18  20  1   
 35  18  35  1   
 36  18  36  1   
 37  20  21  1   
 38  20  22  1   
 39  20  37  1   
 40  21  38  1   
 41  21  39  1   
 42  21  40  1   
 43  22  41  1   
 44  22  42  1   
 45  22  43  1   
@<TRIPOS>SUBSTRUCTURE
  1 ****   2 GROUP 4 **** **** 0

# MOE 2024.06 (io_trps.svl 2023.06)
