@<TRIPOS>MOLECULE
NONAME
49 51 1 0 0 
SMALL
USER_CHARGES


@<TRIPOS>ATOM
  1 O       -1.3700     0.0840    -2.6190 O.2   1 <1>  -0.5700 
  2 C       -1.6000     0.7280    -1.6090 C.2   1 <1>   0.5440 
  3 N       -1.8640     0.0330    -0.4450 N.am  1 <1>  -0.6600 
  4 C       -1.6670     2.1720    -1.6940 C.ar  1 <1>   0.0860 
  5 C       -1.5950    -1.4290    -0.3250 C.3   1 <1>   0.1400 
  6 C       -2.5690     0.6100     0.7290 C.3   1 <1>   0.1400 
  7 C       -0.8950     3.0150    -0.8890 C.ar  1 <1>   0.0820 
  8 C       -2.5340     2.7660    -2.6140 C.ar  1 <1>  -0.1500 
  9 C       -2.9270    -2.2080    -0.2680 C.3   1 <1>   0.0000 
 10 C       -3.9010    -0.1210     0.9300 C.3   1 <1>  -0.1600 
 11 O       -0.0390     2.4790     0.0200 O.3   1 <1>  -0.3630 
 12 C       -1.0000     4.4040    -1.0150 C.ar  1 <1>   0.0820 
 13 C       -2.6480     4.1390    -2.7270 C.ar  1 <1>  -0.1500 
 14 C       -3.7140    -1.6470     0.9510 C.3   1 <1>   0.2000 
 15 C       -3.7260    -1.9840    -1.5820 C.3   1 <1>   0.1200 
 16 C       -2.6510    -3.7330    -0.1280 C.3   1 <1>  -0.1600 
 17 C        0.5450     3.3310     0.9860 C.3   1 <1>   0.1200 
 18 O       -0.2390     5.2390    -0.2630 O.3   1 <1>  -0.3630 
 19 C       -1.8790     4.9620    -1.9220 C.ar  1 <1>  -0.1500 
 20 O       -4.9690    -2.2250     1.0480 O.3   1 <1>  -0.6800 
 21 O       -2.9480    -2.2320    -2.7050 O.3   1 <1>  -0.6800 
 22 C       -1.8910    -4.1850     1.1340 C.3   1 <1>  -0.1600 
 23 C        0.9030     4.6810     0.3550 C.3   1 <1>   0.1200 
 24 C       -1.6590    -5.6980     1.1110 C.3   1 <1>  -0.2400 
 25 H       -0.9890    -1.7760    -1.1450 H     1 <1>   0.0800 
 26 H       -1.0290    -1.5910     0.5740 H     1 <1>   0.0800 
 27 H       -1.9470     0.4900     1.6000 H     1 <1>   0.0800 
 28 H       -2.7520     1.6610     0.5930 H     1 <1>   0.0800 
 29 H       -3.1240     2.1290    -3.2510 H     1 <1>   0.1500 
 30 H       -4.5740     0.1720     0.1450 H     1 <1>   0.0800 
 31 H       -4.3290     0.1940     1.8650 H     1 <1>   0.0800 
 32 H       -3.3280     4.5700    -3.4420 H     1 <1>   0.1500 
 33 H       -3.1880    -1.8960     1.8560 H     1 <1>   0.0800 
 34 H       -4.0770    -0.9720    -1.6660 H     1 <1>   0.0800 
 35 H       -4.5740    -2.6460    -1.6250 H     1 <1>   0.0800 
 36 H       -3.5930    -4.2540    -0.1530 H     1 <1>   0.0800 
 37 H       -2.0950    -4.0600    -0.9900 H     1 <1>   0.0800 
 38 H       -0.1630     3.4690     1.7840 H     1 <1>   0.0800 
 39 H        1.4220     2.8440     1.3710 H     1 <1>   0.0800 
 40 H       -1.9530     6.0320    -2.0010 H     1 <1>   0.1500 
 41 H       -5.4980    -2.0260     0.2540 H     1 <1>   0.4000 
 42 H       -2.2870    -1.4980    -2.8090 H     1 <1>   0.4000 
 43 H       -0.9350    -3.6960     1.1980 H     1 <1>   0.0800 
 44 H       -2.4580    -3.9440     2.0170 H     1 <1>   0.0800 
 45 H        1.6630     4.5550    -0.3960 H     1 <1>   0.0800 
 46 H        1.2510     5.3740     1.0990 H     1 <1>   0.0800 
 47 H       -1.0740    -5.9770     0.2520 H     1 <1>   0.0800 
 48 H       -2.5990    -6.2220     1.0750 H     1 <1>   0.0800 
 49 H       -1.1320    -6.0040     1.9980 H     1 <1>   0.0800 
@<TRIPOS>BOND
  1   1   2  2   
  2   2   3  am  
  3   2   4  1   
  4   3   5  1   
  5   3   6  1   
  6   4   7  ar  
  7   4   8  ar  
  8   5   9  1   
  9   5  25  1   
 10   5  26  1   
 11   6  10  1   
 12   6  27  1   
 13   6  28  1   
 14   7  11  1   
 15   7  12  ar  
 16   8  13  ar  
 17   8  29  1   
 18   9  14  1   
 19   9  15  1   
 20   9  16  1   
 21  10  14  1   
 22  10  30  1   
 23  10  31  1   
 24  11  17  1   
 25  12  18  1   
 26  12  19  ar  
 27  13  19  ar  
 28  13  32  1   
 29  14  20  1   
 30  14  33  1   
 31  15  21  1   
 32  15  34  1   
 33  15  35  1   
 34  16  22  1   
 35  16  36  1   
 36  16  37  1   
 37  17  23  1   
 38  17  38  1   
 39  17  39  1   
 40  18  23  1   
 41  19  40  1   
 42  20  41  1   
 43  21  42  1   
 44  22  24  1   
 45  22  43  1   
 46  22  44  1   
 47  23  45  1   
 48  23  46  1   
 49  24  47  1   
 50  24  48  1   
 51  24  49  1   
@<TRIPOS>SUBSTRUCTURE
  1 ****   3 GROUP 4 **** **** 0

# MOE 2024.06 (io_trps.svl 2023.06)
