@<TRIPOS>MOLECULE
NONAME
45 47 1 0 0 
SMALL
USER_CHARGES


@<TRIPOS>ATOM
  1 S       -2.0380     0.9650    -2.1730 S.3   1 <1>  -0.0800 
  2 C       -3.0250     1.2140    -0.7440 C.2   1 <1>  -0.1100 
  3 C       -0.8670     2.1460    -1.6170 C.2   1 <1>  -0.1100 
  4 C       -2.4750     2.1390     0.0680 C.2   1 <1>  -0.1810 
  5 C       -1.2400     2.6660    -0.4330 C.2   1 <1>  -0.1500 
  6 C       -3.0430     2.6290     1.3970 C.3   1 <1>   0.0820 
  7 C       -4.4550     2.1340     1.6920 C.2   1 <1>   0.5690 
  8 O       -4.5720     1.2390     2.4980 O.2   1 <1>  -0.5700 
  9 N       -5.5520     2.6940     1.0790 N.am  1 <1>  -0.6600 
 10 C       -6.9260     2.2490     1.4530 C.3   1 <1>   0.1400 
 11 C       -5.4610     3.7420     0.0180 C.3   1 <1>   0.1400 
 12 C       -7.9190     3.4070     1.3270 C.3   1 <1>  -0.1600 
 13 C       -6.6970     3.6930    -0.8790 C.3   1 <1>  -0.1600 
 14 C       -7.9940     4.0160    -0.1010 C.3   1 <1>   0.2800 
 15 O       -7.9790     5.4210     0.0520 O.3   1 <1>  -0.5600 
 16 C       -9.2490     3.5750    -0.9240 C.3   1 <1>   0.2000 
 17 C       -9.1750     6.1580     0.0700 C.3   1 <1>   0.1200 
 18 O       -9.1110     4.0580    -2.2360 O.3   1 <1>  -0.6800 
 19 C      -10.5880     4.0850    -0.2950 C.3   1 <1>   0.2800 
 20 C      -10.3680     5.3380     0.5720 C.3   1 <1>  -0.1600 
 21 O      -11.0820     3.1040     0.5430 O.3   1 <1>  -0.6800 
 22 C      -11.7110     4.3090    -1.3200 C.3   1 <1>  -0.2400 
 23 H       -3.9280     0.6330    -0.6620 H     1 <1>   0.1500 
 24 H       -0.0120     2.3270    -2.2430 H     1 <1>   0.1500 
 25 H       -0.6880     3.4090     0.1160 H     1 <1>   0.1500 
 26 H       -3.0460     3.7020     1.4150 H     1 <1>   0.0800 
 27 H       -2.3960     2.2960     2.1880 H     1 <1>   0.0800 
 28 H       -7.2200     1.4370     0.8110 H     1 <1>   0.0800 
 29 H       -6.9300     1.8890     2.4690 H     1 <1>   0.0800 
 30 H       -5.3910     4.7120     0.4820 H     1 <1>   0.0800 
 31 H       -4.5860     3.5880    -0.5890 H     1 <1>   0.0800 
 32 H       -7.6220     4.1660     2.0290 H     1 <1>   0.0800 
 33 H       -8.8720     3.0390     1.6450 H     1 <1>   0.0800 
 34 H       -6.7610     2.7110    -1.3140 H     1 <1>   0.0800 
 35 H       -6.5720     4.3900    -1.6870 H     1 <1>   0.0800 
 36 H       -9.2840     2.5030    -1.0000 H     1 <1>   0.0800 
 37 H       -9.0150     7.0140     0.7040 H     1 <1>   0.0800 
 38 H       -9.3600     6.5100    -0.9300 H     1 <1>   0.0800 
 39 H       -8.7120     4.9490    -2.1920 H     1 <1>   0.4000 
 40 H      -11.2440     5.9610     0.5610 H     1 <1>   0.0800 
 41 H      -10.1760     5.0720     1.5960 H     1 <1>   0.0800 
 42 H      -11.9840     3.3420     0.8260 H     1 <1>   0.4000 
 43 H      -11.4600     5.1220    -1.9780 H     1 <1>   0.0800 
 44 H      -12.6410     4.5490    -0.8380 H     1 <1>   0.0800 
 45 H      -11.8410     3.4260    -1.9220 H     1 <1>   0.0800 
@<TRIPOS>BOND
  1   1   2  1   
  2   1   3  1   
  3   2   4  2   
  4   2  23  1   
  5   3   5  2   
  6   3  24  1   
  7   4   5  1   
  8   4   6  1   
  9   5  25  1   
 10   6   7  1   
 11   6  26  1   
 12   6  27  1   
 13   7   8  2   
 14   7   9  am  
 15   9  10  1   
 16   9  11  1   
 17  10  12  1   
 18  10  28  1   
 19  10  29  1   
 20  11  13  1   
 21  11  30  1   
 22  11  31  1   
 23  12  14  1   
 24  12  32  1   
 25  12  33  1   
 26  13  14  1   
 27  13  34  1   
 28  13  35  1   
 29  14  15  1   
 30  14  16  1   
 31  15  17  1   
 32  16  18  1   
 33  16  19  1   
 34  16  36  1   
 35  17  20  1   
 36  17  37  1   
 37  17  38  1   
 38  18  39  1   
 39  19  20  1   
 40  19  21  1   
 41  19  22  1   
 42  20  40  1   
 43  20  41  1   
 44  21  42  1   
 45  22  43  1   
 46  22  44  1   
 47  22  45  1   
@<TRIPOS>SUBSTRUCTURE
  1 ****  13 GROUP 4 **** **** 0

# MOE 2024.06 (io_trps.svl 2023.06)
