@<TRIPOS>MOLECULE
NONAME
47 48 1 0 0 
SMALL
USER_CHARGES


@<TRIPOS>ATOM
  1 O       -0.6560    -2.4860     0.0880 O.co2 1 <1>  -0.9000 
  2 C        0.1240    -3.0500     0.8680 C.2   1 <1>   1.0330 
  3 O       -0.3660    -3.5960     1.8730 O.co2 1 <1>  -0.9000 
  4 C        1.4530    -3.3620     0.4760 C.2   1 <1>  -0.2330 
  5 C        1.8040    -4.6790     0.2240 C.2   1 <1>   0.3720 
  6 C        2.5880    -2.6690     0.2090 C.2   1 <1>   0.0870 
  7 N        3.0220    -4.7870    -0.1590 N.2   1 <1>  -0.4100 
  8 N        0.8930    -5.7190     0.3420 N.pl3 1 <1>  -0.8520 
  9 O        3.4870    -3.5600    -0.1550 O.3   1 <1>  -0.0190 
 10 C        2.9210    -1.2660     0.2540 C.ar  1 <1>   0.0530 
 11 C       -0.0370    -5.7600    -0.8280 C.3   1 <1>   0.2090 
 12 C        1.9420    -0.2720     0.2050 C.ar  1 <1>  -0.1500 
 13 C        4.2490    -0.8450     0.3460 C.ar  1 <1>  -0.1500 
 14 C       -1.5340    -5.5390    -0.4550 C.3   1 <1>   0.4230 
 15 C        2.2650     1.0710     0.2510 C.ar  1 <1>  -0.1500 
 16 C        4.5810     0.4960     0.3920 C.ar  1 <1>  -0.1500 
 17 N       -2.0890    -6.4650     0.6000 N.4   1 <1>  -0.9590 
 18 C       -2.4100    -5.6730    -1.7110 C.3   1 <1>  -0.1600 
 19 C        3.5950     1.4670     0.3470 C.ar  1 <1>   0.0830 
 20 C       -2.0200    -5.8130     1.9450 C.3   1 <1>   0.2630 
 21 C       -1.4600    -7.8220     0.6350 C.3   1 <1>   0.2630 
 22 C       -3.8950    -5.3470    -1.4740 C.3   1 <1>  -0.2400 
 23 O        3.9990     2.7590     0.3980 O.3   1 <1>  -0.3630 
 24 C        3.0690     3.8180     0.3640 C.3   1 <1>   0.0400 
 25 H        0.3320    -5.4380     1.1630 H     1 <1>   0.4000 
 26 H        0.0830    -6.7030    -1.3300 H     1 <1>   0.0800 
 27 H        0.2420    -4.9960    -1.5370 H     1 <1>   0.0800 
 28 H        0.9060    -0.5520     0.1220 H     1 <1>   0.1500 
 29 H        5.0310    -1.5820     0.3860 H     1 <1>   0.1500 
 30 H       -1.6390    -4.5220    -0.1090 H     1 <1>   0.0800 
 31 H        1.4680     1.7890     0.2110 H     1 <1>   0.1500 
 32 H        5.6090     0.8000     0.4650 H     1 <1>   0.1500 
 33 H       -3.0840    -6.5540     0.3680 H     1 <1>   0.4500 
 34 H       -2.3120    -6.6590    -2.1300 H     1 <1>   0.0800 
 35 H       -2.0370    -4.9760    -2.4430 H     1 <1>   0.0800 
 36 H       -1.0000    -5.7610     2.2900 H     1 <1>   0.0800 
 37 H       -2.5990    -6.3640     2.6670 H     1 <1>   0.0800 
 38 H       -2.3990    -4.8030     1.8930 H     1 <1>   0.0800 
 39 H       -0.4180    -7.7430     0.9010 H     1 <1>   0.0800 
 40 H       -1.5350    -8.2930    -0.3300 H     1 <1>   0.0800 
 41 H       -1.9530    -8.4430     1.3640 H     1 <1>   0.0800 
 42 H       -4.3800    -6.0860    -0.8630 H     1 <1>   0.0800 
 43 H       -4.4110    -5.3100    -2.4180 H     1 <1>   0.0800 
 44 H       -3.9940    -4.3810    -1.0050 H     1 <1>   0.0800 
 45 H        3.6130     4.7430     0.4170 H     1 <1>   0.0800 
 46 H        2.4100     3.7310     1.2100 H     1 <1>   0.0800 
 47 H        2.5180     3.7690    -0.5590 H     1 <1>   0.0800 
@<TRIPOS>BOND
  1   1   2  ar  
  2   2   3  ar  
  3   2   4  1   
  4   4   5  1   
  5   4   6  2   
  6   5   7  2   
  7   5   8  1   
  8   6   9  1   
  9   6  10  1   
 10   7   9  1   
 11   8  11  1   
 12   8  25  1   
 13  10  12  ar  
 14  10  13  ar  
 15  11  14  1   
 16  11  26  1   
 17  11  27  1   
 18  12  15  ar  
 19  12  28  1   
 20  13  16  ar  
 21  13  29  1   
 22  14  17  1   
 23  14  18  1   
 24  14  30  1   
 25  15  19  ar  
 26  15  31  1   
 27  16  19  ar  
 28  16  32  1   
 29  17  20  1   
 30  17  21  1   
 31  17  33  1   
 32  18  22  1   
 33  18  34  1   
 34  18  35  1   
 35  19  23  1   
 36  20  36  1   
 37  20  37  1   
 38  20  38  1   
 39  21  39  1   
 40  21  40  1   
 41  21  41  1   
 42  22  42  1   
 43  22  43  1   
 44  22  44  1   
 45  23  24  1   
 46  24  45  1   
 47  24  46  1   
 48  24  47  1   
@<TRIPOS>SUBSTRUCTURE
  1 ****   4 GROUP 4 **** **** 0

# MOE 2024.06 (io_trps.svl 2023.06)
