@<TRIPOS>MOLECULE
NONAME
41 43 1 0 0 
SMALL
USER_CHARGES


@<TRIPOS>ATOM
  1 F       -1.1420    -1.3600     2.7520 F     1 <1>  -0.1900 
  2 C       -2.0160    -1.5210     1.7940 C.ar  1 <1>   0.1900 
  3 C       -2.1280    -2.7610     1.1940 C.ar  1 <1>  -0.1500 
  4 C       -2.7980    -0.4450     1.4230 C.ar  1 <1>  -0.1500 
  5 C       -3.0620    -2.9360     0.1800 C.ar  1 <1>  -0.1440 
  6 C       -3.7290    -0.6200     0.4140 C.ar  1 <1>  -0.1500 
  7 C       -3.8640    -1.8630    -0.2060 C.ar  1 <1>   0.0830 
  8 C       -3.2260    -4.2840    -0.5240 C.3   1 <1>   0.4600 
  9 O       -4.7780    -2.0870    -1.1840 O.3   1 <1>  -0.3630 
 10 N       -4.1060    -5.1710     0.3410 N.4   1 <1>  -0.9590 
 11 C       -1.8720    -4.9390    -0.8990 C.2   1 <1>   0.9060 
 12 C       -5.2480    -1.0220    -1.9840 C.3   1 <1>   0.0400 
 13 C       -4.1290    -6.5500    -0.2370 C.3   1 <1>   0.5240 
 14 C       -5.4640    -4.5940     0.5810 C.3   1 <1>   0.3430 
 15 O       -1.3030    -5.6120    -0.0260 O.co2 1 <1>  -0.9000 
 16 O       -1.5030    -4.9300    -2.0750 O.co2 1 <1>  -0.9000 
 17 C       -5.1450    -7.3980     0.5020 C.2   1 <1>  -0.1810 
 18 C       -6.2440    -5.3980     1.6240 C.3   1 <1>   0.0210 
 19 C       -6.1190    -6.8730     1.3380 C.2   1 <1>   0.1080 
 20 C       -5.3500    -8.7340     0.5300 C.2   1 <1>  -0.3320 
 21 N       -6.8820    -7.7830     1.8470 N.2   1 <1>  -0.7070 
 22 N       -6.4060    -8.9400     1.3490 N.pl3 1 <1>   0.3000 
 23 C       -4.6000    -9.8510    -0.1760 C.3   1 <1>  -0.0600 
 24 H       -1.4820    -3.5610     1.5170 H     1 <1>   0.1500 
 25 H       -2.6750     0.5030     1.9150 H     1 <1>   0.1500 
 26 H       -4.3420     0.2150     0.1300 H     1 <1>   0.1500 
 27 H       -3.7230    -4.1140    -1.4620 H     1 <1>   0.0800 
 28 H       -3.5790    -5.2660     1.2190 H     1 <1>   0.4500 
 29 H       -5.7960    -1.4380    -2.8110 H     1 <1>   0.0800 
 30 H       -4.4060    -0.4610    -2.3520 H     1 <1>   0.0800 
 31 H       -5.8980    -0.3980    -1.3960 H     1 <1>   0.0800 
 32 H       -3.1540    -7.0060    -0.1560 H     1 <1>   0.0800 
 33 H       -4.3960    -6.5070    -1.2790 H     1 <1>   0.0800 
 34 H       -6.0130    -4.5920    -0.3460 H     1 <1>   0.0800 
 35 H       -5.3800    -3.5740     0.9190 H     1 <1>   0.0800 
 36 H       -7.2790    -5.1120     1.6040 H     1 <1>   0.0800 
 37 H       -5.8580    -5.1960     2.6060 H     1 <1>   0.0800 
 38 H       -6.8200    -9.8500     1.5900 H     1 <1>   0.2700 
 39 H       -3.7910    -9.4540    -0.7630 H     1 <1>   0.0800 
 40 H       -5.2630   -10.3890    -0.8300 H     1 <1>   0.0800 
 41 H       -4.1910   -10.5360     0.5450 H     1 <1>   0.0800 
@<TRIPOS>BOND
  1   1   2  1   
  2   2   3  ar  
  3   2   4  ar  
  4   3   5  ar  
  5   3  24  1   
  6   4   6  ar  
  7   4  25  1   
  8   5   7  ar  
  9   5   8  1   
 10   6   7  ar  
 11   6  26  1   
 12   7   9  1   
 13   8  10  1   
 14   8  11  1   
 15   8  27  1   
 16   9  12  1   
 17  10  13  1   
 18  10  14  1   
 19  10  28  1   
 20  11  15  ar  
 21  11  16  ar  
 22  12  29  1   
 23  12  30  1   
 24  12  31  1   
 25  13  17  1   
 26  13  32  1   
 27  13  33  1   
 28  14  18  1   
 29  14  34  1   
 30  14  35  1   
 31  17  19  1   
 32  17  20  2   
 33  18  19  1   
 34  18  36  1   
 35  18  37  1   
 36  19  21  2   
 37  20  22  1   
 38  20  23  1   
 39  21  22  1   
 40  22  38  1   
 41  23  39  1   
 42  23  40  1   
 43  23  41  1   
@<TRIPOS>SUBSTRUCTURE
  1 ****  10 GROUP 4 **** **** 0

# MOE 2024.06 (io_trps.svl 2023.06)
