@<TRIPOS>MOLECULE
NONAME
48 50 1 0 0 
SMALL
USER_CHARGES


@<TRIPOS>ATOM
  1 S        2.0210    -0.2700     0.5580 S.3   1 <1>  -0.0800 
  2 C        0.5510    -0.6870    -0.2860 C.2   1 <1>   0.1980 
  3 C        2.1150    -1.9000     1.1370 C.2   1 <1>  -0.1100 
  4 N        0.1870    -1.8950    -0.1380 N.2   1 <1>  -0.5650 
  5 C       -0.1210     0.4020    -1.0880 C.3   1 <1>  -0.0600 
  6 C        1.0680    -2.6260     0.6850 C.2   1 <1>   0.1410 
  7 C        0.8680    -4.0450     0.9800 C.2   1 <1>   0.7160 
  8 O        1.8480    -4.7520     1.1400 O.2   1 <1>  -0.5700 
  9 N       -0.3750    -4.6400     1.0900 N.am  1 <1>  -0.6600 
 10 C       -0.5830    -6.0890     0.7870 C.3   1 <1>   0.1400 
 11 C       -1.6680    -3.9090     1.2130 C.3   1 <1>   0.1400 
 12 C       -1.5190    -6.2560    -0.4270 C.3   1 <1>   0.3440 
 13 C       -2.5110    -4.1300    -0.0630 C.3   1 <1>   0.2000 
 14 O       -2.6990    -5.5140    -0.2450 O.3   1 <1>  -0.5600 
 15 C       -1.8690    -7.7260    -0.6370 C.ar  1 <1>  -0.1430 
 16 C       -3.8950    -3.4140    -0.0640 C.3   1 <1>   0.0000 
 17 C       -2.9420    -8.3140     0.0190 C.ar  1 <1>  -0.1500 
 18 C       -1.0970    -8.5020    -1.4900 C.ar  1 <1>  -0.1500 
 19 C       -4.6100    -3.6820    -1.4020 C.3   1 <1>  -0.2400 
 20 C       -3.7190    -1.8900     0.0710 C.3   1 <1>  -0.2400 
 21 C       -4.8050    -3.9050     1.0770 C.3   1 <1>  -0.2400 
 22 C       -3.2370    -9.6530    -0.1710 C.ar  1 <1>  -0.1500 
 23 C       -1.3900    -9.8410    -1.6830 C.ar  1 <1>  -0.1500 
 24 C       -2.4600   -10.4180    -1.0220 C.ar  1 <1>  -0.1500 
 25 H        2.9470    -2.1750     1.7590 H     1 <1>   0.1500 
 26 H       -0.9990     0.0110    -1.5690 H     1 <1>   0.0800 
 27 H        0.5530     0.7710    -1.8380 H     1 <1>   0.0800 
 28 H       -0.4070     1.2090    -0.4390 H     1 <1>   0.0800 
 29 H        0.3540    -6.5750     0.5770 H     1 <1>   0.0800 
 30 H       -1.0200    -6.5730     1.6420 H     1 <1>   0.0800 
 31 H       -2.2020    -4.2910     2.0640 H     1 <1>   0.0800 
 32 H       -1.4980    -2.8640     1.3850 H     1 <1>   0.0800 
 33 H       -1.0310    -5.8790    -1.3090 H     1 <1>   0.0800 
 34 H       -1.9490    -3.7630    -0.9050 H     1 <1>   0.0800 
 35 H       -3.5550    -7.7240     0.6800 H     1 <1>   0.1500 
 36 H       -0.2610    -8.0680    -2.0110 H     1 <1>   0.1500 
 37 H       -5.5540    -3.1680    -1.4430 H     1 <1>   0.0800 
 38 H       -4.7970    -4.7340    -1.5260 H     1 <1>   0.0800 
 39 H       -4.0050    -3.3490    -2.2260 H     1 <1>   0.0800 
 40 H       -4.6650    -1.3900    -0.0410 H     1 <1>   0.0800 
 41 H       -3.0510    -1.5210    -0.6870 H     1 <1>   0.0800 
 42 H       -3.3210    -1.6250     1.0340 H     1 <1>   0.0800 
 43 H       -5.7730    -3.4410     1.0130 H     1 <1>   0.0800 
 44 H       -4.3870    -3.6710     2.0390 H     1 <1>   0.0800 
 45 H       -4.9400    -4.9710     1.0150 H     1 <1>   0.0800 
 46 H       -4.0720   -10.0960     0.3420 H     1 <1>   0.1500 
 47 H       -0.7860   -10.4340    -2.3460 H     1 <1>   0.1500 
 48 H       -2.6890   -11.4580    -1.1710 H     1 <1>   0.1500 
@<TRIPOS>BOND
  1   1   2  1   
  2   1   3  1   
  3   2   4  2   
  4   2   5  1   
  5   3   6  2   
  6   3  25  1   
  7   4   6  1   
  8   5  26  1   
  9   5  27  1   
 10   5  28  1   
 11   6   7  1   
 12   7   8  2   
 13   7   9  am  
 14   9  10  1   
 15   9  11  1   
 16  10  12  1   
 17  10  29  1   
 18  10  30  1   
 19  11  13  1   
 20  11  31  1   
 21  11  32  1   
 22  12  14  1   
 23  12  15  1   
 24  12  33  1   
 25  13  14  1   
 26  13  16  1   
 27  13  34  1   
 28  15  17  ar  
 29  15  18  ar  
 30  16  19  1   
 31  16  20  1   
 32  16  21  1   
 33  17  22  ar  
 34  17  35  1   
 35  18  23  ar  
 36  18  36  1   
 37  19  37  1   
 38  19  38  1   
 39  19  39  1   
 40  20  40  1   
 41  20  41  1   
 42  20  42  1   
 43  21  43  1   
 44  21  44  1   
 45  21  45  1   
 46  22  24  ar  
 47  22  46  1   
 48  23  24  ar  
 49  23  47  1   
 50  24  48  1   
@<TRIPOS>SUBSTRUCTURE
  1 ****  13 GROUP 4 **** **** 0

# MOE 2024.06 (io_trps.svl 2023.06)
