@<TRIPOS>MOLECULE
NONAME
57 59 1 0 0 
SMALL
USER_CHARGES


@<TRIPOS>ATOM
  1 S        0.3440     0.1460    -0.4050 S.o2  1 <1>   1.3330 
  2 O       -0.6100     0.0210    -1.4810 O.2   1 <1>  -0.6500 
  3 O        1.7440     0.3410    -0.7140 O.2   1 <1>  -0.6500 
  4 N        0.1720    -1.1510     0.6710 N.am  1 <1>  -0.8490 
  5 C       -0.1350     1.5670     0.5750 C.3   1 <1>  -0.0550 
  6 C        1.1560    -2.2130     0.4340 C.3   1 <1>   0.1160 
  7 C       -1.1800    -1.7240     0.6820 C.3   1 <1>   0.1160 
  8 C       -0.1090     2.8760    -0.2470 C.3   1 <1>  -0.0800 
  9 C       -0.4600     4.1470     0.5240 C.3   1 <1>   0.2000 
 10 C        1.2640     3.1760    -0.8720 C.3   1 <1>   0.3430 
 11 O        0.2000     4.1460     1.7500 O.3   1 <1>  -0.6800 
 12 C        0.1520     5.2410    -0.3560 C.3   1 <1>   0.3430 
 13 N        1.4240     4.6600    -0.8940 N.4   1 <1>  -0.9590 
 14 C        2.5910     5.0690    -0.0620 C.3   1 <1>   0.4860 
 15 C        2.7910     6.5630    -0.2140 C.ar  1 <1>  -0.1440 
 16 C        2.4570     7.4200     0.8260 C.ar  1 <1>  -0.1500 
 17 C        3.3030     7.0880    -1.3920 C.ar  1 <1>  -0.1500 
 18 C        2.6190     8.7870     0.6870 C.ar  1 <1>  -0.1500 
 19 C        3.4630     8.4540    -1.5300 C.ar  1 <1>  -0.1500 
 20 C        3.1210     9.3130    -0.4990 C.ar  1 <1>   0.0820 
 21 O        3.3090    10.6360    -0.7280 O.3   1 <1>  -0.3620 
 22 C        3.0840    11.6280     0.2550 C.3   1 <1>   0.2000 
 23 C        3.1300    12.9840    -0.4380 C.3   1 <1>  -0.1600 
 24 C        4.2760    11.6780     1.2110 C.3   1 <1>  -0.1600 
 25 C        4.6170    13.3310    -0.5700 C.3   1 <1>  -0.1600 
 26 C        5.3520    12.4840     0.4770 C.3   1 <1>  -0.1600 
 27 H       -1.1260     1.4110     0.9560 H     1 <1>   0.0800 
 28 H        0.5330     1.6420     1.4110 H     1 <1>   0.0800 
 29 H        1.0300    -3.0060     1.1510 H     1 <1>   0.0800 
 30 H        2.1550    -1.8230     0.5390 H     1 <1>   0.0800 
 31 H        1.0450    -2.6140    -0.5600 H     1 <1>   0.0800 
 32 H       -1.2530    -2.4840     1.4420 H     1 <1>   0.0800 
 33 H       -1.4110    -2.1640    -0.2750 H     1 <1>   0.0800 
 34 H       -1.9080    -0.9610     0.8950 H     1 <1>   0.0800 
 35 H       -0.8100     2.7730    -1.0590 H     1 <1>   0.0800 
 36 H       -1.5150     4.2900     0.6870 H     1 <1>   0.0800 
 37 H        1.3260     2.7600    -1.8670 H     1 <1>   0.0800 
 38 H        2.0400     2.7310    -0.2690 H     1 <1>   0.0800 
 39 H       -0.3460     3.7250     2.4490 H     1 <1>   0.4000 
 40 H        0.3140     6.1490     0.2020 H     1 <1>   0.0800 
 41 H       -0.5180     5.4490    -1.1730 H     1 <1>   0.0800 
 42 H        1.5900     5.0110    -1.8450 H     1 <1>   0.4500 
 43 H        2.4150     4.8230     0.9730 H     1 <1>   0.0800 
 44 H        3.4800     4.5550    -0.3890 H     1 <1>   0.0800 
 45 H        2.0690     7.0320     1.7540 H     1 <1>   0.1500 
 46 H        3.5880     6.4480    -2.2100 H     1 <1>   0.1500 
 47 H        2.3540     9.4260     1.5090 H     1 <1>   0.1500 
 48 H        3.8590     8.8710    -2.4400 H     1 <1>   0.1500 
 49 H        2.1360    11.4540     0.7330 H     1 <1>   0.0800 
 50 H        2.6240    12.9690    -1.3870 H     1 <1>   0.0800 
 51 H        2.6570    13.7120     0.1970 H     1 <1>   0.0800 
 52 H        3.9820    12.2130     2.0960 H     1 <1>   0.0800 
 53 H        4.6220    10.7010     1.4950 H     1 <1>   0.0800 
 54 H        4.9650    13.0620    -1.5540 H     1 <1>   0.0800 
 55 H        4.7840    14.3830    -0.4170 H     1 <1>   0.0800 
 56 H        5.9130    13.0970     1.1620 H     1 <1>   0.0800 
 57 H        6.0280    11.8100    -0.0210 H     1 <1>   0.0800 
@<TRIPOS>BOND
  1   1   2  2   
  2   1   3  2   
  3   1   4  am  
  4   1   5  1   
  5   4   6  1   
  6   4   7  1   
  7   5   8  1   
  8   5  27  1   
  9   5  28  1   
 10   6  29  1   
 11   6  30  1   
 12   6  31  1   
 13   7  32  1   
 14   7  33  1   
 15   7  34  1   
 16   8   9  1   
 17   8  10  1   
 18   8  35  1   
 19   9  11  1   
 20   9  12  1   
 21   9  36  1   
 22  10  13  1   
 23  10  37  1   
 24  10  38  1   
 25  11  39  1   
 26  12  13  1   
 27  12  40  1   
 28  12  41  1   
 29  13  14  1   
 30  13  42  1   
 31  14  15  1   
 32  14  43  1   
 33  14  44  1   
 34  15  16  ar  
 35  15  17  ar  
 36  16  18  ar  
 37  16  45  1   
 38  17  19  ar  
 39  17  46  1   
 40  18  20  ar  
 41  18  47  1   
 42  19  20  ar  
 43  19  48  1   
 44  20  21  1   
 45  21  22  1   
 46  22  23  1   
 47  22  24  1   
 48  22  49  1   
 49  23  25  1   
 50  23  50  1   
 51  23  51  1   
 52  24  26  1   
 53  24  52  1   
 54  24  53  1   
 55  25  26  1   
 56  25  54  1   
 57  25  55  1   
 58  26  56  1   
 59  26  57  1   
@<TRIPOS>SUBSTRUCTURE
  1 ****  14 GROUP 4 **** **** 0

# MOE 2024.06 (io_trps.svl 2023.06)
