@<TRIPOS>MOLECULE
NONAME
46 48 1 0 0 
SMALL
USER_CHARGES


@<TRIPOS>ATOM
  1 O       -1.1600    -0.6510     1.1550 O.3   1 <1>  -0.5600 
  2 C       -1.5560     0.6020     1.6170 C.3   1 <1>   0.1200 
  3 C       -1.0000    -0.7990    -0.2160 C.3   1 <1>   0.1200 
  4 C       -3.0040     0.9590     1.2170 C.3   1 <1>   0.4230 
  5 C       -2.3640    -0.9260    -0.9120 C.3   1 <1>  -0.0800 
  6 N       -3.0750     1.4610    -0.2140 N.4   1 <1>  -0.9590 
  7 C       -4.0030    -0.1760     1.5930 C.3   1 <1>   0.2090 
  8 C       -3.3550    -1.8470    -0.1690 C.3   1 <1>   0.2090 
  9 C       -2.9950     0.4200    -1.2970 C.3   1 <1>   0.3430 
 10 C       -4.3260     2.2520    -0.4060 C.3   1 <1>   0.2630 
 11 N       -4.4750    -1.0720     0.4650 N.pl3 1 <1>  -0.8380 
 12 C       -5.7960    -1.2730     0.2230 C.ar  1 <1>   0.4100 
 13 N       -6.6360    -0.2840     0.5690 N.ar  1 <1>  -0.6200 
 14 C       -6.3090    -2.4500    -0.3460 C.ar  1 <1>  -0.1500 
 15 C       -7.9140    -0.4600     0.3930 C.ar  1 <1>   0.5280 
 16 C       -7.6530    -2.5960    -0.5270 C.ar  1 <1>   0.2180 
 17 N       -8.4450    -1.5770    -0.1420 N.ar  1 <1>  -0.1790 
 18 C       -8.8590     0.6490     0.8120 C.3   1 <1>  -0.0970 
 19 C       -8.2830    -3.8480    -1.1260 C.3   1 <1>  -0.0170 
 20 C       -9.1760    -4.5840    -0.1180 C.3   1 <1>  -0.2400 
 21 H       -1.4930     0.5590     2.6910 H     1 <1>   0.0800 
 22 H       -0.8550     1.3420     1.2760 H     1 <1>   0.0800 
 23 H       -0.4130     0.0160    -0.6030 H     1 <1>   0.0800 
 24 H       -0.4410    -1.7100    -0.3580 H     1 <1>   0.0800 
 25 H       -3.2580     1.7920     1.8520 H     1 <1>   0.0800 
 26 H       -2.1540    -1.4180    -1.8460 H     1 <1>   0.0800 
 27 H       -2.2740     2.0920    -0.3430 H     1 <1>   0.4500 
 28 H       -4.8420     0.2850     2.0800 H     1 <1>   0.0800 
 29 H       -3.5480    -0.7980     2.3460 H     1 <1>   0.0800 
 30 H       -2.8450    -2.4280     0.5830 H     1 <1>   0.0800 
 31 H       -3.7440    -2.5420    -0.8890 H     1 <1>   0.0800 
 32 H       -3.9910     0.2110    -1.6520 H     1 <1>   0.0800 
 33 H       -2.4450     0.8320    -2.1280 H     1 <1>   0.0800 
 34 H       -5.1880     1.6170    -0.2740 H     1 <1>   0.0800 
 35 H       -4.3570     2.6730    -1.3980 H     1 <1>   0.0800 
 36 H       -4.3780     3.0570     0.3090 H     1 <1>   0.0800 
 37 H       -5.6470    -3.2490    -0.6140 H     1 <1>   0.1500 
 38 H       -9.4590    -1.6510    -0.2450 H     1 <1>   0.4570 
 39 H       -8.3060     1.4680     1.2370 H     1 <1>   0.0800 
 40 H       -9.5490     0.2910     1.5550 H     1 <1>   0.0800 
 41 H       -9.4070     1.0160    -0.0370 H     1 <1>   0.0800 
 42 H       -8.8600    -3.5860    -1.9970 H     1 <1>   0.0800 
 43 H       -7.5070    -4.5210    -1.4500 H     1 <1>   0.0800 
 44 H      -10.0180    -3.9850     0.1800 H     1 <1>   0.0800 
 45 H       -8.6120    -4.8540     0.7590 H     1 <1>   0.0800 
 46 H       -9.5540    -5.4900    -0.5610 H     1 <1>   0.0800 
@<TRIPOS>BOND
  1   1   2  1   
  2   1   3  1   
  3   2   4  1   
  4   2  21  1   
  5   2  22  1   
  6   3   5  1   
  7   3  23  1   
  8   3  24  1   
  9   4   6  1   
 10   4   7  1   
 11   4  25  1   
 12   5   8  1   
 13   5   9  1   
 14   5  26  1   
 15   6   9  1   
 16   6  10  1   
 17   6  27  1   
 18   7  11  1   
 19   7  28  1   
 20   7  29  1   
 21   8  11  1   
 22   8  30  1   
 23   8  31  1   
 24   9  32  1   
 25   9  33  1   
 26  10  34  1   
 27  10  35  1   
 28  10  36  1   
 29  11  12  1   
 30  12  13  ar  
 31  12  14  ar  
 32  13  15  ar  
 33  14  16  ar  
 34  14  37  1   
 35  15  17  ar  
 36  15  18  1   
 37  16  17  ar  
 38  16  19  1   
 39  17  38  1   
 40  18  39  1   
 41  18  40  1   
 42  18  41  1   
 43  19  20  1   
 44  19  42  1   
 45  19  43  1   
 46  20  44  1   
 47  20  45  1   
 48  20  46  1   
@<TRIPOS>SUBSTRUCTURE
  1 ****  11 GROUP 4 **** **** 0

# MOE 2024.06 (io_trps.svl 2023.06)
