@<TRIPOS>MOLECULE
NONAME
54 58 1 0 0 
SMALL
USER_CHARGES


@<TRIPOS>ATOM
  1 F       -3.5580    -0.0970     0.2540 F     1 <1>  -0.3400 
  2 C       -2.4580    -0.8070     0.5000 C.3   1 <1>   0.7810 
  3 F       -1.8000    -0.8060    -0.6560 F     1 <1>  -0.3400 
  4 C       -2.8350    -2.2390     0.9020 C.2   1 <1>   0.1080 
  5 N       -2.4960    -2.8030     2.0320 N.2   1 <1>  -0.7070 
  6 C       -3.5830    -3.0980     0.1140 C.2   1 <1>  -0.1500 
  7 N       -3.0200    -4.0380     1.9740 N.pl3 1 <1>   0.3140 
  8 C       -3.7100    -4.2510     0.8280 C.2   1 <1>  -0.2370 
  9 C       -2.8240    -4.9920     3.0780 C.3   1 <1>   0.0160 
 10 C       -4.3870    -5.4810     0.5330 C.2   1 <1>   0.7150 
 11 O       -3.7840    -6.5320     0.6540 O.2   1 <1>  -0.5700 
 12 N       -5.7100    -5.5160     0.1500 N.am  1 <1>  -0.6600 
 13 C       -6.6510    -4.3650     0.3270 C.3   1 <1>   0.1400 
 14 C       -6.3520    -6.8280    -0.1730 C.3   1 <1>   0.1400 
 15 C       -7.5600    -4.1600    -0.9080 C.3   1 <1>   0.1430 
 16 C       -7.8320    -6.6820    -0.5630 C.3   1 <1>  -0.1600 
 17 C       -8.7160    -3.2800    -0.4610 C.ar  1 <1>   0.1670 
 18 C       -8.0290    -5.5030    -1.5270 C.3   1 <1>  -0.1600 
 19 C       -6.8840    -3.2640    -1.9770 C.3   1 <1>  -0.1600 
 20 N       -9.7450    -3.6760     0.2490 N.ar  1 <1>  -0.6200 
 21 C       -8.5520    -1.9930    -0.8700 C.ar  1 <1>  -0.1440 
 22 C       -7.2770    -1.8130    -1.6550 C.3   1 <1>  -0.0170 
 23 C      -10.6510    -2.7350     0.5440 C.ar  1 <1>   0.6200 
 24 C       -9.5210    -1.0860    -0.5260 C.ar  1 <1>   0.1600 
 25 N      -10.5700    -1.4460     0.1770 N.ar  1 <1>  -0.6200 
 26 C      -11.8120    -3.1420     1.3240 C.ar  1 <1>   0.0000 
 27 C      -12.4920    -2.2450     2.1530 C.ar  1 <1>  -0.1500 
 28 C      -12.3010    -4.4520     1.2820 C.ar  1 <1>  -0.1500 
 29 C      -13.5930    -2.6290     2.8960 C.ar  1 <1>  -0.1500 
 30 C      -13.4020    -4.8440     2.0220 C.ar  1 <1>  -0.1500 
 31 C      -14.0520    -3.9320     2.8330 C.ar  1 <1>  -0.1500 
 32 H       -1.8690    -0.2890     1.2340 H     1 <1>   0.0800 
 33 H       -3.9650    -2.8730    -0.8640 H     1 <1>   0.1500 
 34 H       -2.3220    -4.4990     3.8900 H     1 <1>   0.0800 
 35 H       -2.2250    -5.8130     2.7300 H     1 <1>   0.0800 
 36 H       -3.7790    -5.3540     3.4090 H     1 <1>   0.0800 
 37 H       -6.1270    -3.4540     0.5500 H     1 <1>   0.0800 
 38 H       -7.2720    -4.5810     1.1800 H     1 <1>   0.0800 
 39 H       -6.2640    -7.4860     0.6760 H     1 <1>   0.0800 
 40 H       -5.8110    -7.2740    -0.9910 H     1 <1>   0.0800 
 41 H       -8.4270    -6.5350     0.3220 H     1 <1>   0.0800 
 42 H       -8.1660    -7.5940    -1.0260 H     1 <1>   0.0800 
 43 H       -7.4570    -5.7150    -2.4130 H     1 <1>   0.0800 
 44 H       -9.0630    -5.4360    -1.8180 H     1 <1>   0.0800 
 45 H       -7.2910    -3.4990    -2.9460 H     1 <1>   0.0800 
 46 H       -5.8200    -3.4080    -2.0200 H     1 <1>   0.0800 
 47 H       -7.4320    -1.2350    -2.5490 H     1 <1>   0.0800 
 48 H       -6.5320    -1.3410    -1.0370 H     1 <1>   0.0800 
 49 H       -9.4360    -0.0560    -0.8280 H     1 <1>   0.1500 
 50 H      -12.1500    -1.2260     2.2170 H     1 <1>   0.1500 
 51 H      -11.8110    -5.1760     0.6560 H     1 <1>   0.1500 
 52 H      -14.0950    -1.9130     3.5240 H     1 <1>   0.1500 
 53 H      -13.7520    -5.8600     1.9680 H     1 <1>   0.1500 
 54 H      -14.9080    -4.2330     3.4100 H     1 <1>   0.1500 
@<TRIPOS>BOND
  1   1   2  1   
  2   2   3  1   
  3   2   4  1   
  4   2  32  1   
  5   4   5  2   
  6   4   6  1   
  7   5   7  1   
  8   6   8  2   
  9   6  33  1   
 10   7   8  1   
 11   7   9  1   
 12   8  10  1   
 13   9  34  1   
 14   9  35  1   
 15   9  36  1   
 16  10  11  2   
 17  10  12  am  
 18  12  13  1   
 19  12  14  1   
 20  13  15  1   
 21  13  37  1   
 22  13  38  1   
 23  14  16  1   
 24  14  39  1   
 25  14  40  1   
 26  15  17  1   
 27  15  18  1   
 28  15  19  1   
 29  16  18  1   
 30  16  41  1   
 31  16  42  1   
 32  17  20  ar  
 33  17  21  ar  
 34  18  43  1   
 35  18  44  1   
 36  19  22  1   
 37  19  45  1   
 38  19  46  1   
 39  20  23  ar  
 40  21  22  1   
 41  21  24  ar  
 42  22  47  1   
 43  22  48  1   
 44  23  25  ar  
 45  23  26  1   
 46  24  25  ar  
 47  24  49  1   
 48  26  27  ar  
 49  26  28  ar  
 50  27  29  ar  
 51  27  50  1   
 52  28  30  ar  
 53  28  51  1   
 54  29  31  ar  
 55  29  52  1   
 56  30  31  ar  
 57  30  53  1   
 58  31  54  1   
@<TRIPOS>SUBSTRUCTURE
  1 ****  13 GROUP 4 **** **** 0

# MOE 2024.06 (io_trps.svl 2023.06)
