@<TRIPOS>MOLECULE
NONAME
47 50 1 0 0 
SMALL
USER_CHARGES


@<TRIPOS>ATOM
  1 O       -0.1110     0.3810     0.5310 O.co2 1 <1>  -0.9000 
  2 C        1.0650     0.1360     0.7900 C.2   1 <1>   0.9060 
  3 O        1.4150    -0.2710     1.9100 O.co2 1 <1>  -0.9000 
  4 C        2.1130     0.2800    -0.3280 C.3   1 <1>  -0.1060 
  5 C        3.5240     0.0230     0.2330 C.3   1 <1>   0.4230 
  6 C        2.0200     1.7290    -0.9050 C.3   1 <1>  -0.1600 
  7 C        1.8690    -0.7870    -1.4200 C.3   1 <1>  -0.1600 
  8 N        3.6020    -1.3190     0.9000 N.4   1 <1>  -0.9590 
  9 C        3.9640     1.2640     1.0310 C.3   1 <1>   0.2090 
 10 C        3.3640     2.4380    -1.1450 C.3   1 <1>   0.2090 
 11 C        2.0240    -2.2020    -0.8300 C.3   1 <1>  -0.1600 
 12 C        3.3480    -2.4100    -0.0790 C.3   1 <1>   0.3430 
 13 C        4.8370    -1.5380     1.6950 C.3   1 <1>   0.2630 
 14 N        4.2880     2.3370     0.0330 N.pl3 1 <1>  -0.8380 
 15 C        5.6150     2.5650    -0.2370 C.ar  1 <1>   0.4100 
 16 N        6.4080     1.5170    -0.3670 N.ar  1 <1>  -0.6200 
 17 C        6.0900     3.8490    -0.3880 C.ar  1 <1>  -0.1500 
 18 C        7.6660     1.8010    -0.6530 C.ar  1 <1>   0.4700 
 19 C        7.4160     4.0150    -0.6770 C.ar  1 <1>   0.2780 
 20 N        8.2260     2.9850    -0.8190 N.ar  1 <1>  -0.6200 
 21 C        8.0190     5.4000    -0.8550 C.3   1 <1>  -0.0680 
 22 C        8.9240     5.9600     0.2000 C.3   1 <1>  -0.2000 
 23 C        7.5790     6.5780    -0.0350 C.3   1 <1>  -0.2000 
 24 H        4.2010    -0.0140    -0.6030 H     1 <1>   0.0800 
 25 H        1.4730     2.3480    -0.2130 H     1 <1>   0.0800 
 26 H        1.4440     1.7310    -1.8130 H     1 <1>   0.0800 
 27 H        0.8710    -0.6750    -1.8130 H     1 <1>   0.0800 
 28 H        2.5640    -0.6500    -2.2300 H     1 <1>   0.0800 
 29 H        2.7730    -1.2640     1.5510 H     1 <1>   0.4500 
 30 H        4.8340     1.0610     1.6260 H     1 <1>   0.0800 
 31 H        3.1780     1.6030     1.6850 H     1 <1>   0.0800 
 32 H        3.1840     3.4770    -1.3620 H     1 <1>   0.0800 
 33 H        3.8450     2.0000    -2.0050 H     1 <1>   0.0800 
 34 H        1.9520    -2.9270    -1.6210 H     1 <1>   0.0800 
 35 H        1.2110    -2.3990    -0.1520 H     1 <1>   0.0800 
 36 H        4.1540    -2.4370    -0.7940 H     1 <1>   0.0800 
 37 H        3.3170    -3.3580     0.4330 H     1 <1>   0.0800 
 38 H        5.7070    -1.4380     1.0670 H     1 <1>   0.0800 
 39 H        4.8270    -2.5230     2.1310 H     1 <1>   0.0800 
 40 H        4.8960    -0.8160     2.4920 H     1 <1>   0.0800 
 41 H        5.4220     4.6790    -0.2760 H     1 <1>   0.1500 
 42 H        8.3260     0.9570    -0.7670 H     1 <1>   0.1500 
 43 H        8.3030     5.5780    -1.8770 H     1 <1>   0.1000 
 44 H        9.0850     5.3760     1.0900 H     1 <1>   0.1000 
 45 H        9.8080     6.4850    -0.1150 H     1 <1>   0.1000 
 46 H        7.5320     7.5450    -0.5060 H     1 <1>   0.1000 
 47 H        6.8330     6.4550     0.7300 H     1 <1>   0.1000 
@<TRIPOS>BOND
  1   1   2  ar  
  2   2   3  ar  
  3   2   4  1   
  4   4   5  1   
  5   4   6  1   
  6   4   7  1   
  7   5   8  1   
  8   5   9  1   
  9   5  24  1   
 10   6  10  1   
 11   6  25  1   
 12   6  26  1   
 13   7  11  1   
 14   7  27  1   
 15   7  28  1   
 16   8  12  1   
 17   8  13  1   
 18   8  29  1   
 19   9  14  1   
 20   9  30  1   
 21   9  31  1   
 22  10  14  1   
 23  10  32  1   
 24  10  33  1   
 25  11  12  1   
 26  11  34  1   
 27  11  35  1   
 28  12  36  1   
 29  12  37  1   
 30  13  38  1   
 31  13  39  1   
 32  13  40  1   
 33  14  15  1   
 34  15  16  ar  
 35  15  17  ar  
 36  16  18  ar  
 37  17  19  ar  
 38  17  41  1   
 39  18  20  ar  
 40  18  42  1   
 41  19  20  ar  
 42  19  21  1   
 43  21  22  1   
 44  21  23  1   
 45  21  43  1   
 46  22  23  1   
 47  22  44  1   
 48  22  45  1   
 49  23  46  1   
 50  23  47  1   
@<TRIPOS>SUBSTRUCTURE
  1 ****  14 GROUP 4 **** **** 0

# MOE 2024.06 (io_trps.svl 2023.06)
