@<TRIPOS>MOLECULE
NONAME
47 49 1 0 0 
SMALL
USER_CHARGES


@<TRIPOS>ATOM
  1 O        1.5260    -0.5330     1.1840 O.3   1 <1>  -0.3630 
  2 C        0.9190    -1.6470     0.6960 C.ar  1 <1>   0.0830 
  3 C        1.6690     0.6580     0.4390 C.3   1 <1>   0.2000 
  4 C        0.9590    -2.7940     1.4810 C.ar  1 <1>   0.1600 
  5 C        0.2660    -1.7070    -0.5260 C.ar  1 <1>  -0.1500 
  6 C        2.8130     0.5000    -0.5670 C.3   1 <1>  -0.1600 
  7 C        1.9800     1.7850     1.4220 C.3   1 <1>  -0.1600 
  8 N        0.4210    -3.9630     1.1620 N.ar  1 <1>  -0.6200 
  9 C       -0.2980    -2.9170    -0.8730 C.ar  1 <1>  -0.1500 
 10 C        3.0560     1.8100    -1.3190 C.3   1 <1>   0.2090 
 11 C        2.1920     3.1030     0.6790 C.3   1 <1>   0.2090 
 12 C       -0.1940    -3.9950    -0.0090 C.ar  1 <1>   0.1600 
 13 N        3.2330     2.9390    -0.3670 N.pl3 1 <1>  -0.8380 
 14 C        4.5070     3.3970    -0.0990 C.ar  1 <1>   0.4100 
 15 N        5.3930     2.4870     0.2500 N.ar  1 <1>  -0.6200 
 16 C        4.8420     4.7450    -0.1780 C.ar  1 <1>  -0.1430 
 17 C        6.5960     2.9300     0.5380 C.ar  1 <1>   0.4770 
 18 C        6.1340     5.0720     0.1530 C.ar  1 <1>   0.1600 
 19 C        3.8020     5.7810    -0.6180 C.3   1 <1>  -0.0170 
 20 N        7.0290     4.1750     0.5160 N.ar  1 <1>  -0.6200 
 21 C        7.6120     1.8900     0.9430 C.3   1 <1>  -0.0970 
 22 C        4.3820     7.1230    -1.0920 C.3   1 <1>  -0.1600 
 23 C        3.2820     8.0480    -1.6260 C.3   1 <1>  -0.2400 
 24 H        0.7390     0.8740    -0.0560 H     1 <1>   0.0800 
 25 H        1.4690    -2.7320     2.4270 H     1 <1>   0.1500 
 26 H        0.1880    -0.8680    -1.1890 H     1 <1>   0.1500 
 27 H        2.5900    -0.2730    -1.2780 H     1 <1>   0.0800 
 28 H        3.7160     0.2320    -0.0480 H     1 <1>   0.0800 
 29 H        2.8750     1.5530     1.9720 H     1 <1>   0.0800 
 30 H        1.1670     1.8960     2.1160 H     1 <1>   0.0800 
 31 H       -0.8180    -3.0290    -1.8080 H     1 <1>   0.1500 
 32 H        2.2210     2.0270    -1.9620 H     1 <1>   0.0800 
 33 H        3.9360     1.7160    -1.9340 H     1 <1>   0.0800 
 34 H        2.4960     3.8620     1.3790 H     1 <1>   0.0800 
 35 H        1.2750     3.4190     0.2130 H     1 <1>   0.0800 
 36 H       -0.6410    -4.9320    -0.2960 H     1 <1>   0.1500 
 37 H        6.4690     6.0920     0.1260 H     1 <1>   0.1500 
 38 H        3.1260     5.9580     0.2000 H     1 <1>   0.0800 
 39 H        3.2290     5.3610    -1.4270 H     1 <1>   0.0800 
 40 H        7.1370     0.9390     1.0980 H     1 <1>   0.0800 
 41 H        8.0940     2.1940     1.8530 H     1 <1>   0.0800 
 42 H        8.3490     1.7940     0.1680 H     1 <1>   0.0800 
 43 H        5.1030     6.9460    -1.8720 H     1 <1>   0.0800 
 44 H        4.8770     7.6160    -0.2740 H     1 <1>   0.0800 
 45 H        2.7840     7.5950    -2.4660 H     1 <1>   0.0800 
 46 H        3.7110     8.9810    -1.9480 H     1 <1>   0.0800 
 47 H        2.5550     8.2530    -0.8600 H     1 <1>   0.0800 
@<TRIPOS>BOND
  1   1   2  1   
  2   1   3  1   
  3   2   4  ar  
  4   2   5  ar  
  5   3   6  1   
  6   3   7  1   
  7   3  24  1   
  8   4   8  ar  
  9   4  25  1   
 10   5   9  ar  
 11   5  26  1   
 12   6  10  1   
 13   6  27  1   
 14   6  28  1   
 15   7  11  1   
 16   7  29  1   
 17   7  30  1   
 18   8  12  ar  
 19   9  12  ar  
 20   9  31  1   
 21  10  13  1   
 22  10  32  1   
 23  10  33  1   
 24  11  13  1   
 25  11  34  1   
 26  11  35  1   
 27  12  36  1   
 28  13  14  1   
 29  14  15  ar  
 30  14  16  ar  
 31  15  17  ar  
 32  16  18  ar  
 33  16  19  1   
 34  17  20  ar  
 35  17  21  1   
 36  18  20  ar  
 37  18  37  1   
 38  19  22  1   
 39  19  38  1   
 40  19  39  1   
 41  21  40  1   
 42  21  41  1   
 43  21  42  1   
 44  22  23  1   
 45  22  43  1   
 46  22  44  1   
 47  23  45  1   
 48  23  46  1   
 49  23  47  1   
@<TRIPOS>SUBSTRUCTURE
  1 ****  13 GROUP 4 **** **** 0

# MOE 2024.06 (io_trps.svl 2023.06)
