@<TRIPOS>MOLECULE
NONAME
48 50 1 0 0 
SMALL
USER_CHARGES


@<TRIPOS>ATOM
  1 O       -2.9650     1.2180    -1.8350 O.2   1 <1>  -0.5700 
  2 C       -2.3800     0.8510    -0.8420 C.2   1 <1>   0.5690 
  3 N       -2.1460    -0.4720    -0.6440 N.am  1 <1>  -0.7300 
  4 C       -1.9570     1.8850     0.2340 C.3   1 <1>   0.0610 
  5 C       -2.4970    -1.5570    -1.5860 C.3   1 <1>   0.2200 
  6 C       -1.4480     3.1920    -0.4230 C.3   1 <1>  -0.1600 
  7 C       -0.8400     1.3620     1.1770 C.3   1 <1>  -0.1600 
  8 C       -3.1940     2.2170     1.0920 C.3   1 <1>  -0.2400 
  9 C       -3.6980    -2.3490    -1.0880 C.3   1 <1>  -0.0800 
 10 C       -1.4140    -2.6240    -1.5270 C.3   1 <1>   0.1200 
 11 C       -0.1220     2.9910    -1.1730 C.3   1 <1>  -0.1600 
 12 C        0.5030     1.1530     0.4550 C.3   1 <1>  -0.1600 
 13 C       -3.0680    -3.3600    -0.1220 C.3   1 <1>   0.1200 
 14 C       -4.8440    -1.5190    -0.4810 C.3   1 <1>  -0.0170 
 15 O       -1.6910    -3.3560    -0.3720 O.3   1 <1>  -0.5600 
 16 C        0.9620     2.4420    -0.2370 C.3   1 <1>  -0.1600 
 17 C       -6.0200    -2.4070    -0.1060 C.ar  1 <1>  -0.1440 
 18 C       -6.2240    -2.8500     1.1850 C.ar  1 <1>  -0.1500 
 19 C       -6.9440    -2.8190    -1.0450 C.ar  1 <1>  -0.1500 
 20 C       -7.3090    -3.6640     1.4660 C.ar  1 <1>   0.1600 
 21 C       -7.9950    -3.6340    -0.6590 C.ar  1 <1>   0.1600 
 22 N       -8.1980    -4.0690     0.5740 N.ar  1 <1>  -0.6200 
 23 H       -1.6570    -0.7880     0.1950 H     1 <1>   0.3700 
 24 H       -2.6370    -1.1680    -2.5820 H     1 <1>   0.0800 
 25 H       -2.1880     3.5690    -1.1090 H     1 <1>   0.0800 
 26 H       -1.3030     3.9420     0.3340 H     1 <1>   0.0800 
 27 H       -0.6840     2.0810     1.9620 H     1 <1>   0.0800 
 28 H       -1.1440     0.4460     1.6520 H     1 <1>   0.0800 
 29 H       -2.9570     2.9490     1.8430 H     1 <1>   0.0800 
 30 H       -3.5610     1.3310     1.5780 H     1 <1>   0.0800 
 31 H       -3.9790     2.6100     0.4690 H     1 <1>   0.0800 
 32 H       -4.0920    -2.9040    -1.9210 H     1 <1>   0.0800 
 33 H       -0.4220    -2.2110    -1.4690 H     1 <1>   0.0800 
 34 H       -1.4870    -3.2920    -2.3680 H     1 <1>   0.0800 
 35 H       -0.2700     2.3100    -1.9930 H     1 <1>   0.0800 
 36 H        0.2030     3.9310    -1.5850 H     1 <1>   0.0800 
 37 H        1.2500     0.8460     1.1670 H     1 <1>   0.0800 
 38 H        0.4150     0.3720    -0.2790 H     1 <1>   0.0800 
 39 H       -3.4510    -4.3540    -0.2810 H     1 <1>   0.0800 
 40 H       -3.2120    -3.0740     0.9050 H     1 <1>   0.0800 
 41 H       -5.1660    -0.7810    -1.1950 H     1 <1>   0.0800 
 42 H       -4.5060    -0.9920     0.3940 H     1 <1>   0.0800 
 43 H        1.1940     3.1830     0.5090 H     1 <1>   0.0800 
 44 H        1.8600     2.2500    -0.7990 H     1 <1>   0.0800 
 45 H       -5.5520    -2.5700     1.9760 H     1 <1>   0.1500 
 46 H       -6.8570    -2.5120    -2.0710 H     1 <1>   0.1500 
 47 H       -7.4530    -4.0000     2.4790 H     1 <1>   0.1500 
 48 H       -8.7070    -3.9450    -1.4050 H     1 <1>   0.1500 
@<TRIPOS>BOND
  1   1   2  2   
  2   2   3  am  
  3   2   4  1   
  4   3   5  1   
  5   3  23  1   
  6   4   6  1   
  7   4   7  1   
  8   4   8  1   
  9   5   9  1   
 10   5  10  1   
 11   5  24  1   
 12   6  11  1   
 13   6  25  1   
 14   6  26  1   
 15   7  12  1   
 16   7  27  1   
 17   7  28  1   
 18   8  29  1   
 19   8  30  1   
 20   8  31  1   
 21   9  13  1   
 22   9  14  1   
 23   9  32  1   
 24  10  15  1   
 25  10  33  1   
 26  10  34  1   
 27  11  16  1   
 28  11  35  1   
 29  11  36  1   
 30  12  16  1   
 31  12  37  1   
 32  12  38  1   
 33  13  15  1   
 34  13  39  1   
 35  13  40  1   
 36  14  17  1   
 37  14  41  1   
 38  14  42  1   
 39  16  43  1   
 40  16  44  1   
 41  17  18  ar  
 42  17  19  ar  
 43  18  20  ar  
 44  18  45  1   
 45  19  21  ar  
 46  19  46  1   
 47  20  22  ar  
 48  20  47  1   
 49  21  22  ar  
 50  21  48  1   
@<TRIPOS>SUBSTRUCTURE
  1 ****   3 GROUP 4 **** **** 0

# MOE 2024.06 (io_trps.svl 2023.06)
