@<TRIPOS>MOLECULE
NONAME
47 49 1 0 0 
SMALL
USER_CHARGES


@<TRIPOS>ATOM
  1 F       -0.4480     0.4250    -0.2220 F     1 <1>  -0.1900 
  2 C       -0.4430     1.7300    -0.2050 C.ar  1 <1>   0.1900 
  3 C       -1.5010     2.4080     0.3930 C.ar  1 <1>   0.0860 
  4 C        0.6230     2.3730    -0.8060 C.ar  1 <1>  -0.1500 
  5 C       -2.6050     1.7180     1.0140 C.2   1 <1>   0.5440 
  6 C       -1.4470     3.8020     0.3550 C.ar  1 <1>  -0.1500 
  7 C        0.6510     3.7580    -0.8290 C.ar  1 <1>  -0.1440 
  8 O       -2.4500     1.0350     2.0060 O.2   1 <1>  -0.5700 
  9 N       -3.8610     1.8270     0.4930 N.am  1 <1>  -0.7300 
 10 C       -0.3890     4.4650    -0.2450 C.ar  1 <1>  -0.1500 
 11 C        1.8050     4.5010    -1.4790 C.3   1 <1>  -0.0970 
 12 C       -5.0970     1.2400     1.0740 C.3   1 <1>   0.2200 
 13 C       -5.2060    -0.2730     0.7740 C.3   1 <1>   0.2000 
 14 C       -6.2950     2.0160     0.5170 C.3   1 <1>  -0.1600 
 15 O       -4.2250    -0.9660     1.4710 O.3   1 <1>  -0.6800 
 16 C       -6.5680    -0.8480     1.1840 C.3   1 <1>   0.1400 
 17 C       -7.6140     1.4220     1.0120 C.3   1 <1>   0.1400 
 18 N       -7.6780    -0.0130     0.6280 N.am  1 <1>  -0.6600 
 19 C       -8.5530    -0.4630    -0.3420 C.2   1 <1>   0.5440 
 20 O       -9.0900     0.3550    -1.0640 O.2   1 <1>  -0.5700 
 21 C       -8.8360    -1.8740    -0.5330 C.ar  1 <1>   0.0860 
 22 C       -9.1500    -2.7120     0.5380 C.ar  1 <1>  -0.1500 
 23 C       -8.8120    -2.4410    -1.8070 C.ar  1 <1>  -0.1500 
 24 C       -9.4090    -4.0570     0.3500 C.ar  1 <1>  -0.1500 
 25 C       -9.0710    -3.7860    -2.0030 C.ar  1 <1>  -0.1500 
 26 C       -9.3680    -4.5970    -0.9230 C.ar  1 <1>  -0.1500 
 27 H        1.4120     1.7910    -1.2480 H     1 <1>   0.1500 
 28 H       -2.2420     4.3680     0.8090 H     1 <1>   0.1500 
 29 H       -3.9820     2.2830    -0.4130 H     1 <1>   0.3700 
 30 H       -0.3740     5.5420    -0.2550 H     1 <1>   0.1500 
 31 H        1.4300     5.2610    -2.1410 H     1 <1>   0.0800 
 32 H        2.4230     3.8300    -2.0480 H     1 <1>   0.0800 
 33 H        2.4110     4.9680    -0.7230 H     1 <1>   0.0800 
 34 H       -5.0780     1.3700     2.1440 H     1 <1>   0.0800 
 35 H       -5.0500    -0.4480    -0.2760 H     1 <1>   0.0800 
 36 H       -6.2370     3.0430     0.8300 H     1 <1>   0.0800 
 37 H       -6.2950     1.9840    -0.5590 H     1 <1>   0.0800 
 38 H       -3.4590    -0.3560     1.6480 H     1 <1>   0.4000 
 39 H       -6.6460    -0.8570     2.2570 H     1 <1>   0.0800 
 40 H       -6.6310    -1.8600     0.8250 H     1 <1>   0.0800 
 41 H       -8.4420     1.9660     0.5890 H     1 <1>   0.0800 
 42 H       -7.6790     1.5030     2.0840 H     1 <1>   0.0800 
 43 H       -9.1920    -2.2960     1.5300 H     1 <1>   0.1500 
 44 H       -8.5880    -1.8100    -2.6490 H     1 <1>   0.1500 
 45 H       -9.6450    -4.6850     1.1920 H     1 <1>   0.1500 
 46 H       -9.0440    -4.2000    -2.9960 H     1 <1>   0.1500 
 47 H       -9.5700    -5.6440    -1.0730 H     1 <1>   0.1500 
@<TRIPOS>BOND
  1   1   2  1   
  2   2   3  ar  
  3   2   4  ar  
  4   3   5  1   
  5   3   6  ar  
  6   4   7  ar  
  7   4  27  1   
  8   5   8  2   
  9   5   9  am  
 10   6  10  ar  
 11   6  28  1   
 12   7  10  ar  
 13   7  11  1   
 14   9  12  1   
 15   9  29  1   
 16  10  30  1   
 17  11  31  1   
 18  11  32  1   
 19  11  33  1   
 20  12  13  1   
 21  12  14  1   
 22  12  34  1   
 23  13  15  1   
 24  13  16  1   
 25  13  35  1   
 26  14  17  1   
 27  14  36  1   
 28  14  37  1   
 29  15  38  1   
 30  16  18  1   
 31  16  39  1   
 32  16  40  1   
 33  17  18  1   
 34  17  41  1   
 35  17  42  1   
 36  18  19  am  
 37  19  20  2   
 38  19  21  1   
 39  21  22  ar  
 40  21  23  ar  
 41  22  24  ar  
 42  22  43  1   
 43  23  25  ar  
 44  23  44  1   
 45  24  26  ar  
 46  24  45  1   
 47  25  26  ar  
 48  25  46  1   
 49  26  47  1   
@<TRIPOS>SUBSTRUCTURE
  1 ****  13 GROUP 4 **** **** 0

# MOE 2024.06 (io_trps.svl 2023.06)
