@<TRIPOS>MOLECULE
NONAME
49 51 1 0 0 
SMALL
USER_CHARGES


@<TRIPOS>ATOM
  1 O        0.5930    -2.9700     1.9180 O.3   1 <1>  -0.6800 
  2 C        0.4720    -1.9600     0.9730 C.3   1 <1>   0.2000 
  3 C        1.8300    -1.7010     0.2890 C.3   1 <1>   0.0000 
  4 C       -0.4470    -2.4700    -0.1390 C.3   1 <1>  -0.1600 
  5 C        3.0080    -1.7320     1.2890 C.3   1 <1>   0.2090 
  6 C        1.8060    -0.3160    -0.4110 C.3   1 <1>  -0.1600 
  7 C        1.9050    -2.8430    -0.7440 C.3   1 <1>  -0.1600 
  8 C        0.4640    -3.1200    -1.1890 C.3   1 <1>  -0.1600 
  9 N        4.3030    -1.4390     0.5880 N.pl3 1 <1>  -0.8380 
 10 C        3.1780     0.0910    -0.9820 C.3   1 <1>  -0.1600 
 11 C        5.3200    -2.3170     0.4050 C.ar  1 <1>   0.4100 
 12 C        4.3030    -0.0440     0.0500 C.3   1 <1>   0.2090 
 13 N        6.4490    -1.8490    -0.1510 N.ar  1 <1>  -0.6200 
 14 C        5.2440    -3.6730     0.7600 C.ar  1 <1>  -0.1500 
 15 C        7.4480    -2.6560    -0.3330 C.ar  1 <1>   0.5280 
 16 C        6.3100    -4.4960     0.5550 C.ar  1 <1>   0.2180 
 17 N        7.4150    -3.9610     0.0030 N.ar  1 <1>  -0.1790 
 18 C        8.7210    -2.1020    -0.9580 C.3   1 <1>  -0.0170 
 19 C        6.2990    -5.9720     0.9170 C.3   1 <1>  -0.0970 
 20 C        9.8800    -2.0180     0.0490 C.3   1 <1>  -0.1600 
 21 C       11.1420    -1.4460    -0.6050 C.3   1 <1>  -0.2400 
 22 H       -0.2910    -3.2340     2.2360 H     1 <1>   0.4000 
 23 H        0.0780    -1.0860     1.4650 H     1 <1>   0.0800 
 24 H       -1.1960    -3.1510     0.2260 H     1 <1>   0.0800 
 25 H       -0.9460    -1.6290    -0.5880 H     1 <1>   0.0800 
 26 H        3.0390    -2.6720     1.8030 H     1 <1>   0.0800 
 27 H        2.8460    -0.9800     2.0420 H     1 <1>   0.0800 
 28 H        1.0780    -0.3020    -1.2040 H     1 <1>   0.0800 
 29 H        1.5120     0.4300     0.3080 H     1 <1>   0.0800 
 30 H        2.5480    -2.6170    -1.5760 H     1 <1>   0.0800 
 31 H        2.2810    -3.7270    -0.2610 H     1 <1>   0.0800 
 32 H        0.2880    -4.1800    -1.2480 H     1 <1>   0.0800 
 33 H        0.2800    -2.6830    -2.1560 H     1 <1>   0.0800 
 34 H        3.1350     1.1110    -1.3200 H     1 <1>   0.0800 
 35 H        3.4220    -0.5170    -1.8340 H     1 <1>   0.0800 
 36 H        4.1420     0.6460     0.8600 H     1 <1>   0.0800 
 37 H        5.2400     0.2120    -0.4130 H     1 <1>   0.0800 
 38 H        4.3440    -4.0660     1.1850 H     1 <1>   0.1500 
 39 H        8.2420    -4.5320    -0.1680 H     1 <1>   0.4570 
 40 H        9.0020    -2.7110    -1.7980 H     1 <1>   0.0800 
 41 H        8.5160    -1.1140    -1.3360 H     1 <1>   0.0800 
 42 H        5.3500    -6.2480     1.3430 H     1 <1>   0.0800 
 43 H        7.0650    -6.1880     1.6400 H     1 <1>   0.0800 
 44 H        6.4600    -6.5760     0.0410 H     1 <1>   0.0800 
 45 H        9.5940    -1.3800     0.8700 H     1 <1>   0.0800 
 46 H       10.1090    -2.9910     0.4490 H     1 <1>   0.0800 
 47 H       10.9580    -0.4540    -0.9820 H     1 <1>   0.0800 
 48 H       11.4730    -2.0690    -1.4180 H     1 <1>   0.0800 
 49 H       11.9370    -1.3850     0.1190 H     1 <1>   0.0800 
@<TRIPOS>BOND
  1   1   2  1   
  2   1  22  1   
  3   2   3  1   
  4   2   4  1   
  5   2  23  1   
  6   3   5  1   
  7   3   6  1   
  8   3   7  1   
  9   4   8  1   
 10   4  24  1   
 11   4  25  1   
 12   5   9  1   
 13   5  26  1   
 14   5  27  1   
 15   6  10  1   
 16   6  28  1   
 17   6  29  1   
 18   7   8  1   
 19   7  30  1   
 20   7  31  1   
 21   8  32  1   
 22   8  33  1   
 23   9  11  1   
 24   9  12  1   
 25  10  12  1   
 26  10  34  1   
 27  10  35  1   
 28  11  13  ar  
 29  11  14  ar  
 30  12  36  1   
 31  12  37  1   
 32  13  15  ar  
 33  14  16  ar  
 34  14  38  1   
 35  15  17  ar  
 36  15  18  1   
 37  16  17  ar  
 38  16  19  1   
 39  17  39  1   
 40  18  20  1   
 41  18  40  1   
 42  18  41  1   
 43  19  42  1   
 44  19  43  1   
 45  19  44  1   
 46  20  21  1   
 47  20  45  1   
 48  20  46  1   
 49  21  47  1   
 50  21  48  1   
 51  21  49  1   
@<TRIPOS>SUBSTRUCTURE
  1 ****  11 GROUP 4 **** **** 0

# MOE 2024.06 (io_trps.svl 2023.06)
