@<TRIPOS>MOLECULE
NONAME
36 38 1 0 0 
SMALL
USER_CHARGES


@<TRIPOS>ATOM
  1 O       -0.1710     0.7450    -0.5300 O.2   1 <1>  -0.5700 
  2 C       -0.1270     1.9150    -0.2490 C.2   1 <1>   0.5690 
  3 N       -1.2120     2.5440     0.2530 N.am  1 <1>  -0.7300 
  4 C        1.1570     2.7160    -0.4930 C.3   1 <1>   0.1810 
  5 C       -1.2300     3.9790     0.6270 C.3   1 <1>   0.3640 
  6 O        1.1880     3.9450     0.2030 O.3   1 <1>  -0.5600 
  7 C       -2.5150     4.6140     0.1000 C.ar  1 <1>  -0.1440 
  8 C        0.0110     4.7280     0.0780 C.3   1 <1>   0.2610 
  9 C       -3.2180     5.5020     0.9010 C.ar  1 <1>  -0.1500 
 10 C       -2.9940     4.3340    -1.1740 C.ar  1 <1>  -0.1500 
 11 C        0.2110     6.0780     0.7740 C.2   1 <1>   0.5690 
 12 C       -4.3790     6.0980     0.4410 C.ar  1 <1>  -0.1500 
 13 C       -4.1560     4.9280    -1.6350 C.ar  1 <1>  -0.1500 
 14 O       -0.2020     6.2470     1.9000 O.2   1 <1>  -0.5700 
 15 N        0.8880     7.0670     0.1230 N.am  1 <1>  -0.5100 
 16 C       -4.8500     5.8110    -0.8270 C.ar  1 <1>  -0.1500 
 17 C        1.6560     8.1930     0.7570 C.3   1 <1>   0.2250 
 18 C        1.9360     6.9720    -0.9520 C.3   1 <1>   0.2250 
 19 C        2.9200     7.6440     0.0420 C.3   1 <1>   0.2580 
 20 O        3.6060     6.7040     0.8130 O.3   1 <1>  -0.6580 
 21 H       -2.0670     2.0090     0.4140 H     1 <1>   0.3700 
 22 H        1.2550     2.9190    -1.5440 H     1 <1>   0.0800 
 23 H        2.0030     2.1360    -0.1720 H     1 <1>   0.0800 
 24 H       -1.2270     4.0320     1.7030 H     1 <1>   0.0800 
 25 H       -0.1400     4.9170    -0.9690 H     1 <1>   0.0800 
 26 H       -2.8650     5.7420     1.8910 H     1 <1>   0.1500 
 27 H       -2.4710     3.6480    -1.8190 H     1 <1>   0.1500 
 28 H       -4.9160     6.7860     1.0720 H     1 <1>   0.1500 
 29 H       -4.5230     4.7030    -2.6220 H     1 <1>   0.1500 
 30 H       -5.7540     6.2740    -1.1840 H     1 <1>   0.1500 
 31 H        1.3240     9.1450     0.3800 H     1 <1>   0.0000 
 32 H        1.6930     8.1300     1.8300 H     1 <1>   0.0000 
 33 H        2.1920     5.9610    -1.2130 H     1 <1>   0.0000 
 34 H        1.6800     7.5930    -1.7930 H     1 <1>   0.0000 
 35 H        3.5900     8.3750    -0.3740 H     1 <1>   0.0000 
 36 H        2.9710     6.0620     1.1930 H     1 <1>   0.4000 
@<TRIPOS>BOND
  1   1   2  2   
  2   2   3  am  
  3   2   4  1   
  4   3   5  1   
  5   3  21  1   
  6   4   6  1   
  7   4  22  1   
  8   4  23  1   
  9   5   7  1   
 10   5   8  1   
 11   5  24  1   
 12   6   8  1   
 13   7   9  ar  
 14   7  10  ar  
 15   8  11  1   
 16   8  25  1   
 17   9  12  ar  
 18   9  26  1   
 19  10  13  ar  
 20  10  27  1   
 21  11  14  2   
 22  11  15  am  
 23  12  16  ar  
 24  12  28  1   
 25  13  16  ar  
 26  13  29  1   
 27  15  17  1   
 28  15  18  1   
 29  16  30  1   
 30  17  19  1   
 31  17  31  1   
 32  17  32  1   
 33  18  19  1   
 34  18  33  1   
 35  18  34  1   
 36  19  20  1   
 37  19  35  1   
 38  20  36  1   
@<TRIPOS>SUBSTRUCTURE
  1 ****   8 GROUP 4 **** **** 0

# MOE 2024.06 (io_trps.svl 2023.06)
