@<TRIPOS>MOLECULE
NONAME
54 56 1 0 0 
SMALL
USER_CHARGES


@<TRIPOS>ATOM
  1 O       -0.9470    -0.1110    -0.8010 O.2   1 <1>  -0.5700 
  2 C       -1.7080     0.7590    -1.1870 C.2   1 <1>   0.5440 
  3 N       -2.9790     0.3660    -1.5530 N.am  1 <1>  -0.6600 
  4 C       -1.2950     2.1510    -1.2120 C.ar  1 <1>   0.0860 
  5 C       -3.2430    -1.0710    -1.8120 C.3   1 <1>   0.1400 
  6 C       -4.1700     1.1130    -1.0660 C.3   1 <1>   0.1400 
  7 C       -0.4880     2.6780    -0.2090 C.ar  1 <1>  -0.1500 
  8 C       -1.6930     3.0110    -2.2380 C.ar  1 <1>  -0.1500 
  9 C       -3.6570    -1.7380    -0.4820 C.3   1 <1>   0.4230 
 10 C       -4.6270     0.4730     0.2540 C.3   1 <1>  -0.1600 
 11 C       -0.0910     4.0070    -0.1980 C.ar  1 <1>   0.1000 
 12 C       -1.3070     4.3390    -2.2490 C.ar  1 <1>  -0.1500 
 13 N       -3.7380    -3.2570    -0.5490 N.4   1 <1>  -0.9590 
 14 C       -4.9110    -1.0560     0.1470 C.3   1 <1>   0.0000 
 15 N        0.7160     4.4720     0.8380 N.pl3 1 <1>  -0.8380 
 16 C       -0.5100     4.8340    -1.2340 C.ar  1 <1>  -0.1500 
 17 C       -4.5130    -3.8770     0.5740 C.3   1 <1>   0.3430 
 18 C       -4.1850    -3.8260    -1.8610 C.3   1 <1>   0.2630 
 19 C       -5.1400    -1.6240     1.5800 C.3   1 <1>  -0.1600 
 20 C       -6.1610    -1.3110    -0.7430 C.3   1 <1>   0.1200 
 21 C        0.4970     5.8340     1.3900 C.3   1 <1>   0.1290 
 22 C        2.1270     4.0060     0.8630 C.3   1 <1>   0.1290 
 23 C       -4.4760    -2.9940     1.8200 C.3   1 <1>  -0.1600 
 24 O       -7.2480    -0.5610    -0.3280 O.3   1 <1>  -0.6800 
 25 H       -4.0100    -1.1540    -2.5600 H     1 <1>   0.0800 
 26 H       -2.3480    -1.5330    -2.1910 H     1 <1>   0.0800 
 27 H       -3.9260     2.1490    -0.8960 H     1 <1>   0.0800 
 28 H       -4.9540     1.0740    -1.8030 H     1 <1>   0.0800 
 29 H       -0.1590     2.0420     0.5920 H     1 <1>   0.1500 
 30 H       -2.3060     2.6310    -3.0350 H     1 <1>   0.1500 
 31 H       -2.8480    -1.5130     0.1950 H     1 <1>   0.0800 
 32 H       -3.8480     0.6490     0.9760 H     1 <1>   0.0800 
 33 H       -5.4960     0.9990     0.6100 H     1 <1>   0.0800 
 34 H       -1.6230     4.9870    -3.0480 H     1 <1>   0.1500 
 35 H       -2.7580    -3.5550    -0.4150 H     1 <1>   0.4500 
 36 H       -0.2030     5.8620    -1.2480 H     1 <1>   0.1500 
 37 H       -5.5410    -4.0070     0.2790 H     1 <1>   0.0800 
 38 H       -4.1080    -4.8510     0.8040 H     1 <1>   0.0800 
 39 H       -5.1900    -3.5090    -2.0880 H     1 <1>   0.0800 
 40 H       -4.1660    -4.9030    -1.8270 H     1 <1>   0.0800 
 41 H       -3.5330    -3.5030    -2.6570 H     1 <1>   0.0800 
 42 H       -4.7510    -0.9470     2.3220 H     1 <1>   0.0800 
 43 H       -6.1940    -1.7090     1.7800 H     1 <1>   0.0800 
 44 H       -6.4570    -2.3440    -0.7220 H     1 <1>   0.0800 
 45 H       -5.9790    -1.0320    -1.7650 H     1 <1>   0.0800 
 46 H        0.7760     5.8530     2.4290 H     1 <1>   0.0800 
 47 H       -0.5430     6.1000     1.3090 H     1 <1>   0.0800 
 48 H        1.0890     6.5520     0.8490 H     1 <1>   0.0800 
 49 H        2.4410     3.8540     1.8810 H     1 <1>   0.0800 
 50 H        2.7650     4.7370     0.3980 H     1 <1>   0.0800 
 51 H        2.2220     3.0760     0.3290 H     1 <1>   0.0800 
 52 H       -4.9840    -3.4950     2.6260 H     1 <1>   0.0800 
 53 H       -3.4520    -2.8610     2.1280 H     1 <1>   0.0800 
 54 H       -7.5350    -0.7920     0.5770 H     1 <1>   0.4000 
@<TRIPOS>BOND
  1   1   2  2   
  2   2   3  am  
  3   2   4  1   
  4   3   5  1   
  5   3   6  1   
  6   4   7  ar  
  7   4   8  ar  
  8   5   9  1   
  9   5  25  1   
 10   5  26  1   
 11   6  10  1   
 12   6  27  1   
 13   6  28  1   
 14   7  11  ar  
 15   7  29  1   
 16   8  12  ar  
 17   8  30  1   
 18   9  13  1   
 19   9  14  1   
 20   9  31  1   
 21  10  14  1   
 22  10  32  1   
 23  10  33  1   
 24  11  15  1   
 25  11  16  ar  
 26  12  16  ar  
 27  12  34  1   
 28  13  17  1   
 29  13  18  1   
 30  13  35  1   
 31  14  19  1   
 32  14  20  1   
 33  15  21  1   
 34  15  22  1   
 35  16  36  1   
 36  17  23  1   
 37  17  37  1   
 38  17  38  1   
 39  18  39  1   
 40  18  40  1   
 41  18  41  1   
 42  19  23  1   
 43  19  42  1   
 44  19  43  1   
 45  20  24  1   
 46  20  44  1   
 47  20  45  1   
 48  21  46  1   
 49  21  47  1   
 50  21  48  1   
 51  22  49  1   
 52  22  50  1   
 53  22  51  1   
 54  23  52  1   
 55  23  53  1   
 56  24  54  1   
@<TRIPOS>SUBSTRUCTURE
  1 ****   3 GROUP 4 **** **** 0

# MOE 2024.06 (io_trps.svl 2023.06)
