@<TRIPOS>MOLECULE
NONAME
50 52 1 0 0 
SMALL
USER_CHARGES


@<TRIPOS>ATOM
  1 F        3.4680     0.1070    -1.7910 F     1 <1>  -0.1900 
  2 C        3.1170    -0.3880    -0.6350 C.ar  1 <1>   0.1900 
  3 C        3.0300     0.4370     0.4910 C.ar  1 <1>   0.0860 
  4 C        2.8540    -1.7460    -0.6060 C.ar  1 <1>  -0.1500 
  5 C        3.2980     1.8680     0.4880 C.2   1 <1>   0.5440 
  6 C        2.6570    -0.2030     1.6780 C.ar  1 <1>  -0.1500 
  7 C        2.4860    -2.3370     0.5880 C.ar  1 <1>  -0.1500 
  8 O        3.4970     2.4540     1.5350 O.2   1 <1>  -0.5700 
  9 N        3.3300     2.6040    -0.6640 N.am  1 <1>  -0.7300 
 10 C        2.3890    -1.5610     1.7290 C.ar  1 <1>  -0.1500 
 11 C        3.5270     4.0710    -0.7470 C.3   1 <1>   0.1400 
 12 C        5.0220     4.3930    -0.7450 C.3   1 <1>  -0.0990 
 13 C        5.2870     5.8850    -0.8640 C.2   1 <1>   0.5690 
 14 O        4.4400     6.5770    -1.3810 O.2   1 <1>  -0.5700 
 15 N        6.4620     6.4250    -0.4070 N.am  1 <1>  -0.6600 
 16 C        6.6690     7.8870    -0.4270 C.3   1 <1>   0.1400 
 17 C        7.6000     5.6680     0.1390 C.3   1 <1>   0.1400 
 18 C        7.8280     8.3190     0.5070 C.3   1 <1>  -0.0800 
 19 C        8.9150     6.3460    -0.2800 C.3   1 <1>  -0.1600 
 20 C        9.2610     7.9070    -0.0930 C.3   1 <1>   0.2800 
 21 C        7.3950     9.7260     0.9840 C.3   1 <1>  -0.1600 
 22 O       10.4750     7.4900    -0.6510 O.3   1 <1>  -0.6800 
 23 C       10.0270     9.3180    -0.0350 C.3   1 <1>  -0.1600 
 24 C        8.5330    10.5100     1.5790 C.3   1 <1>  -0.1600 
 25 C        9.4840    10.6770     0.4260 C.3   1 <1>  -0.1600 
 26 H        2.9370    -2.3310    -1.5050 H     1 <1>   0.1500 
 27 H        2.5750     0.3800     2.5810 H     1 <1>   0.1500 
 28 H        2.2770    -3.3930     0.6310 H     1 <1>   0.1500 
 29 H        3.2390     2.1140    -1.5580 H     1 <1>   0.3700 
 30 H        2.1040    -2.0160     2.6640 H     1 <1>   0.1500 
 31 H        3.0640     4.4430    -1.6450 H     1 <1>   0.0800 
 32 H        3.0550     4.5480     0.0970 H     1 <1>   0.0800 
 33 H        5.4990     3.8990    -1.5700 H     1 <1>   0.0800 
 34 H        5.4360     4.0310     0.1770 H     1 <1>   0.0800 
 35 H        6.8760     8.2010    -1.4360 H     1 <1>   0.0800 
 36 H        5.7440     8.3490    -0.1230 H     1 <1>   0.0800 
 37 H        7.5190     5.6230     1.2120 H     1 <1>   0.0800 
 38 H        7.5950     4.6600    -0.2370 H     1 <1>   0.0800 
 39 H        7.7480     7.7800     1.4340 H     1 <1>   0.0800 
 40 H        8.9720     6.0850    -1.3310 H     1 <1>   0.0800 
 41 H        9.6350     5.7350     0.2530 H     1 <1>   0.0800 
 42 H        6.9780    10.2910     0.1650 H     1 <1>   0.0800 
 43 H        6.6160     9.6290     1.7220 H     1 <1>   0.0800 
 44 H       11.0790     8.2510    -0.7010 H     1 <1>   0.4000 
 45 H       10.8650     9.2000     0.6450 H     1 <1>   0.0800 
 46 H       10.4050     9.5940    -1.0160 H     1 <1>   0.0800 
 47 H        8.1890    11.4700     1.9250 H     1 <1>   0.0800 
 48 H        8.9920     9.9810     2.3970 H     1 <1>   0.0800 
 49 H       10.3010    11.3110     0.7240 H     1 <1>   0.0800 
 50 H        8.9870    11.1700    -0.3940 H     1 <1>   0.0800 
@<TRIPOS>BOND
  1   1   2  1   
  2   2   3  ar  
  3   2   4  ar  
  4   3   5  1   
  5   3   6  ar  
  6   4   7  ar  
  7   4  26  1   
  8   5   8  2   
  9   5   9  am  
 10   6  10  ar  
 11   6  27  1   
 12   7  10  ar  
 13   7  28  1   
 14   9  11  1   
 15   9  29  1   
 16  10  30  1   
 17  11  12  1   
 18  11  31  1   
 19  11  32  1   
 20  12  13  1   
 21  12  33  1   
 22  12  34  1   
 23  13  14  2   
 24  13  15  am  
 25  15  16  1   
 26  15  17  1   
 27  16  18  1   
 28  16  35  1   
 29  16  36  1   
 30  17  19  1   
 31  17  37  1   
 32  17  38  1   
 33  18  20  1   
 34  18  21  1   
 35  18  39  1   
 36  19  20  1   
 37  19  40  1   
 38  19  41  1   
 39  20  22  1   
 40  20  23  1   
 41  21  24  1   
 42  21  42  1   
 43  21  43  1   
 44  22  44  1   
 45  23  25  1   
 46  23  45  1   
 47  23  46  1   
 48  24  25  1   
 49  24  47  1   
 50  24  48  1   
 51  25  49  1   
 52  25  50  1   
@<TRIPOS>SUBSTRUCTURE
  1 ****  12 GROUP 4 **** **** 0

# MOE 2024.06 (io_trps.svl 2023.06)
