@<TRIPOS>MOLECULE
NONAME
35 35 1 0 0 
SMALL
USER_CHARGES


@<TRIPOS>ATOM
  1 F       -2.6430    -1.2400    -2.0320 F     1 <1>  -0.3400 
  2 C       -1.4280    -1.3640    -1.5160 C.3   1 <1>   1.0200 
  3 F       -0.5960    -0.7630    -2.3530 F     1 <1>  -0.3400 
  4 F       -1.4230    -0.6550    -0.3960 F     1 <1>  -0.3400 
  5 C       -1.0520    -2.8250    -1.2750 C.3   1 <1>  -0.1600 
  6 C       -1.9960    -3.5570    -0.2930 C.3   1 <1>  -0.0990 
  7 C       -1.6540    -5.0310    -0.1000 C.2   1 <1>   0.5690 
  8 O       -0.5710    -5.4090    -0.4780 O.2   1 <1>  -0.5700 
  9 N       -2.5470    -5.8840     0.4950 N.am  1 <1>  -0.6600 
 10 C       -2.1950    -7.3230     0.6730 C.3   1 <1>   0.3200 
 11 C       -3.8450    -5.4470     1.1020 C.3   1 <1>   0.1400 
 12 C       -3.2560    -8.1890     0.0290 C.2   1 <1>  -0.3320 
 13 C       -4.9940    -5.4820     0.0850 C.3   1 <1>   0.1200 
 14 N       -4.1880    -8.8940     0.6990 N.pl3 1 <1>   0.0330 
 15 C       -3.4840    -8.4130    -1.2830 C.2   1 <1>   0.0770 
 16 O       -6.1180    -4.9280     0.6780 O.3   1 <1>  -0.6800 
 17 C       -4.9330    -9.4920    -0.2550 C.2   1 <1>   0.0070 
 18 N       -4.5430    -9.2250    -1.4570 N.2   1 <1>  -0.5650 
 19 C       -6.1100   -10.3880     0.0650 C.3   1 <1>  -0.0600 
 20 H       -0.0470    -2.8520    -0.8940 H     1 <1>   0.0800 
 21 H       -1.0580    -3.3320    -2.2220 H     1 <1>   0.0800 
 22 H       -3.0010    -3.4810    -0.6630 H     1 <1>   0.0800 
 23 H       -1.9540    -3.0770     0.6680 H     1 <1>   0.0800 
 24 H       -2.1100    -7.5440     1.7220 H     1 <1>   0.0800 
 25 H       -1.2470    -7.5460     0.2150 H     1 <1>   0.0800 
 26 H       -3.7460    -4.4470     1.4850 H     1 <1>   0.0800 
 27 H       -4.0880    -6.0900     1.9290 H     1 <1>   0.0800 
 28 H       -5.2340    -6.4900    -0.2040 H     1 <1>   0.0800 
 29 H       -4.7570    -4.9040    -0.7900 H     1 <1>   0.0800 
 30 H       -4.3200    -8.9690     1.7120 H     1 <1>   0.2700 
 31 H       -2.9360    -8.0190    -2.1240 H     1 <1>   0.1500 
 32 H       -6.8780    -4.9570     0.0620 H     1 <1>   0.4000 
 33 H       -6.8530    -9.8400     0.6150 H     1 <1>   0.0800 
 34 H       -5.7850   -11.2320     0.6440 H     1 <1>   0.0800 
 35 H       -6.5510   -10.7460    -0.8480 H     1 <1>   0.0800 
@<TRIPOS>BOND
  1   1   2  1   
  2   2   3  1   
  3   2   4  1   
  4   2   5  1   
  5   5   6  1   
  6   5  20  1   
  7   5  21  1   
  8   6   7  1   
  9   6  22  1   
 10   6  23  1   
 11   7   8  2   
 12   7   9  am  
 13   9  10  1   
 14   9  11  1   
 15  10  12  1   
 16  10  24  1   
 17  10  25  1   
 18  11  13  1   
 19  11  26  1   
 20  11  27  1   
 21  12  14  1   
 22  12  15  2   
 23  13  16  1   
 24  13  28  1   
 25  13  29  1   
 26  14  17  1   
 27  14  30  1   
 28  15  18  1   
 29  15  31  1   
 30  16  32  1   
 31  17  18  2   
 32  17  19  1   
 33  19  33  1   
 34  19  34  1   
 35  19  35  1   
@<TRIPOS>SUBSTRUCTURE
  1 ****   9 GROUP 4 **** **** 0

# MOE 2024.06 (io_trps.svl 2023.06)
