@<TRIPOS>MOLECULE
NONAME
38 40 1 0 0 
SMALL
USER_CHARGES


@<TRIPOS>ATOM
  1 O        0.3780    -0.0890     0.2930 O.3   1 <1>  -0.6800 
  2 C        1.6570    -0.1550    -0.2480 C.3   1 <1>   0.2000 
  3 C        2.3250    -1.4780     0.1160 C.3   1 <1>  -0.0800 
  4 C        2.5760     0.9150     0.3390 C.3   1 <1>   0.2090 
  5 C        3.8210    -1.1590     0.0550 C.3   1 <1>   0.2090 
  6 C        1.9070    -2.6490    -0.7890 C.3   1 <1>  -0.0170 
  7 N        3.9310     0.2920     0.3440 N.pl3 1 <1>  -0.8380 
  8 C        2.6250    -3.9350    -0.4120 C.ar  1 <1>   0.1660 
  9 C        5.0910     1.0250     0.1810 C.ar  1 <1>   0.4100 
 10 N        3.8170    -4.1250    -0.9550 N.ar  1 <1>  -0.6200 
 11 C        2.0180    -4.8280     0.4590 C.ar  1 <1>  -0.1500 
 12 N        4.9880     2.3400     0.1340 N.ar  1 <1>  -0.6200 
 13 C        6.3310     0.4200     0.0760 C.ar  1 <1>  -0.1500 
 14 C        4.4260    -5.2530    -0.6230 C.ar  1 <1>   0.1600 
 15 C        2.6650    -5.9970     0.7990 C.ar  1 <1>  -0.1500 
 16 C        6.1110     3.0110    -0.0200 C.ar  1 <1>   0.4770 
 17 C        7.4280     1.2190    -0.0840 C.ar  1 <1>   0.1600 
 18 C        3.9040    -6.2060     0.2350 C.ar  1 <1>  -0.1500 
 19 N        7.3370     2.5330    -0.1370 N.ar  1 <1>  -0.6200 
 20 C        5.9900     4.5150    -0.0720 C.3   1 <1>  -0.0970 
 21 H       -0.2120    -0.7340    -0.1380 H     1 <1>   0.4000 
 22 H        1.5930    -0.0230    -1.3140 H     1 <1>   0.0800 
 23 H        2.0950    -1.7140     1.1410 H     1 <1>   0.0800 
 24 H        2.2940     1.1460     1.3510 H     1 <1>   0.0800 
 25 H        2.5530     1.8060    -0.2650 H     1 <1>   0.0800 
 26 H        4.2110    -1.3550    -0.9300 H     1 <1>   0.0800 
 27 H        4.3670    -1.7390     0.7790 H     1 <1>   0.0800 
 28 H        2.1280    -2.4160    -1.8160 H     1 <1>   0.0800 
 29 H        0.8460    -2.8000    -0.7120 H     1 <1>   0.0800 
 30 H        1.0490    -4.6140     0.8710 H     1 <1>   0.1500 
 31 H        6.4300    -0.6450     0.1220 H     1 <1>   0.1500 
 32 H        5.3950    -5.4280    -1.0580 H     1 <1>   0.1500 
 33 H        2.2230    -6.7120     1.4720 H     1 <1>   0.1500 
 34 H        8.4080     0.7830    -0.1700 H     1 <1>   0.1500 
 35 H        4.4620    -7.0980     0.4550 H     1 <1>   0.1500 
 36 H        6.5340     4.9440     0.7480 H     1 <1>   0.0800 
 37 H        4.9600     4.8140    -0.0040 H     1 <1>   0.0800 
 38 H        6.4000     4.8750    -0.9960 H     1 <1>   0.0800 
@<TRIPOS>BOND
  1   1   2  1   
  2   1  21  1   
  3   2   3  1   
  4   2   4  1   
  5   2  22  1   
  6   3   5  1   
  7   3   6  1   
  8   3  23  1   
  9   4   7  1   
 10   4  24  1   
 11   4  25  1   
 12   5   7  1   
 13   5  26  1   
 14   5  27  1   
 15   6   8  1   
 16   6  28  1   
 17   6  29  1   
 18   7   9  1   
 19   8  10  ar  
 20   8  11  ar  
 21   9  12  ar  
 22   9  13  ar  
 23  10  14  ar  
 24  11  15  ar  
 25  11  30  1   
 26  12  16  ar  
 27  13  17  ar  
 28  13  31  1   
 29  14  18  ar  
 30  14  32  1   
 31  15  18  ar  
 32  15  33  1   
 33  16  19  ar  
 34  16  20  1   
 35  17  19  ar  
 36  17  34  1   
 37  18  35  1   
 38  20  36  1   
 39  20  37  1   
 40  20  38  1   
@<TRIPOS>SUBSTRUCTURE
  1 ****   5 GROUP 4 **** **** 0

# MOE 2024.06 (io_trps.svl 2023.06)
