@<TRIPOS>MOLECULE
NONAME
45 47 1 0 0 
SMALL
USER_CHARGES


@<TRIPOS>ATOM
  1 S       -0.0130     0.3310    -0.1510 S.o2  1 <1>   1.3330 
  2 O       -0.4840    -0.0230     1.1690 O.2   1 <1>  -0.6500 
  3 O       -0.3720     1.6120    -0.7150 O.2   1 <1>  -0.6500 
  4 N       -0.5220    -0.8820    -1.2230 N.am  1 <1>  -0.8490 
  5 C        1.7730     0.1810    -0.2200 C.3   1 <1>  -0.0550 
  6 C       -1.7940    -0.5530    -1.8740 C.3   1 <1>   0.1160 
  7 C       -0.6090    -2.2090    -0.6030 C.3   1 <1>   0.1160 
  8 C        2.5170     1.2230     0.6390 C.3   1 <1>  -0.0800 
  9 C        4.0080     1.1970     0.3550 C.3   1 <1>   0.2200 
 10 C        2.4710     0.8820     2.1340 C.3   1 <1>   0.1200 
 11 N        4.5950     2.5030     0.7280 N.am  1 <1>  -0.7300 
 12 C        4.4930     0.1220     1.3200 C.3   1 <1>   0.1200 
 13 O        3.6480     0.1870     2.4300 O.3   1 <1>  -0.5600 
 14 C        4.8800     3.5120    -0.1470 C.2   1 <1>   0.5440 
 15 O        4.6430     3.3190    -1.3260 O.2   1 <1>  -0.5700 
 16 C        5.4200     4.7780     0.3220 C.ar  1 <1>   0.0860 
 17 C        5.3270     5.9440    -0.4620 C.ar  1 <1>  -0.1520 
 18 C        6.0470     4.9230     1.5550 C.ar  1 <1>  -0.1500 
 19 N        4.7870     6.1090    -1.7100 N.pl3 1 <1>   0.0330 
 20 C        5.8090     7.1760    -0.0310 C.ar  1 <1>   0.0000 
 21 C        6.5390     6.1530     1.9990 C.ar  1 <1>  -0.1500 
 22 C        4.9160     7.4230    -2.0650 C.2   1 <1>  -0.3020 
 23 C        6.4220     7.2790     1.2170 C.ar  1 <1>  -0.1500 
 24 C        5.5320     8.0970    -1.0650 C.2   1 <1>  -0.1500 
 25 H        2.0610    -0.8070     0.0830 H     1 <1>   0.0800 
 26 H        2.0710     0.3100    -1.2430 H     1 <1>   0.0800 
 27 H       -2.0790    -1.3350    -2.5560 H     1 <1>   0.0800 
 28 H       -1.6950     0.3620    -2.4350 H     1 <1>   0.0800 
 29 H       -2.5690    -0.4240    -1.1370 H     1 <1>   0.0800 
 30 H       -0.8440    -2.9510    -1.3470 H     1 <1>   0.0800 
 31 H       -1.3750    -2.2200     0.1570 H     1 <1>   0.0800 
 32 H        0.3300    -2.4700    -0.1480 H     1 <1>   0.0800 
 33 H        2.1000     2.1970     0.4420 H     1 <1>   0.0800 
 34 H        4.2460     0.9610    -0.6690 H     1 <1>   0.0800 
 35 H        1.6310     0.2720     2.4140 H     1 <1>   0.0800 
 36 H        2.4680     1.7800     2.7270 H     1 <1>   0.0800 
 37 H        4.6500     2.6680     1.7350 H     1 <1>   0.3700 
 38 H        5.5130     0.2720     1.6300 H     1 <1>   0.0800 
 39 H        4.3850    -0.8550     0.8850 H     1 <1>   0.0800 
 40 H        6.1710     4.0710     2.1990 H     1 <1>   0.1500 
 41 H        4.3890     5.3340    -2.2600 H     1 <1>   0.2700 
 42 H        7.0150     6.2150     2.9630 H     1 <1>   0.1500 
 43 H        4.5610     7.7930    -3.0100 H     1 <1>   0.1500 
 44 H        6.7940     8.2330     1.5440 H     1 <1>   0.1500 
 45 H        5.7860     9.1420    -1.0260 H     1 <1>   0.1500 
@<TRIPOS>BOND
  1   1   2  2   
  2   1   3  2   
  3   1   4  am  
  4   1   5  1   
  5   4   6  1   
  6   4   7  1   
  7   5   8  1   
  8   5  25  1   
  9   5  26  1   
 10   6  27  1   
 11   6  28  1   
 12   6  29  1   
 13   7  30  1   
 14   7  31  1   
 15   7  32  1   
 16   8   9  1   
 17   8  10  1   
 18   8  33  1   
 19   9  11  1   
 20   9  12  1   
 21   9  34  1   
 22  10  13  1   
 23  10  35  1   
 24  10  36  1   
 25  11  14  am  
 26  11  37  1   
 27  12  13  1   
 28  12  38  1   
 29  12  39  1   
 30  14  15  2   
 31  14  16  1   
 32  16  17  ar  
 33  16  18  ar  
 34  17  19  1   
 35  17  20  ar  
 36  18  21  ar  
 37  18  40  1   
 38  19  22  1   
 39  19  41  1   
 40  20  23  ar  
 41  20  24  1   
 42  21  23  ar  
 43  21  42  1   
 44  22  24  2   
 45  22  43  1   
 46  23  44  1   
 47  24  45  1   
@<TRIPOS>SUBSTRUCTURE
  1 ****  11 GROUP 4 **** **** 0

# MOE 2024.06 (io_trps.svl 2023.06)
