@<TRIPOS>MOLECULE
NONAME
51 53 1 0 0 
SMALL
USER_CHARGES


@<TRIPOS>ATOM
  1 O        2.8650    -0.4690    -1.9250 O.2   1 <1>  -0.5700 
  2 C        2.1440    -1.0080    -1.1210 C.2   1 <1>   0.5690 
  3 N        1.5080    -0.3650    -0.1000 N.am  1 <1>  -0.5470 
  4 C        1.8840    -2.5110    -1.2390 C.3   1 <1>   0.1710 
  5 C        1.4230     0.9990     0.2080 C.ar  1 <1>   0.1170 
  6 N        0.5550    -2.9330    -0.6980 N.3   1 <1>  -0.8100 
  7 C        2.5380     1.7990     0.4750 C.ar  1 <1>  -0.1440 
  8 C        0.1560     1.5660     0.2730 C.ar  1 <1>  -0.1500 
  9 C        0.5240    -4.3840    -0.4620 C.3   1 <1>   0.1100 
 10 C       -0.5370    -2.4890    -1.5840 C.3   1 <1>   0.1100 
 11 C        2.3570     3.1380     0.7790 C.ar  1 <1>  -0.1500 
 12 C        3.9570     1.2470     0.4520 C.3   1 <1>  -0.0970 
 13 C       -0.0220     2.9030     0.5820 C.ar  1 <1>  -0.1440 
 14 C       -0.7930    -4.7650     0.2200 C.3   1 <1>  -0.1600 
 15 C       -1.8850    -2.8080    -0.9330 C.3   1 <1>  -0.1600 
 16 C        1.0890     3.6890     0.8330 C.ar  1 <1>  -0.1500 
 17 C       -1.4100     3.5140     0.6430 C.3   1 <1>  -0.0970 
 18 C       -2.0200    -4.2910    -0.5690 C.3   1 <1>   0.4240 
 19 O       -2.0140    -4.9910    -1.7620 O.3   1 <1>  -0.6800 
 20 C       -3.3280    -4.5660     0.1980 C.ar  1 <1>  -0.1440 
 21 C       -4.3250    -5.4010    -0.2980 C.ar  1 <1>  -0.1500 
 22 C       -3.5410    -3.9650     1.4360 C.ar  1 <1>  -0.1500 
 23 C       -5.4900    -5.6280     0.4140 C.ar  1 <1>  -0.1500 
 24 C       -4.7040    -4.1890     2.1520 C.ar  1 <1>  -0.1500 
 25 C       -5.6820    -5.0220     1.6420 C.ar  1 <1>  -0.1500 
 26 H        0.8380    -0.9790     0.3700 H     1 <1>   0.3700 
 27 H        2.6660    -3.0050    -0.6920 H     1 <1>   0.0800 
 28 H        1.9710    -2.7990    -2.2720 H     1 <1>   0.0800 
 29 H       -0.6990     0.9490     0.0700 H     1 <1>   0.1500 
 30 H        1.3400    -4.6610     0.1850 H     1 <1>   0.0800 
 31 H        0.6370    -4.9160    -1.3920 H     1 <1>   0.0800 
 32 H       -0.4580    -2.9720    -2.5430 H     1 <1>   0.0800 
 33 H       -0.4740    -1.4250    -1.7440 H     1 <1>   0.0800 
 34 H        3.2080     3.7650     0.9770 H     1 <1>   0.1500 
 35 H        3.9820     0.2470     0.8430 H     1 <1>   0.0800 
 36 H        4.6130     1.8550     1.0490 H     1 <1>   0.0800 
 37 H        4.3250     1.2370    -0.5580 H     1 <1>   0.0800 
 38 H       -0.7980    -4.3190     1.1960 H     1 <1>   0.0800 
 39 H       -0.8480    -5.8300     0.3570 H     1 <1>   0.0800 
 40 H       -2.6910    -2.5270    -1.5880 H     1 <1>   0.0800 
 41 H       -1.9740    -2.2090    -0.0460 H     1 <1>   0.0800 
 42 H        0.9720     4.7310     1.0700 H     1 <1>   0.1500 
 43 H       -2.1660     2.7500     0.6290 H     1 <1>   0.0800 
 44 H       -1.5580     4.1630    -0.2000 H     1 <1>   0.0800 
 45 H       -1.5210     4.0860     1.5470 H     1 <1>   0.0800 
 46 H       -1.1840    -4.7920    -2.2260 H     1 <1>   0.4000 
 47 H       -4.2080    -5.8890    -1.2500 H     1 <1>   0.1500 
 48 H       -2.7990    -3.3120     1.8590 H     1 <1>   0.1500 
 49 H       -6.2460    -6.2780     0.0110 H     1 <1>   0.1500 
 50 H       -4.8500    -3.7160     3.1070 H     1 <1>   0.1500 
 51 H       -6.5870    -5.1990     2.1960 H     1 <1>   0.1500 
@<TRIPOS>BOND
  1   1   2  2   
  2   2   3  am  
  3   2   4  1   
  4   3   5  1   
  5   3  26  1   
  6   4   6  1   
  7   4  27  1   
  8   4  28  1   
  9   5   7  ar  
 10   5   8  ar  
 11   6   9  1   
 12   6  10  1   
 13   7  11  ar  
 14   7  12  1   
 15   8  13  ar  
 16   8  29  1   
 17   9  14  1   
 18   9  30  1   
 19   9  31  1   
 20  10  15  1   
 21  10  32  1   
 22  10  33  1   
 23  11  16  ar  
 24  11  34  1   
 25  12  35  1   
 26  12  36  1   
 27  12  37  1   
 28  13  16  ar  
 29  13  17  1   
 30  14  18  1   
 31  14  38  1   
 32  14  39  1   
 33  15  18  1   
 34  15  40  1   
 35  15  41  1   
 36  16  42  1   
 37  17  43  1   
 38  17  44  1   
 39  17  45  1   
 40  18  19  1   
 41  18  20  1   
 42  19  46  1   
 43  20  21  ar  
 44  20  22  ar  
 45  21  23  ar  
 46  21  47  1   
 47  22  24  ar  
 48  22  48  1   
 49  23  25  ar  
 50  23  49  1   
 51  24  25  ar  
 52  24  50  1   
 53  25  51  1   
@<TRIPOS>SUBSTRUCTURE
  1 ****  10 GROUP 4 **** **** 0

# MOE 2024.06 (io_trps.svl 2023.06)
