@<TRIPOS>MOLECULE
NONAME
51 53 1 0 0 
SMALL
USER_CHARGES


@<TRIPOS>ATOM
  1 S        2.3100     0.2060     2.0610 S.3   1 <1>  -0.0800 
  2 C        2.6530     1.4690     0.8950 C.2   1 <1>  -0.1100 
  3 C        3.1540    -0.9800     1.0840 C.2   1 <1>  -0.1100 
  4 C        3.3710     0.9890    -0.1400 C.2   1 <1>  -0.1810 
  5 C        3.6480    -0.4130    -0.0320 C.2   1 <1>  -0.1500 
  6 C        3.8750     1.7840    -1.3400 C.3   1 <1>   0.0820 
  7 C        3.8760     3.2990    -1.1400 C.2   1 <1>   0.5690 
  8 O        3.2450     3.9550    -1.9320 O.2   1 <1>  -0.5700 
  9 N        4.6020     3.9120    -0.1380 N.am  1 <1>  -0.6600 
 10 C        5.6380     3.2300     0.6950 C.3   1 <1>   0.1400 
 11 C        4.3560     5.3450     0.1980 C.3   1 <1>   0.1400 
 12 C        7.0180     3.2900     0.0120 C.3   1 <1>   0.3430 
 13 C        5.6330     6.1880     0.1160 C.3   1 <1>  -0.1600 
 14 N        7.5810     4.6750    -0.1510 N.4   1 <1>  -0.9590 
 15 C        6.6800     5.6420    -0.8550 C.3   1 <1>   0.3430 
 16 C        8.8980     4.6370    -0.8190 C.3   1 <1>   0.5230 
 17 C        9.6280     5.8720    -0.3520 C.2   1 <1>  -0.3320 
 18 N       10.3600     5.9460     0.7990 N.pl3 1 <1>   0.0480 
 19 C        9.6810     7.0720    -0.9860 C.2   1 <1>  -0.1500 
 20 C       10.8460     7.2030     0.8770 C.2   1 <1>  -0.3020 
 21 C       10.6500     4.8750     1.7740 C.3   1 <1>   0.0160 
 22 C       10.4530     7.9510    -0.2050 C.2   1 <1>  -0.0860 
 23 C       10.7210     9.3240    -0.5440 C.2   1 <1>   0.5950 
 24 O       10.2380     9.8690    -1.5030 O.2   1 <1>  -0.5700 
 25 C       11.6430    10.1320     0.3410 C.3   1 <1>  -0.1790 
 26 H        2.2710     2.4520     1.1140 H     1 <1>   0.1500 
 27 H        3.1860    -1.9900     1.4530 H     1 <1>   0.1500 
 28 H        4.1980    -0.9390    -0.7940 H     1 <1>   0.1500 
 29 H        3.2530     1.5490    -2.1850 H     1 <1>   0.0800 
 30 H        4.8730     1.4750    -1.5830 H     1 <1>   0.0800 
 31 H        5.3740     2.2000     0.8480 H     1 <1>   0.0800 
 32 H        5.6860     3.6860     1.6690 H     1 <1>   0.0800 
 33 H        3.9340     5.4120     1.1870 H     1 <1>   0.0800 
 34 H        3.6270     5.7600    -0.4790 H     1 <1>   0.0800 
 35 H        6.9300     2.8240    -0.9560 H     1 <1>   0.0800 
 36 H        7.7050     2.6980     0.5940 H     1 <1>   0.0800 
 37 H        6.0570     6.3210     1.0950 H     1 <1>   0.0800 
 38 H        5.3420     7.1670    -0.2220 H     1 <1>   0.0800 
 39 H        7.7710     5.0900     0.7670 H     1 <1>   0.4500 
 40 H        7.2610     6.4750    -1.2150 H     1 <1>   0.0800 
 41 H        6.1990     5.1790    -1.7030 H     1 <1>   0.0800 
 42 H        8.7790     4.6490    -1.8900 H     1 <1>   0.0800 
 43 H        9.4540     3.7580    -0.5370 H     1 <1>   0.0800 
 44 H        9.2370     7.3690    -1.9240 H     1 <1>   0.1500 
 45 H       11.4640     7.5290     1.6960 H     1 <1>   0.1500 
 46 H        9.7430     4.5680     2.2590 H     1 <1>   0.0800 
 47 H       11.3370     5.2430     2.5150 H     1 <1>   0.0800 
 48 H       11.1010     4.0400     1.2680 H     1 <1>   0.0800 
 49 H       12.5860     9.6290     0.4400 H     1 <1>   0.0800 
 50 H       11.1980    10.2560     1.3100 H     1 <1>   0.0800 
 51 H       11.8100    11.1010    -0.0940 H     1 <1>   0.0800 
@<TRIPOS>BOND
  1   1   2  1   
  2   1   3  1   
  3   2   4  2   
  4   2  26  1   
  5   3   5  2   
  6   3  27  1   
  7   4   5  1   
  8   4   6  1   
  9   5  28  1   
 10   6   7  1   
 11   6  29  1   
 12   6  30  1   
 13   7   8  2   
 14   7   9  am  
 15   9  10  1   
 16   9  11  1   
 17  10  12  1   
 18  10  31  1   
 19  10  32  1   
 20  11  13  1   
 21  11  33  1   
 22  11  34  1   
 23  12  14  1   
 24  12  35  1   
 25  12  36  1   
 26  13  15  1   
 27  13  37  1   
 28  13  38  1   
 29  14  15  1   
 30  14  16  1   
 31  14  39  1   
 32  15  40  1   
 33  15  41  1   
 34  16  17  1   
 35  16  42  1   
 36  16  43  1   
 37  17  18  1   
 38  17  19  2   
 39  18  20  1   
 40  18  21  1   
 41  19  22  1   
 42  19  44  1   
 43  20  22  2   
 44  20  45  1   
 45  21  46  1   
 46  21  47  1   
 47  21  48  1   
 48  22  23  1   
 49  23  24  2   
 50  23  25  1   
 51  25  49  1   
 52  25  50  1   
 53  25  51  1   
@<TRIPOS>SUBSTRUCTURE
  1 ****  14 GROUP 4 **** **** 0

# MOE 2024.06 (io_trps.svl 2023.06)
