@<TRIPOS>MOLECULE
NONAME
54 57 1 0 0 
SMALL
USER_CHARGES


@<TRIPOS>ATOM
  1 F       -0.6790     0.2100     0.5970 F     1 <1>  -0.3400 
  2 C        0.3160    -0.6540     0.4240 C.3   1 <1>   1.2000 
  3 F        1.1730    -0.4140     1.4110 F     1 <1>  -0.3400 
  4 F        0.9280    -0.3040    -0.7010 F     1 <1>  -0.3400 
  5 C       -0.1910    -2.1080     0.4580 C.2   1 <1>   0.0060 
  6 N       -0.1460    -2.9920    -0.4920 N.2   1 <1>  -0.5650 
  7 N       -0.7670    -2.5850     1.5950 N.pl3 1 <1>   0.0330 
  8 C       -0.7110    -4.1100     0.0410 C.ar  1 <1>   0.2270 
  9 C       -1.1100    -3.8700     1.3410 C.ar  1 <1>  -0.1520 
 10 C       -0.9130    -5.3590    -0.5330 C.ar  1 <1>  -0.1500 
 11 C       -1.7190    -4.8690     2.1000 C.ar  1 <1>  -0.1500 
 12 C       -1.5240    -6.3740     0.1880 C.ar  1 <1>   0.0860 
 13 C       -1.9150    -6.1000     1.5180 C.ar  1 <1>  -0.1500 
 14 C       -1.7590    -7.6780    -0.4030 C.2   1 <1>   0.5440 
 15 O       -0.9790    -8.1310    -1.2200 O.2   1 <1>  -0.5700 
 16 N       -2.8460    -8.4480    -0.0500 N.am  1 <1>  -0.6600 
 17 C       -4.2440    -8.1230    -0.4520 C.3   1 <1>   0.2200 
 18 C       -2.6190    -9.9020     0.1740 C.3   1 <1>   0.0600 
 19 C       -4.4500    -6.8020    -1.1970 C.3   1 <1>  -0.1600 
 20 C       -5.1640    -8.0030     0.7590 C.3   1 <1>  -0.1600 
 21 C       -5.9470    -6.5100    -1.0350 C.3   1 <1>  -0.0800 
 22 C       -6.3920    -7.2450     0.2340 C.3   1 <1>  -0.0800 
 23 C       -6.3080    -5.0320    -0.8160 C.3   1 <1>  -0.1600 
 24 C       -6.9490    -6.1620     1.1690 C.3   1 <1>  -0.1600 
 25 C       -7.4130    -5.0300     0.2460 C.3   1 <1>   0.4230 
 26 N       -8.7430    -5.3500    -0.3700 N.4   1 <1>  -0.9590 
 27 C       -9.1770    -4.3200    -1.3680 C.3   1 <1>   0.2630 
 28 C       -9.8310    -5.5100     0.6480 C.3   1 <1>   0.2630 
 29 H       -0.9050    -2.0840     2.4790 H     1 <1>   0.2700 
 30 H       -0.5850    -5.5240    -1.5430 H     1 <1>   0.1500 
 31 H       -2.0170    -4.6770     3.1170 H     1 <1>   0.1500 
 32 H       -2.3720    -6.8920     2.0850 H     1 <1>   0.1500 
 33 H       -4.6120    -8.9140    -1.0860 H     1 <1>   0.0800 
 34 H       -3.2570   -10.2620     0.9610 H     1 <1>   0.0800 
 35 H       -1.5930   -10.0750     0.4530 H     1 <1>   0.0800 
 36 H       -2.8220   -10.4470    -0.7320 H     1 <1>   0.0800 
 37 H       -3.8860    -6.0190    -0.7320 H     1 <1>   0.0800 
 38 H       -4.1660    -6.8860    -2.2310 H     1 <1>   0.0800 
 39 H       -5.4330    -8.9700     1.1450 H     1 <1>   0.0800 
 40 H       -4.6640    -7.4390     1.5250 H     1 <1>   0.0800 
 41 H       -6.4850    -6.9090    -1.8800 H     1 <1>   0.0800 
 42 H       -7.1660    -7.9500    -0.0250 H     1 <1>   0.0800 
 43 H       -6.5560    -4.5330    -1.7330 H     1 <1>   0.0800 
 44 H       -5.4640    -4.5140    -0.3930 H     1 <1>   0.0800 
 45 H       -6.1500    -5.7700     1.7740 H     1 <1>   0.0800 
 46 H       -7.6970    -6.5410     1.8380 H     1 <1>   0.0800 
 47 H       -7.4580    -4.0870     0.7690 H     1 <1>   0.0800 
 48 H       -8.6190    -6.2470    -0.8610 H     1 <1>   0.4500 
 49 H       -9.2310    -3.3480    -0.9050 H     1 <1>   0.0800 
 50 H      -10.1510    -4.5680    -1.7600 H     1 <1>   0.0800 
 51 H       -8.4880    -4.2710    -2.1940 H     1 <1>   0.0800 
 52 H       -9.9220    -4.6170     1.2440 H     1 <1>   0.0800 
 53 H       -9.6260    -6.3420     1.3010 H     1 <1>   0.0800 
 54 H      -10.7740    -5.6950     0.1590 H     1 <1>   0.0800 
@<TRIPOS>BOND
  1   1   2  1   
  2   2   3  1   
  3   2   4  1   
  4   2   5  1   
  5   5   6  2   
  6   5   7  1   
  7   6   8  1   
  8   7   9  1   
  9   7  29  1   
 10   8   9  ar  
 11   8  10  ar  
 12   9  11  ar  
 13  10  12  ar  
 14  10  30  1   
 15  11  13  ar  
 16  11  31  1   
 17  12  13  ar  
 18  12  14  1   
 19  13  32  1   
 20  14  15  2   
 21  14  16  am  
 22  16  17  1   
 23  16  18  1   
 24  17  19  1   
 25  17  20  1   
 26  17  33  1   
 27  18  34  1   
 28  18  35  1   
 29  18  36  1   
 30  19  21  1   
 31  19  37  1   
 32  19  38  1   
 33  20  22  1   
 34  20  39  1   
 35  20  40  1   
 36  21  22  1   
 37  21  23  1   
 38  21  41  1   
 39  22  24  1   
 40  22  42  1   
 41  23  25  1   
 42  23  43  1   
 43  23  44  1   
 44  24  25  1   
 45  24  45  1   
 46  24  46  1   
 47  25  26  1   
 48  25  47  1   
 49  26  27  1   
 50  26  28  1   
 51  26  48  1   
 52  27  49  1   
 53  27  50  1   
 54  27  51  1   
 55  28  52  1   
 56  28  53  1   
 57  28  54  1   
@<TRIPOS>SUBSTRUCTURE
  1 ****  12 GROUP 4 **** **** 0

# MOE 2024.06 (io_trps.svl 2023.06)
