@<TRIPOS>MOLECULE
NONAME
38 41 1 0 0 
SMALL
USER_CHARGES


@<TRIPOS>ATOM
  1 O       -0.0520    -0.2530    -0.1820 O.2   1 <1>  -0.5700 
  2 C        1.0530    -0.7470    -0.0340 C.2   1 <1>   0.7160 
  3 N        2.1780     0.0390     0.0100 N.am  1 <1>  -0.4940 
  4 C        1.2450    -2.1800     0.1010 C.2   1 <1>   0.2030 
  5 C        2.3500     1.4380    -0.1240 C.2   1 <1>  -0.0880 
  6 N        2.4310    -2.7630     0.2600 N.2   1 <1>  -0.7070 
  7 C        0.2200    -3.1250     0.0820 C.2   1 <1>  -0.1500 
  8 N        3.5470     2.0850    -0.0570 N.pl3 1 <1>   0.3140 
  9 C        1.4140     2.3910    -0.3430 C.2   1 <1>  -0.1500 
 10 N        2.1570    -4.0770     0.3410 N.pl3 1 <1>   0.6010 
 11 C        0.8110    -4.3320     0.2350 C.2   1 <1>  -0.0260 
 12 N        3.3880     3.4230    -0.2290 N.2   1 <1>  -0.7070 
 13 C        4.8690     1.4340     0.1870 C.3   1 <1>   0.1760 
 14 C        2.1140     3.5880    -0.3970 C.2   1 <1>   0.1390 
 15 C        3.0320    -5.1320     0.5080 C.2   1 <1>  -0.1810 
 16 N        0.2710    -5.6010     0.2870 N.2   1 <1>  -0.5760 
 17 C        6.0180     2.3960     0.5020 C.3   1 <1>  -0.1600 
 18 C        5.3720     0.6510    -1.0310 C.3   1 <1>  -0.1600 
 19 C        2.5150    -6.3870     0.5610 C.2   1 <1>  -0.1360 
 20 C        1.1070    -6.5750     0.4440 C.2   1 <1>   0.3760 
 21 C        7.2760     1.5750     0.2250 C.3   1 <1>  -0.1600 
 22 C        6.9010     0.6150    -0.9090 C.3   1 <1>  -0.1600 
 23 H        3.0130    -0.5380     0.1390 H     1 <1>   0.3700 
 24 H       -0.8300    -2.9200    -0.0330 H     1 <1>   0.1500 
 25 H        0.3510     2.2710    -0.4540 H     1 <1>   0.1500 
 26 H        4.7610     0.7590     1.0170 H     1 <1>   0.0800 
 27 H        1.6590     4.5500    -0.5610 H     1 <1>   0.1500 
 28 H        4.0730    -4.8840     0.5860 H     1 <1>   0.1500 
 29 H        5.9790     2.7500     1.5170 H     1 <1>   0.0800 
 30 H        5.9960     3.2340    -0.1740 H     1 <1>   0.0800 
 31 H        5.1050     1.1810    -1.9300 H     1 <1>   0.0800 
 32 H        4.9580    -0.3410    -1.0640 H     1 <1>   0.0800 
 33 H        3.1290    -7.2600     0.6890 H     1 <1>   0.1500 
 34 H        0.7330    -7.5830     0.4900 H     1 <1>   0.0600 
 35 H        7.5350     1.0090     1.1040 H     1 <1>   0.0800 
 36 H        8.1080     2.2050    -0.0400 H     1 <1>   0.0800 
 37 H        7.3490     0.9350    -1.8350 H     1 <1>   0.0800 
 38 H        7.2470    -0.3800    -0.6840 H     1 <1>   0.0800 
@<TRIPOS>BOND
  1   1   2  2   
  2   2   3  am  
  3   2   4  1   
  4   3   5  1   
  5   3  23  1   
  6   4   6  2   
  7   4   7  1   
  8   5   8  1   
  9   5   9  2   
 10   6  10  1   
 11   7  11  2   
 12   7  24  1   
 13   8  12  1   
 14   8  13  1   
 15   9  14  1   
 16   9  25  1   
 17  10  11  1   
 18  10  15  1   
 19  11  16  1   
 20  12  14  2   
 21  13  17  1   
 22  13  18  1   
 23  13  26  1   
 24  14  27  1   
 25  15  19  2   
 26  15  28  1   
 27  16  20  2   
 28  17  21  1   
 29  17  29  1   
 30  17  30  1   
 31  18  22  1   
 32  18  31  1   
 33  18  32  1   
 34  19  20  1   
 35  19  33  1   
 36  20  34  1   
 37  21  22  1   
 38  21  35  1   
 39  21  36  1   
 40  22  37  1   
 41  22  38  1   
@<TRIPOS>SUBSTRUCTURE
  1 ****   3 GROUP 4 **** **** 0

# MOE 2024.06 (io_trps.svl 2023.06)
