@<TRIPOS>MOLECULE
NONAME
46 48 1 0 0 
SMALL
USER_CHARGES


@<TRIPOS>ATOM
  1 S        0.1290     1.5520    -0.7370 S.3   1 <1>  -0.4600 
  2 C        1.3360     0.2610    -0.4010 C.3   1 <1>   0.0700 
  3 C        0.5550     2.7980     0.4880 C.3   1 <1>   0.0700 
  4 C        2.7300     0.8740    -0.5540 C.3   1 <1>  -0.1600 
  5 C        2.0130     3.1950     0.2510 C.3   1 <1>  -0.1600 
  6 C        3.0040     2.0270     0.4350 C.3   1 <1>   0.4230 
  7 N        4.3930     2.5570     0.2600 N.4   1 <1>  -0.9590 
  8 C        5.4960     1.5550     0.0270 C.3   1 <1>   0.3430 
  9 C        4.8390     3.5190     1.3270 C.3   1 <1>   0.3430 
 10 C        6.8660     2.2450    -0.2010 C.3   1 <1>   0.1100 
 11 C        6.0920     4.2940     0.8650 C.3   1 <1>   0.1100 
 12 N        6.7180     3.7060    -0.3530 N.3   1 <1>  -0.8100 
 13 C        8.0080     4.3600    -0.6740 C.3   1 <1>   0.2530 
 14 C        7.8360     5.8660    -0.7980 C.ar  1 <1>  -0.1430 
 15 C        8.0680     6.6700     0.3060 C.ar  1 <1>  -0.1500 
 16 C        7.4300     6.4480    -1.9870 C.ar  1 <1>  -0.1500 
 17 C        7.8700     8.0500     0.2750 C.ar  1 <1>  -0.1790 
 18 C        7.2580     7.8200    -2.0580 C.ar  1 <1>  -0.1500 
 19 C        8.0510     8.8540     1.4760 C.2   1 <1>   0.9790 
 20 C        7.4740     8.6060    -0.9410 C.ar  1 <1>  -0.1500 
 21 O        8.1090     8.2990     2.5900 O.co2 1 <1>  -0.9000 
 22 O        8.1230    10.0940     1.4140 O.co2 1 <1>  -0.9000 
 23 H        1.1640    -0.5240    -1.1180 H     1 <1>   0.0800 
 24 H        1.1520    -0.1060     0.5950 H     1 <1>   0.0800 
 25 H        0.3940     2.3700     1.4620 H     1 <1>   0.0800 
 26 H       -0.1130     3.6290     0.3370 H     1 <1>   0.0800 
 27 H        2.8400     1.2240    -1.5660 H     1 <1>   0.0800 
 28 H        3.4210     0.0700    -0.3900 H     1 <1>   0.0800 
 29 H        2.2260     3.9860     0.9430 H     1 <1>   0.0800 
 30 H        2.0980     3.5910    -0.7460 H     1 <1>   0.0800 
 31 H        2.9010     1.6410     1.4370 H     1 <1>   0.0800 
 32 H        4.4210     3.1360    -0.5960 H     1 <1>   0.4500 
 33 H        5.2730     0.9690    -0.8490 H     1 <1>   0.0800 
 34 H        5.5710     0.8810     0.8630 H     1 <1>   0.0800 
 35 H        5.0690     2.9820     2.2320 H     1 <1>   0.0800 
 36 H        4.0700     4.2350     1.5580 H     1 <1>   0.0800 
 37 H        7.3210     1.8330    -1.0850 H     1 <1>   0.0800 
 38 H        7.5160     2.0300     0.6310 H     1 <1>   0.0800 
 39 H        6.8030     4.3340     1.6730 H     1 <1>   0.0800 
 40 H        5.7920     5.3070     0.6560 H     1 <1>   0.0800 
 41 H        8.3860     3.9730    -1.6050 H     1 <1>   0.0800 
 42 H        8.7330     4.1470     0.0940 H     1 <1>   0.0800 
 43 H        8.3970     6.2370     1.2350 H     1 <1>   0.1500 
 44 H        7.2460     5.8400    -2.8540 H     1 <1>   0.1500 
 45 H        6.9510     8.2790    -2.9810 H     1 <1>   0.1500 
 46 H        7.3340     9.6740    -0.9910 H     1 <1>   0.1500 
@<TRIPOS>BOND
  1   1   2  1   
  2   1   3  1   
  3   2   4  1   
  4   2  23  1   
  5   2  24  1   
  6   3   5  1   
  7   3  25  1   
  8   3  26  1   
  9   4   6  1   
 10   4  27  1   
 11   4  28  1   
 12   5   6  1   
 13   5  29  1   
 14   5  30  1   
 15   6   7  1   
 16   6  31  1   
 17   7   8  1   
 18   7   9  1   
 19   7  32  1   
 20   8  10  1   
 21   8  33  1   
 22   8  34  1   
 23   9  11  1   
 24   9  35  1   
 25   9  36  1   
 26  10  12  1   
 27  10  37  1   
 28  10  38  1   
 29  11  12  1   
 30  11  39  1   
 31  11  40  1   
 32  12  13  1   
 33  13  14  1   
 34  13  41  1   
 35  13  42  1   
 36  14  15  ar  
 37  14  16  ar  
 38  15  17  ar  
 39  15  43  1   
 40  16  18  ar  
 41  16  44  1   
 42  17  19  1   
 43  17  20  ar  
 44  18  20  ar  
 45  18  45  1   
 46  19  21  ar  
 47  19  22  ar  
 48  20  46  1   
@<TRIPOS>SUBSTRUCTURE
  1 ****  11 GROUP 4 **** **** 0

# MOE 2024.06 (io_trps.svl 2023.06)
