@<TRIPOS>MOLECULE
NONAME
43 45 1 0 0 
SMALL
USER_CHARGES


@<TRIPOS>ATOM
  1 F       -1.1860    -2.6140    -2.4450 F     1 <1>  -0.1900 
  2 C       -1.9110    -2.5200    -1.3640 C.ar  1 <1>   0.1900 
  3 C       -2.3460    -1.2800    -0.9280 C.ar  1 <1>  -0.1440 
  4 C       -2.2120    -3.6960    -0.7030 C.ar  1 <1>  -0.1500 
  5 C       -3.1170    -1.2470     0.2320 C.ar  1 <1>  -0.1500 
  6 C       -1.9750    -0.0200    -1.7120 C.3   1 <1>   1.1640 
  7 C       -2.9860    -3.6470     0.4470 C.ar  1 <1>  -0.1440 
  8 C       -3.4310    -2.4150     0.9090 C.ar  1 <1>  -0.1500 
  9 F       -2.4670     1.0850    -1.1640 F     1 <1>  -0.3400 
 10 F       -0.6640     0.1650    -1.7900 F     1 <1>  -0.3400 
 11 F       -2.4340    -0.0430    -2.9570 F     1 <1>  -0.3400 
 12 C       -3.3490    -4.9230     1.1850 C.3   1 <1>   0.4870 
 13 N       -4.2870    -5.6980     0.3410 N.4   1 <1>  -0.9590 
 14 C       -5.5740    -4.9880     0.0450 C.3   1 <1>   0.3430 
 15 C       -4.6580    -7.0180     0.9040 C.3   1 <1>   0.3430 
 16 C       -6.6940    -6.0150     0.2810 C.3   1 <1>   0.2000 
 17 C       -5.9740    -7.3610     0.2020 C.3   1 <1>  -0.0800 
 18 O       -7.1530    -5.8530     1.5820 O.3   1 <1>  -0.6800 
 19 C       -5.8130    -7.8160    -1.2760 C.3   1 <1>  -0.0160 
 20 C       -4.4300    -8.3420    -1.6420 C.ar  1 <1>   0.1670 
 21 N       -3.4910    -7.4270    -1.8610 N.ar  1 <1>  -0.6200 
 22 C       -4.2080    -9.7150    -1.7410 C.ar  1 <1>   0.1600 
 23 C       -2.3380    -7.9800    -2.2150 C.ar  1 <1>   0.1600 
 24 N       -3.0490   -10.2590    -2.0620 N.ar  1 <1>  -0.6200 
 25 C       -2.1240    -9.3500    -2.3090 C.ar  1 <1>   0.1600 
 26 H       -1.8380    -4.6250    -1.0970 H     1 <1>   0.1500 
 27 H       -3.4800    -0.3080     0.6210 H     1 <1>   0.1500 
 28 H       -4.0280    -2.3490     1.8050 H     1 <1>   0.1500 
 29 H       -3.8110    -4.6850     2.1290 H     1 <1>   0.0800 
 30 H       -2.4570    -5.4980     1.3720 H     1 <1>   0.0800 
 31 H       -3.8260    -5.9100    -0.5660 H     1 <1>   0.4500 
 32 H       -5.7180    -4.1340     0.6870 H     1 <1>   0.0800 
 33 H       -5.5760    -4.6640    -0.9830 H     1 <1>   0.0800 
 34 H       -3.8930    -7.7580     0.7290 H     1 <1>   0.0800 
 35 H       -4.8360    -6.9270     1.9640 H     1 <1>   0.0800 
 36 H       -7.5230    -5.8990    -0.3970 H     1 <1>   0.0800 
 37 H       -6.4950    -8.1260     0.7510 H     1 <1>   0.0800 
 38 H       -8.0060    -6.3170     1.7240 H     1 <1>   0.4000 
 39 H       -6.0250    -7.0030    -1.9490 H     1 <1>   0.0800 
 40 H       -6.5490    -8.5730    -1.4860 H     1 <1>   0.0800 
 41 H       -5.0200   -10.3950    -1.5500 H     1 <1>   0.1500 
 42 H       -1.5170    -7.3220    -2.4450 H     1 <1>   0.1500 
 43 H       -1.1500    -9.7050    -2.5990 H     1 <1>   0.1500 
@<TRIPOS>BOND
  1   1   2  1   
  2   2   3  ar  
  3   2   4  ar  
  4   3   5  ar  
  5   3   6  1   
  6   4   7  ar  
  7   4  26  1   
  8   5   8  ar  
  9   5  27  1   
 10   6   9  1   
 11   6  10  1   
 12   6  11  1   
 13   7   8  ar  
 14   7  12  1   
 15   8  28  1   
 16  12  13  1   
 17  12  29  1   
 18  12  30  1   
 19  13  14  1   
 20  13  15  1   
 21  13  31  1   
 22  14  16  1   
 23  14  32  1   
 24  14  33  1   
 25  15  17  1   
 26  15  34  1   
 27  15  35  1   
 28  16  17  1   
 29  16  18  1   
 30  16  36  1   
 31  17  19  1   
 32  17  37  1   
 33  18  38  1   
 34  19  20  1   
 35  19  39  1   
 36  19  40  1   
 37  20  21  ar  
 38  20  22  ar  
 39  21  23  ar  
 40  22  24  ar  
 41  22  41  1   
 42  23  25  ar  
 43  23  42  1   
 44  24  25  ar  
 45  25  43  1   
@<TRIPOS>SUBSTRUCTURE
  1 ****  13 GROUP 4 **** **** 0

# MOE 2024.06 (io_trps.svl 2023.06)
