@<TRIPOS>MOLECULE
NONAME
43 46 1 0 0 
SMALL
USER_CHARGES


@<TRIPOS>ATOM
  1 O        2.5930     0.7070     2.9720 O.2   1 <1>  -0.5700 
  2 C        2.6490    -0.2540     2.2150 C.2   1 <1>   0.5650 
  3 N        3.1190    -0.1600     0.8750 N.pl3 1 <1>   0.5610 
  4 C        2.2300    -1.5420     2.6640 C.2   1 <1>  -0.1360 
  5 N        3.5750     0.9230     0.1560 N.2   1 <1>  -0.7070 
  6 C        3.1480    -1.2780     0.0760 C.2   1 <1>  -0.0680 
  7 C        2.2720    -2.6420     1.8650 C.2   1 <1>  -0.0380 
  8 C        3.8610     0.4610    -1.0180 C.2   1 <1>   0.1080 
  9 N        2.7270    -2.5200     0.5740 N.pl3 1 <1>  -0.5840 
 10 C        3.6160    -0.9030    -1.1350 C.2   1 <1>  -0.1500 
 11 C        1.8480    -4.0400     2.3150 C.3   1 <1>   0.2480 
 12 C        4.4010     1.3450    -2.1180 C.3   1 <1>  -0.0590 
 13 N        1.1400    -4.7620     1.2390 N.3   1 <1>  -0.8100 
 14 C        0.9860    -6.1950     1.5860 C.3   1 <1>   0.1100 
 15 C       -0.1920    -4.1680     0.9670 C.3   1 <1>   0.1100 
 16 C        0.2440    -6.9880     0.4930 C.3   1 <1>   0.2090 
 17 C       -0.9590    -4.9260    -0.1360 C.3   1 <1>   0.2090 
 18 N       -1.0870    -6.3760     0.1950 N.pl3 1 <1>  -0.8380 
 19 C       -2.0250    -7.1220    -0.5060 C.ar  1 <1>   0.4100 
 20 N       -1.5650    -8.0770    -1.3060 N.ar  1 <1>  -0.6200 
 21 C       -3.4010    -6.8610    -0.3690 C.ar  1 <1>   0.1600 
 22 C       -2.5320    -8.7180    -1.9400 C.ar  1 <1>   0.1600 
 23 N       -4.3680    -7.4960    -1.0050 N.ar  1 <1>  -0.6200 
 24 C       -3.8850    -8.4390    -1.7990 C.ar  1 <1>   0.1600 
 25 H        1.8830    -1.5900     3.6780 H     1 <1>   0.1500 
 26 H        2.6590    -3.3530    -0.0340 H     1 <1>   0.4000 
 27 H        3.7740    -1.5100    -2.0070 H     1 <1>   0.1500 
 28 H        1.2290    -3.9810     3.1940 H     1 <1>   0.0800 
 29 H        2.7410    -4.5850     2.5700 H     1 <1>   0.0800 
 30 H        3.6970     2.1290    -2.3260 H     1 <1>   0.0800 
 31 H        4.5700     0.7750    -3.0130 H     1 <1>   0.0800 
 32 H        5.3280     1.7850    -1.8000 H     1 <1>   0.0800 
 33 H        0.4390    -6.2920     2.5080 H     1 <1>   0.0800 
 34 H        1.9580    -6.6350     1.7240 H     1 <1>   0.0800 
 35 H       -0.0730    -3.1450     0.6560 H     1 <1>   0.0800 
 36 H       -0.7870    -4.1760     1.8640 H     1 <1>   0.0800 
 37 H        0.1050    -8.0040     0.8200 H     1 <1>   0.0800 
 38 H        0.8390    -7.0040    -0.4040 H     1 <1>   0.0800 
 39 H       -0.4300    -4.8220    -1.0680 H     1 <1>   0.0800 
 40 H       -1.9340    -4.4890    -0.2560 H     1 <1>   0.0800 
 41 H       -3.6840    -6.0820     0.3120 H     1 <1>   0.1500 
 42 H       -2.2370    -9.5070    -2.6090 H     1 <1>   0.1500 
 43 H       -4.5960    -9.0170    -2.3620 H     1 <1>   0.1500 
@<TRIPOS>BOND
  1   1   2  2   
  2   2   3  1   
  3   2   4  1   
  4   3   5  1   
  5   3   6  1   
  6   4   7  2   
  7   4  25  1   
  8   5   8  2   
  9   6   9  1   
 10   6  10  2   
 11   7   9  1   
 12   7  11  1   
 13   8  10  1   
 14   8  12  1   
 15   9  26  1   
 16  10  27  1   
 17  11  13  1   
 18  11  28  1   
 19  11  29  1   
 20  12  30  1   
 21  12  31  1   
 22  12  32  1   
 23  13  14  1   
 24  13  15  1   
 25  14  16  1   
 26  14  33  1   
 27  14  34  1   
 28  15  17  1   
 29  15  35  1   
 30  15  36  1   
 31  16  18  1   
 32  16  37  1   
 33  16  38  1   
 34  17  18  1   
 35  17  39  1   
 36  17  40  1   
 37  18  19  1   
 38  19  20  ar  
 39  19  21  ar  
 40  20  22  ar  
 41  21  23  ar  
 42  21  41  1   
 43  22  24  ar  
 44  22  42  1   
 45  23  24  ar  
 46  24  43  1   
@<TRIPOS>SUBSTRUCTURE
  1 ****  15 GROUP 4 **** **** 0

# MOE 2024.06 (io_trps.svl 2023.06)
