@<TRIPOS>MOLECULE
NONAME
36 38 1 0 0 
SMALL
USER_CHARGES


@<TRIPOS>ATOM
  1 O       -2.6840     0.8310    -1.8550 O.2   1 <1>  -0.5700 
  2 C       -2.3700     0.7970    -0.6780 C.2   1 <1>   0.7160 
  3 N       -2.1050    -0.4300    -0.1350 N.am  1 <1>  -0.7300 
  4 C       -2.2870     1.9860     0.1630 C.2   1 <1>   0.1410 
  5 C       -2.1790    -1.7260    -0.8470 C.3   1 <1>   0.2200 
  6 N       -2.8360     3.1980    -0.1520 N.2   1 <1>  -0.5650 
  7 C       -1.6780     2.0990     1.3820 C.2   1 <1>  -0.3020 
  8 C       -3.4860    -2.4480    -0.5460 C.3   1 <1>  -0.0800 
  9 C       -1.1830    -2.6850    -0.2120 C.3   1 <1>   0.1200 
 10 C       -2.5490     3.9690     0.8400 C.2   1 <1>   0.0360 
 11 N       -1.8430     3.3570     1.8100 N.pl3 1 <1>   0.0330 
 12 C       -3.1910    -3.1580     0.7820 C.3   1 <1>   0.1200 
 13 C       -4.7570    -1.5770    -0.5320 C.3   1 <1>  -0.0160 
 14 O       -1.8040    -3.1230     0.9580 O.3   1 <1>  -0.5600 
 15 C       -5.9940    -2.4260    -0.2870 C.ar  1 <1>  -0.1430 
 16 C       -6.5840    -3.1580    -1.2980 C.ar  1 <1>  -0.1500 
 17 C       -6.5920    -2.5110     0.9540 C.ar  1 <1>  -0.1500 
 18 C       -7.7060    -3.9230    -1.0250 C.ar  1 <1>   0.1600 
 19 C       -7.7140    -3.3060     1.1210 C.ar  1 <1>   0.1600 
 20 N       -8.2830    -4.0170     0.1620 N.ar  1 <1>  -0.6200 
 21 H       -1.9340    -0.5090     0.8680 H     1 <1>   0.3700 
 22 H       -2.0070    -1.5940    -1.9020 H     1 <1>   0.0800 
 23 H       -1.1430     1.3550     1.9430 H     1 <1>   0.1500 
 24 H       -3.6160    -3.2120    -1.2930 H     1 <1>   0.0800 
 25 H       -0.2430    -2.2180     0.0250 H     1 <1>   0.0800 
 26 H       -1.0200    -3.5420    -0.8420 H     1 <1>   0.0800 
 27 H       -2.8360     5.0050     0.9050 H     1 <1>   0.1500 
 28 H       -1.5070     3.7810     2.6810 H     1 <1>   0.2700 
 29 H       -3.5190    -4.1830     0.7660 H     1 <1>   0.0800 
 30 H       -3.6380    -2.6460     1.6160 H     1 <1>   0.0800 
 31 H       -4.8530    -1.0700    -1.4770 H     1 <1>   0.0800 
 32 H       -4.6900    -0.8220     0.2310 H     1 <1>   0.0800 
 33 H       -6.1820    -3.1390    -2.2940 H     1 <1>   0.1500 
 34 H       -6.1990    -1.9660     1.7930 H     1 <1>   0.1500 
 35 H       -8.1520    -4.4870    -1.8260 H     1 <1>   0.1500 
 36 H       -8.1660    -3.3590     2.0970 H     1 <1>   0.1500 
@<TRIPOS>BOND
  1   1   2  2   
  2   2   3  am  
  3   2   4  1   
  4   3   5  1   
  5   3  21  1   
  6   4   6  1   
  7   4   7  2   
  8   5   8  1   
  9   5   9  1   
 10   5  22  1   
 11   6  10  2   
 12   7  11  1   
 13   7  23  1   
 14   8  12  1   
 15   8  13  1   
 16   8  24  1   
 17   9  14  1   
 18   9  25  1   
 19   9  26  1   
 20  10  11  1   
 21  10  27  1   
 22  11  28  1   
 23  12  14  1   
 24  12  29  1   
 25  12  30  1   
 26  13  15  1   
 27  13  31  1   
 28  13  32  1   
 29  15  16  ar  
 30  15  17  ar  
 31  16  18  ar  
 32  16  33  1   
 33  17  19  ar  
 34  17  34  1   
 35  18  20  ar  
 36  18  35  1   
 37  19  20  ar  
 38  19  36  1   
@<TRIPOS>SUBSTRUCTURE
  1 ****  13 GROUP 4 **** **** 0

# MOE 2024.06 (io_trps.svl 2023.06)
