@<TRIPOS>MOLECULE
NONAME
53 55 1 0 0 
SMALL
USER_CHARGES


@<TRIPOS>ATOM
  1 O        0.2840     0.6290    -1.0920 O.2   1 <1>  -0.5700 
  2 C        0.5310     0.4210     0.0850 C.2   1 <1>   0.5440 
  3 N        1.3340     1.3200     0.7530 N.am  1 <1>  -0.6600 
  4 C       -0.0120    -0.7420     0.7460 C.ar  1 <1>   0.0860 
  5 C        1.8770     2.5300     0.0960 C.3   1 <1>   0.1400 
  6 C        2.0770     1.0190     1.9980 C.3   1 <1>   0.1400 
  7 C        0.1260    -2.0260     0.1860 C.ar  1 <1>   0.4100 
  8 C       -0.6900    -0.6310     1.9530 C.ar  1 <1>  -0.1500 
  9 C        2.8720     3.1090     1.0950 C.3   1 <1>  -0.1600 
 10 C        3.3070     1.9160     1.9410 C.3   1 <1>  -0.1600 
 11 N       -0.3280    -3.1400     0.7630 N.ar  1 <1>  -0.6200 
 12 N        0.7490    -2.1890    -1.0310 N.pl3 1 <1>  -0.8690 
 13 C       -1.1710    -1.7790     2.5390 C.ar  1 <1>  -0.1500 
 14 C       -0.9630    -2.9930     1.9100 C.ar  1 <1>   0.1600 
 15 C        0.8140    -3.4400    -1.8220 C.3   1 <1>   0.2090 
 16 C       -0.5600    -3.7660    -2.4160 C.3   1 <1>  -0.0990 
 17 C       -0.9540    -5.1930    -2.1200 C.2   1 <1>   0.5690 
 18 O       -1.1710    -5.9370    -3.0450 O.2   1 <1>  -0.5700 
 19 N       -1.0360    -5.5670    -0.8110 N.am  1 <1>  -0.5470 
 20 C       -1.3770    -6.8090    -0.2580 C.ar  1 <1>   0.1170 
 21 C       -0.6520    -7.3530     0.8070 C.ar  1 <1>  -0.1430 
 22 C       -2.4660    -7.5140    -0.7590 C.ar  1 <1>  -0.1500 
 23 C       -1.0400    -8.5690     1.3500 C.ar  1 <1>  -0.1500 
 24 C        0.5830    -6.6660     1.3830 C.3   1 <1>  -0.0170 
 25 C       -2.8460    -8.7250    -0.2130 C.ar  1 <1>  -0.1500 
 26 C       -2.1330    -9.2530     0.8470 C.ar  1 <1>  -0.1500 
 27 C        1.8210    -6.9970     0.5470 C.3   1 <1>  -0.2400 
 28 H        1.0880     3.2260    -0.1320 H     1 <1>   0.0800 
 29 H        2.3780     2.2430    -0.8140 H     1 <1>   0.0800 
 30 H        2.3510    -0.0210     2.0510 H     1 <1>   0.0800 
 31 H        1.4660     1.2820     2.8450 H     1 <1>   0.0800 
 32 H       -0.8380     0.3330     2.4080 H     1 <1>   0.1500 
 33 H        2.3670     3.8320     1.7120 H     1 <1>   0.0800 
 34 H        3.7000     3.5870     0.6020 H     1 <1>   0.0800 
 35 H        4.1020     1.3870     1.4440 H     1 <1>   0.0800 
 36 H        3.6390     2.2060     2.9220 H     1 <1>   0.0800 
 37 H        0.8260    -1.3190    -1.5840 H     1 <1>   0.4000 
 38 H       -1.7030    -1.7390     3.4730 H     1 <1>   0.1500 
 39 H       -1.3430    -3.8850     2.3800 H     1 <1>   0.1500 
 40 H        1.1650    -4.2350    -1.1850 H     1 <1>   0.0800 
 41 H        1.5340    -3.3220    -2.6150 H     1 <1>   0.0800 
 42 H       -0.5300    -3.6240    -3.4800 H     1 <1>   0.0800 
 43 H       -1.3190    -3.1200    -2.0150 H     1 <1>   0.0800 
 44 H       -0.7490    -4.8400    -0.1420 H     1 <1>   0.3700 
 45 H       -3.0180    -7.1060    -1.5870 H     1 <1>   0.1500 
 46 H       -0.4880    -8.9970     2.1670 H     1 <1>   0.1500 
 47 H        0.7430    -6.9920     2.3960 H     1 <1>   0.0800 
 48 H        0.4430    -5.6030     1.4140 H     1 <1>   0.0800 
 49 H       -3.6920    -9.2540    -0.6150 H     1 <1>   0.1500 
 50 H       -2.4240   -10.1960     1.2760 H     1 <1>   0.1500 
 51 H        1.9940    -8.0590     0.5460 H     1 <1>   0.0800 
 52 H        2.6860    -6.5030     0.9530 H     1 <1>   0.0800 
 53 H        1.6810    -6.6730    -0.4690 H     1 <1>   0.0800 
@<TRIPOS>BOND
  1   1   2  2   
  2   2   3  am  
  3   2   4  1   
  4   3   5  1   
  5   3   6  1   
  6   4   7  ar  
  7   4   8  ar  
  8   5   9  1   
  9   5  28  1   
 10   5  29  1   
 11   6  10  1   
 12   6  30  1   
 13   6  31  1   
 14   7  11  ar  
 15   7  12  1   
 16   8  13  ar  
 17   8  32  1   
 18   9  10  1   
 19   9  33  1   
 20   9  34  1   
 21  10  35  1   
 22  10  36  1   
 23  11  14  ar  
 24  12  15  1   
 25  12  37  1   
 26  13  14  ar  
 27  13  38  1   
 28  14  39  1   
 29  15  16  1   
 30  15  40  1   
 31  15  41  1   
 32  16  17  1   
 33  16  42  1   
 34  16  43  1   
 35  17  18  2   
 36  17  19  am  
 37  19  20  1   
 38  19  44  1   
 39  20  21  ar  
 40  20  22  ar  
 41  21  23  ar  
 42  21  24  1   
 43  22  25  ar  
 44  22  45  1   
 45  23  26  ar  
 46  23  46  1   
 47  24  27  1   
 48  24  47  1   
 49  24  48  1   
 50  25  26  ar  
 51  25  49  1   
 52  26  50  1   
 53  27  51  1   
 54  27  52  1   
 55  27  53  1   
@<TRIPOS>SUBSTRUCTURE
  1 ****  11 GROUP 4 **** **** 0

# MOE 2024.06 (io_trps.svl 2023.06)
