@<TRIPOS>MOLECULE
NONAME
59 61 1 0 0 
SMALL
USER_CHARGES


@<TRIPOS>ATOM
  1 O        2.3430     0.5950    -0.6170 O.2   1 <1>  -0.5700 
  2 C        3.0650    -0.3600    -0.8210 C.2   1 <1>   0.5690 
  3 N        3.8840    -0.4220    -1.9240 N.am  1 <1>  -0.6600 
  4 C        3.0140    -1.4860     0.2440 C.3   1 <1>   0.4840 
  5 C        4.8380    -1.5390    -2.2180 C.3   1 <1>   0.1400 
  6 C        4.0970     0.7840    -2.7740 C.3   1 <1>   0.1400 
  7 N        2.3420    -1.0460     1.5200 N.4   1 <1>  -0.9590 
  8 C        2.1780    -2.6840    -0.2010 C.3   1 <1>  -0.1600 
  9 C        6.1480    -1.4410    -1.4140 C.3   1 <1>   0.1400 
 10 C        5.2040     1.6800    -2.1960 C.3   1 <1>  -0.1600 
 11 C        1.5170    -2.1550     2.0650 C.3   1 <1>   0.3430 
 12 C        3.3110    -0.4810     2.5000 C.3   1 <1>   0.2630 
 13 C        1.6890    -3.3170     1.0960 C.3   1 <1>  -0.1600 
 14 N        6.4150    -0.0640    -0.9020 N.am  1 <1>  -0.6600 
 15 C        6.5540     0.9860    -1.9500 C.3   1 <1>   0.1400 
 16 C        6.3970     0.2150     0.4430 C.2   1 <1>   0.5690 
 17 O        5.9330    -0.5810     1.2330 O.2   1 <1>  -0.5700 
 18 C        6.9070     1.5570     1.0030 C.3   1 <1>   0.1710 
 19 N        8.3160     1.9080     0.6680 N.3   1 <1>  -0.8100 
 20 C        8.6540     3.2510     1.1730 C.3   1 <1>   0.2530 
 21 C        9.2530     0.8910     1.1760 C.3   1 <1>   0.0300 
 22 C       10.0070     3.7170     0.6520 C.ar  1 <1>  -0.1430 
 23 C       10.9800     4.2230     1.4910 C.ar  1 <1>  -0.1500 
 24 C       10.3310     3.6620    -0.6890 C.ar  1 <1>  -0.1500 
 25 C       12.1920     4.6370     0.9630 C.ar  1 <1>   0.1600 
 26 C       11.5730     4.1010    -1.1140 C.ar  1 <1>   0.1600 
 27 N       12.5130     4.5900    -0.3200 N.ar  1 <1>  -0.6200 
 28 H        4.0170    -1.8090     0.4660 H     1 <1>   0.0800 
 29 H        4.3760    -2.4900    -2.0340 H     1 <1>   0.0800 
 30 H        5.0820    -1.5230    -3.2660 H     1 <1>   0.0800 
 31 H        4.3540     0.4830    -3.7750 H     1 <1>   0.0800 
 32 H        3.1810     1.3480    -2.8350 H     1 <1>   0.0800 
 33 H        1.7260    -0.2760     1.1970 H     1 <1>   0.4500 
 34 H        1.3390    -2.3390    -0.7820 H     1 <1>   0.0800 
 35 H        2.7470    -3.3780    -0.7930 H     1 <1>   0.0800 
 36 H        6.9710    -1.7510    -2.0350 H     1 <1>   0.0800 
 37 H        6.1070    -2.1350    -0.5930 H     1 <1>   0.0800 
 38 H        5.3660     2.4880    -2.8870 H     1 <1>   0.0800 
 39 H        4.8530     2.1240    -1.2820 H     1 <1>   0.0800 
 40 H        1.8390    -2.4360     3.0550 H     1 <1>   0.0800 
 41 H        0.4820    -1.8540     2.1020 H     1 <1>   0.0800 
 42 H        4.0390    -1.2260     2.7810 H     1 <1>   0.0800 
 43 H        2.7970    -0.1420     3.3840 H     1 <1>   0.0800 
 44 H        3.8330     0.3540     2.0630 H     1 <1>   0.0800 
 45 H        2.4350    -3.9880     1.4860 H     1 <1>   0.0800 
 46 H        0.7700    -3.8620     0.9650 H     1 <1>   0.0800 
 47 H        7.2840     1.7150    -1.6460 H     1 <1>   0.0800 
 48 H        6.9120     0.5420    -2.8640 H     1 <1>   0.0800 
 49 H        6.8010     1.5310     2.0730 H     1 <1>   0.0800 
 50 H        6.2580     2.3290     0.6330 H     1 <1>   0.0800 
 51 H        7.9100     3.9550     0.8420 H     1 <1>   0.0800 
 52 H        8.6550     3.2460     2.2500 H     1 <1>   0.0800 
 53 H       10.2620     1.1370     0.8920 H     1 <1>   0.0800 
 54 H        9.0220    -0.0730     0.7550 H     1 <1>   0.0800 
 55 H        9.2000     0.8260     2.2490 H     1 <1>   0.0800 
 56 H       10.8110     4.2990     2.5490 H     1 <1>   0.1500 
 57 H        9.6250     3.2730    -1.3990 H     1 <1>   0.1500 
 58 H       12.9390     5.0280     1.6320 H     1 <1>   0.1500 
 59 H       11.8070     4.0470    -2.1640 H     1 <1>   0.1500 
@<TRIPOS>BOND
  1   1   2  2   
  2   2   3  am  
  3   2   4  1   
  4   3   5  1   
  5   3   6  1   
  6   4   7  1   
  7   4   8  1   
  8   4  28  1   
  9   5   9  1   
 10   5  29  1   
 11   5  30  1   
 12   6  10  1   
 13   6  31  1   
 14   6  32  1   
 15   7  11  1   
 16   7  12  1   
 17   7  33  1   
 18   8  13  1   
 19   8  34  1   
 20   8  35  1   
 21   9  14  1   
 22   9  36  1   
 23   9  37  1   
 24  10  15  1   
 25  10  38  1   
 26  10  39  1   
 27  11  13  1   
 28  11  40  1   
 29  11  41  1   
 30  12  42  1   
 31  12  43  1   
 32  12  44  1   
 33  13  45  1   
 34  13  46  1   
 35  14  15  1   
 36  14  16  am  
 37  15  47  1   
 38  15  48  1   
 39  16  17  2   
 40  16  18  1   
 41  18  19  1   
 42  18  49  1   
 43  18  50  1   
 44  19  20  1   
 45  19  21  1   
 46  20  22  1   
 47  20  51  1   
 48  20  52  1   
 49  21  53  1   
 50  21  54  1   
 51  21  55  1   
 52  22  23  ar  
 53  22  24  ar  
 54  23  25  ar  
 55  23  56  1   
 56  24  26  ar  
 57  24  57  1   
 58  25  27  ar  
 59  25  58  1   
 60  26  27  ar  
 61  26  59  1   
@<TRIPOS>SUBSTRUCTURE
  1 ****  16 GROUP 4 **** **** 0

# MOE 2024.06 (io_trps.svl 2023.06)
