@<TRIPOS>MOLECULE
NONAME
47 49 1 0 0 
SMALL
USER_CHARGES


@<TRIPOS>ATOM
  1 CL       0.0150     1.4900    -1.7490 Cl    1 <1>  -0.1770 
  2 C        1.1870     1.9200    -0.5290 C.ar  1 <1>   0.1770 
  3 C        0.9510     1.6060     0.7990 C.ar  1 <1>   0.1600 
  4 C        2.3400     2.5760    -0.8930 C.ar  1 <1>  -0.1500 
  5 N        1.7920     1.8940     1.7840 N.ar  1 <1>  -0.6200 
  6 C        3.2360     2.9020     0.1170 C.ar  1 <1>   0.0860 
  7 C        2.9030     2.5140     1.4160 C.ar  1 <1>   0.1600 
  8 C        4.4710     3.6070    -0.1570 C.2   1 <1>   0.5440 
  9 O        5.0830     3.3830    -1.1830 O.2   1 <1>  -0.5700 
 10 N        4.9840     4.5650     0.6930 N.am  1 <1>  -0.6600 
 11 C        6.4500     4.8530     0.6780 C.3   1 <1>   0.1400 
 12 C        4.1240     5.5000     1.4660 C.3   1 <1>   0.1400 
 13 C        6.8410     5.6990    -0.5460 C.3   1 <1>   0.3430 
 14 C        4.4030     6.9640     1.0970 C.3   1 <1>  -0.1600 
 15 N        6.2520     7.0810    -0.5520 N.4   1 <1>  -0.9590 
 16 C        4.7780     7.1800    -0.3730 C.3   1 <1>   0.3430 
 17 C        6.7370     7.8260    -1.7430 C.3   1 <1>   0.5240 
 18 C        8.1160     8.3720    -1.3880 C.2   1 <1>   0.1080 
 19 N        8.5090     8.5220    -0.1530 N.2   1 <1>  -0.7070 
 20 C        9.0920     8.7570    -2.2990 C.2   1 <1>  -0.1500 
 21 N        9.7610     9.0200    -0.2470 N.pl3 1 <1>   0.3140 
 22 C       10.1270     9.1640    -1.5360 C.2   1 <1>  -0.3020 
 23 C       10.5790     9.3510     0.9390 C.3   1 <1>   0.0960 
 24 C       11.4890     8.1800     1.3280 C.3   1 <1>  -0.2400 
 25 H        0.0380     1.0960     1.0540 H     1 <1>   0.1500 
 26 H        2.5380     2.8210    -1.9220 H     1 <1>   0.1500 
 27 H        3.6060     2.7320     2.2030 H     1 <1>   0.1500 
 28 H        6.9810     3.9180     0.6250 H     1 <1>   0.0800 
 29 H        6.7500     5.3450     1.5870 H     1 <1>   0.0800 
 30 H        4.2830     5.3500     2.5210 H     1 <1>   0.0800 
 31 H        3.0880     5.2880     1.2580 H     1 <1>   0.0800 
 32 H        6.5360     5.1690    -1.4340 H     1 <1>   0.0800 
 33 H        7.9160     5.7800    -0.5700 H     1 <1>   0.0800 
 34 H        5.1620     7.3710     1.7420 H     1 <1>   0.0800 
 35 H        3.5030     7.5180     1.3010 H     1 <1>   0.0800 
 36 H        6.7370     7.6040     0.2050 H     1 <1>   0.4500 
 37 H        4.4550     8.1670    -0.6600 H     1 <1>   0.0800 
 38 H        4.2730     6.4620    -1.0000 H     1 <1>   0.0800 
 39 H        6.0850     8.6570    -1.9560 H     1 <1>   0.0800 
 40 H        6.7880     7.1840    -2.6060 H     1 <1>   0.0800 
 41 H        9.0300     8.7340    -3.3740 H     1 <1>   0.1500 
 42 H       11.0880     9.5440    -1.8330 H     1 <1>   0.1500 
 43 H        9.9170     9.5890     1.7520 H     1 <1>   0.0800 
 44 H       11.1700    10.2210     0.7160 H     1 <1>   0.0800 
 45 H       10.8990     7.3120     1.5640 H     1 <1>   0.0800 
 46 H       12.0700     8.4420     2.1950 H     1 <1>   0.0800 
 47 H       12.1650     7.9450     0.5250 H     1 <1>   0.0800 
@<TRIPOS>BOND
  1   1   2  1   
  2   2   3  ar  
  3   2   4  ar  
  4   3   5  ar  
  5   3  25  1   
  6   4   6  ar  
  7   4  26  1   
  8   5   7  ar  
  9   6   7  ar  
 10   6   8  1   
 11   7  27  1   
 12   8   9  2   
 13   8  10  am  
 14  10  11  1   
 15  10  12  1   
 16  11  13  1   
 17  11  28  1   
 18  11  29  1   
 19  12  14  1   
 20  12  30  1   
 21  12  31  1   
 22  13  15  1   
 23  13  32  1   
 24  13  33  1   
 25  14  16  1   
 26  14  34  1   
 27  14  35  1   
 28  15  16  1   
 29  15  17  1   
 30  15  36  1   
 31  16  37  1   
 32  16  38  1   
 33  17  18  1   
 34  17  39  1   
 35  17  40  1   
 36  18  19  2   
 37  18  20  1   
 38  19  21  1   
 39  20  22  2   
 40  20  41  1   
 41  21  22  1   
 42  21  23  1   
 43  22  42  1   
 44  23  24  1   
 45  23  43  1   
 46  23  44  1   
 47  24  45  1   
 48  24  46  1   
 49  24  47  1   
@<TRIPOS>SUBSTRUCTURE
  1 ****  13 GROUP 4 **** **** 0

# MOE 2024.06 (io_trps.svl 2023.06)
