@<TRIPOS>MOLECULE
NONAME
50 52 1 0 0 
SMALL
USER_CHARGES


@<TRIPOS>ATOM
  1 CL      -4.4740    -0.9410    -2.4560 Cl    1 <1>  -0.1770 
  2 C       -3.7690     0.0650    -1.2080 C.ar  1 <1>   0.1770 
  3 C       -3.2360    -0.5170    -0.0630 C.ar  1 <1>   0.0830 
  4 C       -3.7710     1.4360    -1.3820 C.ar  1 <1>  -0.1500 
  5 O       -3.2640    -1.8680     0.0550 O.3   1 <1>  -0.3630 
  6 C       -2.6930     0.3060     0.9200 C.ar  1 <1>  -0.1500 
  7 C       -3.2330     2.2470    -0.3970 C.ar  1 <1>  -0.1500 
  8 C       -3.4220    -2.4660     1.3320 C.3   1 <1>   0.1810 
  9 C       -2.6960     1.6820     0.7490 C.ar  1 <1>  -0.1500 
 10 C       -3.8100    -3.9380     1.2020 C.2   1 <1>   0.5690 
 11 O       -3.1900    -4.7350     1.8670 O.2   1 <1>  -0.5700 
 12 N       -4.8390    -4.3640     0.3900 N.am  1 <1>  -0.6600 
 13 C       -5.0300    -5.8110     0.1000 C.3   1 <1>   0.1400 
 14 C       -5.8310    -3.4690    -0.2730 C.3   1 <1>   0.1400 
 15 C       -6.4450    -6.2540     0.5280 C.3   1 <1>   0.4230 
 16 C       -7.2420    -3.8940     0.1560 C.3   1 <1>  -0.1600 
 17 N       -6.6770    -7.7560     0.4170 N.4   1 <1>  -0.9590 
 18 C       -7.5600    -5.3900    -0.1330 C.3   1 <1>   0.0000 
 19 C       -8.1230    -8.1540     0.4170 C.3   1 <1>   0.3430 
 20 C       -5.9600    -8.4390    -0.7110 C.3   1 <1>   0.2630 
 21 C       -8.9320    -5.7420     0.5180 C.3   1 <1>  -0.1600 
 22 C       -7.6020    -5.6430    -1.6670 C.3   1 <1>   0.1200 
 23 C       -8.9710    -7.1350     1.1750 C.3   1 <1>  -0.1600 
 24 O       -8.4600    -4.7660    -2.3090 O.3   1 <1>  -0.6800 
 25 H       -4.1900     1.8600    -2.2770 H     1 <1>   0.1500 
 26 H       -2.2590    -0.1080     1.8110 H     1 <1>   0.1500 
 27 H       -3.2290     3.3170    -0.5220 H     1 <1>   0.1500 
 28 H       -2.4880    -2.3890     1.8570 H     1 <1>   0.0800 
 29 H       -4.1880    -1.9380     1.8690 H     1 <1>   0.0800 
 30 H       -2.2750     2.3170     1.5100 H     1 <1>   0.1500 
 31 H       -4.8740    -5.9630    -0.9520 H     1 <1>   0.0800 
 32 H       -4.3010    -6.3960     0.6330 H     1 <1>   0.0800 
 33 H       -5.6790    -2.4420     0.0080 H     1 <1>   0.0800 
 34 H       -5.7200    -3.5330    -1.3430 H     1 <1>   0.0800 
 35 H       -6.4980    -6.0200     1.5790 H     1 <1>   0.0800 
 36 H       -7.3270    -3.6970     1.2110 H     1 <1>   0.0800 
 37 H       -7.9550    -3.2540    -0.3330 H     1 <1>   0.0800 
 38 H       -6.2800    -8.1390     1.2890 H     1 <1>   0.4500 
 39 H       -8.4850    -8.2120    -0.5970 H     1 <1>   0.0800 
 40 H       -8.2350    -9.1290     0.8650 H     1 <1>   0.0800 
 41 H       -6.2930    -8.0530    -1.6600 H     1 <1>   0.0800 
 42 H       -6.1520    -9.5000    -0.6870 H     1 <1>   0.0800 
 43 H       -4.8960    -8.2880    -0.6300 H     1 <1>   0.0800 
 44 H       -9.1860    -5.0230     1.2790 H     1 <1>   0.0800 
 45 H       -9.7160    -5.6820    -0.2170 H     1 <1>   0.0800 
 46 H       -7.9350    -6.6390    -1.8960 H     1 <1>   0.0800 
 47 H       -6.6340    -5.4980    -2.1140 H     1 <1>   0.0800 
 48 H       -9.9910    -7.4790     1.2100 H     1 <1>   0.0800 
 49 H       -8.6250    -7.0760     2.1930 H     1 <1>   0.0800 
 50 H       -9.3860    -4.8650    -2.0120 H     1 <1>   0.4000 
@<TRIPOS>BOND
  1   1   2  1   
  2   2   3  ar  
  3   2   4  ar  
  4   3   5  1   
  5   3   6  ar  
  6   4   7  ar  
  7   4  25  1   
  8   5   8  1   
  9   6   9  ar  
 10   6  26  1   
 11   7   9  ar  
 12   7  27  1   
 13   8  10  1   
 14   8  28  1   
 15   8  29  1   
 16   9  30  1   
 17  10  11  2   
 18  10  12  am  
 19  12  13  1   
 20  12  14  1   
 21  13  15  1   
 22  13  31  1   
 23  13  32  1   
 24  14  16  1   
 25  14  33  1   
 26  14  34  1   
 27  15  17  1   
 28  15  18  1   
 29  15  35  1   
 30  16  18  1   
 31  16  36  1   
 32  16  37  1   
 33  17  19  1   
 34  17  20  1   
 35  17  38  1   
 36  18  21  1   
 37  18  22  1   
 38  19  23  1   
 39  19  39  1   
 40  19  40  1   
 41  20  41  1   
 42  20  42  1   
 43  20  43  1   
 44  21  23  1   
 45  21  44  1   
 46  21  45  1   
 47  22  24  1   
 48  22  46  1   
 49  22  47  1   
 50  23  48  1   
 51  23  49  1   
 52  24  50  1   
@<TRIPOS>SUBSTRUCTURE
  1 ****  14 GROUP 4 **** **** 0

# MOE 2024.06 (io_trps.svl 2023.06)
