@<TRIPOS>MOLECULE
NONAME
52 54 1 0 0 
SMALL
USER_CHARGES


@<TRIPOS>ATOM
  1 O       -0.0580     0.0400    -0.4260 O.3   1 <1>  -0.6800 
  2 C        1.0940    -0.3490    -1.0990 C.3   1 <1>   0.2000 
  3 C        1.5890    -1.6480    -0.4650 C.3   1 <1>  -0.0800 
  4 C        2.2070     0.6630    -0.7710 C.3   1 <1>   0.3430 
  5 C        2.2210    -1.1150     0.8230 C.3   1 <1>   0.3430 
  6 C        2.5910    -2.3690    -1.4080 C.3   1 <1>  -0.0160 
  7 N        2.9750     0.0770     0.3770 N.4   1 <1>  -0.9590 
  8 C        3.7360    -3.0660    -0.6870 C.ar  1 <1>   0.1670 
  9 C        3.2850     1.0540     1.4410 C.3   1 <1>   0.5240 
 10 N        4.7420    -2.2910    -0.2990 N.ar  1 <1>  -0.6200 
 11 C        3.6910    -4.4420    -0.4730 C.ar  1 <1>   0.1600 
 12 C        4.1080     2.1490     0.8060 C.2   1 <1>  -0.1810 
 13 C        5.7020    -2.9920     0.2900 C.ar  1 <1>   0.1600 
 14 N        4.6380    -5.1300     0.1380 N.ar  1 <1>  -0.6200 
 15 C        3.6750     3.4450     0.5490 C.2   1 <1>   0.1080 
 16 C        5.3810     2.1050     0.3450 C.2   1 <1>  -0.3320 
 17 C        5.6500    -4.3640     0.5040 C.ar  1 <1>   0.1600 
 18 N        4.5860     4.1460    -0.0370 N.2   1 <1>  -0.7070 
 19 C        2.3270     4.0510     0.8800 C.3   1 <1>  -0.0590 
 20 N        5.6540     3.3320    -0.1650 N.pl3 1 <1>   0.3140 
 21 C        6.3720     0.9500     0.3660 C.3   1 <1>  -0.0600 
 22 C        6.9340     3.8020    -0.7820 C.3   1 <1>   0.1760 
 23 C        7.5820     4.8900     0.0850 C.3   1 <1>  -0.2400 
 24 C        6.6980     4.3140    -2.2110 C.3   1 <1>  -0.2400 
 25 H       -0.8490    -0.4290    -0.7670 H     1 <1>   0.4000 
 26 H        0.8780    -0.4080    -2.1530 H     1 <1>   0.0800 
 27 H        0.7800    -2.3180    -0.2310 H     1 <1>   0.0800 
 28 H        1.7740     1.6160    -0.5170 H     1 <1>   0.0800 
 29 H        2.8650     0.7900    -1.6140 H     1 <1>   0.0800 
 30 H        2.8600    -1.8390     1.3010 H     1 <1>   0.0800 
 31 H        1.4390    -0.8190     1.5040 H     1 <1>   0.0800 
 32 H        3.0340    -1.6710    -2.0980 H     1 <1>   0.0800 
 33 H        2.0540    -3.0830    -2.0080 H     1 <1>   0.0800 
 34 H        3.8800    -0.2660     0.0100 H     1 <1>   0.4500 
 35 H        2.3780     1.4590     1.8590 H     1 <1>   0.0800 
 36 H        3.8540     0.5840     2.2260 H     1 <1>   0.0800 
 37 H        2.8400    -5.0030    -0.8200 H     1 <1>   0.1500 
 38 H        6.5770    -2.4620     0.6230 H     1 <1>   0.1500 
 39 H        6.4770    -4.8470     0.9960 H     1 <1>   0.1500 
 40 H        1.5690     3.3010     0.9880 H     1 <1>   0.0800 
 41 H        2.0370     4.7240     0.0930 H     1 <1>   0.0800 
 42 H        2.4050     4.6140     1.7920 H     1 <1>   0.0800 
 43 H        5.9680     0.1050     0.8910 H     1 <1>   0.0800 
 44 H        7.2770     1.2500     0.8660 H     1 <1>   0.0800 
 45 H        6.6140     0.6470    -0.6380 H     1 <1>   0.0800 
 46 H        7.6070     2.9670    -0.8340 H     1 <1>   0.0800 
 47 H        6.9380     5.7500     0.1460 H     1 <1>   0.0800 
 48 H        8.5210     5.1950    -0.3400 H     1 <1>   0.0800 
 49 H        7.7610     4.5150     1.0770 H     1 <1>   0.0800 
 50 H        6.0410     5.1670    -2.1980 H     1 <1>   0.0800 
 51 H        6.2560     3.5410    -2.8140 H     1 <1>   0.0800 
 52 H        7.6300     4.6070    -2.6590 H     1 <1>   0.0800 
@<TRIPOS>BOND
  1   1   2  1   
  2   1  25  1   
  3   2   3  1   
  4   2   4  1   
  5   2  26  1   
  6   3   5  1   
  7   3   6  1   
  8   3  27  1   
  9   4   7  1   
 10   4  28  1   
 11   4  29  1   
 12   5   7  1   
 13   5  30  1   
 14   5  31  1   
 15   6   8  1   
 16   6  32  1   
 17   6  33  1   
 18   7   9  1   
 19   7  34  1   
 20   8  10  ar  
 21   8  11  ar  
 22   9  12  1   
 23   9  35  1   
 24   9  36  1   
 25  10  13  ar  
 26  11  14  ar  
 27  11  37  1   
 28  12  15  1   
 29  12  16  2   
 30  13  17  ar  
 31  13  38  1   
 32  14  17  ar  
 33  15  18  2   
 34  15  19  1   
 35  16  20  1   
 36  16  21  1   
 37  17  39  1   
 38  18  20  1   
 39  19  40  1   
 40  19  41  1   
 41  19  42  1   
 42  20  22  1   
 43  21  43  1   
 44  21  44  1   
 45  21  45  1   
 46  22  23  1   
 47  22  24  1   
 48  22  46  1   
 49  23  47  1   
 50  23  48  1   
 51  23  49  1   
 52  24  50  1   
 53  24  51  1   
 54  24  52  1   
@<TRIPOS>SUBSTRUCTURE
  1 ****   7 GROUP 4 **** **** 0

# MOE 2024.06 (io_trps.svl 2023.06)
