@<TRIPOS>MOLECULE
NONAME
40 42 1 0 0 
SMALL
USER_CHARGES


@<TRIPOS>ATOM
  1 O       -1.6750     0.7770     2.5120 O.2   1 <1>  -0.5700 
  2 C       -2.0130     1.1250     1.3970 C.2   1 <1>   0.5440 
  3 N       -1.3390     2.0500     0.6540 N.am  1 <1>  -0.6600 
  4 C       -3.1480     0.6530     0.6590 C.ar  1 <1>   0.0860 
  5 C       -2.0050     2.2590    -0.6570 C.3   1 <1>   0.2840 
  6 C       -0.1170     2.7820     1.0630 C.3   1 <1>   0.1400 
  7 C       -3.1810     1.3000    -0.5630 C.ar  1 <1>  -0.1440 
  8 C       -4.1300    -0.2780     0.9720 C.ar  1 <1>  -0.1500 
  9 C        1.0960     2.3950     0.1980 C.3   1 <1>  -0.0800 
 10 C       -4.1760     1.0380    -1.4870 C.ar  1 <1>  -0.1500 
 11 C       -5.1310    -0.5480     0.0530 C.ar  1 <1>  -0.1500 
 12 C        1.3980     0.8850     0.2700 C.3   1 <1>  -0.1600 
 13 C        2.3290     3.2060     0.6340 C.3   1 <1>  -0.1600 
 14 C       -5.1540     0.1080    -1.1710 C.ar  1 <1>  -0.1500 
 15 C        2.6350     0.5170    -0.5600 C.3   1 <1>  -0.1600 
 16 C        3.5650     2.8430    -0.2010 C.3   1 <1>  -0.1600 
 17 C        3.8700     1.3340    -0.1380 C.3   1 <1>  -0.0190 
 18 C        5.0850     0.9740    -0.9910 C.2   1 <1>   0.5690 
 19 O        5.1110     1.2360    -2.1660 O.2   1 <1>  -0.5700 
 20 N        6.1370     0.3550    -0.4240 N.am  1 <1>  -0.8000 
 21 H       -1.3470     1.9890    -1.4650 H     1 <1>   0.0800 
 22 H       -2.3360     3.2790    -0.7550 H     1 <1>   0.0800 
 23 H        0.0950     2.5590     2.0960 H     1 <1>   0.0800 
 24 H       -0.3020     3.8390     0.9860 H     1 <1>   0.0800 
 25 H       -4.0970    -0.7770     1.9250 H     1 <1>   0.1500 
 26 H        0.8790     2.6550    -0.8240 H     1 <1>   0.0800 
 27 H       -4.1950     1.5450    -2.4370 H     1 <1>   0.1500 
 28 H       -5.8950    -1.2680     0.2890 H     1 <1>   0.1500 
 29 H        0.5560     0.3230    -0.0970 H     1 <1>   0.0800 
 30 H        1.5530     0.5990     1.2960 H     1 <1>   0.0800 
 31 H        2.5360     3.0140     1.6740 H     1 <1>   0.0800 
 32 H        2.1280     4.2580     0.5260 H     1 <1>   0.0800 
 33 H       -5.9370    -0.1090    -1.8780 H     1 <1>   0.1500 
 34 H        2.4300     0.6990    -1.6020 H     1 <1>   0.0800 
 35 H        2.8430    -0.5330    -0.4480 H     1 <1>   0.0800 
 36 H        4.4160     3.3970     0.1550 H     1 <1>   0.0800 
 37 H        3.3960     3.1280    -1.2270 H     1 <1>   0.0800 
 38 H        4.0950     1.0870     0.8840 H     1 <1>   0.0800 
 39 H        6.9400     0.1160    -1.0070 H     1 <1>   0.3700 
 40 H        6.1870     0.0930     0.5580 H     1 <1>   0.3700 
@<TRIPOS>BOND
  1   1   2  2   
  2   2   3  am  
  3   2   4  1   
  4   3   5  1   
  5   3   6  1   
  6   4   7  ar  
  7   4   8  ar  
  8   5   7  1   
  9   5  21  1   
 10   5  22  1   
 11   6   9  1   
 12   6  23  1   
 13   6  24  1   
 14   7  10  ar  
 15   8  11  ar  
 16   8  25  1   
 17   9  12  1   
 18   9  13  1   
 19   9  26  1   
 20  10  14  ar  
 21  10  27  1   
 22  11  14  ar  
 23  11  28  1   
 24  12  15  1   
 25  12  29  1   
 26  12  30  1   
 27  13  16  1   
 28  13  31  1   
 29  13  32  1   
 30  14  33  1   
 31  15  17  1   
 32  15  34  1   
 33  15  35  1   
 34  16  17  1   
 35  16  36  1   
 36  16  37  1   
 37  17  18  1   
 38  17  38  1   
 39  18  19  2   
 40  18  20  am  
 41  20  39  1   
 42  20  40  1   
@<TRIPOS>SUBSTRUCTURE
  1 ****  12 GROUP 4 **** **** 0

# MOE 2024.06 (io_trps.svl 2023.06)
