@<TRIPOS>MOLECULE
NONAME
43 46 1 0 0 
SMALL
USER_CHARGES


@<TRIPOS>ATOM
  1 N        0.0390     0.1390     0.2360 N.ar  1 <1>  -0.6200 
  2 C       -1.0800     0.8790     0.1960 C.ar  1 <1>   0.6200 
  3 C        1.0960     0.6860    -0.3090 C.ar  1 <1>   0.1660 
  4 N       -1.1720     2.1050    -0.3380 N.ar  1 <1>  -0.6200 
  5 C       -2.2820     0.3090     0.7840 C.ar  1 <1>   0.0000 
  6 C        1.0950     1.9230    -0.8730 C.ar  1 <1>  -0.1430 
  7 C        2.4590     0.0380    -0.3720 C.3   1 <1>   0.1440 
  8 C       -0.0870     2.6180    -0.8720 C.ar  1 <1>   0.1600 
  9 C       -3.2370     1.1100     1.4160 C.ar  1 <1>  -0.1500 
 10 C       -2.5370    -1.0650     0.7440 C.ar  1 <1>  -0.1500 
 11 C        2.4550     2.2940    -1.4070 C.3   1 <1>  -0.0160 
 12 C        2.7940    -0.5340     1.0180 C.3   1 <1>   0.3430 
 13 C        2.4630    -1.0870    -1.4290 C.3   1 <1>  -0.1600 
 14 C        3.3730     1.2250    -0.7820 C.3   1 <1>  -0.1600 
 15 C       -4.3800     0.5720     1.9810 C.ar  1 <1>  -0.1500 
 16 C       -3.6770    -1.6100     1.3070 C.ar  1 <1>  -0.1500 
 17 N        4.0780    -1.3210     1.0170 N.4   1 <1>  -0.9590 
 18 C        3.7420    -1.9410    -1.3570 C.3   1 <1>  -0.1600 
 19 C       -4.6020    -0.7910     1.9280 C.ar  1 <1>  -0.1500 
 20 C        4.0050    -2.4630     0.0580 C.3   1 <1>   0.3430 
 21 C        4.3950    -1.8040     2.3950 C.3   1 <1>   0.2630 
 22 H       -0.1460     3.6010    -1.3080 H     1 <1>   0.1500 
 23 H       -3.0820     2.1740     1.4650 H     1 <1>   0.1500 
 24 H       -1.8320    -1.7170     0.2600 H     1 <1>   0.1500 
 25 H        2.7420     3.2900    -1.1120 H     1 <1>   0.0800 
 26 H        2.4540     2.2190    -2.4810 H     1 <1>   0.0800 
 27 H        1.9820    -1.1730     1.3230 H     1 <1>   0.0800 
 28 H        2.8540     0.2780     1.7240 H     1 <1>   0.0800 
 29 H        2.3500    -0.6700    -2.4160 H     1 <1>   0.0800 
 30 H        1.6120    -1.7260    -1.2580 H     1 <1>   0.0800 
 31 H        4.1540     0.9420    -1.4650 H     1 <1>   0.0800 
 32 H        3.8270     1.6530     0.0960 H     1 <1>   0.0800 
 33 H       -5.0970     1.2160     2.4610 H     1 <1>   0.1500 
 34 H       -3.8480    -2.6710     1.2610 H     1 <1>   0.1500 
 35 H        4.8330    -0.6960     0.7020 H     1 <1>   0.4500 
 36 H        4.5930    -1.3760    -1.6950 H     1 <1>   0.0800 
 37 H        3.6380    -2.7810    -2.0220 H     1 <1>   0.0800 
 38 H       -5.4910    -1.2120     2.3660 H     1 <1>   0.1500 
 39 H        3.2070    -3.1290     0.3470 H     1 <1>   0.0800 
 40 H        4.9300    -3.0180     0.0710 H     1 <1>   0.0800 
 41 H        3.6160    -2.4600     2.7500 H     1 <1>   0.0800 
 42 H        4.4780    -0.9700     3.0740 H     1 <1>   0.0800 
 43 H        5.3280    -2.3430     2.3980 H     1 <1>   0.0800 
@<TRIPOS>BOND
  1   1   2  ar  
  2   1   3  ar  
  3   2   4  ar  
  4   2   5  1   
  5   3   6  ar  
  6   3   7  1   
  7   4   8  ar  
  8   5   9  ar  
  9   5  10  ar  
 10   6   8  ar  
 11   6  11  1   
 12   7  12  1   
 13   7  13  1   
 14   7  14  1   
 15   8  22  1   
 16   9  15  ar  
 17   9  23  1   
 18  10  16  ar  
 19  10  24  1   
 20  11  14  1   
 21  11  25  1   
 22  11  26  1   
 23  12  17  1   
 24  12  27  1   
 25  12  28  1   
 26  13  18  1   
 27  13  29  1   
 28  13  30  1   
 29  14  31  1   
 30  14  32  1   
 31  15  19  ar  
 32  15  33  1   
 33  16  19  ar  
 34  16  34  1   
 35  17  20  1   
 36  17  21  1   
 37  17  35  1   
 38  18  20  1   
 39  18  36  1   
 40  18  37  1   
 41  19  38  1   
 42  20  39  1   
 43  20  40  1   
 44  21  41  1   
 45  21  42  1   
 46  21  43  1   
@<TRIPOS>SUBSTRUCTURE
  1 ****   1 GROUP 4 **** **** 0

# MOE 2024.06 (io_trps.svl 2023.06)
