@<TRIPOS>MOLECULE
NONAME
46 48 1 0 0 
SMALL
USER_CHARGES


@<TRIPOS>ATOM
  1 O       -1.1100    -3.6680     1.1630 O.2   1 <1>  -0.5700 
  2 C       -0.0400    -3.1100     1.0760 C.2   1 <1>   0.5690 
  3 N        0.5010    -2.7810    -0.1400 N.am  1 <1>  -0.6600 
  4 C        0.7140    -2.8320     2.3650 C.3   1 <1>  -0.0990 
  5 C        1.8470    -2.1720    -0.3180 C.3   1 <1>   0.1400 
  6 C       -0.2550    -3.0400    -1.4160 C.3   1 <1>   0.2010 
  7 C        1.9060    -1.8810     2.1900 C.3   1 <1>  -0.1600 
  8 C        2.7020    -2.2870     0.9480 C.3   1 <1>  -0.1600 
  9 C       -0.1890    -4.4970    -1.8790 C.2   1 <1>   0.5690 
 10 O        0.0590    -4.7510    -3.0340 O.2   1 <1>  -0.5700 
 11 N       -0.4250    -5.4660    -0.9650 N.am  1 <1>  -0.7300 
 12 C       -0.4490    -6.9250    -1.1800 C.3   1 <1>   0.2200 
 13 C       -1.6190    -7.5490    -0.4330 C.3   1 <1>  -0.0800 
 14 C        0.7290    -7.5590    -0.4490 C.3   1 <1>   0.1200 
 15 C       -1.0680    -7.6890     0.9880 C.3   1 <1>   0.1200 
 16 C       -2.9560    -6.7870    -0.5140 C.3   1 <1>  -0.0170 
 17 O        0.3260    -7.7230     0.8800 O.3   1 <1>  -0.5600 
 18 C       -4.0310    -7.4820     0.3060 C.ar  1 <1>  -0.1440 
 19 C       -4.3940    -7.0280     1.5570 C.ar  1 <1>  -0.1500 
 20 C       -4.6950    -8.6010    -0.1540 C.ar  1 <1>  -0.1500 
 21 C       -5.3740    -7.6990     2.2710 C.ar  1 <1>   0.1600 
 22 C       -5.6600    -9.1980     0.6400 C.ar  1 <1>   0.1600 
 23 N       -6.0140    -8.7750     1.8430 N.ar  1 <1>  -0.6200 
 24 H        0.0300    -2.4270     3.0880 H     1 <1>   0.0800 
 25 H        1.0660    -3.7760     2.7400 H     1 <1>   0.0800 
 26 H        2.3560    -2.6570    -1.1340 H     1 <1>   0.0800 
 27 H        1.7200    -1.1330    -0.5700 H     1 <1>   0.0800 
 28 H       -1.2890    -2.7860    -1.2690 H     1 <1>   0.0800 
 29 H        0.1260    -2.4110    -2.2000 H     1 <1>   0.0800 
 30 H        1.5470    -0.8720     2.0720 H     1 <1>   0.0800 
 31 H        2.5320    -1.9160     3.0640 H     1 <1>   0.0800 
 32 H        3.0480    -3.3020     1.0500 H     1 <1>   0.0800 
 33 H        3.5680    -1.6570     0.8460 H     1 <1>   0.0800 
 34 H       -0.5910    -5.1630     0.0050 H     1 <1>   0.3700 
 35 H       -0.4470    -7.1530    -2.2330 H     1 <1>   0.0800 
 36 H       -1.7700    -8.5430    -0.8180 H     1 <1>   0.0800 
 37 H        1.6140    -6.9480    -0.4870 H     1 <1>   0.0800 
 38 H        0.9390    -8.5350    -0.8480 H     1 <1>   0.0800 
 39 H       -1.4090    -8.5890     1.4690 H     1 <1>   0.0800 
 40 H       -1.3220    -6.8340     1.5910 H     1 <1>   0.0800 
 41 H       -3.2720    -6.7230    -1.5400 H     1 <1>   0.0800 
 42 H       -2.8430    -5.7800    -0.1490 H     1 <1>   0.0800 
 43 H       -3.9260    -6.1590     1.9840 H     1 <1>   0.1500 
 44 H       -4.4710    -9.0130    -1.1210 H     1 <1>   0.1500 
 45 H       -5.6430    -7.3290     3.2460 H     1 <1>   0.1500 
 46 H       -6.1680   -10.0700     0.2660 H     1 <1>   0.1500 
@<TRIPOS>BOND
  1   1   2  2   
  2   2   3  am  
  3   2   4  1   
  4   3   5  1   
  5   3   6  1   
  6   4   7  1   
  7   4  24  1   
  8   4  25  1   
  9   5   8  1   
 10   5  26  1   
 11   5  27  1   
 12   6   9  1   
 13   6  28  1   
 14   6  29  1   
 15   7   8  1   
 16   7  30  1   
 17   7  31  1   
 18   8  32  1   
 19   8  33  1   
 20   9  10  2   
 21   9  11  am  
 22  11  12  1   
 23  11  34  1   
 24  12  13  1   
 25  12  14  1   
 26  12  35  1   
 27  13  15  1   
 28  13  16  1   
 29  13  36  1   
 30  14  17  1   
 31  14  37  1   
 32  14  38  1   
 33  15  17  1   
 34  15  39  1   
 35  15  40  1   
 36  16  18  1   
 37  16  41  1   
 38  16  42  1   
 39  18  19  ar  
 40  18  20  ar  
 41  19  21  ar  
 42  19  43  1   
 43  20  22  ar  
 44  20  44  1   
 45  21  23  ar  
 46  21  45  1   
 47  22  23  ar  
 48  22  46  1   
@<TRIPOS>SUBSTRUCTURE
  1 ****  11 GROUP 4 **** **** 0

# MOE 2024.06 (io_trps.svl 2023.06)
