@<TRIPOS>MOLECULE
NONAME
39 41 1 0 0 
SMALL
USER_CHARGES


@<TRIPOS>ATOM
  1 F        2.6950    -0.1930    -2.2420 F     1 <1>  -0.1900 
  2 C        2.7100    -0.6120    -1.0000 C.ar  1 <1>   0.1900 
  3 C        2.6720    -1.9740    -0.7450 C.ar  1 <1>   0.1900 
  4 C        2.7550     0.3120     0.0350 C.ar  1 <1>  -0.1440 
  5 F        2.6360    -2.8180    -1.7480 F     1 <1>  -0.1900 
  6 C        2.6670    -2.4640     0.5520 C.ar  1 <1>  -0.1440 
  7 C        2.7390    -0.1790     1.3360 C.ar  1 <1>  -0.1500 
  8 C        2.7970     1.8160    -0.2290 C.3   1 <1>   0.2540 
  9 C        2.6990    -1.5440     1.5910 C.ar  1 <1>  -0.1500 
 10 C        2.6270    -3.9590     0.8350 C.3   1 <1>  -0.0970 
 11 N        4.1680     2.3610    -0.2790 N.3   1 <1>  -0.8100 
 12 C        4.8940     2.2390     1.0110 C.3   1 <1>   0.1100 
 13 C        4.9200     1.8780    -1.4570 C.3   1 <1>   0.1100 
 14 C        6.2030     3.0660     1.1360 C.3   1 <1>   0.2200 
 15 C        6.2130     2.6660    -1.7590 C.3   1 <1>  -0.0190 
 16 N        6.2630     4.2050     0.1830 N.am  1 <1>  -0.7300 
 17 C        7.4610     2.1830     0.9900 C.3   1 <1>   0.1200 
 18 C        6.2210     4.0580    -1.1570 C.2   1 <1>   0.5690 
 19 C        7.4890     1.9010    -1.3710 C.3   1 <1>   0.1200 
 20 O        7.4000     1.3150    -0.1070 O.3   1 <1>  -0.5600 
 21 O        6.2240     5.0260    -1.8770 O.2   1 <1>  -0.5700 
 22 H        2.7580     0.5060     2.1650 H     1 <1>   0.1500 
 23 H        2.2510     2.3260     0.5450 H     1 <1>   0.0800 
 24 H        2.2980     2.0390    -1.1570 H     1 <1>   0.0800 
 25 H        2.6910    -1.8860     2.6120 H     1 <1>   0.1500 
 26 H        2.6330    -4.1530     1.8930 H     1 <1>   0.0800 
 27 H        3.4820    -4.4380     0.3940 H     1 <1>   0.0800 
 28 H        1.7350    -4.3880     0.4130 H     1 <1>   0.0800 
 29 H        4.2370     2.5730     1.7950 H     1 <1>   0.0800 
 30 H        5.1120     1.2030     1.2030 H     1 <1>   0.0800 
 31 H        5.1480     0.8320    -1.3410 H     1 <1>   0.0800 
 32 H        4.2820     1.9750    -2.3190 H     1 <1>   0.0800 
 33 H        6.2360     3.4770     2.1290 H     1 <1>   0.0800 
 34 H        6.2610     2.7950    -2.8250 H     1 <1>   0.0800 
 35 H        6.1150     5.1470     0.5430 H     1 <1>   0.3700 
 36 H        7.5520     1.5610     1.8620 H     1 <1>   0.0800 
 37 H        8.3490     2.7860     0.9140 H     1 <1>   0.0800 
 38 H        8.3530     2.5440    -1.4020 H     1 <1>   0.0800 
 39 H        7.6430     1.0970    -2.0690 H     1 <1>   0.0800 
@<TRIPOS>BOND
  1   1   2  1   
  2   2   3  ar  
  3   2   4  ar  
  4   3   5  1   
  5   3   6  ar  
  6   4   7  ar  
  7   4   8  1   
  8   6   9  ar  
  9   6  10  1   
 10   7   9  ar  
 11   7  22  1   
 12   8  11  1   
 13   8  23  1   
 14   8  24  1   
 15   9  25  1   
 16  10  26  1   
 17  10  27  1   
 18  10  28  1   
 19  11  12  1   
 20  11  13  1   
 21  12  14  1   
 22  12  29  1   
 23  12  30  1   
 24  13  15  1   
 25  13  31  1   
 26  13  32  1   
 27  14  16  1   
 28  14  17  1   
 29  14  33  1   
 30  15  18  1   
 31  15  19  1   
 32  15  34  1   
 33  16  18  am  
 34  16  35  1   
 35  17  20  1   
 36  17  36  1   
 37  17  37  1   
 38  18  21  2   
 39  19  20  1   
 40  19  38  1   
 41  19  39  1   
@<TRIPOS>SUBSTRUCTURE
  1 ****  11 GROUP 4 **** **** 0

# MOE 2024.06 (io_trps.svl 2023.06)
