@<TRIPOS>MOLECULE
NONAME
47 49 1 0 0 
SMALL
USER_CHARGES


@<TRIPOS>ATOM
  1 O       -0.2960    -2.5920    -1.3290 O.2   1 <1>  -0.5700 
  2 C        0.8240    -2.8750    -0.9270 C.2   1 <1>   0.7670 
  3 N        1.8230    -2.9310    -1.8590 N.2   1 <1>  -0.6610 
  4 C        1.0840    -3.1310     0.4570 C.2   1 <1>  -0.1240 
  5 C        3.0040    -3.1930    -1.4480 C.2   1 <1>   0.4390 
  6 C        2.3590    -3.4080     0.8370 C.2   1 <1>  -0.0380 
  7 C       -0.0960    -3.0850     1.4350 C.3   1 <1>   0.0390 
  8 N        3.3120    -3.4250    -0.1430 N.pl3 1 <1>  -0.5500 
  9 C        4.1440    -3.2590    -2.4340 C.3   1 <1>  -0.1790 
 10 C        2.8640    -3.7160     2.2380 C.3   1 <1>  -0.1020 
 11 C       -0.6170    -4.4780     1.7600 C.2   1 <1>   0.5690 
 12 O       -0.1390    -5.0410     2.7170 O.2   1 <1>  -0.5700 
 13 N       -1.5980    -5.0770     1.0160 N.am  1 <1>  -0.6600 
 14 C       -2.3100    -4.5260    -0.1680 C.3   1 <1>   0.1400 
 15 C       -2.0920    -6.4460     1.3130 C.3   1 <1>   0.1400 
 16 C       -3.5200    -5.4410    -0.3490 C.3   1 <1>   0.2000 
 17 C       -3.0380    -6.8030     0.1570 C.3   1 <1>  -0.0800 
 18 O       -4.5330    -5.0070     0.4910 O.3   1 <1>  -0.6800 
 19 C       -2.3140    -7.5770    -0.9610 C.3   1 <1>  -0.0160 
 20 C       -1.8650    -8.9530    -0.4920 C.ar  1 <1>  -0.1440 
 21 C       -0.5470    -9.2270    -0.1860 C.ar  1 <1>  -0.1500 
 22 C       -2.7540    -9.9990    -0.3490 C.ar  1 <1>  -0.1500 
 23 C       -0.1930   -10.4970     0.2380 C.ar  1 <1>   0.1600 
 24 C       -2.2960   -11.2330     0.0820 C.ar  1 <1>   0.1600 
 25 N       -1.0360   -11.5070     0.3810 N.ar  1 <1>  -0.6200 
 26 H       -0.8930    -2.4740     1.0590 H     1 <1>   0.0800 
 27 H        0.2170    -2.6220     2.3510 H     1 <1>   0.0800 
 28 H        4.2860    -3.6240     0.0930 H     1 <1>   0.4000 
 29 H        4.5890    -4.2360    -2.4160 H     1 <1>   0.0800 
 30 H        4.8840    -2.5200    -2.1880 H     1 <1>   0.0800 
 31 H        3.7820    -3.0640    -3.4280 H     1 <1>   0.0800 
 32 H        3.6250    -3.0100     2.5190 H     1 <1>   0.0800 
 33 H        3.2820    -4.7060     2.2630 H     1 <1>   0.0800 
 34 H        2.0850    -3.6740     2.9740 H     1 <1>   0.0800 
 35 H       -2.6050    -3.4990    -0.0350 H     1 <1>   0.0800 
 36 H       -1.6730    -4.6100    -1.0300 H     1 <1>   0.0800 
 37 H       -1.2700    -7.1350     1.4080 H     1 <1>   0.0800 
 38 H       -2.6310    -6.4260     2.2440 H     1 <1>   0.0800 
 39 H       -3.8980    -5.4540    -1.3570 H     1 <1>   0.0800 
 40 H       -3.8640    -7.3980     0.5070 H     1 <1>   0.0800 
 41 H       -4.1610    -4.8590     1.3840 H     1 <1>   0.4000 
 42 H       -1.4600    -7.0200    -1.3070 H     1 <1>   0.0800 
 43 H       -2.9780    -7.7020    -1.7980 H     1 <1>   0.0800 
 44 H        0.2080    -8.4670    -0.2720 H     1 <1>   0.1500 
 45 H       -3.7970    -9.8680    -0.5690 H     1 <1>   0.1500 
 46 H        0.8400   -10.6910     0.4740 H     1 <1>   0.1500 
 47 H       -3.0030   -12.0370     0.1880 H     1 <1>   0.1500 
@<TRIPOS>BOND
  1   1   2  2   
  2   2   3  1   
  3   2   4  1   
  4   3   5  2   
  5   4   6  2   
  6   4   7  1   
  7   5   8  1   
  8   5   9  1   
  9   6   8  1   
 10   6  10  1   
 11   7  11  1   
 12   7  26  1   
 13   7  27  1   
 14   8  28  1   
 15   9  29  1   
 16   9  30  1   
 17   9  31  1   
 18  10  32  1   
 19  10  33  1   
 20  10  34  1   
 21  11  12  2   
 22  11  13  am  
 23  13  14  1   
 24  13  15  1   
 25  14  16  1   
 26  14  35  1   
 27  14  36  1   
 28  15  17  1   
 29  15  37  1   
 30  15  38  1   
 31  16  17  1   
 32  16  18  1   
 33  16  39  1   
 34  17  19  1   
 35  17  40  1   
 36  18  41  1   
 37  19  20  1   
 38  19  42  1   
 39  19  43  1   
 40  20  21  ar  
 41  20  22  ar  
 42  21  23  ar  
 43  21  44  1   
 44  22  24  ar  
 45  22  45  1   
 46  23  25  ar  
 47  23  46  1   
 48  24  25  ar  
 49  24  47  1   
@<TRIPOS>SUBSTRUCTURE
  1 ****  13 GROUP 4 **** **** 0

# MOE 2024.06 (io_trps.svl 2023.06)
