@<TRIPOS>MOLECULE
NONAME
50 52 1 0 0 
SMALL
USER_CHARGES


@<TRIPOS>ATOM
  1 CL       0.4280    -1.3730     1.1130 Cl    1 <1>  -0.1770 
  2 C       -1.1960    -0.8020     0.8040 C.ar  1 <1>   0.1770 
  3 C       -1.4640     0.5570     0.6860 C.ar  1 <1>   0.0830 
  4 C       -2.2060    -1.7380     0.6860 C.ar  1 <1>  -0.1500 
  5 O       -0.5000     1.4930     0.8090 O.3   1 <1>  -0.3630 
  6 C       -2.7670     0.9720     0.4640 C.ar  1 <1>  -0.1500 
  7 C       -3.5100    -1.3210     0.4470 C.ar  1 <1>  -0.1430 
  8 C        0.3500     1.6890    -0.3150 C.3   1 <1>   0.1810 
  9 C       -3.7830     0.0390     0.3440 C.ar  1 <1>  -0.1500 
 10 C       -4.6290    -2.3340     0.3060 C.3   1 <1>   0.4870 
 11 C        1.3430     2.8180    -0.0700 C.2   1 <1>   0.5690 
 12 N       -4.9560    -2.4660    -1.1450 N.4   1 <1>  -0.9590 
 13 O        1.9410     3.2900    -1.0020 O.2   1 <1>  -0.5700 
 14 N        1.5580     3.2860     1.1770 N.am  1 <1>  -0.8000 
 15 C       -6.2960    -3.0430    -1.4550 C.3   1 <1>   0.4230 
 16 C       -3.8770    -3.2070    -1.8720 C.3   1 <1>   0.2630 
 17 C       -6.5830    -4.3890    -0.7900 C.3   1 <1>  -0.1600 
 18 C       -7.4480    -2.1480    -1.0110 C.3   1 <1>  -0.1600 
 19 C       -8.1080    -4.5310    -0.8820 C.3   1 <1>  -0.0800 
 20 C       -8.6630    -3.0850    -0.9530 C.3   1 <1>  -0.0800 
 21 C       -8.7060    -5.4330     0.2210 C.3   1 <1>   0.1400 
 22 C       -9.6520    -2.7290     0.1750 C.3   1 <1>  -0.0990 
 23 N      -10.1360    -5.1170     0.4000 N.am  1 <1>  -0.7300 
 24 C      -10.6300    -3.8620     0.3970 C.2   1 <1>   0.5690 
 25 O      -11.7990    -3.6410     0.5700 O.2   1 <1>  -0.5700 
 26 H       -1.9550    -2.7790     0.7900 H     1 <1>   0.1500 
 27 H       -2.9770     2.0260     0.3920 H     1 <1>   0.1500 
 28 H        0.8880     0.7810    -0.5080 H     1 <1>   0.0800 
 29 H       -0.2610     1.9340    -1.1640 H     1 <1>   0.0800 
 30 H       -4.7880     0.3930     0.1780 H     1 <1>   0.1500 
 31 H       -5.4850    -1.9860     0.8590 H     1 <1>   0.0800 
 32 H       -4.3270    -3.2860     0.7120 H     1 <1>   0.0800 
 33 H       -4.9540    -1.5040    -1.5090 H     1 <1>   0.4500 
 34 H        2.2200     4.0440     1.3360 H     1 <1>   0.3700 
 35 H        1.0480     2.9250     1.9850 H     1 <1>   0.3700 
 36 H       -6.3860    -3.1770    -2.5230 H     1 <1>   0.0800 
 37 H       -3.8040    -4.2190    -1.5070 H     1 <1>   0.0800 
 38 H       -2.9260    -2.7190    -1.7310 H     1 <1>   0.0800 
 39 H       -4.0900    -3.2370    -2.9280 H     1 <1>   0.0800 
 40 H       -6.0900    -5.2000    -1.2970 H     1 <1>   0.0800 
 41 H       -6.2940    -4.3780     0.2450 H     1 <1>   0.0800 
 42 H       -7.2700    -1.7350    -0.0360 H     1 <1>   0.0800 
 43 H       -7.6170    -1.3480    -1.7110 H     1 <1>   0.0800 
 44 H       -8.3370    -5.0020    -1.8250 H     1 <1>   0.0800 
 45 H       -9.2050    -3.0020    -1.8840 H     1 <1>   0.0800 
 46 H       -8.2070    -5.2680     1.1600 H     1 <1>   0.0800 
 47 H       -8.5940    -6.4700    -0.0470 H     1 <1>   0.0800 
 48 H      -10.1960    -1.8350    -0.0730 H     1 <1>   0.0800 
 49 H       -9.1360    -2.5650     1.1030 H     1 <1>   0.0800 
 50 H      -10.7940    -5.8780     0.5890 H     1 <1>   0.3700 
@<TRIPOS>BOND
  1   1   2  1   
  2   2   3  ar  
  3   2   4  ar  
  4   3   5  1   
  5   3   6  ar  
  6   4   7  ar  
  7   4  26  1   
  8   5   8  1   
  9   6   9  ar  
 10   6  27  1   
 11   7   9  ar  
 12   7  10  1   
 13   8  11  1   
 14   8  28  1   
 15   8  29  1   
 16   9  30  1   
 17  10  12  1   
 18  10  31  1   
 19  10  32  1   
 20  11  13  2   
 21  11  14  am  
 22  12  15  1   
 23  12  16  1   
 24  12  33  1   
 25  14  34  1   
 26  14  35  1   
 27  15  17  1   
 28  15  18  1   
 29  15  36  1   
 30  16  37  1   
 31  16  38  1   
 32  16  39  1   
 33  17  19  1   
 34  17  40  1   
 35  17  41  1   
 36  18  20  1   
 37  18  42  1   
 38  18  43  1   
 39  19  20  1   
 40  19  21  1   
 41  19  44  1   
 42  20  22  1   
 43  20  45  1   
 44  21  23  1   
 45  21  46  1   
 46  21  47  1   
 47  22  24  1   
 48  22  48  1   
 49  22  49  1   
 50  23  24  am  
 51  23  50  1   
 52  24  25  2   
@<TRIPOS>SUBSTRUCTURE
  1 ****  10 GROUP 4 **** **** 0

# MOE 2024.06 (io_trps.svl 2023.06)
