@<TRIPOS>MOLECULE
NONAME
62 65 1 0 0 
SMALL
USER_CHARGES


@<TRIPOS>ATOM
  1 O        0.0040    -0.0580     0.0410 O.2   1 <1>  -0.5700 
  2 C       -0.0250     1.1210    -0.2310 C.2   1 <1>   0.5690 
  3 N       -1.1520     1.8800    -0.0410 N.am  1 <1>  -0.6600 
  4 C        1.2410     1.7660    -0.7810 C.3   1 <1>  -0.0990 
  5 C       -2.3770     1.2690     0.5580 C.3   1 <1>   0.1400 
  6 C       -1.2380     3.3350    -0.3780 C.3   1 <1>   0.1400 
  7 C        2.4400     0.8040    -0.8810 C.3   1 <1>  -0.0990 
  8 C       -3.0900     2.2850     1.4540 C.3   1 <1>  -0.1600 
  9 C       -2.6930     3.7530    -0.5940 C.3   1 <1>  -0.1600 
 10 C        3.6860     1.5320    -1.3390 C.2   1 <1>   0.5690 
 11 C       -3.5430     3.5470     0.6790 C.3   1 <1>   0.2800 
 12 O        3.7810     1.8130    -2.5070 O.2   1 <1>  -0.5700 
 13 N        4.6200     1.8370    -0.3880 N.am  1 <1>  -0.5470 
 14 O       -3.2190     4.6400     1.5150 O.3   1 <1>  -0.5600 
 15 C       -5.0750     3.4890     0.3780 C.3   1 <1>   0.2000 
 16 C        5.8460     2.5200    -0.4510 C.ar  1 <1>   0.1170 
 17 C       -4.2270     5.5170     1.9320 C.3   1 <1>   0.1200 
 18 O       -5.4010     2.4800    -0.5360 O.3   1 <1>  -0.6800 
 19 C       -5.6870     4.8610    -0.0320 C.3   1 <1>   0.2800 
 20 C        6.6640     2.4970     0.6760 C.ar  1 <1>  -0.1500 
 21 C        6.2810     3.2250    -1.5740 C.ar  1 <1>  -0.1500 
 22 C       -4.9920     6.0190     0.7050 C.3   1 <1>  -0.1600 
 23 O       -7.0080     4.8430     0.3780 O.3   1 <1>  -0.6800 
 24 C       -5.7440     5.1380    -1.5420 C.3   1 <1>  -0.2400 
 25 C        7.8750     3.1610     0.6670 C.ar  1 <1>  -0.1440 
 26 C        7.4970     3.8880    -1.5780 C.ar  1 <1>  -0.1500 
 27 C        8.2880     3.8480    -0.4460 C.ar  1 <1>  -0.1440 
 28 C        8.8940     3.2550     1.7750 C.3   1 <1>  -0.0170 
 29 C        9.6340     4.4900    -0.2300 C.3   1 <1>  -0.0170 
 30 C       10.1310     3.8440     1.0750 C.3   1 <1>  -0.1600 
 31 H        1.0310     2.1490    -1.7630 H     1 <1>   0.0800 
 32 H        1.5040     2.5900    -0.1440 H     1 <1>   0.0800 
 33 H       -3.0360     0.9480    -0.2320 H     1 <1>   0.0800 
 34 H       -2.1130     0.4040     1.1430 H     1 <1>   0.0800 
 35 H       -0.8170     3.9090     0.4300 H     1 <1>   0.0800 
 36 H       -0.6810     3.5420    -1.2740 H     1 <1>   0.0800 
 37 H        2.2170     0.0270    -1.5900 H     1 <1>   0.0800 
 38 H        2.6180     0.3390     0.0710 H     1 <1>   0.0800 
 39 H       -2.4120     2.5570     2.2430 H     1 <1>   0.0800 
 40 H       -3.9340     1.8010     1.9090 H     1 <1>   0.0800 
 41 H       -3.0850     3.1700    -1.4080 H     1 <1>   0.0800 
 42 H       -2.7240     4.7840    -0.8900 H     1 <1>   0.0800 
 43 H        4.3950     1.4920     0.5420 H     1 <1>   0.3700 
 44 H       -5.5490     3.2020     1.3000 H     1 <1>   0.0800 
 45 H       -4.8740     5.0020     2.6220 H     1 <1>   0.0800 
 46 H       -3.7530     6.3350     2.4450 H     1 <1>   0.0800 
 47 H       -6.3710     2.4850    -0.6600 H     1 <1>   0.4000 
 48 H        6.3600     1.9630     1.5570 H     1 <1>   0.1500 
 49 H        5.6730     3.2650    -2.4570 H     1 <1>   0.1500 
 50 H       -4.2750     6.4940     0.0590 H     1 <1>   0.0800 
 51 H       -5.7020     6.7710     1.0000 H     1 <1>   0.0800 
 52 H       -7.4570     5.6530     0.0710 H     1 <1>   0.4000 
 53 H       -4.7590     5.1090    -1.9670 H     1 <1>   0.0800 
 54 H       -6.1580     6.1110    -1.7360 H     1 <1>   0.0800 
 55 H       -6.3400     4.3990    -2.0460 H     1 <1>   0.0800 
 56 H        7.8210     4.4270    -2.4510 H     1 <1>   0.1500 
 57 H        8.5340     3.9250     2.5360 H     1 <1>   0.0800 
 58 H        9.1040     2.2910     2.2040 H     1 <1>   0.0800 
 59 H       10.3030     4.2930    -1.0490 H     1 <1>   0.0800 
 60 H        9.5080     5.5520    -0.1050 H     1 <1>   0.0800 
 61 H       10.6470     4.5500     1.7010 H     1 <1>   0.0800 
 62 H       10.8030     3.0400     0.8270 H     1 <1>   0.0800 
@<TRIPOS>BOND
  1   1   2  2   
  2   2   3  am  
  3   2   4  1   
  4   3   5  1   
  5   3   6  1   
  6   4   7  1   
  7   4  31  1   
  8   4  32  1   
  9   5   8  1   
 10   5  33  1   
 11   5  34  1   
 12   6   9  1   
 13   6  35  1   
 14   6  36  1   
 15   7  10  1   
 16   7  37  1   
 17   7  38  1   
 18   8  11  1   
 19   8  39  1   
 20   8  40  1   
 21   9  11  1   
 22   9  41  1   
 23   9  42  1   
 24  10  12  2   
 25  10  13  am  
 26  11  14  1   
 27  11  15  1   
 28  13  16  1   
 29  13  43  1   
 30  14  17  1   
 31  15  18  1   
 32  15  19  1   
 33  15  44  1   
 34  16  20  ar  
 35  16  21  ar  
 36  17  22  1   
 37  17  45  1   
 38  17  46  1   
 39  18  47  1   
 40  19  22  1   
 41  19  23  1   
 42  19  24  1   
 43  20  25  ar  
 44  20  48  1   
 45  21  26  ar  
 46  21  49  1   
 47  22  50  1   
 48  22  51  1   
 49  23  52  1   
 50  24  53  1   
 51  24  54  1   
 52  24  55  1   
 53  25  27  ar  
 54  25  28  1   
 55  26  27  ar  
 56  26  56  1   
 57  27  29  1   
 58  28  30  1   
 59  28  57  1   
 60  28  58  1   
 61  29  30  1   
 62  29  59  1   
 63  29  60  1   
 64  30  61  1   
 65  30  62  1   
@<TRIPOS>SUBSTRUCTURE
  1 ****   4 GROUP 4 **** **** 0

# MOE 2024.06 (io_trps.svl 2023.06)
