@<TRIPOS>MOLECULE
NONAME
40 41 1 0 0 
SMALL
USER_CHARGES


@<TRIPOS>ATOM
  1 O       -0.6240     0.0540    -0.0320 O.2   1 <1>  -0.5700 
  2 C       -1.6840     0.5480     0.2500 C.2   1 <1>   0.4230 
  3 C       -2.9340    -0.0800    -0.0770 C.ar  1 <1>   0.0860 
  4 C       -1.6400     1.8430     1.0370 C.3   1 <1>  -0.1790 
  5 C       -4.0780     0.5490    -0.5640 C.ar  1 <1>   0.1660 
  6 C       -3.0590    -1.4490     0.0970 C.ar  1 <1>   0.1600 
  7 N       -5.1960    -0.0980    -0.7810 N.ar  1 <1>  -0.6200 
  8 C       -4.1170     2.0280    -0.9140 C.3   1 <1>  -0.0960 
  9 N       -4.1640    -2.1160    -0.1240 N.ar  1 <1>  -0.6200 
 10 C       -5.1990    -1.4090    -0.5600 C.ar  1 <1>   0.7200 
 11 N       -6.3710    -2.0870    -0.7960 N.pl3 1 <1>  -0.8380 
 12 C       -6.4380    -3.5790    -0.9020 C.3   1 <1>   0.2090 
 13 C       -7.6890    -1.3930    -0.9440 C.3   1 <1>   0.2090 
 14 C       -7.4900    -4.1450     0.0740 C.3   1 <1>   0.3430 
 15 C       -8.7330    -1.9980     0.0180 C.3   1 <1>   0.3430 
 16 N       -8.8490    -3.5010    -0.1000 N.4   1 <1>  -0.9590 
 17 C       -9.8550    -4.0160     0.8870 C.3   1 <1>   0.3430 
 18 C      -10.2220    -5.4900     0.6570 C.3   1 <1>   0.1200 
 19 O      -11.2200    -5.8190     1.5560 O.3   1 <1>  -0.6800 
 20 H       -2.5620     2.0060     1.5620 H     1 <1>   0.0800 
 21 H       -1.4450     2.6670     0.3760 H     1 <1>   0.0800 
 22 H       -0.8430     1.7920     1.7580 H     1 <1>   0.0800 
 23 H       -2.1980    -2.0000     0.4410 H     1 <1>   0.1500 
 24 H       -3.1770     2.3520    -1.3210 H     1 <1>   0.0800 
 25 H       -4.3540     2.6090    -0.0420 H     1 <1>   0.0800 
 26 H       -4.8730     2.2110    -1.6570 H     1 <1>   0.0800 
 27 H       -5.4870    -4.0360    -0.6880 H     1 <1>   0.0800 
 28 H       -6.6960    -3.8480    -1.9110 H     1 <1>   0.0800 
 29 H       -8.0260    -1.4860    -1.9620 H     1 <1>   0.0800 
 30 H       -7.6030    -0.3420    -0.7290 H     1 <1>   0.0800 
 31 H       -7.1350    -3.9760     1.0770 H     1 <1>   0.0800 
 32 H       -7.5630    -5.2090    -0.0760 H     1 <1>   0.0800 
 33 H       -9.6900    -1.5400    -0.1750 H     1 <1>   0.0800 
 34 H       -8.4440    -1.7390     1.0240 H     1 <1>   0.0800 
 35 H       -9.1810    -3.7050    -1.0520 H     1 <1>   0.4500 
 36 H      -10.7590    -3.4360     0.8080 H     1 <1>   0.0800 
 37 H       -9.4710    -3.9050     1.8880 H     1 <1>   0.0800 
 38 H       -9.3840    -6.1390     0.8410 H     1 <1>   0.0800 
 39 H      -10.6090    -5.6430    -0.3360 H     1 <1>   0.0800 
 40 H      -11.5120    -6.7510     1.4590 H     1 <1>   0.4000 
@<TRIPOS>BOND
  1   1   2  2   
  2   2   3  1   
  3   2   4  1   
  4   3   5  ar  
  5   3   6  ar  
  6   4  20  1   
  7   4  21  1   
  8   4  22  1   
  9   5   7  ar  
 10   5   8  1   
 11   6   9  ar  
 12   6  23  1   
 13   7  10  ar  
 14   8  24  1   
 15   8  25  1   
 16   8  26  1   
 17   9  10  ar  
 18  10  11  1   
 19  11  12  1   
 20  11  13  1   
 21  12  14  1   
 22  12  27  1   
 23  12  28  1   
 24  13  15  1   
 25  13  29  1   
 26  13  30  1   
 27  14  16  1   
 28  14  31  1   
 29  14  32  1   
 30  15  16  1   
 31  15  33  1   
 32  15  34  1   
 33  16  17  1   
 34  16  35  1   
 35  17  18  1   
 36  17  36  1   
 37  17  37  1   
 38  18  19  1   
 39  18  38  1   
 40  18  39  1   
 41  19  40  1   
@<TRIPOS>SUBSTRUCTURE
  1 ****  10 GROUP 4 **** **** 0

# MOE 2024.06 (io_trps.svl 2023.06)
