@<TRIPOS>MOLECULE
NONAME
53 56 1 0 0 
SMALL
USER_CHARGES


@<TRIPOS>ATOM
  1 S        0.3300     1.6880     3.1350 S.3   1 <1>  -0.3320 
  2 C        1.6700     2.1810     2.0390 C.ar  1 <1>   0.1020 
  3 C       -0.9650     0.8980     2.0810 C.3   1 <1>  -0.0100 
  4 C        2.7750     2.7650     2.6270 C.ar  1 <1>  -0.1500 
  5 C        1.6140     1.9920     0.6680 C.ar  1 <1>  -0.1500 
  6 C        3.8380     3.1720     1.8400 C.ar  1 <1>  -0.1500 
  7 C        2.6780     2.4020    -0.1180 C.ar  1 <1>  -0.1500 
  8 C        3.7900     3.0010     0.4620 C.ar  1 <1>  -0.1430 
  9 C        4.9430     3.4660    -0.4030 C.3   1 <1>   0.4860 
 10 N        4.9560     4.9540    -0.4200 N.4   1 <1>  -0.8520 
 11 C        4.0140     5.4940    -1.4260 C.3   1 <1>   0.2960 
 12 C        6.3440     5.4710    -0.5930 C.3   1 <1>   0.4860 
 13 C        3.3920     6.8310    -1.1890 C.3   1 <1>  -0.2000 
 14 C        2.5660     5.5870    -1.0740 C.3   1 <1>  -0.2000 
 15 C        6.4120     6.9330    -0.2220 C.ar  1 <1>  -0.1430 
 16 C        6.3750     7.3500     1.0880 C.ar  1 <1>   0.1600 
 17 C        6.5110     7.9150    -1.1800 C.ar  1 <1>   0.1600 
 18 N        6.4010     8.6130     1.4170 N.ar  1 <1>  -0.6200 
 19 N        6.5410     9.1840    -0.8740 N.ar  1 <1>  -0.6200 
 20 C        6.4820     9.4950     0.4210 C.ar  1 <1>   0.7200 
 21 N        6.5040    10.8300     0.7540 N.pl3 1 <1>  -0.8380 
 22 C        6.6160    11.3100     2.1690 C.3   1 <1>   0.2090 
 23 C        6.7540    11.9120    -0.2510 C.3   1 <1>   0.2090 
 24 C        5.8480    12.6290     2.3720 C.3   1 <1>   0.1200 
 25 C        5.9780    13.1930     0.1050 C.3   1 <1>   0.1200 
 26 O        6.2290    13.5880     1.4250 O.3   1 <1>  -0.5600 
 27 H       -1.7630     0.5830     2.7310 H     1 <1>   0.0800 
 28 H       -0.5220     0.0520     1.5870 H     1 <1>   0.0800 
 29 H       -1.3160     1.6300     1.3770 H     1 <1>   0.0800 
 30 H        2.7950     2.8930     3.6960 H     1 <1>   0.1500 
 31 H        0.7600     1.5330     0.2070 H     1 <1>   0.1500 
 32 H        4.6920     3.6140     2.3240 H     1 <1>   0.1500 
 33 H        2.6220     2.2470    -1.1820 H     1 <1>   0.1500 
 34 H        4.8440     3.0780    -1.4030 H     1 <1>   0.0800 
 35 H        5.8600     3.0890     0.0210 H     1 <1>   0.0800 
 36 H        4.5960     5.2570     0.4930 H     1 <1>   0.4500 
 37 H        4.2670     5.2280    -2.4420 H     1 <1>   0.1000 
 38 H        6.6630     5.3370    -1.6140 H     1 <1>   0.0800 
 39 H        7.0210     4.9240     0.0440 H     1 <1>   0.0800 
 40 H        3.2050     7.4800    -2.0270 H     1 <1>   0.1000 
 41 H        3.5910     7.3840    -0.2860 H     1 <1>   0.1000 
 42 H        2.2150     5.3110    -0.0950 H     1 <1>   0.1000 
 43 H        1.8270     5.4100    -1.8360 H     1 <1>   0.1000 
 44 H        6.3180     6.6400     1.8960 H     1 <1>   0.1500 
 45 H        6.5620     7.6650    -2.2270 H     1 <1>   0.1500 
 46 H        7.6530    11.4660     2.4070 H     1 <1>   0.0800 
 47 H        6.2240    10.5820     2.8560 H     1 <1>   0.0800 
 48 H        6.4580    11.6010    -1.2360 H     1 <1>   0.0800 
 49 H        7.8070    12.1330    -0.2760 H     1 <1>   0.0800 
 50 H        6.0560    13.0300     3.3470 H     1 <1>   0.0800 
 51 H        4.7890    12.4610     2.2850 H     1 <1>   0.0800 
 52 H        4.9210    13.0320    -0.0120 H     1 <1>   0.0800 
 53 H        6.2790    13.9980    -0.5410 H     1 <1>   0.0800 
@<TRIPOS>BOND
  1   1   2  1   
  2   1   3  1   
  3   2   4  ar  
  4   2   5  ar  
  5   3  27  1   
  6   3  28  1   
  7   3  29  1   
  8   4   6  ar  
  9   4  30  1   
 10   5   7  ar  
 11   5  31  1   
 12   6   8  ar  
 13   6  32  1   
 14   7   8  ar  
 15   7  33  1   
 16   8   9  1   
 17   9  10  1   
 18   9  34  1   
 19   9  35  1   
 20  10  11  1   
 21  10  12  1   
 22  10  36  1   
 23  11  13  1   
 24  11  14  1   
 25  11  37  1   
 26  12  15  1   
 27  12  38  1   
 28  12  39  1   
 29  13  14  1   
 30  13  40  1   
 31  13  41  1   
 32  14  42  1   
 33  14  43  1   
 34  15  16  ar  
 35  15  17  ar  
 36  16  18  ar  
 37  16  44  1   
 38  17  19  ar  
 39  17  45  1   
 40  18  20  ar  
 41  19  20  ar  
 42  20  21  1   
 43  21  22  1   
 44  21  23  1   
 45  22  24  1   
 46  22  46  1   
 47  22  47  1   
 48  23  25  1   
 49  23  48  1   
 50  23  49  1   
 51  24  26  1   
 52  24  50  1   
 53  24  51  1   
 54  25  26  1   
 55  25  52  1   
 56  25  53  1   
@<TRIPOS>SUBSTRUCTURE
  1 ****  10 GROUP 4 **** **** 0

# MOE 2024.06 (io_trps.svl 2023.06)
