@<TRIPOS>MOLECULE
NONAME
61 64 1 0 0 
SMALL
USER_CHARGES


@<TRIPOS>ATOM
  1 O       -0.1480     0.1790     0.3080 O.2   1 <1>  -0.5700 
  2 C       -0.1670     1.3430     0.6620 C.2   1 <1>   0.5440 
  3 N       -1.3660     1.9100     1.0470 N.am  1 <1>  -0.6600 
  4 C        1.0690     2.1030     0.6540 C.ar  1 <1>   0.0860 
  5 C       -2.5910     1.0920     1.2640 C.3   1 <1>   0.1400 
  6 C       -1.6140     3.3740     1.1030 C.3   1 <1>   0.1400 
  7 C        1.5340     2.7510     1.7980 C.ar  1 <1>  -0.1500 
  8 C        1.8400     2.2070    -0.5010 C.ar  1 <1>  -0.1500 
  9 C       -3.6330     1.4500     0.2010 C.3   1 <1>  -0.1600 
 10 C       -2.6400     3.7450     0.0300 C.3   1 <1>  -0.1600 
 11 C        2.7080     3.4820     1.7860 C.ar  1 <1>  -0.1500 
 12 C        3.0140     2.9380    -0.5210 C.ar  1 <1>  -0.1500 
 13 C       -3.9580     2.9530     0.1840 C.3   1 <1>   0.2800 
 14 C        3.4590     3.5810     0.6240 C.ar  1 <1>  -0.1430 
 15 O       -4.5270     3.2340     1.4360 O.3   1 <1>  -0.5600 
 16 C       -4.9690     3.2650    -0.9530 C.3   1 <1>  -0.1600 
 17 C        4.7590     4.3840     0.6080 C.3   1 <1>   0.2390 
 18 C       -4.9830     4.5390     1.7100 C.3   1 <1>   0.1200 
 19 C       -6.1630     4.1220    -0.5050 C.3   1 <1>   0.2800 
 20 N        5.8870     3.6250     0.0200 N.pl3 1 <1>   0.3140 
 21 C       -5.6660     5.1870     0.4960 C.3   1 <1>   0.2000 
 22 O       -6.6630     4.7730    -1.6190 O.3   1 <1>  -0.6800 
 23 C       -7.3180     3.2560     0.0250 C.3   1 <1>  -0.2400 
 24 N        6.5520     4.1010    -1.0530 N.2   1 <1>  -0.7070 
 25 C        6.4230     2.4540     0.4430 C.2   1 <1>  -0.3320 
 26 O       -6.7060     6.0120     0.9130 O.3   1 <1>  -0.6800 
 27 C        7.4800     3.2300    -1.2880 C.2   1 <1>   0.1080 
 28 C        7.4510     2.1750    -0.3850 C.2   1 <1>  -0.1500 
 29 C        5.9270     1.6350     1.6240 C.3   1 <1>  -0.0600 
 30 C        8.4620     3.3820    -2.4250 C.3   1 <1>  -0.0590 
 31 H       -2.3640     0.0410     1.2140 H     1 <1>   0.0800 
 32 H       -2.9830     1.2990     2.2460 H     1 <1>   0.0800 
 33 H       -1.9890     3.6310     2.0800 H     1 <1>   0.0800 
 34 H       -0.7080     3.9280     0.9320 H     1 <1>   0.0800 
 35 H        0.9600     2.6720     2.7050 H     1 <1>   0.1500 
 36 H        1.5090     1.7010    -1.3920 H     1 <1>   0.1500 
 37 H       -4.5310     0.8900     0.3860 H     1 <1>   0.0800 
 38 H       -3.2510     1.1470    -0.7570 H     1 <1>   0.0800 
 39 H       -2.2070     3.5240    -0.9290 H     1 <1>   0.0800 
 40 H       -2.8220     4.8020     0.0530 H     1 <1>   0.0800 
 41 H        3.0340     3.9690     2.6890 H     1 <1>   0.1500 
 42 H        3.5880     2.9990    -1.4320 H     1 <1>   0.1500 
 43 H       -4.4430     3.7760    -1.7400 H     1 <1>   0.0800 
 44 H       -5.3340     2.3490    -1.3810 H     1 <1>   0.0800 
 45 H        5.0380     4.6700     1.6040 H     1 <1>   0.0800 
 46 H        4.6180     5.2760     0.0270 H     1 <1>   0.0800 
 47 H       -5.6830     4.4580     2.5230 H     1 <1>   0.0800 
 48 H       -4.1460     5.1330     2.0300 H     1 <1>   0.0800 
 49 H       -4.9510     5.8180    -0.0020 H     1 <1>   0.0800 
 50 H       -7.0570     4.1180    -2.2260 H     1 <1>   0.4000 
 51 H       -7.0060     2.7080     0.8950 H     1 <1>   0.0800 
 52 H       -7.6390     2.5460    -0.7150 H     1 <1>   0.0800 
 53 H       -8.1530     3.8720     0.3080 H     1 <1>   0.0800 
 54 H       -7.2280     6.2470     0.1170 H     1 <1>   0.4000 
 55 H        8.1180     1.3320    -0.3750 H     1 <1>   0.1500 
 56 H        6.5630     0.7820     1.7750 H     1 <1>   0.0800 
 57 H        4.9270     1.2830     1.4380 H     1 <1>   0.0800 
 58 H        5.9310     2.2290     2.5200 H     1 <1>   0.0800 
 59 H        9.1440     2.5530    -2.4460 H     1 <1>   0.0800 
 60 H        9.0160     4.2930    -2.2980 H     1 <1>   0.0800 
 61 H        7.9270     3.4250    -3.3550 H     1 <1>   0.0800 
@<TRIPOS>BOND
  1   1   2  2   
  2   2   3  am  
  3   2   4  1   
  4   3   5  1   
  5   3   6  1   
  6   4   7  ar  
  7   4   8  ar  
  8   5   9  1   
  9   5  31  1   
 10   5  32  1   
 11   6  10  1   
 12   6  33  1   
 13   6  34  1   
 14   7  11  ar  
 15   7  35  1   
 16   8  12  ar  
 17   8  36  1   
 18   9  13  1   
 19   9  37  1   
 20   9  38  1   
 21  10  13  1   
 22  10  39  1   
 23  10  40  1   
 24  11  14  ar  
 25  11  41  1   
 26  12  14  ar  
 27  12  42  1   
 28  13  15  1   
 29  13  16  1   
 30  14  17  1   
 31  15  18  1   
 32  16  19  1   
 33  16  43  1   
 34  16  44  1   
 35  17  20  1   
 36  17  45  1   
 37  17  46  1   
 38  18  21  1   
 39  18  47  1   
 40  18  48  1   
 41  19  21  1   
 42  19  22  1   
 43  19  23  1   
 44  20  24  1   
 45  20  25  1   
 46  21  26  1   
 47  21  49  1   
 48  22  50  1   
 49  23  51  1   
 50  23  52  1   
 51  23  53  1   
 52  24  27  2   
 53  25  28  2   
 54  25  29  1   
 55  26  54  1   
 56  27  28  1   
 57  27  30  1   
 58  28  55  1   
 59  29  56  1   
 60  29  57  1   
 61  29  58  1   
 62  30  59  1   
 63  30  60  1   
 64  30  61  1   
@<TRIPOS>SUBSTRUCTURE
  1 ****   4 GROUP 4 **** **** 0

# MOE 2024.06 (io_trps.svl 2023.06)
