@<TRIPOS>MOLECULE
NONAME
54 57 1 0 0 
SMALL
USER_CHARGES


@<TRIPOS>ATOM
  1 S       -0.2790     0.4990     1.0530 S.o2  1 <1>   1.5010 
  2 O        0.8850     0.4100     1.9070 O.2   1 <1>  -0.6500 
  3 O       -1.5600     0.8370     1.6360 O.2   1 <1>  -0.6500 
  4 N       -0.3910    -0.9890     0.2440 N.am  1 <1>  -0.8490 
  5 C        0.0910     1.6470    -0.3030 C.2   1 <1>  -0.0630 
  6 C       -0.2580    -2.2020     1.0260 C.3   1 <1>   0.2760 
  7 C       -1.5940    -1.3480    -0.4620 C.3   1 <1>   0.2760 
  8 C       -0.2950     2.9400    -0.4170 C.2   1 <1>  -0.1400 
  9 C        0.9060     1.2340    -1.4150 C.2   1 <1>  -0.1500 
 10 C       -0.0910    -3.2200    -0.1320 C.3   1 <1>   0.0610 
 11 C       -1.6360    -2.3020     1.7130 C.3   1 <1>  -0.1600 
 12 C       -1.1060    -2.6270    -1.1600 C.3   1 <1>  -0.1600 
 13 C       -2.5800    -1.7670     0.6350 C.3   1 <1>  -0.1600 
 14 S        0.3030     3.6600    -1.9010 S.3   1 <1>  -0.0800 
 15 C       -1.1170     3.8580     0.4690 C.3   1 <1>  -0.0600 
 16 C        1.1120     2.1770    -2.3500 C.2   1 <1>  -0.1400 
 17 C       -0.3900    -4.6740     0.2650 C.2   1 <1>   0.5690 
 18 C        1.3420    -3.1530    -0.7300 C.3   1 <1>  -0.0160 
 19 C        1.8900     2.1770    -3.6490 C.3   1 <1>  -0.0600 
 20 O       -0.2700    -5.0330     1.4120 O.2   1 <1>  -0.5700 
 21 N       -0.7580    -5.5600    -0.7060 N.am  1 <1>  -0.7300 
 22 C        2.4550    -3.4160     0.2770 C.ar  1 <1>  -0.1440 
 23 C       -1.0550    -6.9980    -0.4830 C.3   1 <1>   0.0600 
 24 C        2.8610    -4.7110     0.5610 C.ar  1 <1>  -0.1500 
 25 C        3.0800    -2.3550     0.9150 C.ar  1 <1>  -0.1500 
 26 C        3.8770    -4.9420     1.4720 C.ar  1 <1>  -0.1500 
 27 C        4.0960    -2.5850     1.8260 C.ar  1 <1>  -0.1500 
 28 C        4.4960    -3.8790     2.1050 C.ar  1 <1>  -0.1500 
 29 H        0.5630    -2.1930     1.7240 H     1 <1>   0.0800 
 30 H       -1.9580    -0.5870    -1.1340 H     1 <1>   0.0800 
 31 H        1.3050     0.2350    -1.4520 H     1 <1>   0.1500 
 32 H       -1.8950    -3.2970     2.0230 H     1 <1>   0.0800 
 33 H       -1.6540    -1.6720     2.5850 H     1 <1>   0.0800 
 34 H       -1.9320    -3.2830    -1.3700 H     1 <1>   0.0800 
 35 H       -0.6340    -2.3690    -2.0910 H     1 <1>   0.0800 
 36 H       -3.1520    -0.9300     0.9930 H     1 <1>   0.0800 
 37 H       -3.2690    -2.5200     0.2940 H     1 <1>   0.0800 
 38 H       -1.3920     3.3730     1.3870 H     1 <1>   0.0800 
 39 H       -2.0120     4.1560    -0.0450 H     1 <1>   0.0800 
 40 H       -0.5470     4.7380     0.7080 H     1 <1>   0.0800 
 41 H        1.4280    -3.8650    -1.5310 H     1 <1>   0.0800 
 42 H        1.5130    -2.1840    -1.1640 H     1 <1>   0.0800 
 43 H        2.3390     1.2150    -3.8130 H     1 <1>   0.0800 
 44 H        2.6650     2.9210    -3.6110 H     1 <1>   0.0800 
 45 H        1.2320     2.4010    -4.4700 H     1 <1>   0.0800 
 46 H       -0.8230    -5.2410    -1.6740 H     1 <1>   0.3700 
 47 H       -0.9480    -7.2480     0.5590 H     1 <1>   0.0800 
 48 H       -0.3740    -7.6040    -1.0550 H     1 <1>   0.0800 
 49 H       -2.0640    -7.2140    -0.7870 H     1 <1>   0.0800 
 50 H        2.3830    -5.5470     0.0830 H     1 <1>   0.1500 
 51 H        2.7760    -1.3410     0.7150 H     1 <1>   0.1500 
 52 H        4.1820    -5.9500     1.6900 H     1 <1>   0.1500 
 53 H        4.5690    -1.7540     2.3200 H     1 <1>   0.1500 
 54 H        5.2840    -4.0590     2.8150 H     1 <1>   0.1500 
@<TRIPOS>BOND
  1   1   2  2   
  2   1   3  2   
  3   1   4  am  
  4   1   5  1   
  5   4   6  1   
  6   4   7  1   
  7   5   8  2   
  8   5   9  1   
  9   6  10  1   
 10   6  11  1   
 11   6  29  1   
 12   7  12  1   
 13   7  13  1   
 14   7  30  1   
 15   8  14  1   
 16   8  15  1   
 17   9  16  2   
 18   9  31  1   
 19  10  12  1   
 20  10  17  1   
 21  10  18  1   
 22  11  13  1   
 23  11  32  1   
 24  11  33  1   
 25  12  34  1   
 26  12  35  1   
 27  13  36  1   
 28  13  37  1   
 29  14  16  1   
 30  15  38  1   
 31  15  39  1   
 32  15  40  1   
 33  16  19  1   
 34  17  20  2   
 35  17  21  am  
 36  18  22  1   
 37  18  41  1   
 38  18  42  1   
 39  19  43  1   
 40  19  44  1   
 41  19  45  1   
 42  21  23  1   
 43  21  46  1   
 44  22  24  ar  
 45  22  25  ar  
 46  23  47  1   
 47  23  48  1   
 48  23  49  1   
 49  24  26  ar  
 50  24  50  1   
 51  25  27  ar  
 52  25  51  1   
 53  26  28  ar  
 54  26  52  1   
 55  27  28  ar  
 56  27  53  1   
 57  28  54  1   
@<TRIPOS>SUBSTRUCTURE
  1 ****   4 GROUP 4 **** **** 0

# MOE 2024.06 (io_trps.svl 2023.06)
