@<TRIPOS>MOLECULE
NONAME
51 54 1 0 0 
SMALL
USER_CHARGES


@<TRIPOS>ATOM
  1 O        0.7920     0.0960    -0.5900 O.2   1 <1>  -0.5700 
  2 C        1.7360    -0.6720    -0.5940 C.2   1 <1>   0.5440 
  3 N        3.0130    -0.1500    -0.5180 N.am  1 <1>  -0.6600 
  4 C        1.4780    -2.0990    -0.6650 C.ar  1 <1>   0.0860 
  5 C        4.1820    -0.9230     0.0130 C.3   1 <1>   0.1400 
  6 C        3.2610     1.2820    -0.8510 C.3   1 <1>   0.1400 
  7 C        0.5080    -2.6940     0.1140 C.ar  1 <1>  -0.1500 
  8 C        2.1980    -2.9280    -1.5490 C.ar  1 <1>  -0.1500 
  9 C        4.7810    -0.2900     1.2780 C.3   1 <1>   0.1400 
 10 C        3.2830     2.1270     0.4290 C.3   1 <1>  -0.1600 
 11 C        0.2400    -4.0740     0.0660 C.ar  1 <1>   0.0000 
 12 C        1.9580    -4.2750    -1.6160 C.ar  1 <1>  -0.1500 
 13 N        5.4800     0.9920     0.9620 N.am  1 <1>  -0.6600 
 14 C        4.6580     2.2300     1.1060 C.3   1 <1>   0.1400 
 15 C        0.9830    -4.8890    -0.8160 C.ar  1 <1>   0.3100 
 16 C       -0.7430    -4.6910     0.8580 C.ar  1 <1>  -0.1500 
 17 C        6.7800     0.9570     0.5220 C.2   1 <1>   0.5690 
 18 N        0.7920    -6.2280    -0.9190 N.ar  1 <1>  -0.6200 
 19 C       -0.9190    -6.0360     0.7350 C.ar  1 <1>  -0.1500 
 20 O        7.3450    -0.0940     0.3220 O.2   1 <1>  -0.5700 
 21 C        7.5430     2.2480     0.2640 C.3   1 <1>  -0.0990 
 22 C       -0.1250    -6.7580    -0.1680 C.ar  1 <1>   0.1600 
 23 C        9.0350     2.0400    -0.0270 C.3   1 <1>   0.0210 
 24 C        9.7110     3.3770    -0.2590 C.2   1 <1>  -0.1810 
 25 C       10.0030     4.3390     0.7040 C.2   1 <1>   0.1390 
 26 C       10.1580     3.9070    -1.4170 C.2   1 <1>  -0.3020 
 27 N       10.5770     5.3860     0.1960 N.2   1 <1>  -0.7070 
 28 N       10.6770     5.1150    -1.1190 N.pl3 1 <1>   0.3000 
 29 H        4.9430    -0.9950    -0.7450 H     1 <1>   0.0800 
 30 H        3.8780    -1.9220     0.2650 H     1 <1>   0.0800 
 31 H        2.4680     1.6350    -1.4900 H     1 <1>   0.0800 
 32 H        4.1840     1.3810    -1.3950 H     1 <1>   0.0800 
 33 H       -0.0710    -2.0820     0.7820 H     1 <1>   0.1500 
 34 H        2.9440    -2.4760    -2.1800 H     1 <1>   0.1500 
 35 H        5.4910    -0.9790     1.7040 H     1 <1>   0.0800 
 36 H        4.0090    -0.1290     2.0100 H     1 <1>   0.0800 
 37 H        2.5560     1.7430     1.1220 H     1 <1>   0.0800 
 38 H        2.9690     3.1240     0.1810 H     1 <1>   0.0800 
 39 H        2.5100    -4.9040    -2.2900 H     1 <1>   0.1500 
 40 H        4.5250     2.4440     2.1530 H     1 <1>   0.0800 
 41 H        5.1740     3.0660     0.6700 H     1 <1>   0.0800 
 42 H       -1.3310    -4.1000     1.5380 H     1 <1>   0.1500 
 43 H       -1.6560    -6.5620     1.3140 H     1 <1>   0.1500 
 44 H        7.4460     2.8790     1.1270 H     1 <1>   0.0800 
 45 H        7.0960     2.7450    -0.5770 H     1 <1>   0.0800 
 46 H       -0.2880    -7.8190    -0.2420 H     1 <1>   0.1500 
 47 H        9.1520     1.4240    -0.9020 H     1 <1>   0.0800 
 48 H        9.5060     1.5370     0.8000 H     1 <1>   0.0800 
 49 H        9.7820     4.2390     1.7540 H     1 <1>   0.1500 
 50 H       10.1380     3.5030    -2.4120 H     1 <1>   0.1500 
 51 H       11.1030     5.7730    -1.7820 H     1 <1>   0.2700 
@<TRIPOS>BOND
  1   1   2  2   
  2   2   3  am  
  3   2   4  1   
  4   3   5  1   
  5   3   6  1   
  6   4   7  ar  
  7   4   8  ar  
  8   5   9  1   
  9   5  29  1   
 10   5  30  1   
 11   6  10  1   
 12   6  31  1   
 13   6  32  1   
 14   7  11  ar  
 15   7  33  1   
 16   8  12  ar  
 17   8  34  1   
 18   9  13  1   
 19   9  35  1   
 20   9  36  1   
 21  10  14  1   
 22  10  37  1   
 23  10  38  1   
 24  11  15  ar  
 25  11  16  ar  
 26  12  15  ar  
 27  12  39  1   
 28  13  14  1   
 29  13  17  am  
 30  14  40  1   
 31  14  41  1   
 32  15  18  ar  
 33  16  19  ar  
 34  16  42  1   
 35  17  20  2   
 36  17  21  1   
 37  18  22  ar  
 38  19  22  ar  
 39  19  43  1   
 40  21  23  1   
 41  21  44  1   
 42  21  45  1   
 43  22  46  1   
 44  23  24  1   
 45  23  47  1   
 46  23  48  1   
 47  24  25  1   
 48  24  26  2   
 49  25  27  2   
 50  25  49  1   
 51  26  28  1   
 52  26  50  1   
 53  27  28  1   
 54  28  51  1   
@<TRIPOS>SUBSTRUCTURE
  1 ****   5 GROUP 4 **** **** 0

# MOE 2024.06 (io_trps.svl 2023.06)
