@<TRIPOS>MOLECULE
NONAME
43 45 1 0 0 
SMALL
USER_CHARGES


@<TRIPOS>ATOM
  1 O       -0.8310    -3.6320     1.6780 O.2   1 <1>  -0.5700 
  2 C        0.2430    -3.2430     1.2860 C.2   1 <1>   0.5690 
  3 N        0.5030    -2.7950     0.0400 N.am  1 <1>  -0.6600 
  4 C        1.4890    -3.2450     2.1250 C.3   1 <1>  -0.0990 
  5 C        1.9290    -2.5100    -0.1850 C.3   1 <1>   0.1400 
  6 C       -0.4900    -2.7250    -1.0800 C.3   1 <1>   0.2010 
  7 C        2.6120    -2.9950     1.1030 C.3   1 <1>  -0.1600 
  8 C       -0.8730    -4.0990    -1.6330 C.2   1 <1>   0.5690 
  9 O       -0.7650    -4.3170    -2.8170 O.2   1 <1>  -0.5700 
 10 N       -1.3230    -5.0430    -0.7700 N.am  1 <1>  -0.7300 
 11 C       -1.6410    -6.4460    -1.1020 C.3   1 <1>   0.2200 
 12 C       -2.8850    -6.8690    -0.3410 C.3   1 <1>  -0.0800 
 13 C       -0.5650    -7.3720    -0.5290 C.3   1 <1>   0.1200 
 14 C       -2.2830    -7.2970     0.9970 C.3   1 <1>   0.1200 
 15 C       -3.6070    -8.0290    -1.0530 C.3   1 <1>  -0.0170 
 16 O       -1.0470    -7.8650     0.6900 O.3   1 <1>  -0.5600 
 17 C       -4.8530    -8.4660    -0.2980 C.ar  1 <1>  -0.1440 
 18 C       -6.0260    -7.7410    -0.3470 C.ar  1 <1>  -0.1500 
 19 C       -4.8770    -9.6110     0.4720 C.ar  1 <1>  -0.1500 
 20 C       -7.1350    -8.1830     0.3570 C.ar  1 <1>   0.1600 
 21 C       -6.0390    -9.9650     1.1380 C.ar  1 <1>   0.1600 
 22 N       -7.1700    -9.2780     1.0990 N.ar  1 <1>  -0.6200 
 23 H        1.4280    -2.4480     2.8430 H     1 <1>   0.0800 
 24 H        1.6050    -4.1880     2.6280 H     1 <1>   0.0800 
 25 H        2.2930    -3.0450    -1.0470 H     1 <1>   0.0800 
 26 H        2.0680    -1.4510    -0.3220 H     1 <1>   0.0800 
 27 H       -1.3830    -2.2480    -0.7210 H     1 <1>   0.0800 
 28 H       -0.0900    -2.1270    -1.8790 H     1 <1>   0.0800 
 29 H        3.1280    -3.9170     0.8980 H     1 <1>   0.0800 
 30 H        3.3270    -2.2750     1.4610 H     1 <1>   0.0800 
 31 H       -1.3050    -4.8090     0.2360 H     1 <1>   0.3700 
 32 H       -1.7380    -6.5580    -2.1690 H     1 <1>   0.0800 
 33 H       -3.5710    -6.0490    -0.2140 H     1 <1>   0.0800 
 34 H        0.3660    -6.8590    -0.3620 H     1 <1>   0.0800 
 35 H       -0.4050    -8.2160    -1.1760 H     1 <1>   0.0800 
 36 H       -2.8820    -8.0130     1.5310 H     1 <1>   0.0800 
 37 H       -2.1010    -6.4410     1.6250 H     1 <1>   0.0800 
 38 H       -2.9420    -8.8680    -1.1620 H     1 <1>   0.0800 
 39 H       -3.8970    -7.7150    -2.0410 H     1 <1>   0.0800 
 40 H       -6.0890    -6.8370    -0.9250 H     1 <1>   0.1500 
 41 H       -4.0030   -10.2300     0.5630 H     1 <1>   0.1500 
 42 H       -8.0410    -7.6030     0.3070 H     1 <1>   0.1500 
 43 H       -6.0380   -10.8610     1.7350 H     1 <1>   0.1500 
@<TRIPOS>BOND
  1   1   2  2   
  2   2   3  am  
  3   2   4  1   
  4   3   5  1   
  5   3   6  1   
  6   4   7  1   
  7   4  23  1   
  8   4  24  1   
  9   5   7  1   
 10   5  25  1   
 11   5  26  1   
 12   6   8  1   
 13   6  27  1   
 14   6  28  1   
 15   7  29  1   
 16   7  30  1   
 17   8   9  2   
 18   8  10  am  
 19  10  11  1   
 20  10  31  1   
 21  11  12  1   
 22  11  13  1   
 23  11  32  1   
 24  12  14  1   
 25  12  15  1   
 26  12  33  1   
 27  13  16  1   
 28  13  34  1   
 29  13  35  1   
 30  14  16  1   
 31  14  36  1   
 32  14  37  1   
 33  15  17  1   
 34  15  38  1   
 35  15  39  1   
 36  17  18  ar  
 37  17  19  ar  
 38  18  20  ar  
 39  18  40  1   
 40  19  21  ar  
 41  19  41  1   
 42  20  22  ar  
 43  20  42  1   
 44  21  22  ar  
 45  21  43  1   
@<TRIPOS>SUBSTRUCTURE
  1 ****  12 GROUP 4 **** **** 0

# MOE 2024.06 (io_trps.svl 2023.06)
