@<TRIPOS>MOLECULE
NONAME
60 63 1 0 0 
SMALL
USER_CHARGES


@<TRIPOS>ATOM
  1 F        0.7330     0.3160    -0.5260 F     1 <1>  -0.1900 
  2 C        1.8540     0.9830    -0.4950 C.ar  1 <1>   0.1900 
  3 C        2.4150     1.2890     0.7290 C.ar  1 <1>  -0.1500 
  4 C        2.4400     1.3570    -1.6880 C.ar  1 <1>  -0.1500 
  5 C        3.6060     1.9940     0.7570 C.ar  1 <1>  -0.1500 
  6 C        3.6320     2.0620    -1.6510 C.ar  1 <1>  -0.1500 
  7 C        4.2230     2.3820    -0.4310 C.ar  1 <1>  -0.1430 
  8 C        5.5440     3.1480    -0.4130 C.3   1 <1>   0.6280 
  9 N        6.6610     2.2230     0.0090 N.4   1 <1>  -0.9590 
 10 C        5.4330     4.4080     0.4750 C.2   1 <1>   0.5690 
 11 C        7.9780     2.9120    -0.1240 C.3   1 <1>   0.3430 
 12 C        6.6380     0.8840    -0.6490 C.3   1 <1>   0.3430 
 13 O        5.8350     4.3290     1.6190 O.2   1 <1>  -0.5700 
 14 N        4.9330     5.5580    -0.0600 N.am  1 <1>  -0.4930 
 15 C        9.0810     2.0480     0.4870 C.3   1 <1>  -0.1600 
 16 C        7.7250    -0.0070    -0.0450 C.3   1 <1>  -0.1600 
 17 C        5.5390     6.8290     0.0880 C.2   1 <1>   0.0630 
 18 C        9.1110     0.6430    -0.1300 C.3   1 <1>  -0.1600 
 19 C        6.9140     7.1190     0.0900 C.2   1 <1>   0.3720 
 20 C        4.9240     8.0230     0.2070 C.2   1 <1>  -0.3320 
 21 N        7.1380     8.3900     0.2030 N.2   1 <1>  -0.7070 
 22 N        7.9570     6.1690    -0.0100 N.pl3 1 <1>  -0.8210 
 23 N        5.9120     8.9510     0.2830 N.pl3 1 <1>   0.3140 
 24 C        3.4390     8.3480     0.2690 C.3   1 <1>  -0.0600 
 25 C        8.7260     6.1290     1.2730 C.3   1 <1>   0.2090 
 26 C        8.9300     6.5050    -1.0850 C.3   1 <1>   0.2090 
 27 C        5.7580    10.4030     0.4410 C.3   1 <1>   0.0160 
 28 C       10.2070     6.1820     0.9080 C.3   1 <1>  -0.1600 
 29 C       10.2600     5.9600    -0.5960 C.3   1 <1>  -0.1600 
 30 H        1.9230     0.9820     1.6360 H     1 <1>   0.1500 
 31 H        1.9660     1.0990    -2.6190 H     1 <1>   0.1500 
 32 H        4.0380     2.2370     1.7160 H     1 <1>   0.1500 
 33 H        4.0850     2.3530    -2.5850 H     1 <1>   0.1500 
 34 H        5.7480     3.4870    -1.4130 H     1 <1>   0.0800 
 35 H        6.5130     2.0970     1.0200 H     1 <1>   0.4500 
 36 H        7.9520     3.8580     0.3890 H     1 <1>   0.0800 
 37 H        8.1960     3.0980    -1.1630 H     1 <1>   0.0800 
 38 H        6.8100     0.9940    -1.7070 H     1 <1>   0.0800 
 39 H        5.6770     0.4130    -0.5080 H     1 <1>   0.0800 
 40 H        4.2560     5.5190    -0.8200 H     1 <1>   0.3700 
 41 H        8.9290     1.9810     1.5500 H     1 <1>   0.0800 
 42 H       10.0300     2.5290     0.3290 H     1 <1>   0.0800 
 43 H        7.7390    -0.9480    -0.5690 H     1 <1>   0.0800 
 44 H        7.4810    -0.2170     0.9820 H     1 <1>   0.0800 
 45 H        9.8340     0.0330     0.3870 H     1 <1>   0.0800 
 46 H        9.4160     0.7090    -1.1610 H     1 <1>   0.0800 
 47 H        2.8520     7.4480     0.2270 H     1 <1>   0.0800 
 48 H        3.1600     8.9790    -0.5570 H     1 <1>   0.0800 
 49 H        3.2100     8.8550     1.1890 H     1 <1>   0.0800 
 50 H        8.4970     5.2190     1.7990 H     1 <1>   0.0800 
 51 H        8.4720     6.9580     1.9150 H     1 <1>   0.0800 
 52 H        9.0040     7.5720    -1.2160 H     1 <1>   0.0800 
 53 H        8.6380     6.0570    -2.0190 H     1 <1>   0.0800 
 54 H        5.1820    10.7890    -0.3780 H     1 <1>   0.0800 
 55 H        6.7300    10.8610     0.4450 H     1 <1>   0.0800 
 56 H        5.2620    10.6050     1.3710 H     1 <1>   0.0800 
 57 H       10.7800     5.4540     1.4530 H     1 <1>   0.0800 
 58 H       10.5800     7.1640     1.1440 H     1 <1>   0.0800 
 59 H       11.0890     6.4700    -1.0540 H     1 <1>   0.0800 
 60 H       10.3210     4.9110    -0.8200 H     1 <1>   0.0800 
@<TRIPOS>BOND
  1   1   2  1   
  2   2   3  ar  
  3   2   4  ar  
  4   3   5  ar  
  5   3  30  1   
  6   4   6  ar  
  7   4  31  1   
  8   5   7  ar  
  9   5  32  1   
 10   6   7  ar  
 11   6  33  1   
 12   7   8  1   
 13   8   9  1   
 14   8  10  1   
 15   8  34  1   
 16   9  11  1   
 17   9  12  1   
 18   9  35  1   
 19  10  13  2   
 20  10  14  am  
 21  11  15  1   
 22  11  36  1   
 23  11  37  1   
 24  12  16  1   
 25  12  38  1   
 26  12  39  1   
 27  14  17  1   
 28  14  40  1   
 29  15  18  1   
 30  15  41  1   
 31  15  42  1   
 32  16  18  1   
 33  16  43  1   
 34  16  44  1   
 35  17  19  1   
 36  17  20  2   
 37  18  45  1   
 38  18  46  1   
 39  19  21  2   
 40  19  22  1   
 41  20  23  1   
 42  20  24  1   
 43  21  23  1   
 44  22  25  1   
 45  22  26  1   
 46  23  27  1   
 47  24  47  1   
 48  24  48  1   
 49  24  49  1   
 50  25  28  1   
 51  25  50  1   
 52  25  51  1   
 53  26  29  1   
 54  26  52  1   
 55  26  53  1   
 56  27  54  1   
 57  27  55  1   
 58  27  56  1   
 59  28  29  1   
 60  28  57  1   
 61  28  58  1   
 62  29  59  1   
 63  29  60  1   
@<TRIPOS>SUBSTRUCTURE
  1 ****  10 GROUP 4 **** **** 0

# MOE 2024.06 (io_trps.svl 2023.06)
