@<TRIPOS>MOLECULE
NONAME
48 51 1 0 0 
SMALL
USER_CHARGES


@<TRIPOS>ATOM
  1 N        0.2190     0.2430     0.1310 N.ar  1 <1>  -0.6200 
  2 C       -0.9650     0.8560     0.2280 C.ar  1 <1>   0.7200 
  3 C        1.1170     0.8930    -0.5610 C.ar  1 <1>   0.1660 
  4 N       -1.2850     2.0410    -0.3010 N.ar  1 <1>  -0.6200 
  5 N       -1.9430     0.2060     0.9510 N.pl3 1 <1>  -0.8380 
  6 C        0.8950     2.1040    -1.1400 C.ar  1 <1>  -0.1440 
  7 C        2.5270     0.4070    -0.7920 C.3   1 <1>   0.1430 
  8 C       -0.3510     2.6580    -0.9860 C.ar  1 <1>   0.1600 
  9 C       -1.9680    -1.2740     1.1100 C.3   1 <1>   0.1290 
 10 C       -3.1690     0.9140     1.4160 C.3   1 <1>   0.1290 
 11 C        2.1200     2.6120    -1.8580 C.3   1 <1>  -0.0160 
 12 C        3.0980    -0.0560     0.5580 C.3   1 <1>   0.3430 
 13 C        2.5350    -0.7560    -1.8080 C.3   1 <1>  -0.1600 
 14 C        3.2320     1.6750    -1.3480 C.3   1 <1>  -0.1600 
 15 N        4.4440    -0.6900     0.3990 N.4   1 <1>  -0.9590 
 16 C        3.9130    -1.4370    -1.8920 C.3   1 <1>  -0.1600 
 17 C        4.4370    -1.8610    -0.5170 C.3   1 <1>   0.3430 
 18 C        5.1080    -0.9940     1.6930 C.3   1 <1>   0.5240 
 19 C        6.5980    -0.7310     1.4970 C.2   1 <1>   0.1080 
 20 N        7.0570     0.0290     0.5390 N.2   1 <1>  -0.7070 
 21 C        7.6190    -1.2500     2.2870 C.2   1 <1>  -0.1500 
 22 N        8.3990     0.0150     0.7040 N.pl3 1 <1>   0.3000 
 23 C        8.7540    -0.7530     1.7520 C.2   1 <1>  -0.3020 
 24 H       -0.5840     3.6130    -1.4250 H     1 <1>   0.1500 
 25 H       -1.2900    -1.7460     0.4210 H     1 <1>   0.0800 
 26 H       -2.9590    -1.6460     0.9140 H     1 <1>   0.0800 
 27 H       -1.6850    -1.5330     2.1150 H     1 <1>   0.0800 
 28 H       -2.9480     1.9460     1.6320 H     1 <1>   0.0800 
 29 H       -3.5460     0.4540     2.3120 H     1 <1>   0.0800 
 30 H       -3.9220     0.8730     0.6480 H     1 <1>   0.0800 
 31 H        2.3250     3.6420    -1.6180 H     1 <1>   0.0800 
 32 H        1.9850     2.5050    -2.9210 H     1 <1>   0.0800 
 33 H        2.4120    -0.7670     0.9900 H     1 <1>   0.0800 
 34 H        3.1580     0.7920     1.2210 H     1 <1>   0.0800 
 35 H        2.2370    -0.3990    -2.7800 H     1 <1>   0.0800 
 36 H        1.8050    -1.4870    -1.5020 H     1 <1>   0.0800 
 37 H        3.9400     1.4560    -2.1280 H     1 <1>   0.0800 
 38 H        3.7520     2.1790    -0.5520 H     1 <1>   0.0800 
 39 H        5.1110    -0.0060    -0.0100 H     1 <1>   0.4500 
 40 H        4.6300    -0.7810    -2.3540 H     1 <1>   0.0800 
 41 H        3.8370    -2.3100    -2.5180 H     1 <1>   0.0800 
 42 H        3.8020    -2.6350    -0.1150 H     1 <1>   0.0800 
 43 H        5.4370    -2.2550    -0.6190 H     1 <1>   0.0800 
 44 H        4.9350    -2.0150     1.9880 H     1 <1>   0.0800 
 45 H        4.7430    -0.3350     2.4630 H     1 <1>   0.0800 
 46 H        7.5180    -1.9020     3.1380 H     1 <1>   0.1500 
 47 H        9.0440     0.5380     0.0940 H     1 <1>   0.2700 
 48 H        9.7770    -0.8990     2.0540 H     1 <1>   0.1500 
@<TRIPOS>BOND
  1   1   2  ar  
  2   1   3  ar  
  3   2   4  ar  
  4   2   5  1   
  5   3   6  ar  
  6   3   7  1   
  7   4   8  ar  
  8   5   9  1   
  9   5  10  1   
 10   6   8  ar  
 11   6  11  1   
 12   7  12  1   
 13   7  13  1   
 14   7  14  1   
 15   8  24  1   
 16   9  25  1   
 17   9  26  1   
 18   9  27  1   
 19  10  28  1   
 20  10  29  1   
 21  10  30  1   
 22  11  14  1   
 23  11  31  1   
 24  11  32  1   
 25  12  15  1   
 26  12  33  1   
 27  12  34  1   
 28  13  16  1   
 29  13  35  1   
 30  13  36  1   
 31  14  37  1   
 32  14  38  1   
 33  15  17  1   
 34  15  18  1   
 35  15  39  1   
 36  16  17  1   
 37  16  40  1   
 38  16  41  1   
 39  17  42  1   
 40  17  43  1   
 41  18  19  1   
 42  18  44  1   
 43  18  45  1   
 44  19  20  2   
 45  19  21  1   
 46  20  22  1   
 47  21  23  2   
 48  21  46  1   
 49  22  23  1   
 50  22  47  1   
 51  23  48  1   
@<TRIPOS>SUBSTRUCTURE
  1 ****  12 GROUP 4 **** **** 0

# MOE 2024.06 (io_trps.svl 2023.06)
