@<TRIPOS>MOLECULE
NONAME
52 54 1 0 0 
SMALL
USER_CHARGES


@<TRIPOS>ATOM
  1 O       -0.8180    -1.7240    -1.5600 O.3   1 <1>  -0.6800 
  2 C        0.4600    -2.2230    -1.3590 C.3   1 <1>   0.1200 
  3 C        0.9920    -1.8300     0.0500 C.3   1 <1>   0.0000 
  4 C        2.4490    -2.3340     0.2470 C.3   1 <1>   0.4230 
  5 C        1.0200    -0.2850     0.1940 C.3   1 <1>  -0.1600 
  6 C        0.0900    -2.4190     1.1760 C.3   1 <1>  -0.1600 
  7 N        2.5880    -3.8520     0.2580 N.4   1 <1>  -0.9590 
  8 C        3.4470    -1.6160    -0.6920 C.3   1 <1>   0.1100 
  9 C        2.0430     0.3970    -0.7210 C.3   1 <1>   0.1100 
 10 C        0.6410    -3.7110     1.8070 C.3   1 <1>  -0.1600 
 11 C        1.3800    -4.5680     0.7840 C.3   1 <1>   0.3430 
 12 C        3.0260    -4.4710    -1.0340 C.3   1 <1>   0.2630 
 13 N        3.3790    -0.1680    -0.4780 N.3   1 <1>  -0.8100 
 14 C        4.4520     0.5680    -1.1950 C.3   1 <1>   0.2530 
 15 C        4.7130     1.9570    -0.6120 C.ar  1 <1>   0.1670 
 16 N        5.4920     2.0190     0.4590 N.ar  1 <1>  -0.6200 
 17 C        4.1540     3.0710    -1.2220 C.ar  1 <1>  -0.1500 
 18 C        5.7080     3.2320     0.9430 C.ar  1 <1>   0.1600 
 19 C        4.3910     4.3270    -0.7060 C.ar  1 <1>  -0.1500 
 20 C        5.1930     4.4050     0.4130 C.ar  1 <1>  -0.1430 
 21 C        5.5040     5.7510     1.0490 C.3   1 <1>  -0.0170 
 22 C        6.7550     6.3670     0.4190 C.3   1 <1>  -0.2400 
 23 H       -1.1450    -1.9060    -2.4650 H     1 <1>   0.4000 
 24 H        0.4050    -3.2900    -1.4710 H     1 <1>   0.0800 
 25 H        1.0840    -1.8230    -2.1390 H     1 <1>   0.0800 
 26 H        2.7210    -2.0020     1.2350 H     1 <1>   0.0800 
 27 H        1.2740    -0.0140     1.2050 H     1 <1>   0.0800 
 28 H        0.0460     0.1270    -0.0020 H     1 <1>   0.0800 
 29 H       -0.0400    -1.7030     1.9710 H     1 <1>   0.0800 
 30 H       -0.8980    -2.6110     0.7930 H     1 <1>   0.0800 
 31 H        3.3380    -4.0270     0.9430 H     1 <1>   0.4500 
 32 H        3.2400    -1.8320    -1.7250 H     1 <1>   0.0800 
 33 H        4.4430    -1.9470    -0.4540 H     1 <1>   0.0800 
 34 H        2.0500     1.4500    -0.4910 H     1 <1>   0.0800 
 35 H        1.7680     0.2820    -1.7560 H     1 <1>   0.0800 
 36 H       -0.1780    -4.2750     2.2200 H     1 <1>   0.0800 
 37 H        1.3060    -3.4740     2.6200 H     1 <1>   0.0800 
 38 H        0.7030    -4.7880    -0.0260 H     1 <1>   0.0800 
 39 H        1.6740    -5.5030     1.2340 H     1 <1>   0.0800 
 40 H        2.2990    -4.2830    -1.8070 H     1 <1>   0.0800 
 41 H        3.1360    -5.5370    -0.9190 H     1 <1>   0.0800 
 42 H        3.9750    -4.0660    -1.3450 H     1 <1>   0.0800 
 43 H        5.3740     0.0190    -1.1210 H     1 <1>   0.0800 
 44 H        4.2030     0.6510    -2.2380 H     1 <1>   0.0800 
 45 H        3.5360     2.9610    -2.0930 H     1 <1>   0.1500 
 46 H        6.3360     3.2930     1.8150 H     1 <1>   0.1500 
 47 H        3.9690     5.2060    -1.1610 H     1 <1>   0.1500 
 48 H        4.6680     6.4160     0.9170 H     1 <1>   0.0800 
 49 H        5.6570     5.6270     2.1070 H     1 <1>   0.0800 
 50 H        6.6060     6.5130    -0.6370 H     1 <1>   0.0800 
 51 H        7.6010     5.7180     0.5600 H     1 <1>   0.0800 
 52 H        6.9690     7.3180     0.8730 H     1 <1>   0.0800 
@<TRIPOS>BOND
  1   1   2  1   
  2   1  23  1   
  3   2   3  1   
  4   2  24  1   
  5   2  25  1   
  6   3   4  1   
  7   3   5  1   
  8   3   6  1   
  9   4   7  1   
 10   4   8  1   
 11   4  26  1   
 12   5   9  1   
 13   5  27  1   
 14   5  28  1   
 15   6  10  1   
 16   6  29  1   
 17   6  30  1   
 18   7  11  1   
 19   7  12  1   
 20   7  31  1   
 21   8  13  1   
 22   8  32  1   
 23   8  33  1   
 24   9  13  1   
 25   9  34  1   
 26   9  35  1   
 27  10  11  1   
 28  10  36  1   
 29  10  37  1   
 30  11  38  1   
 31  11  39  1   
 32  12  40  1   
 33  12  41  1   
 34  12  42  1   
 35  13  14  1   
 36  14  15  1   
 37  14  43  1   
 38  14  44  1   
 39  15  16  ar  
 40  15  17  ar  
 41  16  18  ar  
 42  17  19  ar  
 43  17  45  1   
 44  18  20  ar  
 45  18  46  1   
 46  19  20  ar  
 47  19  47  1   
 48  20  21  1   
 49  21  22  1   
 50  21  48  1   
 51  21  49  1   
 52  22  50  1   
 53  22  51  1   
 54  22  52  1   
@<TRIPOS>SUBSTRUCTURE
  1 ****  13 GROUP 4 **** **** 0

# MOE 2024.06 (io_trps.svl 2023.06)
