@<TRIPOS>MOLECULE
NONAME
39 41 1 0 0 
SMALL
USER_CHARGES


@<TRIPOS>ATOM
  1 O       -0.4720     0.2120    -0.2550 O.2   1 <1>  -0.5700 
  2 C       -1.5190     0.8180    -0.1000 C.2   1 <1>   0.5440 
  3 N       -2.6810     0.0640    -0.1150 N.am  1 <1>  -0.6600 
  4 C       -1.4760     2.2760     0.0670 C.ar  1 <1>   0.3960 
  5 C       -4.0730     0.5770    -0.0410 C.3   1 <1>   0.1400 
  6 C       -2.6800    -1.4130    -0.2650 C.3   1 <1>   0.1400 
  7 N       -2.4620     2.9470     0.6900 N.ar  1 <1>  -0.6200 
  8 C       -0.3630     2.9610    -0.4410 C.ar  1 <1>   0.1600 
  9 C       -4.9600    -0.6490    -0.2620 C.3   1 <1>   0.2000 
 10 C       -4.0970    -1.8510     0.1090 C.3   1 <1>  -0.0800 
 11 C       -2.2570     4.2490     0.7550 C.ar  1 <1>   0.1600 
 12 N       -0.1610     4.2680    -0.3820 N.ar  1 <1>  -0.6200 
 13 O       -6.0920    -0.6150     0.5380 O.3   1 <1>  -0.6800 
 14 C       -4.5590    -3.1470    -0.5780 C.3   1 <1>  -0.0170 
 15 C       -1.1410     4.8980     0.2350 C.ar  1 <1>   0.1670 
 16 C       -3.7050    -4.3350    -0.1680 C.ar  1 <1>   0.1670 
 17 C       -0.9910     6.4010     0.3550 C.3   1 <1>  -0.0970 
 18 N       -2.5900    -4.5280    -0.8550 N.ar  1 <1>  -0.6200 
 19 C       -4.1100    -5.1510     0.8870 C.ar  1 <1>   0.1600 
 20 C       -1.9140    -5.5780    -0.4190 C.ar  1 <1>   0.1600 
 21 N       -3.4350    -6.2020     1.3250 N.ar  1 <1>  -0.6200 
 22 C       -2.3220    -6.3870     0.6350 C.ar  1 <1>   0.1600 
 23 H       -4.2430     0.9990     0.9340 H     1 <1>   0.0800 
 24 H       -4.2430     1.3170    -0.8030 H     1 <1>   0.0800 
 25 H       -2.4560    -1.6610    -1.2890 H     1 <1>   0.0800 
 26 H       -1.9420    -1.8670     0.3760 H     1 <1>   0.0800 
 27 H        0.4030     2.3820    -0.9270 H     1 <1>   0.1500 
 28 H       -5.2720    -0.6920    -1.2920 H     1 <1>   0.0800 
 29 H       -4.1130    -1.9860     1.1760 H     1 <1>   0.0800 
 30 H       -3.0120     4.8370     1.2460 H     1 <1>   0.1500 
 31 H       -5.8390    -0.5140     1.4760 H     1 <1>   0.4000 
 32 H       -4.5140    -3.0340    -1.6470 H     1 <1>   0.0800 
 33 H       -5.5860    -3.3380    -0.3180 H     1 <1>   0.0800 
 34 H       -1.8280     6.8380     0.8660 H     1 <1>   0.0800 
 35 H       -0.9160     6.8340    -0.6260 H     1 <1>   0.0800 
 36 H       -0.0920     6.6290     0.8990 H     1 <1>   0.0800 
 37 H       -5.0310    -4.9240     1.3930 H     1 <1>   0.1500 
 38 H       -0.9910    -5.8100    -0.9200 H     1 <1>   0.1500 
 39 H       -1.7020    -7.2190     0.9160 H     1 <1>   0.1500 
@<TRIPOS>BOND
  1   1   2  2   
  2   2   3  am  
  3   2   4  1   
  4   3   5  1   
  5   3   6  1   
  6   4   7  ar  
  7   4   8  ar  
  8   5   9  1   
  9   5  23  1   
 10   5  24  1   
 11   6  10  1   
 12   6  25  1   
 13   6  26  1   
 14   7  11  ar  
 15   8  12  ar  
 16   8  27  1   
 17   9  10  1   
 18   9  13  1   
 19   9  28  1   
 20  10  14  1   
 21  10  29  1   
 22  11  15  ar  
 23  11  30  1   
 24  12  15  ar  
 25  13  31  1   
 26  14  16  1   
 27  14  32  1   
 28  14  33  1   
 29  15  17  1   
 30  16  18  ar  
 31  16  19  ar  
 32  17  34  1   
 33  17  35  1   
 34  17  36  1   
 35  18  20  ar  
 36  19  21  ar  
 37  19  37  1   
 38  20  22  ar  
 39  20  38  1   
 40  21  22  ar  
 41  22  39  1   
@<TRIPOS>SUBSTRUCTURE
  1 ****   3 GROUP 4 **** **** 0

# MOE 2024.06 (io_trps.svl 2023.06)
