@<TRIPOS>MOLECULE
NONAME
40 40 1 0 0 
SMALL
USER_CHARGES


@<TRIPOS>ATOM
  1 S        0.5920     0.7600     1.1480 S.o2  1 <1>   1.0900 
  2 O       -0.6090     1.1550     0.4580 O.2   1 <1>  -0.6500 
  3 O        0.9700     1.4120     2.3750 O.2   1 <1>  -0.6500 
  4 C        1.9070     1.1260     0.0130 C.3   1 <1>  -0.0550 
  5 C        0.6180    -1.0100     1.3640 C.3   1 <1>  -0.1350 
  6 C        1.8960     2.6410    -0.1550 C.3   1 <1>   0.3430 
  7 N        2.9640     3.1290    -1.0880 N.4   1 <1>  -0.9590 
  8 C        3.0760     4.6160    -0.9350 C.3   1 <1>   0.3430 
  9 C        2.6740     2.7460    -2.5110 C.3   1 <1>   0.2630 
 10 C        4.3550     5.1950    -1.5670 C.3   1 <1>  -0.0800 
 11 C        5.6010     4.7360    -0.7870 C.3   1 <1>   0.1400 
 12 C        4.3480     6.7220    -1.3530 C.3   1 <1>  -0.0990 
 13 N        5.6770     5.7240     0.2960 N.am  1 <1>  -0.6600 
 14 C        5.0120     6.8620    -0.0110 C.2   1 <1>   0.5690 
 15 C        6.5620     5.5470     1.4690 C.3   1 <1>   0.1400 
 16 O        4.9110     7.8450     0.6760 O.2   1 <1>  -0.5700 
 17 C        5.9380     4.5410     2.4320 C.3   1 <1>  -0.2400 
 18 H        1.7240     0.6400    -0.9250 H     1 <1>   0.0800 
 19 H        2.8460     0.8060     0.4210 H     1 <1>   0.0800 
 20 H       -0.1600    -1.3050     2.0430 H     1 <1>   0.0800 
 21 H        1.5560    -1.3320     1.7730 H     1 <1>   0.0800 
 22 H        0.4520    -1.5120     0.4300 H     1 <1>   0.0800 
 23 H        2.0360     3.0870     0.8190 H     1 <1>   0.0800 
 24 H        0.9260     2.9510    -0.5130 H     1 <1>   0.0800 
 25 H        3.8600     2.7170    -0.7930 H     1 <1>   0.4500 
 26 H        3.0800     4.8690     0.1150 H     1 <1>   0.0800 
 27 H        2.2140     5.0890    -1.3780 H     1 <1>   0.0800 
 28 H        1.7370     3.1750    -2.8300 H     1 <1>   0.0800 
 29 H        2.6120     1.6750    -2.6100 H     1 <1>   0.0800 
 30 H        3.4530     3.1000    -3.1650 H     1 <1>   0.0800 
 31 H        4.4160     4.9580    -2.6130 H     1 <1>   0.0800 
 32 H        6.4870     4.8150    -1.3950 H     1 <1>   0.0800 
 33 H        5.5180     3.7380    -0.3960 H     1 <1>   0.0800 
 34 H        3.3640     7.1560    -1.3450 H     1 <1>   0.0800 
 35 H        4.9570     7.2210    -2.0850 H     1 <1>   0.0800 
 36 H        6.6860     6.4940     1.9700 H     1 <1>   0.0800 
 37 H        7.5320     5.2100     1.1450 H     1 <1>   0.0800 
 38 H        4.9670     4.8830     2.7450 H     1 <1>   0.0800 
 39 H        6.5590     4.4520     3.3050 H     1 <1>   0.0800 
 40 H        5.8570     3.5710     1.9770 H     1 <1>   0.0800 
@<TRIPOS>BOND
  1   1   2  2   
  2   1   3  2   
  3   1   4  1   
  4   1   5  1   
  5   4   6  1   
  6   4  18  1   
  7   4  19  1   
  8   5  20  1   
  9   5  21  1   
 10   5  22  1   
 11   6   7  1   
 12   6  23  1   
 13   6  24  1   
 14   7   8  1   
 15   7   9  1   
 16   7  25  1   
 17   8  10  1   
 18   8  26  1   
 19   8  27  1   
 20   9  28  1   
 21   9  29  1   
 22   9  30  1   
 23  10  11  1   
 24  10  12  1   
 25  10  31  1   
 26  11  13  1   
 27  11  32  1   
 28  11  33  1   
 29  12  14  1   
 30  12  34  1   
 31  12  35  1   
 32  13  14  am  
 33  13  15  1   
 34  14  16  2   
 35  15  17  1   
 36  15  36  1   
 37  15  37  1   
 38  17  38  1   
 39  17  39  1   
 40  17  40  1   
@<TRIPOS>SUBSTRUCTURE
  1 ****   8 GROUP 4 **** **** 0

# MOE 2024.06 (io_trps.svl 2023.06)
