@<TRIPOS>MOLECULE
NONAME
49 52 1 0 0 
SMALL
USER_CHARGES


@<TRIPOS>ATOM
  1 O       -1.7000     0.5580     1.4760 O.2   1 <1>  -0.5700 
  2 C       -1.9990     1.2680     0.5280 C.2   1 <1>   0.7160 
  3 N       -2.9100     0.7460    -0.3820 N.am  1 <1>  -0.6600 
  4 C       -1.3970     2.5950     0.4620 C.2   1 <1>   0.1410 
  5 C       -3.4410    -0.6440    -0.2160 C.3   1 <1>   0.1400 
  6 C       -3.6720     1.5420    -1.3870 C.3   1 <1>   0.1400 
  7 N       -1.4660     3.4590    -0.5790 N.2   1 <1>  -0.2270 
  8 C       -0.6530     3.1980     1.4220 C.2   1 <1>  -0.3020 
  9 C       -4.7170    -0.6720     0.6420 C.3   1 <1>   0.1400 
 10 C       -4.7660     2.3860    -0.7190 C.3   1 <1>  -0.1600 
 11 N       -0.8180     4.5280    -0.2890 N.2   1 <1>  -0.4180 
 12 N       -0.3110     4.3830     0.9340 N.pl3 1 <1>   0.3000 
 13 N       -5.7760     0.2560     0.1200 N.am  1 <1>  -0.6600 
 14 C       -5.5200     1.6920     0.4250 C.3   1 <1>   0.1400 
 15 C       -6.8830    -0.1100    -0.6040 C.2   1 <1>   0.5690 
 16 O       -7.6680     0.7090    -1.0180 O.2   1 <1>  -0.5700 
 17 C       -7.1680    -1.5650    -0.9270 C.3   1 <1>  -0.0990 
 18 C       -7.8750    -2.2740     0.2370 C.3   1 <1>   0.0630 
 19 C       -8.1510    -3.7350    -0.0430 C.ar  1 <1>  -0.1430 
 20 C       -9.2780    -1.7010     0.5270 C.3   1 <1>  -0.1600 
 21 C       -9.4310    -4.0740     0.3240 C.ar  1 <1>  -0.1430 
 22 C       -7.3020    -4.6890    -0.5800 C.ar  1 <1>  -0.1500 
 23 C      -10.1740    -2.8930     0.8950 C.3   1 <1>  -0.0170 
 24 C       -9.9000    -5.3640     0.1600 C.ar  1 <1>  -0.1500 
 25 C       -7.7620    -5.9850    -0.7490 C.ar  1 <1>  -0.1500 
 26 C       -9.0570    -6.3220    -0.3810 C.ar  1 <1>  -0.1500 
 27 H       -2.6950    -1.2670     0.2460 H     1 <1>   0.0800 
 28 H       -3.6490    -1.0690    -1.1820 H     1 <1>   0.0800 
 29 H       -4.1450     0.8680    -2.0820 H     1 <1>   0.0800 
 30 H       -3.0140     2.1610    -1.9680 H     1 <1>   0.0800 
 31 H       -0.3700     2.8320     2.3910 H     1 <1>   0.1500 
 32 H       -4.4620    -0.3890     1.6480 H     1 <1>   0.0800 
 33 H       -5.0830    -1.6800     0.6870 H     1 <1>   0.0800 
 34 H       -5.4780     2.6700    -1.4730 H     1 <1>   0.0800 
 35 H       -4.3340     3.2960    -0.3450 H     1 <1>   0.0800 
 36 H        0.2570     5.1080     1.3860 H     1 <1>   0.2700 
 37 H       -6.4540     2.2000     0.5980 H     1 <1>   0.0800 
 38 H       -4.9410     1.7660     1.3300 H     1 <1>   0.0800 
 39 H       -6.2510    -2.0630    -1.1740 H     1 <1>   0.0800 
 40 H       -7.7930    -1.6090    -1.8000 H     1 <1>   0.0800 
 41 H       -7.2800    -2.2140     1.1310 H     1 <1>   0.0800 
 42 H       -9.6750    -1.2450    -0.3640 H     1 <1>   0.0800 
 43 H       -9.2530    -0.9610     1.3070 H     1 <1>   0.0800 
 44 H       -6.2970    -4.4360    -0.8630 H     1 <1>   0.1500 
 45 H      -11.1560    -2.7970     0.4660 H     1 <1>   0.0800 
 46 H      -10.2480    -2.9990     1.9630 H     1 <1>   0.0800 
 47 H      -10.9030    -5.6200     0.4490 H     1 <1>   0.1500 
 48 H       -7.1130    -6.7340    -1.1670 H     1 <1>   0.1500 
 49 H       -9.4080    -7.3290    -0.5160 H     1 <1>   0.1500 
@<TRIPOS>BOND
  1   1   2  2   
  2   2   3  am  
  3   2   4  1   
  4   3   5  1   
  5   3   6  1   
  6   4   7  1   
  7   4   8  2   
  8   5   9  1   
  9   5  27  1   
 10   5  28  1   
 11   6  10  1   
 12   6  29  1   
 13   6  30  1   
 14   7  11  2   
 15   8  12  1   
 16   8  31  1   
 17   9  13  1   
 18   9  32  1   
 19   9  33  1   
 20  10  14  1   
 21  10  34  1   
 22  10  35  1   
 23  11  12  1   
 24  12  36  1   
 25  13  14  1   
 26  13  15  am  
 27  14  37  1   
 28  14  38  1   
 29  15  16  2   
 30  15  17  1   
 31  17  18  1   
 32  17  39  1   
 33  17  40  1   
 34  18  19  1   
 35  18  20  1   
 36  18  41  1   
 37  19  21  ar  
 38  19  22  ar  
 39  20  23  1   
 40  20  42  1   
 41  20  43  1   
 42  21  23  1   
 43  21  24  ar  
 44  22  25  ar  
 45  22  44  1   
 46  23  45  1   
 47  23  46  1   
 48  24  26  ar  
 49  24  47  1   
 50  25  26  ar  
 51  25  48  1   
 52  26  49  1   
@<TRIPOS>SUBSTRUCTURE
  1 ****  13 GROUP 4 **** **** 0

# MOE 2024.06 (io_trps.svl 2023.06)
