@<TRIPOS>MOLECULE
NONAME
44 46 1 0 0 
SMALL
USER_CHARGES


@<TRIPOS>ATOM
  1 O        0.0420     1.1790     1.3850 O.co2 1 <1>  -0.9000 
  2 C       -0.9850     0.4850     1.4600 C.2   1 <1>   0.9060 
  3 O       -1.0430    -0.6060     2.0250 O.co2 1 <1>  -0.9000 
  4 C       -2.2400     1.0920     0.8060 C.3   1 <1>   0.3170 
  5 N       -1.9940     2.5180     0.3830 N.4   1 <1>  -0.9590 
  6 C       -2.6700     0.3750    -0.4750 C.3   1 <1>  -0.1600 
  7 C       -2.5720     2.7200    -0.9750 C.3   1 <1>   0.3430 
  8 C       -2.4090     3.4830     1.4190 C.3   1 <1>   0.4860 
  9 C       -3.3790     1.4520    -1.2780 C.3   1 <1>   0.2000 
 10 C       -2.1240     4.8930     0.9300 C.ar  1 <1>  -0.1430 
 11 O       -4.6580     1.5990    -0.7560 O.3   1 <1>  -0.6800 
 12 C       -0.8360     5.2630     0.5760 C.ar  1 <1>  -0.1500 
 13 C       -3.1530     5.8150     0.8140 C.ar  1 <1>  -0.1500 
 14 C       -0.5660     6.5360     0.0890 C.ar  1 <1>  -0.0230 
 15 C       -2.8950     7.0900     0.3400 C.ar  1 <1>  -0.1500 
 16 N        0.7570     6.8780    -0.3010 N.pl3 1 <1>   0.5930 
 17 C       -1.6100     7.4470    -0.0240 C.ar  1 <1>  -0.1500 
 18 N        1.3870     6.2560    -1.3270 N.2   1 <1>  -0.7070 
 19 C        1.5910     7.7850     0.2780 C.2   1 <1>  -0.3320 
 20 C        2.5690     6.7750    -1.3740 C.2   1 <1>   0.1080 
 21 C        2.7590     7.7410    -0.3930 C.2   1 <1>  -0.1500 
 22 C        1.2240     8.6510     1.4730 C.3   1 <1>  -0.0600 
 23 C        3.6020     6.3500    -2.3910 C.3   1 <1>  -0.0590 
 24 H       -3.0460     1.0540     1.5160 H     1 <1>   0.0800 
 25 H       -0.9500     2.5380     0.3650 H     1 <1>   0.4500 
 26 H       -3.2840    -0.4830    -0.2660 H     1 <1>   0.0800 
 27 H       -1.7910     0.0440    -1.0000 H     1 <1>   0.0800 
 28 H       -3.2010     3.5940    -1.0230 H     1 <1>   0.0800 
 29 H       -1.7710     2.8190    -1.6880 H     1 <1>   0.0800 
 30 H       -3.4620     3.3710     1.6180 H     1 <1>   0.0800 
 31 H       -1.8610     3.2960     2.3290 H     1 <1>   0.0800 
 32 H       -3.4500     1.2410    -2.3320 H     1 <1>   0.0800 
 33 H       -5.1930     0.7960    -0.9240 H     1 <1>   0.4000 
 34 H       -0.0190     4.5630     0.6640 H     1 <1>   0.1500 
 35 H       -4.1620     5.5510     1.0860 H     1 <1>   0.1500 
 36 H       -3.6960     7.8040     0.2500 H     1 <1>   0.1500 
 37 H       -1.4150     8.4350    -0.4060 H     1 <1>   0.1500 
 38 H        3.6580     8.3080    -0.2290 H     1 <1>   0.1500 
 39 H        2.0730     9.2350     1.7820 H     1 <1>   0.0800 
 40 H        0.9150     8.0330     2.2980 H     1 <1>   0.0800 
 41 H        0.4230     9.3210     1.2190 H     1 <1>   0.0800 
 42 H        4.5390     6.8400    -2.2030 H     1 <1>   0.0800 
 43 H        3.2610     6.6060    -3.3770 H     1 <1>   0.0800 
 44 H        3.7440     5.2870    -2.3350 H     1 <1>   0.0800 
@<TRIPOS>BOND
  1   1   2  ar  
  2   2   3  ar  
  3   2   4  1   
  4   4   5  1   
  5   4   6  1   
  6   4  24  1   
  7   5   7  1   
  8   5   8  1   
  9   5  25  1   
 10   6   9  1   
 11   6  26  1   
 12   6  27  1   
 13   7   9  1   
 14   7  28  1   
 15   7  29  1   
 16   8  10  1   
 17   8  30  1   
 18   8  31  1   
 19   9  11  1   
 20   9  32  1   
 21  10  12  ar  
 22  10  13  ar  
 23  11  33  1   
 24  12  14  ar  
 25  12  34  1   
 26  13  15  ar  
 27  13  35  1   
 28  14  16  1   
 29  14  17  ar  
 30  15  17  ar  
 31  15  36  1   
 32  16  18  1   
 33  16  19  1   
 34  17  37  1   
 35  18  20  2   
 36  19  21  2   
 37  19  22  1   
 38  20  21  1   
 39  20  23  1   
 40  21  38  1   
 41  22  39  1   
 42  22  40  1   
 43  22  41  1   
 44  23  42  1   
 45  23  43  1   
 46  23  44  1   
@<TRIPOS>SUBSTRUCTURE
  1 ****  12 GROUP 4 **** **** 0

# MOE 2024.06 (io_trps.svl 2023.06)
