@<TRIPOS>MOLECULE
NONAME
51 54 1 0 0 
SMALL
USER_CHARGES


@<TRIPOS>ATOM
  1 O       -1.3280     0.3290     2.2760 O.2   1 <1>  -0.5700 
  2 C       -1.6370     0.9150     1.2560 C.2   1 <1>   0.5440 
  3 N       -2.1570     0.1920     0.2110 N.am  1 <1>  -0.6600 
  4 C       -1.4590     2.3450     1.1460 C.ar  1 <1>   0.0860 
  5 C       -2.9330     0.7630    -0.9210 C.3   1 <1>   0.1400 
  6 C       -2.3200    -1.2850     0.2450 C.3   1 <1>   0.1400 
  7 C       -2.1950     3.2500     1.9520 C.ar  1 <1>   0.1660 
  8 C       -0.5800     2.8750     0.2360 C.ar  1 <1>  -0.1500 
  9 C       -3.9830    -0.3040    -1.2230 C.3   1 <1>   0.2000 
 10 C       -3.2460    -1.6140    -0.9320 C.3   1 <1>  -0.0800 
 11 N       -2.1020     4.5430     1.8720 N.ar  1 <1>  -0.6200 
 12 C       -3.1760     2.7160     2.9830 C.3   1 <1>  -0.0970 
 13 C       -0.4460     4.2650     0.1250 C.ar  1 <1>   0.0000 
 14 O       -5.0230    -0.1470    -0.3180 O.3   1 <1>  -0.6800 
 15 C       -4.1380    -2.8460    -0.6930 C.3   1 <1>   0.0210 
 16 C       -1.2360     5.0710     0.9700 C.ar  1 <1>   0.3100 
 17 C        0.4330     4.8840    -0.7860 C.ar  1 <1>  -0.1500 
 18 C       -3.2950    -4.0700    -0.3920 C.2   1 <1>   0.1080 
 19 C       -1.1170     6.4640     0.8680 C.ar  1 <1>  -0.1500 
 20 C        0.5300     6.2490    -0.8660 C.ar  1 <1>  -0.1430 
 21 N       -2.3980    -4.5260    -1.2100 N.2   1 <1>  -0.7070 
 22 C       -3.3730    -4.8210     0.7750 C.2   1 <1>  -0.1500 
 23 C       -0.2570     7.0460    -0.0270 C.ar  1 <1>  -0.1500 
 24 C        1.4750     6.9240    -1.8440 C.3   1 <1>  -0.0970 
 25 N       -1.8760    -5.5960    -0.5800 N.pl3 1 <1>   0.3000 
 26 C       -2.4490    -5.7930     0.6260 C.2   1 <1>  -0.3320 
 27 C       -2.0730    -6.9160     1.5750 C.3   1 <1>  -0.0600 
 28 H       -3.3870     1.7070    -0.6740 H     1 <1>   0.0800 
 29 H       -2.2800     0.8840    -1.7670 H     1 <1>   0.0800 
 30 H       -1.3680    -1.7770     0.1430 H     1 <1>   0.0800 
 31 H       -2.7670    -1.5730     1.1820 H     1 <1>   0.0800 
 32 H        0.0090     2.2330    -0.3940 H     1 <1>   0.1500 
 33 H       -4.3800    -0.2440    -2.2220 H     1 <1>   0.0800 
 34 H       -2.6140    -1.8260    -1.7780 H     1 <1>   0.0800 
 35 H       -3.8900     2.0640     2.5160 H     1 <1>   0.0800 
 36 H       -3.7080     3.5250     3.4510 H     1 <1>   0.0800 
 37 H       -2.6450     2.1740     3.7440 H     1 <1>   0.0800 
 38 H       -4.6400    -0.0930     0.5810 H     1 <1>   0.4000 
 39 H       -4.7250    -3.0390    -1.5720 H     1 <1>   0.0800 
 40 H       -4.8110    -2.6750     0.1260 H     1 <1>   0.0800 
 41 H        1.0320     4.2560    -1.4210 H     1 <1>   0.1500 
 42 H       -1.7260     7.0620     1.5190 H     1 <1>   0.1500 
 43 H       -4.0360    -4.6430     1.6030 H     1 <1>   0.1500 
 44 H       -0.1800     8.1170    -0.0900 H     1 <1>   0.1500 
 45 H        2.1810     7.5330    -1.3100 H     1 <1>   0.0800 
 46 H        0.9180     7.5480    -2.5200 H     1 <1>   0.0800 
 47 H        2.0180     6.1960    -2.4200 H     1 <1>   0.0800 
 48 H       -1.1330    -6.1670    -0.9990 H     1 <1>   0.2700 
 49 H       -2.6700    -6.8600     2.4680 H     1 <1>   0.0800 
 50 H       -1.0360    -6.8370     1.8520 H     1 <1>   0.0800 
 51 H       -2.2420    -7.8700     1.1090 H     1 <1>   0.0800 
@<TRIPOS>BOND
  1   1   2  2   
  2   2   3  am  
  3   2   4  1   
  4   3   5  1   
  5   3   6  1   
  6   4   7  ar  
  7   4   8  ar  
  8   5   9  1   
  9   5  28  1   
 10   5  29  1   
 11   6  10  1   
 12   6  30  1   
 13   6  31  1   
 14   7  11  ar  
 15   7  12  1   
 16   8  13  ar  
 17   8  32  1   
 18   9  10  1   
 19   9  14  1   
 20   9  33  1   
 21  10  15  1   
 22  10  34  1   
 23  11  16  ar  
 24  12  35  1   
 25  12  36  1   
 26  12  37  1   
 27  13  16  ar  
 28  13  17  ar  
 29  14  38  1   
 30  15  18  1   
 31  15  39  1   
 32  15  40  1   
 33  16  19  ar  
 34  17  20  ar  
 35  17  41  1   
 36  18  21  2   
 37  18  22  1   
 38  19  23  ar  
 39  19  42  1   
 40  20  23  ar  
 41  20  24  1   
 42  21  25  1   
 43  22  26  2   
 44  22  43  1   
 45  23  44  1   
 46  24  45  1   
 47  24  46  1   
 48  24  47  1   
 49  25  26  1   
 50  25  48  1   
 51  26  27  1   
 52  27  49  1   
 53  27  50  1   
 54  27  51  1   
@<TRIPOS>SUBSTRUCTURE
  1 ****   3 GROUP 4 **** **** 0

# MOE 2024.06 (io_trps.svl 2023.06)
