@<TRIPOS>MOLECULE
NONAME
52 55 1 0 0 
SMALL
USER_CHARGES


@<TRIPOS>ATOM
  1 O       -1.3180    -0.9330    -2.5200 O.2   1 <1>  -0.5700 
  2 C       -1.7620    -1.1590    -1.4190 C.2   1 <1>   0.5690 
  3 N       -1.8200    -0.2010    -0.4490 N.am  1 <1>  -0.6600 
  4 C       -2.2580    -2.5580    -1.1360 C.3   1 <1>  -0.0190 
  5 C       -2.4300    -0.4680     0.8840 C.3   1 <1>   0.2200 
  6 C       -1.3300     1.1880    -0.6810 C.3   1 <1>   0.0600 
  7 C       -1.4300    -3.2200    -0.0200 C.3   1 <1>   0.1200 
  8 C       -3.7930    -2.5870    -1.0030 C.3   1 <1>   0.1400 
  9 C       -1.6320    -1.5350     1.6750 C.3   1 <1>   0.1200 
 10 C       -3.9490    -0.7250     0.7600 C.3   1 <1>   0.1400 
 11 O       -1.8320    -2.8620     1.2670 O.3   1 <1>  -0.5600 
 12 N       -4.3460    -2.1000     0.3030 N.am  1 <1>  -0.6600 
 13 C       -5.2160    -2.8580     1.0640 C.2   1 <1>   0.5440 
 14 O       -5.8750    -2.3140     1.9320 O.2   1 <1>  -0.5700 
 15 C       -5.3880    -4.2780     0.8450 C.ar  1 <1>   0.0860 
 16 C       -4.3670    -5.1840     1.1330 C.ar  1 <1>  -0.1500 
 17 C       -6.5790    -4.7850     0.3260 C.ar  1 <1>  -0.1500 
 18 C       -4.5210    -6.5370     0.9000 C.ar  1 <1>  -0.1500 
 19 C       -6.7410    -6.1370     0.0880 C.ar  1 <1>  -0.1500 
 20 C       -5.7090    -7.0230     0.3790 C.ar  1 <1>   0.0820 
 21 O       -5.8130    -8.3540     0.1590 O.3   1 <1>  -0.1650 
 22 C       -6.9940    -9.0140     0.2620 C.ar  1 <1>   0.0820 
 23 C       -7.3050    -9.9630    -0.6990 C.ar  1 <1>  -0.1500 
 24 C       -7.8760    -8.7690     1.3080 C.ar  1 <1>  -0.1500 
 25 C       -8.5010   -10.6590    -0.6330 C.ar  1 <1>  -0.1440 
 26 C       -9.0700    -9.4640     1.3760 C.ar  1 <1>  -0.1500 
 27 C       -9.3800   -10.4050     0.4080 C.ar  1 <1>  -0.1500 
 28 C       -8.8490   -11.6970    -1.6840 C.3   1 <1>  -0.0970 
 29 H       -2.0360    -3.1180    -2.0260 H     1 <1>   0.0800 
 30 H       -2.3360     0.4410     1.4510 H     1 <1>   0.0800 
 31 H       -0.5750     1.4340     0.0440 H     1 <1>   0.0800 
 32 H       -2.1480     1.8810    -0.5960 H     1 <1>   0.0800 
 33 H       -0.9010     1.2840    -1.6640 H     1 <1>   0.0800 
 34 H       -0.3850    -2.9850    -0.1300 H     1 <1>   0.0800 
 35 H       -1.5420    -4.2870    -0.0870 H     1 <1>   0.0800 
 36 H       -4.1180    -3.5960    -1.1820 H     1 <1>   0.0800 
 37 H       -4.2150    -1.9850    -1.7890 H     1 <1>   0.0800 
 38 H       -1.9390    -1.4930     2.7050 H     1 <1>   0.0800 
 39 H       -0.5790    -1.3200     1.6330 H     1 <1>   0.0800 
 40 H       -4.3750     0.0000     0.0890 H     1 <1>   0.0800 
 41 H       -4.3750    -0.5390     1.7290 H     1 <1>   0.0800 
 42 H       -3.4480    -4.8110     1.5510 H     1 <1>   0.1500 
 43 H       -7.3810    -4.1000     0.1110 H     1 <1>   0.1500 
 44 H       -3.7240    -7.2240     1.1250 H     1 <1>   0.1500 
 45 H       -7.6660    -6.5000    -0.3250 H     1 <1>   0.1500 
 46 H       -6.6060   -10.1470    -1.4940 H     1 <1>   0.1500 
 47 H       -7.6280    -8.0450     2.0630 H     1 <1>   0.1500 
 48 H       -9.7560    -9.2760     2.1830 H     1 <1>   0.1500 
 49 H      -10.3110   -10.9410     0.4700 H     1 <1>   0.1500 
 50 H       -9.8830   -11.6080    -1.9650 H     1 <1>   0.0800 
 51 H       -8.6790   -12.6830    -1.2920 H     1 <1>   0.0800 
 52 H       -8.2460   -11.5660    -2.5640 H     1 <1>   0.0800 
@<TRIPOS>BOND
  1   1   2  2   
  2   2   3  am  
  3   2   4  1   
  4   3   5  1   
  5   3   6  1   
  6   4   7  1   
  7   4   8  1   
  8   4  29  1   
  9   5   9  1   
 10   5  10  1   
 11   5  30  1   
 12   6  31  1   
 13   6  32  1   
 14   6  33  1   
 15   7  11  1   
 16   7  34  1   
 17   7  35  1   
 18   8  12  1   
 19   8  36  1   
 20   8  37  1   
 21   9  11  1   
 22   9  38  1   
 23   9  39  1   
 24  10  12  1   
 25  10  40  1   
 26  10  41  1   
 27  12  13  am  
 28  13  14  2   
 29  13  15  1   
 30  15  16  ar  
 31  15  17  ar  
 32  16  18  ar  
 33  16  42  1   
 34  17  19  ar  
 35  17  43  1   
 36  18  20  ar  
 37  18  44  1   
 38  19  20  ar  
 39  19  45  1   
 40  20  21  1   
 41  21  22  1   
 42  22  23  ar  
 43  22  24  ar  
 44  23  25  ar  
 45  23  46  1   
 46  24  26  ar  
 47  24  47  1   
 48  25  27  ar  
 49  25  28  1   
 50  26  27  ar  
 51  26  48  1   
 52  27  49  1   
 53  28  50  1   
 54  28  51  1   
 55  28  52  1   
@<TRIPOS>SUBSTRUCTURE
  1 ****  15 GROUP 4 **** **** 0

# MOE 2024.06 (io_trps.svl 2023.06)
