@<TRIPOS>MOLECULE
NONAME
43 44 1 0 0 
SMALL
USER_CHARGES


@<TRIPOS>ATOM
  1 CL      -0.1270     0.1830    -0.3590 Cl    1 <1>  -0.1770 
  2 C       -1.7950     0.6200    -0.0940 C.ar  1 <1>   0.1770 
  3 C       -2.1480     1.2860     1.0630 C.ar  1 <1>  -0.1500 
  4 C       -2.7430     0.2980    -1.0460 C.ar  1 <1>  -0.1500 
  5 C       -3.4720     1.6310     1.2670 C.ar  1 <1>  -0.1500 
  6 C       -4.0640     0.6510    -0.8320 C.ar  1 <1>  -0.1500 
  7 C       -4.4590     1.3190     0.3290 C.ar  1 <1>   0.0530 
  8 C       -5.8280     1.7020     0.5650 C.2   1 <1>   0.0870 
  9 O       -6.0830     2.9120     0.9970 O.3   1 <1>  -0.0190 
 10 C       -7.0250     1.0590     0.4610 C.2   1 <1>  -0.0860 
 11 N       -7.3560     3.1360     1.1770 N.2   1 <1>  -0.4100 
 12 C       -7.9410     2.0460     0.8500 C.2   1 <1>   0.3720 
 13 C       -7.3510    -0.2890     0.1020 C.2   1 <1>   0.7160 
 14 N       -9.3260     1.9520     0.9030 N.pl3 1 <1>  -0.8520 
 15 O       -6.5820    -0.9900    -0.5180 O.2   1 <1>  -0.5700 
 16 N       -8.5650    -0.8020     0.4420 N.am  1 <1>  -0.7300 
 17 C       -9.9920     1.9960    -0.4290 C.3   1 <1>   0.2090 
 18 C       -9.1420    -2.1460     0.0930 C.3   1 <1>   0.2200 
 19 C      -11.4230     1.4680    -0.3190 C.3   1 <1>   0.1200 
 20 C       -8.2860    -3.4240     0.4260 C.3   1 <1>   1.0200 
 21 C       -9.6200    -2.0760    -1.3670 C.3   1 <1>  -0.2400 
 22 O      -11.9330     1.3070    -1.6040 O.3   1 <1>  -0.5600 
 23 F       -7.3580    -3.7210    -0.4750 F     1 <1>  -0.3400 
 24 F       -9.0610    -4.5020     0.5050 F     1 <1>  -0.3400 
 25 F       -7.6660    -3.3380     1.5990 F     1 <1>  -0.3400 
 26 C      -13.2570     0.8770    -1.6400 C.3   1 <1>   0.0400 
 27 H       -1.3940     1.5290     1.7900 H     1 <1>   0.1500 
 28 H       -2.4490    -0.2210    -1.9400 H     1 <1>   0.1500 
 29 H       -3.7510     2.1500     2.1680 H     1 <1>   0.1500 
 30 H       -4.7990     0.4050    -1.5780 H     1 <1>   0.1500 
 31 H       -9.6490     2.7600     1.4510 H     1 <1>   0.4000 
 32 H       -9.2000    -0.1270     0.8870 H     1 <1>   0.3700 
 33 H       -9.4470     1.3870    -1.1310 H     1 <1>   0.0800 
 34 H      -10.0080     3.0100    -0.7920 H     1 <1>   0.0800 
 35 H      -10.0220    -2.2510     0.7010 H     1 <1>   0.0800 
 36 H      -12.0400     2.1680     0.2160 H     1 <1>   0.0800 
 37 H      -11.4310     0.5090     0.1690 H     1 <1>   0.0800 
 38 H       -8.7800    -1.9630    -2.0300 H     1 <1>   0.0800 
 39 H      -10.2930    -1.2490    -1.5070 H     1 <1>   0.0800 
 40 H      -10.1370    -2.9820    -1.6310 H     1 <1>   0.0800 
 41 H      -13.5490     0.7820    -2.6710 H     1 <1>   0.0800 
 42 H      -13.8820     1.6060    -1.1530 H     1 <1>   0.0800 
 43 H      -13.3360    -0.0780    -1.1510 H     1 <1>   0.0800 
@<TRIPOS>BOND
  1   1   2  1   
  2   2   3  ar  
  3   2   4  ar  
  4   3   5  ar  
  5   3  27  1   
  6   4   6  ar  
  7   4  28  1   
  8   5   7  ar  
  9   5  29  1   
 10   6   7  ar  
 11   6  30  1   
 12   7   8  1   
 13   8   9  1   
 14   8  10  2   
 15   9  11  1   
 16  10  12  1   
 17  10  13  1   
 18  11  12  2   
 19  12  14  1   
 20  13  15  2   
 21  13  16  am  
 22  14  17  1   
 23  14  31  1   
 24  16  18  1   
 25  16  32  1   
 26  17  19  1   
 27  17  33  1   
 28  17  34  1   
 29  18  20  1   
 30  18  21  1   
 31  18  35  1   
 32  19  22  1   
 33  19  36  1   
 34  19  37  1   
 35  20  23  1   
 36  20  24  1   
 37  20  25  1   
 38  21  38  1   
 39  21  39  1   
 40  21  40  1   
 41  22  26  1   
 42  26  41  1   
 43  26  42  1   
 44  26  43  1   
@<TRIPOS>SUBSTRUCTURE
  1 ****  13 GROUP 4 **** **** 0

# MOE 2024.06 (io_trps.svl 2023.06)
