@<TRIPOS>MOLECULE
NONAME
59 62 1 0 0 
SMALL
USER_CHARGES


@<TRIPOS>ATOM
  1 O       -0.4480     0.2610    -0.6420 O.3   1 <1>  -0.5600 
  2 C       -0.1990     1.3880    -1.4100 C.3   1 <1>   0.1200 
  3 C       -1.7900     0.2810    -0.2510 C.3   1 <1>   0.1200 
  4 C       -0.8870     2.4820    -0.5980 C.3   1 <1>   0.4230 
  5 C       -2.2080     1.7610    -0.3120 C.3   1 <1>  -0.0800 
  6 N       -0.1210     2.6620     0.6760 N.4   1 <1>  -0.9060 
  7 C       -3.0390     2.2280     0.9030 C.3   1 <1>  -0.0170 
  8 C        0.9230     3.7190     0.7950 C.3   1 <1>   0.4230 
  9 C       -4.3500     1.4550     0.9810 C.ar  1 <1>  -0.1440 
 10 C        0.3070     5.1140     0.6740 C.3   1 <1>  -0.1600 
 11 C        2.0550     3.5510    -0.2200 C.3   1 <1>  -0.1600 
 12 C       -5.4530     1.7390     0.1370 C.ar  1 <1>   0.0000 
 13 C       -4.4930     0.4390     1.8820 C.ar  1 <1>  -0.1500 
 14 C        1.3790     6.1910     0.8660 C.3   1 <1>   0.3430 
 15 C        3.1210     4.6280    -0.0080 C.3   1 <1>   0.3430 
 16 C       -6.6060     0.9250     0.2670 C.ar  1 <1>   0.3100 
 17 C       -5.4860     2.7790    -0.8230 C.ar  1 <1>  -0.1500 
 18 C       -5.6830    -0.2950     1.9370 C.ar  1 <1>   0.1600 
 19 N        2.5030     5.9850    -0.1000 N.4   1 <1>  -0.9590 
 20 N       -6.7020    -0.0830     1.1690 N.ar  1 <1>  -0.6200 
 21 C       -7.7070     1.1640    -0.5690 C.ar  1 <1>  -0.1500 
 22 C       -6.5790     2.9870    -1.6200 C.ar  1 <1>  -0.1500 
 23 C        3.5650     7.0250     0.0770 C.3   1 <1>   0.3430 
 24 C       -7.7030     2.1690    -1.4970 C.ar  1 <1>  -0.1500 
 25 C        3.0730     8.3850    -0.4220 C.3   1 <1>  -0.1600 
 26 C        4.1980     9.4240    -0.3590 C.3   1 <1>  -0.2400 
 27 H        0.8600     1.5120    -1.5340 H     1 <1>   0.0800 
 28 H       -0.6630     1.2540    -2.3750 H     1 <1>   0.0800 
 29 H       -2.3620    -0.3230    -0.9380 H     1 <1>   0.0800 
 30 H       -1.8580    -0.1390     0.7380 H     1 <1>   0.0800 
 31 H       -1.0220     3.4050    -1.1380 H     1 <1>   0.0800 
 32 H       -2.8250     1.8650    -1.1880 H     1 <1>   0.0800 
 33 H       -0.7970     2.7710     1.4380 H     1 <1>   0.4500 
 34 H        0.2950     1.7260     0.8330 H     1 <1>   0.4500 
 35 H       -3.2510     3.2810     0.8390 H     1 <1>   0.0800 
 36 H       -2.4990     2.0640     1.8180 H     1 <1>   0.0800 
 37 H        1.3580     3.6390     1.7800 H     1 <1>   0.0800 
 38 H       -0.1540     5.2550    -0.2870 H     1 <1>   0.0800 
 39 H       -0.4430     5.2500     1.4330 H     1 <1>   0.0800 
 40 H        2.5200     2.5890    -0.0920 H     1 <1>   0.0800 
 41 H        1.6920     3.6280    -1.2290 H     1 <1>   0.0800 
 42 H       -3.7120     0.1650     2.5680 H     1 <1>   0.1500 
 43 H        1.7590     6.1510     1.8760 H     1 <1>   0.0800 
 44 H        0.9380     7.1650     0.7180 H     1 <1>   0.0800 
 45 H        3.8920     4.5250    -0.7570 H     1 <1>   0.0800 
 46 H        3.5810     4.5020     0.9600 H     1 <1>   0.0800 
 47 H       -4.6440     3.4300    -0.9340 H     1 <1>   0.1500 
 48 H       -5.7560    -1.0880     2.6620 H     1 <1>   0.1500 
 49 H        2.1480     6.1200    -1.0590 H     1 <1>   0.4500 
 50 H       -8.5630     0.5240    -0.4530 H     1 <1>   0.1500 
 51 H       -6.5940     3.7800    -2.3490 H     1 <1>   0.1500 
 52 H        3.8540     7.0970     1.1140 H     1 <1>   0.0800 
 53 H        4.4390     6.7510    -0.4940 H     1 <1>   0.0800 
 54 H       -8.5560     2.3400    -2.1310 H     1 <1>   0.1500 
 55 H        2.7430     8.3060    -1.4430 H     1 <1>   0.0800 
 56 H        2.2580     8.7410     0.1820 H     1 <1>   0.0800 
 57 H        5.0300     9.1300    -0.9760 H     1 <1>   0.0800 
 58 H        4.5460     9.5550     0.6520 H     1 <1>   0.0800 
 59 H        3.8400    10.3750    -0.7140 H     1 <1>   0.0800 
@<TRIPOS>BOND
  1   1   2  1   
  2   1   3  1   
  3   2   4  1   
  4   2  27  1   
  5   2  28  1   
  6   3   5  1   
  7   3  29  1   
  8   3  30  1   
  9   4   5  1   
 10   4   6  1   
 11   4  31  1   
 12   5   7  1   
 13   5  32  1   
 14   6   8  1   
 15   6  33  1   
 16   6  34  1   
 17   7   9  1   
 18   7  35  1   
 19   7  36  1   
 20   8  10  1   
 21   8  11  1   
 22   8  37  1   
 23   9  12  ar  
 24   9  13  ar  
 25  10  14  1   
 26  10  38  1   
 27  10  39  1   
 28  11  15  1   
 29  11  40  1   
 30  11  41  1   
 31  12  16  ar  
 32  12  17  ar  
 33  13  18  ar  
 34  13  42  1   
 35  14  19  1   
 36  14  43  1   
 37  14  44  1   
 38  15  19  1   
 39  15  45  1   
 40  15  46  1   
 41  16  20  ar  
 42  16  21  ar  
 43  17  22  ar  
 44  17  47  1   
 45  18  20  ar  
 46  18  48  1   
 47  19  23  1   
 48  19  49  1   
 49  21  24  ar  
 50  21  50  1   
 51  22  24  ar  
 52  22  51  1   
 53  23  25  1   
 54  23  52  1   
 55  23  53  1   
 56  24  54  1   
 57  25  26  1   
 58  25  55  1   
 59  25  56  1   
 60  26  57  1   
 61  26  58  1   
 62  26  59  1   
@<TRIPOS>SUBSTRUCTURE
  1 ****   4 GROUP 4 **** **** 0

# MOE 2024.06 (io_trps.svl 2023.06)
