@<TRIPOS>MOLECULE
NONAME
54 58 1 0 0 
SMALL
USER_CHARGES


@<TRIPOS>ATOM
  1 O        2.2490    -0.4850     2.8070 O.2   1 <1>  -0.5700 
  2 C        2.2070    -0.9890     1.6990 C.2   1 <1>   0.5440 
  3 N        2.5130    -0.1970     0.6030 N.am  1 <1>  -0.6600 
  4 C        1.8690    -2.3900     1.5640 C.ar  1 <1>   0.0860 
  5 C        2.7490     1.2680     0.8140 C.3   1 <1>   0.1400 
  6 C        2.9490    -0.8070    -0.6950 C.3   1 <1>   0.1400 
  7 C        0.8090    -2.8090     0.7750 C.ar  1 <1>  -0.1500 
  8 C        2.6380    -3.3670     2.2270 C.ar  1 <1>  -0.1500 
  9 C        4.2480     1.6610     0.8970 C.3   1 <1>   0.4230 
 10 C        4.3540    -0.3810    -1.1760 C.3   1 <1>  -0.0800 
 11 C        0.5310    -4.1660     0.6210 C.ar  1 <1>   0.0000 
 12 C        2.3780    -4.7090     2.0910 C.ar  1 <1>  -0.1500 
 13 N        4.8510     1.9910    -0.4470 N.4   1 <1>  -0.9590 
 14 C        5.1510     0.6440     1.6500 C.3   1 <1>   0.1200 
 15 C        5.5260    -0.8200    -0.2710 C.3   1 <1>   0.1200 
 16 C        4.3980     1.1000    -1.5560 C.3   1 <1>   0.3430 
 17 C        1.3180    -5.1100     1.2750 C.ar  1 <1>  -0.1520 
 18 C       -0.4380    -4.8980    -0.0990 C.2   1 <1>  -0.1810 
 19 C        4.6430     3.4280    -0.8050 C.3   1 <1>   0.2630 
 20 O        5.2560    -0.6390     1.0820 O.3   1 <1>  -0.5600 
 21 N        0.8500    -6.3600     0.9620 N.pl3 1 <1>   0.0330 
 22 C       -0.2150    -6.2110     0.1190 C.2   1 <1>  -0.3320 
 23 C       -1.5510    -4.3600    -0.9770 C.3   1 <1>   0.0210 
 24 C       -1.0340    -7.3430    -0.4710 C.3   1 <1>   0.0200 
 25 C       -2.5850    -5.4670    -1.2590 C.3   1 <1>  -0.1600 
 26 C       -1.9140    -6.8090    -1.6180 C.3   1 <1>  -0.1600 
 27 H        2.2560     1.8250     0.0390 H     1 <1>   0.0800 
 28 H        2.2830     1.5700     1.7360 H     1 <1>   0.0800 
 29 H        2.9530    -1.8800    -0.6130 H     1 <1>   0.0800 
 30 H        2.2190    -0.5560    -1.4460 H     1 <1>   0.0800 
 31 H        0.1890    -2.0920     0.2710 H     1 <1>   0.1500 
 32 H        3.4490    -3.0310     2.8510 H     1 <1>   0.1500 
 33 H        4.2800     2.5630     1.4840 H     1 <1>   0.0800 
 34 H        4.4970    -0.9040    -2.1040 H     1 <1>   0.0800 
 35 H        2.9730    -5.4460     2.6010 H     1 <1>   0.1500 
 36 H        5.8610     1.8290    -0.3330 H     1 <1>   0.4500 
 37 H        4.7530     0.5020     2.6400 H     1 <1>   0.0800 
 38 H        6.1450     1.0390     1.7560 H     1 <1>   0.0800 
 39 H        6.4460    -0.3180    -0.5160 H     1 <1>   0.0800 
 40 H        5.6850    -1.8780    -0.3990 H     1 <1>   0.0800 
 41 H        3.4160     1.3990    -1.8870 H     1 <1>   0.0800 
 42 H        5.0700     1.2210    -2.3910 H     1 <1>   0.0800 
 43 H        3.5920     3.6380    -0.9240 H     1 <1>   0.0800 
 44 H        5.1470     3.6610    -1.7300 H     1 <1>   0.0800 
 45 H        5.0370     4.0690    -0.0330 H     1 <1>   0.0800 
 46 H        1.2350    -7.2430     1.3070 H     1 <1>   0.2700 
 47 H       -2.0320    -3.5300    -0.4910 H     1 <1>   0.0800 
 48 H       -1.1240    -4.0160    -1.9010 H     1 <1>   0.0800 
 49 H       -0.3860    -8.1170    -0.8450 H     1 <1>   0.0800 
 50 H       -1.6570    -7.7600     0.3000 H     1 <1>   0.0800 
 51 H       -3.1900    -5.6080    -0.3800 H     1 <1>   0.0800 
 52 H       -3.2330    -5.1550    -2.0600 H     1 <1>   0.0800 
 53 H       -1.2970    -6.6640    -2.4880 H     1 <1>   0.0800 
 54 H       -2.6630    -7.5410    -1.8630 H     1 <1>   0.0800 
@<TRIPOS>BOND
  1   1   2  2   
  2   2   3  am  
  3   2   4  1   
  4   3   5  1   
  5   3   6  1   
  6   4   7  ar  
  7   4   8  ar  
  8   5   9  1   
  9   5  27  1   
 10   5  28  1   
 11   6  10  1   
 12   6  29  1   
 13   6  30  1   
 14   7  11  ar  
 15   7  31  1   
 16   8  12  ar  
 17   8  32  1   
 18   9  13  1   
 19   9  14  1   
 20   9  33  1   
 21  10  15  1   
 22  10  16  1   
 23  10  34  1   
 24  11  17  ar  
 25  11  18  1   
 26  12  17  ar  
 27  12  35  1   
 28  13  16  1   
 29  13  19  1   
 30  13  36  1   
 31  14  20  1   
 32  14  37  1   
 33  14  38  1   
 34  15  20  1   
 35  15  39  1   
 36  15  40  1   
 37  16  41  1   
 38  16  42  1   
 39  17  21  1   
 40  18  22  2   
 41  18  23  1   
 42  19  43  1   
 43  19  44  1   
 44  19  45  1   
 45  21  22  1   
 46  21  46  1   
 47  22  24  1   
 48  23  25  1   
 49  23  47  1   
 50  23  48  1   
 51  24  26  1   
 52  24  49  1   
 53  24  50  1   
 54  25  26  1   
 55  25  51  1   
 56  25  52  1   
 57  26  53  1   
 58  26  54  1   
@<TRIPOS>SUBSTRUCTURE
  1 ****   4 GROUP 4 **** **** 0

# MOE 2024.06 (io_trps.svl 2023.06)
