@<TRIPOS>MOLECULE
NONAME
33 33 1 0 0 
SMALL
USER_CHARGES


@<TRIPOS>ATOM
  1 O       -1.3550    -0.4580    -0.0930 O.2   1 <1>  -0.5700 
  2 C       -2.1700     0.3950     0.1920 C.2   1 <1>   0.5690 
  3 N       -3.3690     0.0440     0.7630 N.am  1 <1>  -0.6600 
  4 C       -1.8380     1.8750    -0.1190 C.3   1 <1>   0.2610 
  5 C       -3.6210    -1.3640     1.1890 C.3   1 <1>   0.3200 
  6 C       -4.5850     0.9120     0.7440 C.3   1 <1>   0.1400 
  7 O       -2.3690     2.2590    -1.3520 O.3   1 <1>  -0.6800 
  8 C       -0.3280     2.1860    -0.1270 C.3   1 <1>  -0.1600 
  9 C       -4.0830    -2.2020     0.0100 C.2   1 <1>   0.0060 
 10 C       -4.7650     1.6160     2.0920 C.3   1 <1>   0.1200 
 11 C       -0.0090     3.6750    -0.3330 C.3   1 <1>  -0.2400 
 12 N       -5.2370    -2.7820    -0.0890 N.2   1 <1>  -0.5650 
 13 N       -3.2820    -2.4050    -1.0560 N.pl3 1 <1>   0.0330 
 14 O       -5.8500     2.4770     2.0230 O.3   1 <1>  -0.6800 
 15 C       -5.1840    -3.3960    -1.2870 C.2   1 <1>   0.0770 
 16 C       -3.9960    -3.1770    -1.8930 C.2   1 <1>  -0.3020 
 17 H       -2.3050     2.4910     0.6270 H     1 <1>   0.0800 
 18 H       -4.3730    -1.3860     1.9590 H     1 <1>   0.0800 
 19 H       -2.7190    -1.7890     1.5950 H     1 <1>   0.0800 
 20 H       -5.4510     0.3050     0.5370 H     1 <1>   0.0800 
 21 H       -4.5010     1.6420    -0.0410 H     1 <1>   0.0800 
 22 H       -1.9260     1.7550    -2.0620 H     1 <1>   0.4000 
 23 H        0.1570     1.6010    -0.8900 H     1 <1>   0.0800 
 24 H        0.0830     1.8760     0.8180 H     1 <1>   0.0800 
 25 H       -3.8960     2.1950     2.3490 H     1 <1>   0.0800 
 26 H       -4.9670     0.8990     2.8680 H     1 <1>   0.0800 
 27 H       -0.3600     4.0120    -1.2930 H     1 <1>   0.0800 
 28 H        1.0540     3.8330    -0.2870 H     1 <1>   0.0800 
 29 H       -0.4760     4.2700     0.4320 H     1 <1>   0.0800 
 30 H       -2.3370    -2.0110    -1.1630 H     1 <1>   0.2700 
 31 H       -5.6980     3.1890     1.3700 H     1 <1>   0.4000 
 32 H       -6.0170    -3.9720    -1.6550 H     1 <1>   0.1500 
 33 H       -3.6320    -3.5170    -2.8450 H     1 <1>   0.1500 
@<TRIPOS>BOND
  1   1   2  2   
  2   2   3  am  
  3   2   4  1   
  4   3   5  1   
  5   3   6  1   
  6   4   7  1   
  7   4   8  1   
  8   4  17  1   
  9   5   9  1   
 10   5  18  1   
 11   5  19  1   
 12   6  10  1   
 13   6  20  1   
 14   6  21  1   
 15   7  22  1   
 16   8  11  1   
 17   8  23  1   
 18   8  24  1   
 19   9  12  2   
 20   9  13  1   
 21  10  14  1   
 22  10  25  1   
 23  10  26  1   
 24  11  27  1   
 25  11  28  1   
 26  11  29  1   
 27  12  15  1   
 28  13  16  1   
 29  13  30  1   
 30  14  31  1   
 31  15  16  2   
 32  15  32  1   
 33  16  33  1   
@<TRIPOS>SUBSTRUCTURE
  1 ****   3 GROUP 4 **** **** 0

# MOE 2024.06 (io_trps.svl 2023.06)
