@<TRIPOS>MOLECULE
NONAME
43 44 1 0 0 
SMALL
USER_CHARGES


@<TRIPOS>ATOM
  1 CL      -1.6630    -1.7090    -1.1200 Cl    1 <1>  -0.1770 
  2 C       -2.3730    -0.2080    -0.5660 C.ar  1 <1>   0.1770 
  3 C       -3.7050    -0.1620    -0.1550 C.ar  1 <1>   0.0830 
  4 C       -1.5830     0.9260    -0.5560 C.ar  1 <1>  -0.1500 
  5 O       -4.4940    -1.2620    -0.1610 O.3   1 <1>  -0.3630 
  6 C       -4.2600     1.0450     0.2520 C.ar  1 <1>  -0.1500 
  7 C       -2.1610     2.1090    -0.1350 C.ar  1 <1>   0.1900 
  8 C       -4.2620    -2.2490     0.8350 C.3   1 <1>   0.2610 
  9 C       -3.4830     2.1920     0.2660 C.ar  1 <1>  -0.1500 
 10 F       -1.4300     3.1920    -0.1180 F     1 <1>  -0.1900 
 11 C       -4.3520    -3.6810     0.2630 C.2   1 <1>   0.5690 
 12 C       -5.2170    -1.9830     2.0070 C.3   1 <1>  -0.2400 
 13 O       -3.4530    -4.4250     0.5840 O.2   1 <1>  -0.5700 
 14 N       -5.3800    -4.1430    -0.5350 N.am  1 <1>  -0.6600 
 15 C       -5.2190    -5.4290    -1.2750 C.3   1 <1>   0.3200 
 16 C       -6.6350    -3.3930    -0.8630 C.3   1 <1>   0.1400 
 17 C       -6.2150    -6.4590    -0.7800 C.2   1 <1>  -0.3320 
 18 C       -7.7920    -3.7970     0.0610 C.3   1 <1>   0.1200 
 19 N       -6.1880    -7.0350     0.4390 N.pl3 1 <1>   0.0480 
 20 C       -7.2730    -6.9910    -1.4320 C.2   1 <1>   0.0770 
 21 O       -8.7860    -2.8280     0.0010 O.3   1 <1>  -0.6800 
 22 C       -7.2470    -7.8760     0.4420 C.2   1 <1>   0.0360 
 23 C       -5.2190    -6.8270     1.5300 C.3   1 <1>   0.0160 
 24 N       -7.9240    -7.8780    -0.6590 N.2   1 <1>  -0.5650 
 25 H       -0.5560     0.8920    -0.8690 H     1 <1>   0.1500 
 26 H       -5.2920     1.0820     0.5530 H     1 <1>   0.1500 
 27 H       -3.2540    -2.1250     1.1910 H     1 <1>   0.0800 
 28 H       -3.8900     3.1370     0.5810 H     1 <1>   0.1500 
 29 H       -6.2380    -1.9850     1.6780 H     1 <1>   0.0800 
 30 H       -4.9900    -1.0340     2.4560 H     1 <1>   0.0800 
 31 H       -5.0910    -2.7470     2.7530 H     1 <1>   0.0800 
 32 H       -4.2200    -5.8170    -1.1680 H     1 <1>   0.0800 
 33 H       -5.3770    -5.2500    -2.3240 H     1 <1>   0.0800 
 34 H       -6.9170    -3.5910    -1.8820 H     1 <1>   0.0800 
 35 H       -6.4720    -2.3380    -0.7760 H     1 <1>   0.0800 
 36 H       -7.4670    -3.8830     1.0820 H     1 <1>   0.0800 
 37 H       -8.2260    -4.7300    -0.2540 H     1 <1>   0.0800 
 38 H       -7.6110    -6.7790    -2.4330 H     1 <1>   0.1500 
 39 H       -8.4850    -1.9870     0.3940 H     1 <1>   0.4000 
 40 H       -7.4880    -8.4840     1.2960 H     1 <1>   0.1500 
 41 H       -4.2200    -6.9040     1.1390 H     1 <1>   0.0800 
 42 H       -5.3620    -7.5710     2.2910 H     1 <1>   0.0800 
 43 H       -5.3630    -5.8500     1.9500 H     1 <1>   0.0800 
@<TRIPOS>BOND
  1   1   2  1   
  2   2   3  ar  
  3   2   4  ar  
  4   3   5  1   
  5   3   6  ar  
  6   4   7  ar  
  7   4  25  1   
  8   5   8  1   
  9   6   9  ar  
 10   6  26  1   
 11   7   9  ar  
 12   7  10  1   
 13   8  11  1   
 14   8  12  1   
 15   8  27  1   
 16   9  28  1   
 17  11  13  2   
 18  11  14  am  
 19  12  29  1   
 20  12  30  1   
 21  12  31  1   
 22  14  15  1   
 23  14  16  1   
 24  15  17  1   
 25  15  32  1   
 26  15  33  1   
 27  16  18  1   
 28  16  34  1   
 29  16  35  1   
 30  17  19  1   
 31  17  20  2   
 32  18  21  1   
 33  18  36  1   
 34  18  37  1   
 35  19  22  1   
 36  19  23  1   
 37  20  24  1   
 38  20  38  1   
 39  21  39  1   
 40  22  24  2   
 41  22  40  1   
 42  23  41  1   
 43  23  42  1   
 44  23  43  1   
@<TRIPOS>SUBSTRUCTURE
  1 ****  11 GROUP 4 **** **** 0

# MOE 2024.06 (io_trps.svl 2023.06)
