@<TRIPOS>MOLECULE
NONAME
52 55 1 0 0 
SMALL
USER_CHARGES


@<TRIPOS>ATOM
  1 O       -3.0540     2.1380    -2.6610 O.2   1 <1>  -0.5700 
  2 C       -2.8660     1.4070    -1.7040 C.2   1 <1>   0.7150 
  3 N       -3.6590     0.2810    -1.5870 N.am  1 <1>  -0.6600 
  4 C       -1.8290     1.7570    -0.7540 C.2   1 <1>   0.0550 
  5 C       -3.2310    -0.9210    -0.7820 C.3   1 <1>   0.3640 
  6 C       -5.0300     0.2770    -2.1780 C.3   1 <1>   0.1400 
  7 O       -1.9510     1.4630     0.5520 O.3   1 <1>  -0.2800 
  8 C       -0.6490     2.3960    -0.9590 C.2   1 <1>  -0.1500 
  9 C       -1.7800    -1.2650    -1.1430 C.ar  1 <1>  -0.1440 
 10 C       -4.1040    -2.2020    -0.9780 C.3   1 <1>   0.2000 
 11 C       -5.4980    -1.1330    -2.5310 C.3   1 <1>   0.1200 
 12 C       -0.8510     1.8810     1.1750 C.ar  1 <1>   0.1400 
 13 C        0.0100     2.4820     0.2770 C.ar  1 <1>   0.0000 
 14 C       -0.8270    -1.4010    -0.1420 C.ar  1 <1>  -0.1500 
 15 C       -1.3920    -1.4340    -2.4670 C.ar  1 <1>  -0.1500 
 16 O       -5.4150    -1.9320    -1.3960 O.3   1 <1>  -0.5600 
 17 C       -4.2380    -3.0360     0.3070 C.3   1 <1>   0.1200 
 18 C       -0.5430     1.7620     2.5230 C.ar  1 <1>  -0.1500 
 19 C        1.2280     2.9910     0.7320 C.ar  1 <1>  -0.1500 
 20 C        0.4890    -1.6990    -0.4480 C.ar  1 <1>   0.0830 
 21 C       -0.0750    -1.7210    -2.7840 C.ar  1 <1>  -0.1500 
 22 O       -2.9980    -3.3720     0.8420 O.3   1 <1>  -0.6800 
 23 C        0.6640     2.2650     2.9660 C.ar  1 <1>  -0.1500 
 24 C        1.5450     2.8790     2.0700 C.ar  1 <1>  -0.1500 
 25 O        1.3530    -1.8470     0.5860 O.3   1 <1>  -0.3620 
 26 C        0.8750    -1.8380    -1.7850 C.ar  1 <1>   0.0830 
 27 C        1.8440    -3.1500     0.8040 C.3   1 <1>   0.0400 
 28 O        2.1550    -2.0780    -2.1620 O.3   1 <1>  -0.3630 
 29 C        3.0900    -1.0610    -1.8740 C.3   1 <1>   0.0400 
 30 H       -3.2800    -0.6510     0.2580 H     1 <1>   0.0800 
 31 H       -5.7170     0.7070    -1.4690 H     1 <1>   0.0800 
 32 H       -5.0550     0.8810    -3.0680 H     1 <1>   0.0800 
 33 H       -0.2620     2.7720    -1.8880 H     1 <1>   0.1500 
 34 H       -3.6630    -2.8210    -1.7380 H     1 <1>   0.0800 
 35 H       -4.8990    -1.5590    -3.3170 H     1 <1>   0.0800 
 36 H       -6.5270    -1.1130    -2.8460 H     1 <1>   0.0800 
 37 H       -1.0980    -1.2770     0.8920 H     1 <1>   0.1500 
 38 H       -2.1130    -1.3300    -3.2590 H     1 <1>   0.1500 
 39 H       -4.7700    -3.9490     0.1030 H     1 <1>   0.0800 
 40 H       -4.7700    -2.4750     1.0560 H     1 <1>   0.0800 
 41 H       -1.2390     1.2850     3.1880 H     1 <1>   0.1500 
 42 H        1.9000     3.4590     0.0350 H     1 <1>   0.1500 
 43 H        0.2240    -1.8440    -3.8090 H     1 <1>   0.1500 
 44 H       -2.4600    -3.8790     0.2010 H     1 <1>   0.4000 
 45 H        0.9340     2.1880     4.0050 H     1 <1>   0.1500 
 46 H        2.4810     3.2640     2.4370 H     1 <1>   0.1500 
 47 H        2.4620    -3.1330     1.6830 H     1 <1>   0.0800 
 48 H        2.4240    -3.4590    -0.0470 H     1 <1>   0.0800 
 49 H        1.0100    -3.8140     0.9510 H     1 <1>   0.0800 
 50 H        4.0210    -1.3160    -2.3470 H     1 <1>   0.0800 
 51 H        3.2280    -0.9940    -0.8100 H     1 <1>   0.0800 
 52 H        2.7210    -0.1290    -2.2620 H     1 <1>   0.0800 
@<TRIPOS>BOND
  1   1   2  2   
  2   2   3  am  
  3   2   4  1   
  4   3   5  1   
  5   3   6  1   
  6   4   7  1   
  7   4   8  2   
  8   5   9  1   
  9   5  10  1   
 10   5  30  1   
 11   6  11  1   
 12   6  31  1   
 13   6  32  1   
 14   7  12  1   
 15   8  13  1   
 16   8  33  1   
 17   9  14  ar  
 18   9  15  ar  
 19  10  16  1   
 20  10  17  1   
 21  10  34  1   
 22  11  16  1   
 23  11  35  1   
 24  11  36  1   
 25  12  13  ar  
 26  12  18  ar  
 27  13  19  ar  
 28  14  20  ar  
 29  14  37  1   
 30  15  21  ar  
 31  15  38  1   
 32  17  22  1   
 33  17  39  1   
 34  17  40  1   
 35  18  23  ar  
 36  18  41  1   
 37  19  24  ar  
 38  19  42  1   
 39  20  25  1   
 40  20  26  ar  
 41  21  26  ar  
 42  21  43  1   
 43  22  44  1   
 44  23  24  ar  
 45  23  45  1   
 46  24  46  1   
 47  25  27  1   
 48  26  28  1   
 49  27  47  1   
 50  27  48  1   
 51  27  49  1   
 52  28  29  1   
 53  29  50  1   
 54  29  51  1   
 55  29  52  1   
@<TRIPOS>SUBSTRUCTURE
  1 ****   9 GROUP 4 **** **** 0

# MOE 2024.06 (io_trps.svl 2023.06)
