@<TRIPOS>MOLECULE
NONAME
50 52 1 0 0 
SMALL
USER_CHARGES


@<TRIPOS>ATOM
  1 CL      -5.5420    -0.3090     2.4390 Cl    1 <1>  -0.1770 
  2 C       -4.3850    -1.0470     1.3530 C.ar  1 <1>   0.1770 
  3 C       -3.5950    -0.2540     0.5280 C.ar  1 <1>   0.0820 
  4 C       -4.2840    -2.4260     1.3430 C.ar  1 <1>  -0.1500 
  5 O       -3.7500     1.0960     0.5870 O.3   1 <1>  -0.3630 
  6 C       -2.6850    -0.8800    -0.3200 C.ar  1 <1>  -0.1500 
  7 C       -3.3760    -3.0450     0.4920 C.ar  1 <1>  -0.1430 
  8 C       -2.9610     1.9730    -0.1860 C.3   1 <1>   0.0400 
  9 C       -2.5790    -2.2610    -0.3340 C.ar  1 <1>  -0.1500 
 10 C       -3.2500    -4.5590     0.4540 C.3   1 <1>   0.4870 
 11 N       -4.5480    -5.1720     0.0730 N.4   1 <1>  -0.9590 
 12 C       -4.5640    -6.6830     0.0810 C.3   1 <1>   0.3430 
 13 C       -5.2290    -4.5700    -1.1050 C.3   1 <1>   0.3430 
 14 C       -5.8810    -7.3150    -0.4990 C.3   1 <1>   0.4230 
 15 C       -6.6960    -5.0400    -1.1620 C.3   1 <1>  -0.1600 
 16 N       -6.2500    -8.6470     0.1090 N.4   1 <1>  -0.9590 
 17 C       -7.0390    -6.3140    -0.3190 C.3   1 <1>  -0.1060 
 18 C       -7.4640    -9.2440    -0.5110 C.3   1 <1>   0.3430 
 19 C       -5.1590    -9.6540     0.2510 C.3   1 <1>   0.2630 
 20 C       -7.0600    -6.0180     1.1950 C.2   1 <1>   0.9060 
 21 C       -8.3840    -6.8930    -0.8330 C.3   1 <1>  -0.1600 
 22 C       -8.6580    -8.3110    -0.3110 C.3   1 <1>  -0.1600 
 23 O       -6.7340    -4.8940     1.5820 O.co2 1 <1>  -0.9000 
 24 O       -7.0790    -6.9740     1.9760 O.co2 1 <1>  -0.9000 
 25 H       -4.9250    -2.9910     2.0010 H     1 <1>   0.1500 
 26 H       -2.0520    -0.3070    -0.9730 H     1 <1>   0.1500 
 27 H       -3.2570     2.9790     0.0490 H     1 <1>   0.0800 
 28 H       -3.1360     1.7750    -1.2290 H     1 <1>   0.0800 
 29 H       -1.9260     1.8290     0.0690 H     1 <1>   0.0800 
 30 H       -1.8630    -2.7160    -0.9980 H     1 <1>   0.1500 
 31 H       -2.9540    -4.9100     1.4300 H     1 <1>   0.0800 
 32 H       -2.4890    -4.8380    -0.2550 H     1 <1>   0.0800 
 33 H       -5.2020    -4.8850     0.8550 H     1 <1>   0.4500 
 34 H       -3.7250    -7.0550    -0.4810 H     1 <1>   0.0800 
 35 H       -4.4640    -7.0080     1.1050 H     1 <1>   0.0800 
 36 H       -5.2140    -3.4930    -1.0370 H     1 <1>   0.0800 
 37 H       -4.7130    -4.8560    -2.0070 H     1 <1>   0.0800 
 38 H       -5.7340    -7.4620    -1.5550 H     1 <1>   0.0800 
 39 H       -7.3230    -4.2280    -0.8310 H     1 <1>   0.0800 
 40 H       -6.9370    -5.1950    -2.1990 H     1 <1>   0.0800 
 41 H       -6.5760    -8.3590     1.0750 H     1 <1>   0.4500 
 42 H       -7.2990    -9.4060    -1.5640 H     1 <1>   0.0800 
 43 H       -7.6830   -10.1940    -0.0490 H     1 <1>   0.0800 
 44 H       -4.7840    -9.9440    -0.7170 H     1 <1>   0.0800 
 45 H       -5.5350   -10.5330     0.7510 H     1 <1>   0.0800 
 46 H       -4.3500    -9.2560     0.8410 H     1 <1>   0.0800 
 47 H       -9.1910    -6.2430    -0.5350 H     1 <1>   0.0800 
 48 H       -8.3810    -6.9320    -1.9090 H     1 <1>   0.0800 
 49 H       -9.5130    -8.7190    -0.8210 H     1 <1>   0.0800 
 50 H       -8.9080    -8.2760     0.7360 H     1 <1>   0.0800 
@<TRIPOS>BOND
  1   1   2  1   
  2   2   3  ar  
  3   2   4  ar  
  4   3   5  1   
  5   3   6  ar  
  6   4   7  ar  
  7   4  25  1   
  8   5   8  1   
  9   6   9  ar  
 10   6  26  1   
 11   7   9  ar  
 12   7  10  1   
 13   8  27  1   
 14   8  28  1   
 15   8  29  1   
 16   9  30  1   
 17  10  11  1   
 18  10  31  1   
 19  10  32  1   
 20  11  12  1   
 21  11  13  1   
 22  11  33  1   
 23  12  14  1   
 24  12  34  1   
 25  12  35  1   
 26  13  15  1   
 27  13  36  1   
 28  13  37  1   
 29  14  16  1   
 30  14  17  1   
 31  14  38  1   
 32  15  17  1   
 33  15  39  1   
 34  15  40  1   
 35  16  18  1   
 36  16  19  1   
 37  16  41  1   
 38  17  20  1   
 39  17  21  1   
 40  18  22  1   
 41  18  42  1   
 42  18  43  1   
 43  19  44  1   
 44  19  45  1   
 45  19  46  1   
 46  20  23  ar  
 47  20  24  ar  
 48  21  22  1   
 49  21  47  1   
 50  21  48  1   
 51  22  49  1   
 52  22  50  1   
@<TRIPOS>SUBSTRUCTURE
  1 ****  11 GROUP 4 **** **** 0

# MOE 2024.06 (io_trps.svl 2023.06)
