@<TRIPOS>MOLECULE
NONAME
55 57 1 0 0 
SMALL
USER_CHARGES


@<TRIPOS>ATOM
  1 O       -1.3060    -1.7680     2.3170 O.2   1 <1>  -0.5700 
  2 C       -1.9630    -1.2450     1.4450 C.2   1 <1>   0.5690 
  3 N       -2.6480    -2.0030     0.5230 N.am  1 <1>  -0.6600 
  4 C       -2.0420     0.2870     1.4650 C.3   1 <1>   0.1810 
  5 C       -3.5110    -1.4610    -0.5750 C.3   1 <1>   0.1400 
  6 C       -2.5290    -3.4850     0.5170 C.3   1 <1>   0.1400 
  7 O       -1.5720     0.8780     0.2780 O.3   1 <1>  -0.5600 
  8 C       -5.0090    -1.6660    -0.2980 C.3   1 <1>   0.1400 
  9 C       -3.5640    -4.1290     1.4480 C.3   1 <1>  -0.1600 
 10 C       -1.4950     2.2660     0.3290 C.3   1 <1>   0.0400 
 11 N       -5.3460    -3.0910     0.0160 N.am  1 <1>  -0.6600 
 12 C       -4.9710    -3.5150     1.3960 C.3   1 <1>   0.1400 
 13 C       -5.9170    -3.9060    -0.9270 C.2   1 <1>   0.5690 
 14 O       -6.1510    -3.5080    -2.0460 O.2   1 <1>  -0.5700 
 15 C       -6.2600    -5.3450    -0.5800 C.3   1 <1>  -0.0990 
 16 C       -6.8520    -6.1420    -1.7540 C.3   1 <1>   0.0200 
 17 C       -7.1610    -7.5830    -1.3770 C.2   1 <1>   0.0060 
 18 N       -6.8980    -8.1270    -0.2380 N.2   1 <1>  -0.5650 
 19 N       -7.7580    -8.4280    -2.2540 N.pl3 1 <1>   0.0330 
 20 C       -7.3440    -9.4140    -0.3540 C.ar  1 <1>   0.2270 
 21 C       -7.8840    -9.6130    -1.6100 C.ar  1 <1>  -0.1520 
 22 C       -7.3160   -10.4620     0.5770 C.ar  1 <1>  -0.1440 
 23 C       -8.4140   -10.8460    -1.9860 C.ar  1 <1>  -0.1500 
 24 C       -7.8510   -11.6880     0.2150 C.ar  1 <1>  -0.1440 
 25 C       -6.7040   -10.1960     1.9480 C.3   1 <1>  -0.0970 
 26 C       -8.3910   -11.8690    -1.0680 C.ar  1 <1>  -0.1500 
 27 C       -7.8780   -12.8700     1.1730 C.3   1 <1>  -0.0970 
 28 H       -1.4440     0.6480     2.2820 H     1 <1>   0.0800 
 29 H       -3.0630     0.5870     1.6150 H     1 <1>   0.0800 
 30 H       -3.2590    -1.9520    -1.4990 H     1 <1>   0.0800 
 31 H       -3.3310    -0.4140    -0.7230 H     1 <1>   0.0800 
 32 H       -1.5380    -3.7720     0.8260 H     1 <1>   0.0800 
 33 H       -2.6730    -3.8500    -0.4860 H     1 <1>   0.0800 
 34 H       -5.5650    -1.3400    -1.1600 H     1 <1>   0.0800 
 35 H       -5.3070    -1.0390     0.5230 H     1 <1>   0.0800 
 36 H       -3.2020    -4.0590     2.4580 H     1 <1>   0.0800 
 37 H       -3.6230    -5.1760     1.2160 H     1 <1>   0.0800 
 38 H       -1.1400     2.6160    -0.6250 H     1 <1>   0.0800 
 39 H       -0.8010     2.5550     1.0990 H     1 <1>   0.0800 
 40 H       -2.4720     2.6720     0.5240 H     1 <1>   0.0800 
 41 H       -4.9930    -2.6530     2.0410 H     1 <1>   0.0800 
 42 H       -5.6890    -4.2160     1.7830 H     1 <1>   0.0800 
 43 H       -6.9690    -5.3460     0.2270 H     1 <1>   0.0800 
 44 H       -5.3680    -5.8410    -0.2490 H     1 <1>   0.0800 
 45 H       -6.1530    -6.1390    -2.5710 H     1 <1>   0.0800 
 46 H       -7.7570    -5.6630    -2.0830 H     1 <1>   0.0800 
 47 H       -8.0560    -8.2200    -3.2090 H     1 <1>   0.2700 
 48 H       -8.8290   -10.9860    -2.9680 H     1 <1>   0.1500 
 49 H       -5.9420    -9.4400     1.8770 H     1 <1>   0.0800 
 50 H       -6.2480   -11.0810     2.3510 H     1 <1>   0.0800 
 51 H       -7.4660    -9.8510     2.6220 H     1 <1>   0.0800 
 52 H       -8.7970   -12.8280    -1.3380 H     1 <1>   0.1500 
 53 H       -8.2250   -12.5580     2.1410 H     1 <1>   0.0800 
 54 H       -6.8900   -13.2830     1.2690 H     1 <1>   0.0800 
 55 H       -8.5380   -13.6410     0.8170 H     1 <1>   0.0800 
@<TRIPOS>BOND
  1   1   2  2   
  2   2   3  am  
  3   2   4  1   
  4   3   5  1   
  5   3   6  1   
  6   4   7  1   
  7   4  28  1   
  8   4  29  1   
  9   5   8  1   
 10   5  30  1   
 11   5  31  1   
 12   6   9  1   
 13   6  32  1   
 14   6  33  1   
 15   7  10  1   
 16   8  11  1   
 17   8  34  1   
 18   8  35  1   
 19   9  12  1   
 20   9  36  1   
 21   9  37  1   
 22  10  38  1   
 23  10  39  1   
 24  10  40  1   
 25  11  12  1   
 26  11  13  am  
 27  12  41  1   
 28  12  42  1   
 29  13  14  2   
 30  13  15  1   
 31  15  16  1   
 32  15  43  1   
 33  15  44  1   
 34  16  17  1   
 35  16  45  1   
 36  16  46  1   
 37  17  18  2   
 38  17  19  1   
 39  18  20  1   
 40  19  21  1   
 41  19  47  1   
 42  20  21  ar  
 43  20  22  ar  
 44  21  23  ar  
 45  22  24  ar  
 46  22  25  1   
 47  23  26  ar  
 48  23  48  1   
 49  24  26  ar  
 50  24  27  1   
 51  25  49  1   
 52  25  50  1   
 53  25  51  1   
 54  26  52  1   
 55  27  53  1   
 56  27  54  1   
 57  27  55  1   
@<TRIPOS>SUBSTRUCTURE
  1 ****  15 GROUP 4 **** **** 0

# MOE 2024.06 (io_trps.svl 2023.06)
