@<TRIPOS>MOLECULE
NONAME
48 52 1 0 0 
SMALL
USER_CHARGES


@<TRIPOS>ATOM
  1 O       -0.8120     0.5000     1.1580 O.2   1 <1>  -0.5700 
  2 C       -1.7740     1.0750     0.6820 C.2   1 <1>   0.7150 
  3 N       -3.0320     0.5690     0.9200 N.am  1 <1>  -0.6600 
  4 C       -1.5790     2.2500    -0.1220 C.2   1 <1>  -0.2370 
  5 C       -3.3020    -0.3550     2.0570 C.3   1 <1>   0.1400 
  6 C       -4.1690     0.7110    -0.0280 C.3   1 <1>   0.1400 
  7 N       -0.5140     2.4530    -0.9400 N.pl3 1 <1>   0.3140 
  8 C       -2.3430     3.3720    -0.2490 C.2   1 <1>  -0.1500 
  9 C       -3.6490    -1.7400     1.5120 C.3   1 <1>  -0.1600 
 10 C       -4.5220    -0.6670    -0.5920 C.3   1 <1>  -0.1600 
 11 N       -0.5860     3.6280    -1.5860 N.2   1 <1>  -0.7070 
 12 C        0.6310     1.5550    -1.1650 C.3   1 <1>   0.0160 
 13 C       -1.6830     4.1740    -1.1600 C.2   1 <1>   0.1390 
 14 C       -4.8160    -1.6780     0.5230 C.3   1 <1>   0.4600 
 15 O       -5.9390    -1.2390     1.2590 O.3   1 <1>  -0.5600 
 16 C       -5.0980    -3.0620    -0.0500 C.2   1 <1>  -0.3320 
 17 C       -7.2200    -1.5110     0.7420 C.3   1 <1>   0.1200 
 18 N       -4.2040    -3.8720    -0.6950 N.pl3 1 <1>   0.0330 
 19 C       -6.2940    -3.6800     0.0120 C.2   1 <1>  -0.1810 
 20 C       -7.4830    -3.0240     0.6670 C.3   1 <1>   0.0210 
 21 C       -4.8570    -5.0300    -1.0440 C.ar  1 <1>  -0.1520 
 22 C       -6.1770    -4.9410    -0.6090 C.ar  1 <1>   0.0000 
 23 C       -4.3990    -6.1680    -1.7120 C.ar  1 <1>  -0.1500 
 24 C       -7.0560    -6.0030    -0.8420 C.ar  1 <1>  -0.1500 
 25 C       -5.2750    -7.2060    -1.9350 C.ar  1 <1>  -0.1500 
 26 C       -6.6030    -7.1230    -1.5000 C.ar  1 <1>  -0.1500 
 27 H       -4.1260     0.0290     2.6340 H     1 <1>   0.0800 
 28 H       -2.4450    -0.4200     2.7060 H     1 <1>   0.0800 
 29 H       -3.9160     1.3670    -0.8410 H     1 <1>   0.0800 
 30 H       -5.0150     1.1250     0.4950 H     1 <1>   0.0800 
 31 H       -3.2660     3.6060     0.2510 H     1 <1>   0.1500 
 32 H       -3.9080    -2.3990     2.3210 H     1 <1>   0.0800 
 33 H       -2.7790    -2.1420     1.0290 H     1 <1>   0.0800 
 34 H       -3.6920    -1.0170    -1.1770 H     1 <1>   0.0800 
 35 H       -5.3640    -0.5920    -1.2540 H     1 <1>   0.0800 
 36 H        0.2700     0.5750    -1.4140 H     1 <1>   0.0800 
 37 H        1.2200     1.5080    -0.2690 H     1 <1>   0.0800 
 38 H        1.2290     1.9370    -1.9710 H     1 <1>   0.0800 
 39 H       -2.0230     5.1420    -1.4880 H     1 <1>   0.1500 
 40 H       -7.2950    -1.0710    -0.2360 H     1 <1>   0.0800 
 41 H       -7.9410    -1.0410     1.3880 H     1 <1>   0.0800 
 42 H       -3.2160    -3.6750    -0.8780 H     1 <1>   0.2700 
 43 H       -8.3720    -3.2100     0.0940 H     1 <1>   0.0800 
 44 H       -7.6180    -3.4230     1.6560 H     1 <1>   0.0800 
 45 H       -3.3770    -6.2250    -2.0420 H     1 <1>   0.1500 
 46 H       -8.0710    -5.9260    -0.5010 H     1 <1>   0.1500 
 47 H       -4.9470    -8.0930    -2.4480 H     1 <1>   0.1500 
 48 H       -7.2680    -7.9480    -1.6870 H     1 <1>   0.1500 
@<TRIPOS>BOND
  1   1   2  2   
  2   2   3  am  
  3   2   4  1   
  4   3   5  1   
  5   3   6  1   
  6   4   7  1   
  7   4   8  2   
  8   5   9  1   
  9   5  27  1   
 10   5  28  1   
 11   6  10  1   
 12   6  29  1   
 13   6  30  1   
 14   7  11  1   
 15   7  12  1   
 16   8  13  1   
 17   8  31  1   
 18   9  14  1   
 19   9  32  1   
 20   9  33  1   
 21  10  14  1   
 22  10  34  1   
 23  10  35  1   
 24  11  13  2   
 25  12  36  1   
 26  12  37  1   
 27  12  38  1   
 28  13  39  1   
 29  14  15  1   
 30  14  16  1   
 31  15  17  1   
 32  16  18  1   
 33  16  19  2   
 34  17  20  1   
 35  17  40  1   
 36  17  41  1   
 37  18  21  1   
 38  18  42  1   
 39  19  20  1   
 40  19  22  1   
 41  20  43  1   
 42  20  44  1   
 43  21  22  ar  
 44  21  23  ar  
 45  22  24  ar  
 46  23  25  ar  
 47  23  45  1   
 48  24  26  ar  
 49  24  46  1   
 50  25  26  ar  
 51  25  47  1   
 52  26  48  1   
@<TRIPOS>SUBSTRUCTURE
  1 ****  10 GROUP 4 **** **** 0

# MOE 2024.06 (io_trps.svl 2023.06)
