@<TRIPOS>MOLECULE
NONAME
49 51 1 0 0 
SMALL
USER_CHARGES


@<TRIPOS>ATOM
  1 O       -1.3090    -4.5550    -0.1170 O.co2 1 <1>  -0.9000 
  2 C       -0.2510    -4.4560     0.5280 C.2   1 <1>   0.9060 
  3 O       -0.0940    -5.1610     1.5360 O.co2 1 <1>  -0.9000 
  4 C        0.8750    -3.5040     0.0160 C.3   1 <1>   0.0940 
  5 O        2.0110    -4.1720    -0.5720 O.3   1 <1>  -0.3630 
  6 C        1.4150    -2.5580     1.0990 C.3   1 <1>  -0.2400 
  7 C        1.7340    -5.3850    -1.1050 C.ar  1 <1>   0.0830 
  8 C        2.1810    -6.5770    -0.5180 C.ar  1 <1>   0.0830 
  9 C        0.8230    -5.4220    -2.1490 C.ar  1 <1>  -0.1500 
 10 O        3.1940    -6.6930     0.3830 O.3   1 <1>  -0.3630 
 11 C        1.5080    -7.7470    -0.8140 C.ar  1 <1>  -0.1500 
 12 C        0.1590    -6.5950    -2.4370 C.ar  1 <1>  -0.1500 
 13 C        3.2930    -5.7640     1.4400 C.3   1 <1>   0.0400 
 14 C        0.4370    -7.7310    -1.6950 C.ar  1 <1>  -0.1430 
 15 C       -0.5470    -8.8720    -1.7130 C.3   1 <1>   0.4860 
 16 N       -1.2950    -8.8640    -0.4090 N.4   1 <1>  -0.9590 
 17 C       -2.4500    -9.7990    -0.4460 C.3   1 <1>   0.3430 
 18 C       -1.6850    -7.4700     0.0460 C.3   1 <1>   0.3430 
 19 C       -3.1100    -9.8920     0.9250 C.3   1 <1>  -0.1600 
 20 C       -2.3340    -7.5270     1.4240 C.3   1 <1>  -0.1600 
 21 C       -3.5090    -8.4970     1.4120 C.3   1 <1>   0.2580 
 22 O       -4.0940    -8.5880     2.6970 O.3   1 <1>  -0.5160 
 23 C       -4.8280    -7.9240     0.8710 C.3   1 <1>   0.0000 
 24 C       -5.4170    -8.4560     2.1810 C.3   1 <1>   0.2580 
 25 H        0.4360    -2.9110    -0.7640 H     1 <1>   0.0800 
 26 H        1.8410    -3.1300     1.9030 H     1 <1>   0.0800 
 27 H        0.6070    -1.9720     1.4960 H     1 <1>   0.0800 
 28 H        2.1550    -1.8990     0.6840 H     1 <1>   0.0800 
 29 H        0.5690    -4.5140    -2.6660 H     1 <1>   0.1500 
 30 H        1.7990    -8.6390    -0.2920 H     1 <1>   0.1500 
 31 H       -0.6180    -6.5800    -3.1820 H     1 <1>   0.1500 
 32 H        3.9490    -6.1710     2.1860 H     1 <1>   0.0800 
 33 H        2.3160    -5.6040     1.8590 H     1 <1>   0.0800 
 34 H        3.6990    -4.8440     1.0610 H     1 <1>   0.0800 
 35 H       -0.0270    -9.8060    -1.8460 H     1 <1>   0.0800 
 36 H       -1.2330    -8.7320    -2.5310 H     1 <1>   0.0800 
 37 H       -0.6270    -9.1650     0.3100 H     1 <1>   0.4500 
 38 H       -2.1200   -10.7800    -0.7490 H     1 <1>   0.0800 
 39 H       -3.1730    -9.4470    -1.1650 H     1 <1>   0.0800 
 40 H       -2.3590    -7.0100    -0.6580 H     1 <1>   0.0800 
 41 H       -0.8130    -6.8400     0.1170 H     1 <1>   0.0800 
 42 H       -2.4190   -10.3300     1.6230 H     1 <1>   0.0800 
 43 H       -3.9740   -10.5290     0.8610 H     1 <1>   0.0800 
 44 H       -2.6540    -6.5340     1.6890 H     1 <1>   0.0800 
 45 H       -1.5980    -7.8310     2.1450 H     1 <1>   0.0800 
 46 H       -5.2050    -8.4130    -0.0090 H     1 <1>   0.0000 
 47 H       -4.8530    -6.8500     0.8070 H     1 <1>   0.0000 
 48 H       -5.9710    -7.7360     2.7560 H     1 <1>   0.0000 
 49 H       -5.8770    -9.4260     2.1040 H     1 <1>   0.0000 
@<TRIPOS>BOND
  1   1   2  ar  
  2   2   3  ar  
  3   2   4  1   
  4   4   5  1   
  5   4   6  1   
  6   4  25  1   
  7   5   7  1   
  8   6  26  1   
  9   6  27  1   
 10   6  28  1   
 11   7   8  ar  
 12   7   9  ar  
 13   8  10  1   
 14   8  11  ar  
 15   9  12  ar  
 16   9  29  1   
 17  10  13  1   
 18  11  14  ar  
 19  11  30  1   
 20  12  14  ar  
 21  12  31  1   
 22  13  32  1   
 23  13  33  1   
 24  13  34  1   
 25  14  15  1   
 26  15  16  1   
 27  15  35  1   
 28  15  36  1   
 29  16  17  1   
 30  16  18  1   
 31  16  37  1   
 32  17  19  1   
 33  17  38  1   
 34  17  39  1   
 35  18  20  1   
 36  18  40  1   
 37  18  41  1   
 38  19  21  1   
 39  19  42  1   
 40  19  43  1   
 41  20  21  1   
 42  20  44  1   
 43  20  45  1   
 44  21  22  1   
 45  21  23  1   
 46  22  24  1   
 47  23  24  1   
 48  23  46  1   
 49  23  47  1   
 50  24  48  1   
 51  24  49  1   
@<TRIPOS>SUBSTRUCTURE
  1 ****  18 GROUP 4 **** **** 0

# MOE 2024.06 (io_trps.svl 2023.06)
