@<TRIPOS>MOLECULE
NONAME
45 47 1 0 0 
SMALL
USER_CHARGES


@<TRIPOS>ATOM
  1 O       -0.0530    -0.3260    -0.7540 O.2   1 <1>  -0.5700 
  2 C        1.0130    -0.7290    -0.3160 C.2   1 <1>   0.7160 
  3 N        2.1050     0.1000    -0.2460 N.am  1 <1>  -0.4940 
  4 C        1.1930    -2.0910     0.1510 C.2   1 <1>   0.2030 
  5 C        2.2870     1.4490    -0.6370 C.2   1 <1>  -0.0880 
  6 N        2.3250    -2.5800     0.6330 N.2   1 <1>  -0.7070 
  7 C        0.1980    -3.0770     0.1570 C.2   1 <1>  -0.1500 
  8 N        3.4480     2.1490    -0.5020 N.pl3 1 <1>   0.3140 
  9 C        1.3970     2.2940    -1.2070 C.2   1 <1>  -0.1500 
 10 N        2.0510    -3.8590     0.9400 N.pl3 1 <1>   0.3000 
 11 C        0.7740    -4.1860     0.6600 C.2   1 <1>  -0.3320 
 12 N        3.3120     3.4160    -0.9750 N.2   1 <1>  -0.7070 
 13 C        4.7130     1.6190     0.0910 C.3   1 <1>   0.1760 
 14 C        2.0860     3.4850    -1.3900 C.2   1 <1>   0.1390 
 15 C        0.1650    -5.5580     0.9040 C.3   1 <1>   0.0200 
 16 C        5.7660     2.6780     0.4260 C.3   1 <1>  -0.1600 
 17 C        5.4450     0.6600    -0.8530 C.3   1 <1>  -0.1600 
 18 C        0.4620    -6.5560    -0.2310 C.3   1 <1>  -0.0800 
 19 C        7.0680     1.8850     0.5340 C.3   1 <1>  -0.1600 
 20 C        6.9240     0.7180    -0.4490 C.3   1 <1>  -0.1600 
 21 C       -0.3020    -7.8650     0.0080 C.3   1 <1>  -0.2400 
 22 C        1.9610    -6.8610    -0.3790 C.3   1 <1>  -0.2400 
 23 H        2.9050    -0.4060     0.1440 H     1 <1>   0.3700 
 24 H       -0.8120    -2.9300    -0.1840 H     1 <1>   0.1500 
 25 H        0.3720     2.1050    -1.4710 H     1 <1>   0.1500 
 26 H        2.7520    -4.4980     1.3360 H     1 <1>   0.2700 
 27 H        4.4640     1.0970     0.9970 H     1 <1>   0.0800 
 28 H        1.6580     4.3710    -1.8270 H     1 <1>   0.1500 
 29 H       -0.9020    -5.4380     0.9840 H     1 <1>   0.0800 
 30 H        0.5130    -5.9500     1.8440 H     1 <1>   0.0800 
 31 H        5.5340     3.2040     1.3350 H     1 <1>   0.0800 
 32 H        5.8570     3.3810    -0.3850 H     1 <1>   0.0800 
 33 H        5.3440     1.0110    -1.8660 H     1 <1>   0.0800 
 34 H        5.0570    -0.3400    -0.7810 H     1 <1>   0.0800 
 35 H        0.1110    -6.1270    -1.1550 H     1 <1>   0.0800 
 36 H        7.1690     1.5000     1.5350 H     1 <1>   0.0800 
 37 H        7.9240     2.4980     0.3090 H     1 <1>   0.0800 
 38 H        7.5350     0.8840    -1.3210 H     1 <1>   0.0800 
 39 H        7.2330    -0.2020     0.0180 H     1 <1>   0.0800 
 40 H        0.0210    -8.3340     0.9210 H     1 <1>   0.0800 
 41 H       -0.1350    -8.5490    -0.8060 H     1 <1>   0.0800 
 42 H       -1.3590    -7.6770     0.0720 H     1 <1>   0.0800 
 43 H        2.3720    -7.2180     0.5490 H     1 <1>   0.0800 
 44 H        2.4980    -5.9850    -0.6920 H     1 <1>   0.0800 
 45 H        2.1110    -7.6170    -1.1300 H     1 <1>   0.0800 
@<TRIPOS>BOND
  1   1   2  2   
  2   2   3  am  
  3   2   4  1   
  4   3   5  1   
  5   3  23  1   
  6   4   6  2   
  7   4   7  1   
  8   5   8  1   
  9   5   9  2   
 10   6  10  1   
 11   7  11  2   
 12   7  24  1   
 13   8  12  1   
 14   8  13  1   
 15   9  14  1   
 16   9  25  1   
 17  10  11  1   
 18  10  26  1   
 19  11  15  1   
 20  12  14  2   
 21  13  16  1   
 22  13  17  1   
 23  13  27  1   
 24  14  28  1   
 25  15  18  1   
 26  15  29  1   
 27  15  30  1   
 28  16  19  1   
 29  16  31  1   
 30  16  32  1   
 31  17  20  1   
 32  17  33  1   
 33  17  34  1   
 34  18  21  1   
 35  18  22  1   
 36  18  35  1   
 37  19  20  1   
 38  19  36  1   
 39  19  37  1   
 40  20  38  1   
 41  20  39  1   
 42  21  40  1   
 43  21  41  1   
 44  21  42  1   
 45  22  43  1   
 46  22  44  1   
 47  22  45  1   
@<TRIPOS>SUBSTRUCTURE
  1 ****   3 GROUP 4 **** **** 0

# MOE 2024.06 (io_trps.svl 2023.06)
