@<TRIPOS>MOLECULE
NONAME
28 28 1 0 0 
SMALL
USER_CHARGES


@<TRIPOS>ATOM
  1 O       -1.0120    -0.3070    -1.5930 O.2   1 <1>  -0.5700 
  2 C       -1.7810     0.3960    -0.9740 C.2   1 <1>   0.5690 
  3 N       -1.3260     1.3890    -0.1310 N.am  1 <1>  -0.6600 
  4 C       -3.2910     0.1510    -1.1600 C.3   1 <1>   0.2700 
  5 C        0.1310     1.5700     0.1330 C.3   1 <1>   0.0600 
  6 C       -2.1960     2.3490     0.6040 C.3   1 <1>   0.0600 
  7 N       -3.6240    -1.1990    -1.7110 N.pl3 1 <1>  -0.8690 
  8 C       -4.4000    -2.0410    -0.9620 C.ar  1 <1>   0.4100 
  9 N       -3.7660    -3.1100    -0.5220 N.ar  1 <1>  -0.6200 
 10 C       -5.7510    -1.7830    -0.6800 C.ar  1 <1>   0.1600 
 11 C       -4.5370    -3.8920     0.2130 C.ar  1 <1>   0.1670 
 12 N       -6.5270    -2.5510     0.0610 N.ar  1 <1>  -0.6200 
 13 C       -5.8730    -3.6190     0.4970 C.ar  1 <1>   0.1600 
 14 C       -3.8740    -5.1430     0.7530 C.3   1 <1>  -0.0970 
 15 H       -3.6710     0.8980    -1.8320 H     1 <1>   0.0800 
 16 H       -3.7760     0.2700    -0.2080 H     1 <1>   0.0800 
 17 H        0.7080     0.7900    -0.3340 H     1 <1>   0.0800 
 18 H        0.3160     1.5400     1.1920 H     1 <1>   0.0800 
 19 H        0.4570     2.5170    -0.2600 H     1 <1>   0.0800 
 20 H       -3.1590     2.4420     0.1360 H     1 <1>   0.0800 
 21 H       -1.7360     3.3220     0.6160 H     1 <1>   0.0800 
 22 H       -2.3260     2.0130     1.6190 H     1 <1>   0.0800 
 23 H       -2.7330    -1.6670    -1.9400 H     1 <1>   0.4000 
 24 H       -6.1820    -0.8960    -1.1010 H     1 <1>   0.1500 
 25 H       -6.4280    -4.3080     1.1070 H     1 <1>   0.1500 
 26 H       -3.5190    -5.7410    -0.0670 H     1 <1>   0.0800 
 27 H       -4.5590    -5.7260     1.3400 H     1 <1>   0.0800 
 28 H       -3.0350    -4.8680     1.3660 H     1 <1>   0.0800 
@<TRIPOS>BOND
  1   1   2  2   
  2   2   3  am  
  3   2   4  1   
  4   3   5  1   
  5   3   6  1   
  6   4   7  1   
  7   4  15  1   
  8   4  16  1   
  9   5  17  1   
 10   5  18  1   
 11   5  19  1   
 12   6  20  1   
 13   6  21  1   
 14   6  22  1   
 15   7   8  1   
 16   7  23  1   
 17   8   9  ar  
 18   8  10  ar  
 19   9  11  ar  
 20  10  12  ar  
 21  10  24  1   
 22  11  13  ar  
 23  11  14  1   
 24  12  13  ar  
 25  13  25  1   
 26  14  26  1   
 27  14  27  1   
 28  14  28  1   
@<TRIPOS>SUBSTRUCTURE
  1 ****   7 GROUP 4 **** **** 0

# MOE 2024.06 (io_trps.svl 2023.06)
