@<TRIPOS>MOLECULE
NONAME
47 48 1 0 0 
SMALL
USER_CHARGES


@<TRIPOS>ATOM
  1 CL       0.3500    -0.4330    -0.0990 Cl    1 <1>  -0.1770 
  2 C        0.0030    -2.1420    -0.1830 C.ar  1 <1>   0.1770 
  3 C       -0.9530    -2.6820     0.6580 C.ar  1 <1>  -0.1500 
  4 C        0.6900    -2.9290    -1.0890 C.ar  1 <1>  -0.1500 
  5 C       -1.2300    -4.0380     0.5930 C.ar  1 <1>  -0.1500 
  6 C        0.4110    -4.2840    -1.1520 C.ar  1 <1>  -0.1500 
  7 C       -0.5460    -4.8450    -0.3160 C.ar  1 <1>   0.0830 
  8 O       -0.7540    -6.1790    -0.4450 O.3   1 <1>  -0.3630 
  9 C       -1.6960    -6.8560     0.3480 C.3   1 <1>   0.1200 
 10 C       -1.6550    -8.3280    -0.0640 C.3   1 <1>  -0.1600 
 11 C       -2.6460    -9.1500     0.7570 C.3   1 <1>   0.3430 
 12 N       -2.6730   -10.5650     0.2790 N.4   1 <1>  -0.9590 
 13 C       -3.8870   -11.2570     0.8020 C.3   1 <1>   0.3430 
 14 C       -1.4130   -11.2940     0.6470 C.3   1 <1>   0.2630 
 15 C       -4.1630   -12.5410     0.0110 C.3   1 <1>  -0.1600 
 16 C       -5.4500   -13.2420     0.4830 C.3   1 <1>  -0.0800 
 17 C       -5.6830   -14.5690    -0.2580 C.3   1 <1>  -0.0550 
 18 C       -6.7270   -12.4120     0.2560 C.3   1 <1>  -0.1600 
 19 S       -7.4020   -15.0090    -0.0620 S.o2  1 <1>   1.0900 
 20 C       -7.9150   -13.3720     0.4360 C.3   1 <1>  -0.0550 
 21 O       -7.9470   -15.3200    -1.3620 O.2   1 <1>  -0.6500 
 22 O       -7.5260   -15.8960     1.0700 O.2   1 <1>  -0.6500 
 23 H       -1.4700    -2.0440     1.3520 H     1 <1>   0.1500 
 24 H        1.4280    -2.4860    -1.7320 H     1 <1>   0.1500 
 25 H       -1.9750    -4.4380     1.2540 H     1 <1>   0.1500 
 26 H        0.9340    -4.9130    -1.8500 H     1 <1>   0.1500 
 27 H       -2.6650    -6.4240     0.1620 H     1 <1>   0.0800 
 28 H       -1.4180    -6.7310     1.3810 H     1 <1>   0.0800 
 29 H       -0.6530    -8.6860     0.0900 H     1 <1>   0.0800 
 30 H       -1.9040    -8.3930    -1.1090 H     1 <1>   0.0800 
 31 H       -3.6270    -8.7150     0.6470 H     1 <1>   0.0800 
 32 H       -2.3780    -9.1170     1.8010 H     1 <1>   0.0800 
 33 H       -2.7440   -10.5390    -0.7490 H     1 <1>   0.4500 
 34 H       -4.7400   -10.6040     0.7050 H     1 <1>   0.0800 
 35 H       -3.7600   -11.4890     1.8480 H     1 <1>   0.0800 
 36 H       -1.2990   -11.3310     1.7190 H     1 <1>   0.0800 
 37 H       -0.5530   -10.7980     0.2280 H     1 <1>   0.0800 
 38 H       -1.4350   -12.3030     0.2690 H     1 <1>   0.0800 
 39 H       -3.3450   -13.2270     0.1370 H     1 <1>   0.0800 
 40 H       -4.2530   -12.3070    -1.0360 H     1 <1>   0.0800 
 41 H       -5.3720   -13.4670     1.5360 H     1 <1>   0.0800 
 42 H       -5.0430   -15.3460     0.1170 H     1 <1>   0.0800 
 43 H       -5.4800   -14.4360    -1.3040 H     1 <1>   0.0800 
 44 H       -6.7430   -12.0350    -0.7530 H     1 <1>   0.0800 
 45 H       -6.8060   -11.5850     0.9400 H     1 <1>   0.0800 
 46 H       -8.7650   -13.0440    -0.1330 H     1 <1>   0.0800 
 47 H       -8.1940   -13.3970     1.4730 H     1 <1>   0.0800 
@<TRIPOS>BOND
  1   1   2  1   
  2   2   3  ar  
  3   2   4  ar  
  4   3   5  ar  
  5   3  23  1   
  6   4   6  ar  
  7   4  24  1   
  8   5   7  ar  
  9   5  25  1   
 10   6   7  ar  
 11   6  26  1   
 12   7   8  1   
 13   8   9  1   
 14   9  10  1   
 15   9  27  1   
 16   9  28  1   
 17  10  11  1   
 18  10  29  1   
 19  10  30  1   
 20  11  12  1   
 21  11  31  1   
 22  11  32  1   
 23  12  13  1   
 24  12  14  1   
 25  12  33  1   
 26  13  15  1   
 27  13  34  1   
 28  13  35  1   
 29  14  36  1   
 30  14  37  1   
 31  14  38  1   
 32  15  16  1   
 33  15  39  1   
 34  15  40  1   
 35  16  17  1   
 36  16  18  1   
 37  16  41  1   
 38  17  19  1   
 39  17  42  1   
 40  17  43  1   
 41  18  20  1   
 42  18  44  1   
 43  18  45  1   
 44  19  20  1   
 45  19  21  2   
 46  19  22  2   
 47  20  46  1   
 48  20  47  1   
@<TRIPOS>SUBSTRUCTURE
  1 ****  11 GROUP 4 **** **** 0

# MOE 2024.06 (io_trps.svl 2023.06)
