@<TRIPOS>MOLECULE
NONAME
40 41 1 0 0 
SMALL
USER_CHARGES


@<TRIPOS>ATOM
  1 O        0.2680     0.4360     2.5260 O.2   1 <1>  -0.5700 
  2 C        0.9600    -0.2180     1.7870 C.2   1 <1>   0.5690 
  3 N        1.8070     0.3110     0.8540 N.am  1 <1>  -0.4940 
  4 C        0.8890    -1.7290     1.8980 C.3   1 <1>  -0.0990 
  5 C        2.1420     1.6480     0.5270 C.2   1 <1>  -0.0880 
  6 C        0.0860    -2.3530     0.7440 C.3   1 <1>  -0.1600 
  7 N        1.3660     2.7670     0.6210 N.pl3 1 <1>   0.3140 
  8 C        3.3290     2.0560     0.0150 C.2   1 <1>  -0.1810 
  9 C       -0.0310    -3.8770     0.9000 C.3   1 <1>   0.0960 
 10 N        2.0260     3.8610     0.1820 N.2   1 <1>  -0.7070 
 11 C       -0.0400     2.8910     1.0260 C.3   1 <1>   0.0160 
 12 C        3.1910     3.4280    -0.1740 C.2   1 <1>   0.1080 
 13 C        4.5590     1.2160    -0.2880 C.3   1 <1>   0.0210 
 14 N       -0.6990    -4.4710    -0.2730 N.pl3 1 <1>   0.3140 
 15 C        4.2480     4.3590    -0.7250 C.3   1 <1>  -0.0590 
 16 C        4.5050     0.6840    -1.7220 C.3   1 <1>  -0.2400 
 17 N       -0.0750    -4.6710    -1.4240 N.2   1 <1>  -0.7070 
 18 C       -1.9630    -4.8870    -0.3940 C.2   1 <1>   0.0360 
 19 C       -1.0040    -5.1940    -2.1560 C.2   1 <1>   0.3660 
 20 N       -2.1970    -5.3510    -1.5680 N.2   1 <1>  -0.5650 
 21 H        2.3600    -0.3750     0.3420 H     1 <1>   0.3700 
 22 H        0.4250    -1.9760     2.8360 H     1 <1>   0.0800 
 23 H        1.8890    -2.1240     1.9130 H     1 <1>   0.0800 
 24 H        0.5730    -2.1300    -0.1910 H     1 <1>   0.0800 
 25 H       -0.9000    -1.9200     0.7240 H     1 <1>   0.0800 
 26 H       -0.5920    -4.1230     1.7830 H     1 <1>   0.0800 
 27 H        0.9470    -4.3170     0.9780 H     1 <1>   0.0800 
 28 H       -0.5920     2.0460     0.6620 H     1 <1>   0.0800 
 29 H       -0.4480     3.7940     0.6130 H     1 <1>   0.0800 
 30 H       -0.0920     2.9300     2.0980 H     1 <1>   0.0800 
 31 H        4.6110     0.3940     0.4030 H     1 <1>   0.0800 
 32 H        5.4450     1.8110    -0.1520 H     1 <1>   0.0800 
 33 H        4.7040     3.9280    -1.5960 H     1 <1>   0.0800 
 34 H        4.9970     4.5350     0.0240 H     1 <1>   0.0800 
 35 H        3.7990     5.2970    -0.9960 H     1 <1>   0.0800 
 36 H        3.6270     0.0800    -1.8630 H     1 <1>   0.0800 
 37 H        5.3760     0.0880    -1.9290 H     1 <1>   0.0800 
 38 H        4.4720     1.5020    -2.4190 H     1 <1>   0.0800 
 39 H       -2.6810    -4.8330     0.4040 H     1 <1>   0.1500 
 40 H       -0.8520    -5.4930    -3.1810 H     1 <1>   0.1500 
@<TRIPOS>BOND
  1   1   2  2   
  2   2   3  am  
  3   2   4  1   
  4   3   5  1   
  5   3  21  1   
  6   4   6  1   
  7   4  22  1   
  8   4  23  1   
  9   5   7  1   
 10   5   8  2   
 11   6   9  1   
 12   6  24  1   
 13   6  25  1   
 14   7  10  1   
 15   7  11  1   
 16   8  12  1   
 17   8  13  1   
 18   9  14  1   
 19   9  26  1   
 20   9  27  1   
 21  10  12  2   
 22  11  28  1   
 23  11  29  1   
 24  11  30  1   
 25  12  15  1   
 26  13  16  1   
 27  13  31  1   
 28  13  32  1   
 29  14  17  1   
 30  14  18  1   
 31  15  33  1   
 32  15  34  1   
 33  15  35  1   
 34  16  36  1   
 35  16  37  1   
 36  16  38  1   
 37  17  19  2   
 38  18  20  2   
 39  18  39  1   
 40  19  20  1   
 41  19  40  1   
@<TRIPOS>SUBSTRUCTURE
  1 ****   3 GROUP 4 **** **** 0

# MOE 2024.06 (io_trps.svl 2023.06)
