@<TRIPOS>MOLECULE
NONAME
54 58 1 0 0 
SMALL
USER_CHARGES


@<TRIPOS>ATOM
  1 O       -1.2240    -2.8900    -3.7880 O.2   1 <1>  -0.5700 
  2 C       -1.6540    -3.4520    -2.8160 C.2   1 <1>   0.4230 
  3 C       -2.5600    -2.9480    -1.8340 C.ar  1 <1>   0.0860 
  4 C       -1.2860    -4.8800    -2.4700 C.3   1 <1>  -0.0990 
  5 C       -2.8360    -3.9110    -0.8860 C.ar  1 <1>  -0.1440 
  6 C       -3.1530    -1.6950    -1.7320 C.ar  1 <1>  -0.1500 
  7 C       -2.0790    -5.1940    -1.1850 C.3   1 <1>  -0.0160 
  8 C       -3.7020    -3.6800     0.1780 C.ar  1 <1>   0.0860 
  9 C       -4.0110    -1.4300    -0.6800 C.ar  1 <1>  -0.1500 
 10 C       -4.0010    -4.7130     1.1500 C.2   1 <1>   0.5440 
 11 C       -4.2790    -2.4120     0.2620 C.ar  1 <1>  -0.1500 
 12 O       -3.1190    -5.0980     1.8940 O.2   1 <1>  -0.5700 
 13 N       -5.2520    -5.2880     1.2240 N.am  1 <1>  -0.6600 
 14 C       -5.6000    -6.2950     2.2650 C.3   1 <1>   0.1400 
 15 C       -6.3080    -5.1190     0.1900 C.3   1 <1>   0.1400 
 16 C       -5.8190    -7.6520     1.5930 C.3   1 <1>  -0.1600 
 17 C       -6.5200    -6.4600    -0.5160 C.3   1 <1>  -0.1600 
 18 C       -6.8760    -7.5790     0.4790 C.3   1 <1>   0.4240 
 19 O       -8.0720    -7.2150     1.1270 O.3   1 <1>  -0.5600 
 20 C       -6.9990    -8.9420    -0.2360 C.ar  1 <1>  -0.1430 
 21 C       -9.2720    -7.5120     0.4840 C.3   1 <1>   0.1200 
 22 C       -8.2080    -9.6290    -0.2730 C.ar  1 <1>  -0.1430 
 23 C       -5.8960    -9.5090    -0.8660 C.ar  1 <1>  -0.1500 
 24 C       -9.4260    -9.0270     0.3990 C.3   1 <1>  -0.0170 
 25 C       -8.3090   -10.8530    -0.9150 C.ar  1 <1>  -0.1500 
 26 C       -5.9950   -10.7290    -1.5100 C.ar  1 <1>  -0.1500 
 27 C       -7.1980   -11.4110    -1.5400 C.ar  1 <1>   0.0830 
 28 O       -7.2110   -12.6010    -2.1900 O.3   1 <1>  -0.3620 
 29 C       -8.3800   -13.3860    -2.2600 C.3   1 <1>   0.0400 
 30 H       -0.2270    -4.9500    -2.3010 H     1 <1>   0.0800 
 31 H       -1.5690    -5.5340    -3.2740 H     1 <1>   0.0800 
 32 H       -2.9320    -0.9460    -2.4740 H     1 <1>   0.1500 
 33 H       -1.4150    -5.4340    -0.3710 H     1 <1>   0.0800 
 34 H       -2.7630    -6.0100    -1.3410 H     1 <1>   0.0800 
 35 H       -4.4690    -0.4590    -0.5920 H     1 <1>   0.1500 
 36 H       -4.9460    -2.2000     1.0810 H     1 <1>   0.1500 
 37 H       -6.4980    -5.9840     2.7710 H     1 <1>   0.0800 
 38 H       -4.8170    -6.3740     3.0000 H     1 <1>   0.0800 
 39 H       -6.0330    -4.3730    -0.5330 H     1 <1>   0.0800 
 40 H       -7.2210    -4.8040     0.6670 H     1 <1>   0.0800 
 41 H       -6.1290    -8.3750     2.3240 H     1 <1>   0.0800 
 42 H       -4.8780    -7.9790     1.1950 H     1 <1>   0.0800 
 43 H       -5.6140    -6.7130    -1.0330 H     1 <1>   0.0800 
 44 H       -7.2900    -6.3680    -1.2590 H     1 <1>   0.0800 
 45 H       -9.2700    -7.0680    -0.4960 H     1 <1>   0.0800 
 46 H      -10.0710    -7.0850     1.0630 H     1 <1>   0.0800 
 47 H       -4.9460    -9.0070    -0.8620 H     1 <1>   0.1500 
 48 H      -10.3140    -9.2620    -0.1580 H     1 <1>   0.0800 
 49 H       -9.5300    -9.4320     1.3900 H     1 <1>   0.0800 
 50 H       -9.2540   -11.3610    -0.9220 H     1 <1>   0.1500 
 51 H       -5.1390   -11.1630    -1.9930 H     1 <1>   0.1500 
 52 H       -8.1490   -14.2790    -2.8120 H     1 <1>   0.0800 
 53 H       -9.1440   -12.8270    -2.7720 H     1 <1>   0.0800 
 54 H       -8.6890   -13.6410    -1.2620 H     1 <1>   0.0800 
@<TRIPOS>BOND
  1   1   2  2   
  2   2   3  1   
  3   2   4  1   
  4   3   5  ar  
  5   3   6  ar  
  6   4   7  1   
  7   4  30  1   
  8   4  31  1   
  9   5   7  1   
 10   5   8  ar  
 11   6   9  ar  
 12   6  32  1   
 13   7  33  1   
 14   7  34  1   
 15   8  10  1   
 16   8  11  ar  
 17   9  11  ar  
 18   9  35  1   
 19  10  12  2   
 20  10  13  am  
 21  11  36  1   
 22  13  14  1   
 23  13  15  1   
 24  14  16  1   
 25  14  37  1   
 26  14  38  1   
 27  15  17  1   
 28  15  39  1   
 29  15  40  1   
 30  16  18  1   
 31  16  41  1   
 32  16  42  1   
 33  17  18  1   
 34  17  43  1   
 35  17  44  1   
 36  18  19  1   
 37  18  20  1   
 38  19  21  1   
 39  20  22  ar  
 40  20  23  ar  
 41  21  24  1   
 42  21  45  1   
 43  21  46  1   
 44  22  24  1   
 45  22  25  ar  
 46  23  26  ar  
 47  23  47  1   
 48  24  48  1   
 49  24  49  1   
 50  25  27  ar  
 51  25  50  1   
 52  26  27  ar  
 53  26  51  1   
 54  27  28  1   
 55  28  29  1   
 56  29  52  1   
 57  29  53  1   
 58  29  54  1   
@<TRIPOS>SUBSTRUCTURE
  1 ****  17 GROUP 4 **** **** 0

# MOE 2024.06 (io_trps.svl 2023.06)
