@<TRIPOS>MOLECULE
NONAME
44 45 1 0 0 
SMALL
USER_CHARGES


@<TRIPOS>ATOM
  1 F        0.3030     0.6790     0.7410 F     1 <1>  -0.3400 
  2 C       -0.8400     1.1500     0.2540 C.3   1 <1>   1.0200 
  3 F       -0.8630     0.8080    -1.0300 F     1 <1>  -0.3400 
  4 F       -1.7980     0.4340     0.8360 F     1 <1>  -0.3400 
  5 C       -1.0360     2.6880     0.5200 C.3   1 <1>   0.1900 
  6 N       -2.2730     3.3050    -0.0520 N.3   1 <1>  -0.9000 
  7 C        0.1020     3.6650     0.1240 C.3   1 <1>   0.0000 
  8 C       -2.0660     4.7380    -0.2070 C.3   1 <1>   0.1100 
  9 C        1.3020     3.6320     1.1000 C.3   1 <1>  -0.1600 
 10 C        0.6200     3.4400    -1.3200 C.3   1 <1>  -0.1600 
 11 C       -0.6340     5.0110     0.2340 C.3   1 <1>  -0.1600 
 12 C        2.4060     4.6160     0.6960 C.3   1 <1>   0.1400 
 13 C        1.7590     4.3860    -1.7170 C.3   1 <1>   0.1400 
 14 N        2.8370     4.3230    -0.6950 N.am  1 <1>  -0.6600 
 15 C        4.1220     3.9740    -1.0280 C.2   1 <1>   0.7800 
 16 O        4.4570     3.7620    -2.1770 O.2   1 <1>  -0.5700 
 17 O        5.0050     3.8720    -0.0300 O.3   1 <1>  -0.4300 
 18 C        6.3640     3.5080    -0.1190 C.3   1 <1>   0.2800 
 19 C        6.8800     3.5440     1.3210 C.3   1 <1>  -0.2400 
 20 C        6.4980     2.0820    -0.6660 C.3   1 <1>  -0.2400 
 21 C        7.1360     4.5330    -0.9580 C.3   1 <1>  -0.2400 
 22 H       -1.1320     2.7660     1.5880 H     1 <1>   0.0800 
 23 H       -3.0790     3.1180     0.5610 H     1 <1>   0.3600 
 24 H       -2.7720     5.2970     0.3850 H     1 <1>   0.0800 
 25 H       -2.1930     4.9970    -1.2460 H     1 <1>   0.0800 
 26 H        1.7420     2.6520     1.1210 H     1 <1>   0.0800 
 27 H        0.9810     3.8600     2.1000 H     1 <1>   0.0800 
 28 H       -0.1850     3.5400    -2.0270 H     1 <1>   0.0800 
 29 H        1.0070     2.4420    -1.4190 H     1 <1>   0.0800 
 30 H       -0.1970     5.7990    -0.3500 H     1 <1>   0.0800 
 31 H       -0.6630     5.3390     1.2580 H     1 <1>   0.0800 
 32 H        3.2290     4.5300     1.3830 H     1 <1>   0.0800 
 33 H        2.0430     5.6280     0.7440 H     1 <1>   0.0800 
 34 H        1.4080     5.3990    -1.7950 H     1 <1>   0.0800 
 35 H        2.1370     4.0980    -2.6840 H     1 <1>   0.0800 
 36 H        6.3290     2.8520     1.9310 H     1 <1>   0.0800 
 37 H        6.7760     4.5340     1.7290 H     1 <1>   0.0800 
 38 H        7.9190     3.2720     1.3520 H     1 <1>   0.0800 
 39 H        5.8880     1.4040    -0.0960 H     1 <1>   0.0800 
 40 H        7.5200     1.7580    -0.6010 H     1 <1>   0.0800 
 41 H        6.2070     2.0340    -1.6990 H     1 <1>   0.0800 
 42 H        6.9600     5.5270    -0.5890 H     1 <1>   0.0800 
 43 H        6.8480     4.4840    -1.9920 H     1 <1>   0.0800 
 44 H        8.1900     4.3310    -0.9050 H     1 <1>   0.0800 
@<TRIPOS>BOND
  1   1   2  1   
  2   2   3  1   
  3   2   4  1   
  4   2   5  1   
  5   5   6  1   
  6   5   7  1   
  7   5  22  1   
  8   6   8  1   
  9   6  23  1   
 10   7   9  1   
 11   7  10  1   
 12   7  11  1   
 13   8  11  1   
 14   8  24  1   
 15   8  25  1   
 16   9  12  1   
 17   9  26  1   
 18   9  27  1   
 19  10  13  1   
 20  10  28  1   
 21  10  29  1   
 22  11  30  1   
 23  11  31  1   
 24  12  14  1   
 25  12  32  1   
 26  12  33  1   
 27  13  14  1   
 28  13  34  1   
 29  13  35  1   
 30  14  15  am  
 31  15  16  2   
 32  15  17  1   
 33  17  18  1   
 34  18  19  1   
 35  18  20  1   
 36  18  21  1   
 37  19  36  1   
 38  19  37  1   
 39  19  38  1   
 40  20  39  1   
 41  20  40  1   
 42  20  41  1   
 43  21  42  1   
 44  21  43  1   
 45  21  44  1   
@<TRIPOS>SUBSTRUCTURE
  1 ****   9 GROUP 4 **** **** 0

# MOE 2024.06 (io_trps.svl 2023.06)
