@<TRIPOS>MOLECULE
NONAME
40 41 1 0 0 
SMALL
USER_CHARGES


@<TRIPOS>ATOM
  1 O        0.4660     1.3760     0.5520 O.co2 1 <1>  -0.9000 
  2 C       -0.5650     1.3780    -0.1370 C.2   1 <1>   0.9060 
  3 O       -1.0620     0.3450    -0.5850 O.co2 1 <1>  -0.9000 
  4 C       -1.1670     2.7410    -0.5780 C.3   1 <1>   0.3170 
  5 N       -0.1620     3.7920    -1.0260 N.4   1 <1>  -0.8970 
  6 C       -2.0800     3.3650     0.4930 C.3   1 <1>  -0.1600 
  7 C        1.0070     3.2120    -1.7940 C.3   1 <1>   0.4720 
  8 C        0.8380     4.2140     0.0290 C.3   1 <1>   0.4720 
  9 C       -3.3290     2.5100     0.7550 C.3   1 <1>  -0.1600 
 10 C        1.9150     4.2410    -1.0830 C.3   1 <1>   0.2580 
 11 C       -4.2460     3.1750     1.7850 C.3   1 <1>  -0.2400 
 12 O        1.9240     5.4780    -1.7830 O.3   1 <1>  -0.3400 
 13 C        2.3610     6.6060    -1.1730 C.ar  1 <1>   0.0830 
 14 C        3.1370     6.6030    -0.0150 C.ar  1 <1>  -0.1500 
 15 C        1.9930     7.8120    -1.7480 C.ar  1 <1>  -0.1500 
 16 C        3.5190     7.7990     0.5700 C.ar  1 <1>  -0.1430 
 17 C        2.3780     9.0060    -1.1670 C.ar  1 <1>  -0.1500 
 18 C        3.1360     8.9980    -0.0090 C.ar  1 <1>  -0.1500 
 19 C        4.3620     7.8060     1.8340 C.3   1 <1>  -0.0970 
 20 H       -1.7840     2.5020    -1.4250 H     1 <1>   0.0800 
 21 H       -0.5560     4.6040    -1.5050 H     1 <1>   0.4500 
 22 H       -2.3960     4.3410     0.1700 H     1 <1>   0.0800 
 23 H       -1.5310     3.4630     1.4140 H     1 <1>   0.0800 
 24 H        0.9180     3.3600    -2.8550 H     1 <1>   0.0000 
 25 H        1.2260     2.2000    -1.5080 H     1 <1>   0.0000 
 26 H        1.0120     3.4560     0.7660 H     1 <1>   0.0000 
 27 H        0.6120     5.1790     0.4440 H     1 <1>   0.0000 
 28 H       -3.0400     1.5370     1.1210 H     1 <1>   0.0800 
 29 H       -3.8730     2.3640    -0.1640 H     1 <1>   0.0800 
 30 H        2.9030     3.9020    -0.8300 H     1 <1>   0.0000 
 31 H       -3.7300     3.3020     2.7200 H     1 <1>   0.0800 
 32 H       -5.1110     2.5570     1.9560 H     1 <1>   0.0800 
 33 H       -4.5780     4.1370     1.4350 H     1 <1>   0.0800 
 34 H        3.4600     5.6860     0.4390 H     1 <1>   0.1500 
 35 H        1.4070     7.8160    -2.6490 H     1 <1>   0.1500 
 36 H        2.0910     9.9420    -1.6140 H     1 <1>   0.1500 
 37 H        3.4320     9.9320     0.4370 H     1 <1>   0.1500 
 38 H        4.2530     6.8820     2.3730 H     1 <1>   0.0800 
 39 H        4.0610     8.6120     2.4790 H     1 <1>   0.0800 
 40 H        5.3990     7.9370     1.5780 H     1 <1>   0.0800 
@<TRIPOS>BOND
  1   1   2  ar  
  2   2   3  ar  
  3   2   4  1   
  4   4   5  1   
  5   4   6  1   
  6   4  20  1   
  7   5   7  1   
  8   5   8  1   
  9   5  21  1   
 10   6   9  1   
 11   6  22  1   
 12   6  23  1   
 13   7  10  1   
 14   7  24  1   
 15   7  25  1   
 16   8  10  1   
 17   8  26  1   
 18   8  27  1   
 19   9  11  1   
 20   9  28  1   
 21   9  29  1   
 22  10  12  1   
 23  10  30  1   
 24  11  31  1   
 25  11  32  1   
 26  11  33  1   
 27  12  13  1   
 28  13  14  ar  
 29  13  15  ar  
 30  14  16  ar  
 31  14  34  1   
 32  15  17  ar  
 33  15  35  1   
 34  16  18  ar  
 35  16  19  1   
 36  17  18  ar  
 37  17  36  1   
 38  18  37  1   
 39  19  38  1   
 40  19  39  1   
 41  19  40  1   
@<TRIPOS>SUBSTRUCTURE
  1 ****   8 GROUP 4 **** **** 0

# MOE 2024.06 (io_trps.svl 2023.06)
