@<TRIPOS>MOLECULE
NONAME
54 56 1 0 0 
SMALL
USER_CHARGES


@<TRIPOS>ATOM
  1 O       -0.9740    -2.8890     2.5620 O.2   1 <1>  -0.5700 
  2 C       -0.0610    -3.3470     1.9190 C.2   1 <1>   0.5690 
  3 N       -0.2100    -3.8650     0.6610 N.am  1 <1>  -0.6600 
  4 C        1.3280    -3.3610     2.5220 C.3   1 <1>  -0.0990 
  5 C        0.9570    -4.4280    -0.0630 C.3   1 <1>   0.1400 
  6 C       -1.5290    -3.9440    -0.0230 C.3   1 <1>   0.0600 
  7 C        2.3640    -2.8790     1.4920 C.3   1 <1>  -0.0800 
  8 C        2.1760    -3.4950     0.0850 C.3   1 <1>  -0.0800 
  9 C        3.8110    -3.1710     1.9100 C.3   1 <1>  -0.1600 
 10 C        3.5030    -4.1880    -0.2500 C.3   1 <1>  -0.1600 
 11 C        4.5360    -3.4470     0.5990 C.3   1 <1>   0.2200 
 12 N        5.8260    -4.1730     0.8120 N.am  1 <1>  -0.6600 
 13 C        7.0510    -3.5500     0.7800 C.2   1 <1>   0.5690 
 14 C        5.7610    -5.6440     1.0820 C.3   1 <1>   0.0600 
 15 O        8.0830    -4.1780     0.8200 O.2   1 <1>  -0.5700 
 16 C        7.1570    -2.0320     0.6810 C.3   1 <1>  -0.0990 
 17 C        8.5130    -1.4720     1.1510 C.3   1 <1>  -0.0990 
 18 C        8.5720     0.0340     0.9980 C.2   1 <1>   0.5690 
 19 O        7.7650     0.7000     1.5980 O.2   1 <1>  -0.5700 
 20 N        9.5290     0.5490     0.1680 N.am  1 <1>  -0.5470 
 21 C        9.8390     1.8720    -0.1870 C.ar  1 <1>   0.1170 
 22 C        9.4150     2.9780     0.5430 C.ar  1 <1>  -0.1500 
 23 C       10.6220     2.0870    -1.3190 C.ar  1 <1>  -0.1500 
 24 C        9.7620     4.2560     0.1420 C.ar  1 <1>   0.0820 
 25 C       10.9700     3.3660    -1.7170 C.ar  1 <1>  -0.1500 
 26 O        9.3470     5.3190     0.8470 O.3   1 <1>  -0.5330 
 27 C       10.5390     4.4570    -0.9850 C.ar  1 <1>  -0.1500 
 28 H        1.3490    -2.7300     3.3920 H     1 <1>   0.0800 
 29 H        1.5390    -4.3680     2.8310 H     1 <1>   0.0800 
 30 H        1.1750    -5.3950     0.3560 H     1 <1>   0.0800 
 31 H        0.7230    -4.5560    -1.1060 H     1 <1>   0.0800 
 32 H       -1.4970    -3.3830    -0.9400 H     1 <1>   0.0800 
 33 H       -2.3040    -3.5350     0.6030 H     1 <1>   0.0800 
 34 H       -1.7660    -4.9710    -0.2390 H     1 <1>   0.0800 
 35 H        2.2480    -1.8120     1.3900 H     1 <1>   0.0800 
 36 H        2.0430    -2.6810    -0.6080 H     1 <1>   0.0800 
 37 H        3.8470    -4.0430     2.5380 H     1 <1>   0.0800 
 38 H        4.2440    -2.3370     2.4340 H     1 <1>   0.0800 
 39 H        3.7340    -4.1200    -1.2980 H     1 <1>   0.0800 
 40 H        3.4390    -5.2210     0.0380 H     1 <1>   0.0800 
 41 H        4.7180    -2.5060     0.1100 H     1 <1>   0.0800 
 42 H        4.9460    -5.8710     1.7450 H     1 <1>   0.0800 
 43 H        6.6700    -5.9880     1.5440 H     1 <1>   0.0800 
 44 H        5.6290    -6.1760     0.1560 H     1 <1>   0.0800 
 45 H        6.9890    -1.7490    -0.3420 H     1 <1>   0.0800 
 46 H        6.3910    -1.5860     1.2870 H     1 <1>   0.0800 
 47 H        9.3090    -1.9270     0.5910 H     1 <1>   0.0800 
 48 H        8.6580    -1.7140     2.1880 H     1 <1>   0.0800 
 49 H       10.1020    -0.1510    -0.2990 H     1 <1>   0.3700 
 50 H        8.8200     2.8450     1.4250 H     1 <1>   0.1500 
 51 H       10.9620     1.2490    -1.8980 H     1 <1>   0.1500 
 52 H       11.5740     3.5160    -2.5950 H     1 <1>   0.1500 
 53 H        8.7880     5.0720     1.6050 H     1 <1>   0.4500 
 54 H       10.7970     5.4590    -1.2790 H     1 <1>   0.1500 
@<TRIPOS>BOND
  1   1   2  2   
  2   2   3  am  
  3   2   4  1   
  4   3   5  1   
  5   3   6  1   
  6   4   7  1   
  7   4  28  1   
  8   4  29  1   
  9   5   8  1   
 10   5  30  1   
 11   5  31  1   
 12   6  32  1   
 13   6  33  1   
 14   6  34  1   
 15   7   8  1   
 16   7   9  1   
 17   7  35  1   
 18   8  10  1   
 19   8  36  1   
 20   9  11  1   
 21   9  37  1   
 22   9  38  1   
 23  10  11  1   
 24  10  39  1   
 25  10  40  1   
 26  11  12  1   
 27  11  41  1   
 28  12  13  am  
 29  12  14  1   
 30  13  15  2   
 31  13  16  1   
 32  14  42  1   
 33  14  43  1   
 34  14  44  1   
 35  16  17  1   
 36  16  45  1   
 37  16  46  1   
 38  17  18  1   
 39  17  47  1   
 40  17  48  1   
 41  18  19  2   
 42  18  20  am  
 43  20  21  1   
 44  20  49  1   
 45  21  22  ar  
 46  21  23  ar  
 47  22  24  ar  
 48  22  50  1   
 49  23  25  ar  
 50  23  51  1   
 51  24  26  1   
 52  24  27  ar  
 53  25  27  ar  
 54  25  52  1   
 55  26  53  1   
 56  27  54  1   
@<TRIPOS>SUBSTRUCTURE
  1 ****  16 GROUP 4 **** **** 0

# MOE 2024.06 (io_trps.svl 2023.06)
