@<TRIPOS>MOLECULE
NONAME
45 47 1 0 0 
SMALL
USER_CHARGES


@<TRIPOS>ATOM
  1 F       -2.4120    -2.9640     0.4070 F     1 <1>  -0.1900 
  2 C       -3.2520    -2.0120     0.1090 C.ar  1 <1>   0.1900 
  3 C       -3.8680    -2.0260    -1.1270 C.ar  1 <1>  -0.1500 
  4 C       -3.5020    -1.0250     1.0440 C.ar  1 <1>  -0.1500 
  5 C       -4.7760    -1.0240    -1.4250 C.ar  1 <1>  -0.1500 
  6 C       -4.4130    -0.0310     0.7300 C.ar  1 <1>  -0.1500 
  7 C       -5.0780    -0.0230    -0.4990 C.ar  1 <1>   0.0540 
  8 C       -6.0550     0.9940    -0.8140 C.2   1 <1>   0.2350 
  9 N       -5.9430     1.8060    -1.8270 N.2   1 <1>  -0.7070 
 10 C       -7.2370     1.2460    -0.1070 C.2   1 <1>  -0.1810 
 11 N       -7.0070     2.6210    -1.7640 N.pl3 1 <1>   0.3000 
 12 C       -7.8100     2.2990    -0.7310 C.2   1 <1>  -0.3020 
 13 C       -7.7120     0.4550     1.0980 C.3   1 <1>   0.5240 
 14 N       -8.7680    -0.5220     0.7030 N.4   1 <1>  -0.9590 
 15 C       -8.3090    -1.4480    -0.3590 C.3   1 <1>   0.5230 
 16 C      -10.0250     0.2060     0.3290 C.3   1 <1>   0.3430 
 17 C       -8.5590    -2.8290     0.1840 C.2   1 <1>  -0.3320 
 18 C      -11.2630    -0.6970     0.2400 C.3   1 <1>   0.1200 
 19 N       -7.7150    -3.5300     0.9780 N.pl3 1 <1>   0.0480 
 20 C       -9.6340    -3.6230    -0.0230 C.2   1 <1>   0.0770 
 21 O      -12.3680     0.1260     0.1250 O.3   1 <1>  -0.6800 
 22 C       -8.3610    -4.6920     1.2150 C.2   1 <1>   0.0360 
 23 C       -6.3440    -3.2150     1.4260 C.3   1 <1>   0.0160 
 24 N       -9.5150    -4.7780     0.6430 N.2   1 <1>  -0.5650 
 25 H       -3.6320    -2.7980    -1.8380 H     1 <1>   0.1500 
 26 H       -2.9810    -1.0360     1.9860 H     1 <1>   0.1500 
 27 H       -5.2490    -1.0020    -2.3920 H     1 <1>   0.1500 
 28 H       -4.5930     0.7610     1.4360 H     1 <1>   0.1500 
 29 H       -7.1510     3.3850    -2.4400 H     1 <1>   0.2700 
 30 H       -8.7170     2.8400    -0.5220 H     1 <1>   0.1500 
 31 H       -8.1030     1.1370     1.8360 H     1 <1>   0.0800 
 32 H       -6.8760    -0.0640     1.5370 H     1 <1>   0.0800 
 33 H       -8.9780    -1.1250     1.5080 H     1 <1>   0.4500 
 34 H       -7.2610    -1.3220    -0.5720 H     1 <1>   0.0800 
 35 H       -8.8680    -1.2910    -1.2680 H     1 <1>   0.0800 
 36 H       -9.8910     0.7040    -0.6170 H     1 <1>   0.0800 
 37 H      -10.2300     0.9570     1.0740 H     1 <1>   0.0800 
 38 H      -11.3820    -1.2900     1.1310 H     1 <1>   0.0800 
 39 H      -11.2290    -1.3240    -0.6330 H     1 <1>   0.0800 
 40 H      -10.5100    -3.4420    -0.6240 H     1 <1>   0.1500 
 41 H      -13.2030    -0.3890     0.0860 H     1 <1>   0.4000 
 42 H       -7.9340    -5.4730     1.8220 H     1 <1>   0.1500 
 43 H       -6.2620    -2.1750     1.6740 H     1 <1>   0.0800 
 44 H       -5.6530    -3.4570     0.6390 H     1 <1>   0.0800 
 45 H       -6.1040    -3.8050     2.2920 H     1 <1>   0.0800 
@<TRIPOS>BOND
  1   1   2  1   
  2   2   3  ar  
  3   2   4  ar  
  4   3   5  ar  
  5   3  25  1   
  6   4   6  ar  
  7   4  26  1   
  8   5   7  ar  
  9   5  27  1   
 10   6   7  ar  
 11   6  28  1   
 12   7   8  1   
 13   8   9  2   
 14   8  10  1   
 15   9  11  1   
 16  10  12  2   
 17  10  13  1   
 18  11  12  1   
 19  11  29  1   
 20  12  30  1   
 21  13  14  1   
 22  13  31  1   
 23  13  32  1   
 24  14  15  1   
 25  14  16  1   
 26  14  33  1   
 27  15  17  1   
 28  15  34  1   
 29  15  35  1   
 30  16  18  1   
 31  16  36  1   
 32  16  37  1   
 33  17  19  1   
 34  17  20  2   
 35  18  21  1   
 36  18  38  1   
 37  18  39  1   
 38  19  22  1   
 39  19  23  1   
 40  20  24  1   
 41  20  40  1   
 42  21  41  1   
 43  22  24  2   
 44  22  42  1   
 45  23  43  1   
 46  23  44  1   
 47  23  45  1   
@<TRIPOS>SUBSTRUCTURE
  1 ****  15 GROUP 4 **** **** 0

# MOE 2024.06 (io_trps.svl 2023.06)
