@<TRIPOS>MOLECULE
NONAME
51 54 1 0 0 
SMALL
USER_CHARGES


@<TRIPOS>ATOM
  1 S       -0.0920    -0.1040     2.4340 S.o2  1 <1>   1.5000 
  2 O       -0.4490    -1.0880     3.4320 O.2   1 <1>  -0.6500 
  3 O        0.3610     1.2060     2.8520 O.2   1 <1>  -0.6500 
  4 N       -1.4530     0.1350     1.4490 N.am  1 <1>  -0.8490 
  5 C        1.0900    -0.8490     1.2840 C.2   1 <1>  -0.0220 
  6 C       -2.6600     0.3570     2.2530 C.3   1 <1>   0.1960 
  7 C       -1.2610     1.2450     0.5100 C.3   1 <1>   0.1960 
  8 S        2.7480    -0.2580     1.2850 S.3   1 <1>  -0.0800 
  9 C        0.9780    -1.8340     0.3690 C.2   1 <1>  -0.1500 
 10 C       -3.8910     0.3960     1.3450 C.3   1 <1>  -0.1600 
 11 C       -2.4320     1.3000    -0.4700 C.3   1 <1>  -0.1600 
 12 C        3.2490    -1.3770     0.0180 C.2   1 <1>   0.0410 
 13 C        2.1810    -2.1280    -0.3390 C.2   1 <1>  -0.1500 
 14 C       -3.7580     1.4780     0.2750 C.3   1 <1>   0.4180 
 15 C        4.6190    -1.3720    -0.4330 C.2   1 <1>  -0.0010 
 16 O       -3.7440     2.7050     0.9630 O.3   1 <1>  -0.5600 
 17 C       -4.9460     1.4140    -0.6800 C.2   1 <1>  -0.2880 
 18 C        5.4290    -2.4070    -0.7420 C.2   1 <1>  -0.0400 
 19 C        5.4630    -0.2960    -0.6830 C.2   1 <1>   0.1080 
 20 C       -4.0580     3.8590     0.2340 C.3   1 <1>   0.1200 
 21 C       -5.7540     2.4440    -0.9410 C.2   1 <1>  -0.2760 
 22 O        6.6190    -2.0140    -1.1360 O.3   1 <1>  -0.0190 
 23 C        5.1710    -3.9000    -0.6820 C.3   1 <1>  -0.0600 
 24 N        6.6070    -0.7020    -1.0870 N.2   1 <1>  -0.4100 
 25 C        5.1230     1.1730    -0.5330 C.3   1 <1>  -0.0590 
 26 C       -5.4980     3.7920    -0.2930 C.3   1 <1>  -0.0220 
 27 C       -6.9620     2.3800    -1.8590 C.3   1 <1>  -0.1020 
 28 H       -2.5730     1.2800     2.8040 H     1 <1>   0.0800 
 29 H       -2.7840    -0.4450     2.9620 H     1 <1>   0.0800 
 30 H       -0.3480     1.1040    -0.0450 H     1 <1>   0.0800 
 31 H       -1.1870     2.1790     1.0470 H     1 <1>   0.0800 
 32 H        0.0680    -2.3750     0.1680 H     1 <1>   0.1500 
 33 H       -4.7720     0.5830     1.9300 H     1 <1>   0.0800 
 34 H       -4.0040    -0.5650     0.8790 H     1 <1>   0.0800 
 35 H       -2.4580     0.3810    -1.0260 H     1 <1>   0.0800 
 36 H       -2.2920     2.0960    -1.1750 H     1 <1>   0.0800 
 37 H        2.2000    -2.8930    -1.0950 H     1 <1>   0.1500 
 38 H       -5.0740     0.4410    -1.1210 H     1 <1>   0.1500 
 39 H       -3.3630     3.9520    -0.5810 H     1 <1>   0.0800 
 40 H       -3.9390     4.7040     0.8880 H     1 <1>   0.0800 
 41 H        4.2080    -4.1080    -0.2550 H     1 <1>   0.0800 
 42 H        5.9220    -4.3710    -0.0730 H     1 <1>   0.0800 
 43 H        5.2150    -4.3170    -1.6710 H     1 <1>   0.0800 
 44 H        4.1520     1.3720    -0.9470 H     1 <1>   0.0800 
 45 H        5.8490     1.7720    -1.0520 H     1 <1>   0.0800 
 46 H        5.1320     1.4450     0.5060 H     1 <1>   0.0800 
 47 H       -5.6380     4.5830    -1.0070 H     1 <1>   0.0800 
 48 H       -6.1890     3.9440     0.5170 H     1 <1>   0.0800 
 49 H       -7.8540     2.6340    -1.3140 H     1 <1>   0.0800 
 50 H       -7.0790     1.3900    -2.2620 H     1 <1>   0.0800 
 51 H       -6.8460     3.0690    -2.6770 H     1 <1>   0.0800 
@<TRIPOS>BOND
  1   1   2  2   
  2   1   3  2   
  3   1   4  am  
  4   1   5  1   
  5   4   6  1   
  6   4   7  1   
  7   5   8  1   
  8   5   9  2   
  9   6  10  1   
 10   6  28  1   
 11   6  29  1   
 12   7  11  1   
 13   7  30  1   
 14   7  31  1   
 15   8  12  1   
 16   9  13  1   
 17   9  32  1   
 18  10  14  1   
 19  10  33  1   
 20  10  34  1   
 21  11  14  1   
 22  11  35  1   
 23  11  36  1   
 24  12  13  2   
 25  12  15  1   
 26  13  37  1   
 27  14  16  1   
 28  14  17  1   
 29  15  18  2   
 30  15  19  1   
 31  16  20  1   
 32  17  21  2   
 33  17  38  1   
 34  18  22  1   
 35  18  23  1   
 36  19  24  2   
 37  19  25  1   
 38  20  26  1   
 39  20  39  1   
 40  20  40  1   
 41  21  26  1   
 42  21  27  1   
 43  22  24  1   
 44  23  41  1   
 45  23  42  1   
 46  23  43  1   
 47  25  44  1   
 48  25  45  1   
 49  25  46  1   
 50  26  47  1   
 51  26  48  1   
 52  27  49  1   
 53  27  50  1   
 54  27  51  1   
@<TRIPOS>SUBSTRUCTURE
  1 ****   7 GROUP 4 **** **** 0

# MOE 2024.06 (io_trps.svl 2023.06)
