@<TRIPOS>MOLECULE
NONAME
41 41 1 0 0 
SMALL
USER_CHARGES


@<TRIPOS>ATOM
  1 O        2.8690    -0.3900     1.7490 O.2   1 <1>  -0.5700 
  2 C        2.3360    -0.5700     0.6760 C.2   1 <1>   0.5690 
  3 N        1.9820     0.4540    -0.1590 N.am  1 <1>  -0.4940 
  4 C        2.0260    -2.0170     0.1990 C.3   1 <1>   0.3410 
  5 C        2.0750     1.8630    -0.0560 C.2   1 <1>  -0.0880 
  6 O        1.3270    -1.9340    -1.0360 O.3   1 <1>  -0.5600 
  7 C        3.3430    -2.7810    -0.0170 C.3   1 <1>  -0.2400 
  8 C        1.1370    -2.7350     1.2310 C.3   1 <1>  -0.2400 
  9 N        3.0880     2.6090     0.4820 N.pl3 1 <1>   0.3140 
 10 C        1.1580     2.7460    -0.5180 C.2   1 <1>  -0.1810 
 11 C        0.9300    -3.1020    -1.7010 C.3   1 <1>   0.0400 
 12 N        2.8250     3.9350     0.3710 N.2   1 <1>  -0.7070 
 13 C        4.3810     2.1740     1.0590 C.3   1 <1>   0.0960 
 14 C        1.6760     3.9990    -0.2220 C.2   1 <1>   0.1390 
 15 C       -0.1670     2.4810    -1.2100 C.3   1 <1>  -0.0590 
 16 C        5.2770     1.4300     0.0460 C.3   1 <1>  -0.0800 
 17 C        6.5470     0.9250     0.7430 C.3   1 <1>  -0.2400 
 18 C        5.6600     2.3230    -1.1430 C.3   1 <1>  -0.2400 
 19 H        1.4730     0.1030    -0.9770 H     1 <1>   0.3700 
 20 H        3.9050    -2.3300    -0.8150 H     1 <1>   0.0800 
 21 H        3.1700    -3.8180    -0.2340 H     1 <1>   0.0800 
 22 H        3.9370    -2.7330     0.8790 H     1 <1>   0.0800 
 23 H        0.1830    -2.2450     1.2990 H     1 <1>   0.0800 
 24 H        1.6030    -2.6920     2.1990 H     1 <1>   0.0800 
 25 H        0.9990    -3.7710     0.9850 H     1 <1>   0.0800 
 26 H        0.4250    -2.8100    -2.6050 H     1 <1>   0.0800 
 27 H        0.2480    -3.6620    -1.0870 H     1 <1>   0.0800 
 28 H        1.7900    -3.6920    -1.9570 H     1 <1>   0.0800 
 29 H        4.1830     1.5630     1.9160 H     1 <1>   0.0800 
 30 H        4.8950     3.0510     1.4070 H     1 <1>   0.0800 
 31 H        1.1880     4.9300    -0.4550 H     1 <1>   0.1500 
 32 H       -0.3920     1.4300    -1.2120 H     1 <1>   0.0800 
 33 H       -0.1240     2.8300    -2.2260 H     1 <1>   0.0800 
 34 H       -0.9560     2.9980    -0.6950 H     1 <1>   0.0800 
 35 H        4.7450     0.5710    -0.3230 H     1 <1>   0.0800 
 36 H        7.1200     1.7480     1.1320 H     1 <1>   0.0800 
 37 H        7.1600     0.3750     0.0510 H     1 <1>   0.0800 
 38 H        6.2870     0.2710     1.5570 H     1 <1>   0.0800 
 39 H        6.1800     3.2020    -0.8050 H     1 <1>   0.0800 
 40 H        4.7810     2.6350    -1.6790 H     1 <1>   0.0800 
 41 H        6.2950     1.7870    -1.8260 H     1 <1>   0.0800 
@<TRIPOS>BOND
  1   1   2  2   
  2   2   3  am  
  3   2   4  1   
  4   3   5  1   
  5   3  19  1   
  6   4   6  1   
  7   4   7  1   
  8   4   8  1   
  9   5   9  1   
 10   5  10  2   
 11   6  11  1   
 12   7  20  1   
 13   7  21  1   
 14   7  22  1   
 15   8  23  1   
 16   8  24  1   
 17   8  25  1   
 18   9  12  1   
 19   9  13  1   
 20  10  14  1   
 21  10  15  1   
 22  11  26  1   
 23  11  27  1   
 24  11  28  1   
 25  12  14  2   
 26  13  16  1   
 27  13  29  1   
 28  13  30  1   
 29  14  31  1   
 30  15  32  1   
 31  15  33  1   
 32  15  34  1   
 33  16  17  1   
 34  16  18  1   
 35  16  35  1   
 36  17  36  1   
 37  17  37  1   
 38  17  38  1   
 39  18  39  1   
 40  18  40  1   
 41  18  41  1   
@<TRIPOS>SUBSTRUCTURE
  1 ****   3 GROUP 4 **** **** 0

# MOE 2024.06 (io_trps.svl 2023.06)
