@<TRIPOS>MOLECULE
NONAME
46 49 1 0 0 
SMALL
USER_CHARGES


@<TRIPOS>ATOM
  1 CL      -0.7020    -0.0980    -1.0970 Cl    1 <1>  -0.1770 
  2 C       -0.7790    -1.8380    -0.9530 C.ar  1 <1>   0.1770 
  3 C       -1.5660    -2.4190     0.0680 C.ar  1 <1>   0.0000 
  4 C       -0.0650    -2.5860    -1.8460 C.ar  1 <1>  -0.1500 
  5 C       -1.6290    -3.8320     0.1380 C.ar  1 <1>   0.0000 
  6 C       -2.2760    -1.6600     1.0230 C.ar  1 <1>  -0.1500 
  7 C       -0.1010    -3.9780    -1.7570 C.ar  1 <1>  -0.1500 
  8 C       -2.4470    -4.4450     1.1320 C.ar  1 <1>   0.0860 
  9 C       -0.8600    -4.5770    -0.7880 C.ar  1 <1>  -0.1500 
 10 C       -3.0210    -2.2610     1.9970 C.ar  1 <1>  -0.1500 
 11 C       -2.6210    -5.8800     1.1900 C.2   1 <1>   0.5440 
 12 C       -3.1010    -3.6510     2.0470 C.ar  1 <1>  -0.1500 
 13 O       -2.2570    -6.4990     2.1720 O.2   1 <1>  -0.5700 
 14 N       -3.2280    -6.5700     0.1660 N.am  1 <1>  -0.6600 
 15 C       -4.0430    -5.9540    -0.9130 C.3   1 <1>   0.1400 
 16 C       -3.4500    -8.0390     0.1960 C.3   1 <1>   0.1400 
 17 C       -5.1530    -6.9720    -1.1640 C.3   1 <1>   0.2000 
 18 C       -4.4580    -8.3160    -0.9270 C.3   1 <1>  -0.0800 
 19 O       -6.1320    -6.7790    -0.2010 O.3   1 <1>  -0.6800 
 20 C       -5.3900    -9.5070    -0.6420 C.3   1 <1>   0.0210 
 21 C       -4.5910   -10.7760    -0.4240 C.2   1 <1>   0.1080 
 22 N       -3.8370   -11.3000    -1.3400 N.2   1 <1>  -0.7070 
 23 C       -4.5620   -11.5040     0.7600 C.2   1 <1>  -0.1500 
 24 N       -3.3040   -12.3920    -0.7590 N.pl3 1 <1>   0.3000 
 25 C       -3.7270   -12.5350     0.5150 C.2   1 <1>  -0.3320 
 26 C       -3.3000   -13.6650     1.4330 C.3   1 <1>  -0.0600 
 27 H        0.5250    -2.1120    -2.6090 H     1 <1>   0.1500 
 28 H       -2.2240    -0.5860     0.9860 H     1 <1>   0.1500 
 29 H        0.4740    -4.5660    -2.4530 H     1 <1>   0.1500 
 30 H       -0.8660    -5.6520    -0.7280 H     1 <1>   0.1500 
 31 H       -3.5510    -1.6750     2.7290 H     1 <1>   0.1500 
 32 H       -3.6940    -4.1100     2.8200 H     1 <1>   0.1500 
 33 H       -4.4410    -4.9940    -0.6320 H     1 <1>   0.0800 
 34 H       -3.4350    -5.8490    -1.7940 H     1 <1>   0.0800 
 35 H       -2.5260    -8.5680     0.0310 H     1 <1>   0.0800 
 36 H       -3.8510    -8.3200     1.1550 H     1 <1>   0.0800 
 37 H       -5.6020    -6.8850    -2.1390 H     1 <1>   0.0800 
 38 H       -3.8890    -8.5480    -1.8100 H     1 <1>   0.0800 
 39 H       -5.6970    -6.7410     0.6750 H     1 <1>   0.4000 
 40 H       -6.0490    -9.6550    -1.4790 H     1 <1>   0.0800 
 41 H       -5.9930    -9.3190     0.2270 H     1 <1>   0.0800 
 42 H       -5.0990   -11.2710     1.6620 H     1 <1>   0.1500 
 43 H       -2.6580   -13.0150    -1.2570 H     1 <1>   0.2700 
 44 H       -3.7710   -13.5590     2.3940 H     1 <1>   0.0800 
 45 H       -2.2330   -13.6500     1.5720 H     1 <1>   0.0800 
 46 H       -3.5870   -14.6140     1.0140 H     1 <1>   0.0800 
@<TRIPOS>BOND
  1   1   2  1   
  2   2   3  ar  
  3   2   4  ar  
  4   3   5  ar  
  5   3   6  ar  
  6   4   7  ar  
  7   4  27  1   
  8   5   8  ar  
  9   5   9  ar  
 10   6  10  ar  
 11   6  28  1   
 12   7   9  ar  
 13   7  29  1   
 14   8  11  1   
 15   8  12  ar  
 16   9  30  1   
 17  10  12  ar  
 18  10  31  1   
 19  11  13  2   
 20  11  14  am  
 21  12  32  1   
 22  14  15  1   
 23  14  16  1   
 24  15  17  1   
 25  15  33  1   
 26  15  34  1   
 27  16  18  1   
 28  16  35  1   
 29  16  36  1   
 30  17  18  1   
 31  17  19  1   
 32  17  37  1   
 33  18  20  1   
 34  18  38  1   
 35  19  39  1   
 36  20  21  1   
 37  20  40  1   
 38  20  41  1   
 39  21  22  2   
 40  21  23  1   
 41  22  24  1   
 42  23  25  2   
 43  23  42  1   
 44  24  25  1   
 45  24  43  1   
 46  25  26  1   
 47  26  44  1   
 48  26  45  1   
 49  26  46  1   
@<TRIPOS>SUBSTRUCTURE
  1 ****  14 GROUP 4 **** **** 0

# MOE 2024.06 (io_trps.svl 2023.06)
