@<TRIPOS>MOLECULE
NONAME
45 47 1 0 0 
SMALL
USER_CHARGES


@<TRIPOS>ATOM
  1 CL      -0.3040    -0.4140     0.5790 Cl    1 <1>  -0.1770 
  2 C       -1.0820    -1.8790     0.0260 C.ar  1 <1>   0.1770 
  3 C       -0.4780    -3.0920     0.2430 C.ar  1 <1>  -0.1500 
  4 C       -2.3130    -1.7690    -0.6300 C.ar  1 <1>  -0.1500 
  5 C       -1.1230    -4.2500    -0.2080 C.ar  1 <1>   0.0000 
  6 C       -2.9530    -2.9020    -1.0780 C.ar  1 <1>  -0.1500 
  7 C       -2.3480    -4.1450    -0.8600 C.ar  1 <1>  -0.1520 
  8 C       -0.8130    -5.6210    -0.1650 C.2   1 <1>  -0.1500 
  9 N       -2.7570    -5.4080    -1.1970 N.pl3 1 <1>   0.0330 
 10 C       -1.8240    -6.3160    -0.7610 C.2   1 <1>  -0.2370 
 11 C       -1.9750    -7.7310    -0.9750 C.2   1 <1>   0.7150 
 12 O       -1.0680    -8.3450    -1.5020 O.2   1 <1>  -0.5700 
 13 N       -3.1380    -8.3770    -0.6160 N.am  1 <1>  -0.6600 
 14 C       -3.5200    -9.7000    -1.2100 C.3   1 <1>   0.1400 
 15 C       -4.1040    -7.8420     0.3810 C.3   1 <1>   0.1400 
 16 C       -3.8020   -10.8010    -0.1580 C.3   1 <1>  -0.1060 
 17 C       -4.3210    -8.8540     1.5020 C.3   1 <1>  -0.1600 
 18 C       -4.6250   -11.9050    -0.8380 C.2   1 <1>   0.9060 
 19 C       -4.7290   -10.2140     0.9340 C.3   1 <1>   0.2000 
 20 C       -2.4740   -11.4710     0.3320 C.3   1 <1>  -0.1600 
 21 O       -4.7730   -11.9120    -2.0650 O.co2 1 <1>  -0.9000 
 22 O       -5.1570   -12.7680    -0.1220 O.co2 1 <1>  -0.9000 
 23 O       -4.8600   -11.1090     1.9740 O.3   1 <1>  -0.6800 
 24 C       -1.5420   -10.6810     1.2630 C.3   1 <1>  -0.1600 
 25 C       -0.2100   -11.4120     1.4530 C.3   1 <1>  -0.2400 
 26 H        0.4670    -3.1640     0.7460 H     1 <1>   0.1500 
 27 H       -2.7390    -0.7930    -0.7740 H     1 <1>   0.1500 
 28 H       -3.8990    -2.8420    -1.5860 H     1 <1>   0.1500 
 29 H        0.0830    -6.0320     0.2680 H     1 <1>   0.1500 
 30 H       -3.6020    -5.6480    -1.7250 H     1 <1>   0.2700 
 31 H       -4.4100    -9.5390    -1.7940 H     1 <1>   0.0800 
 32 H       -2.7630   -10.0460    -1.8940 H     1 <1>   0.0800 
 33 H       -3.7430    -6.9250     0.8120 H     1 <1>   0.0800 
 34 H       -5.0400    -7.6450    -0.1130 H     1 <1>   0.0800 
 35 H       -5.1040    -8.4990     2.1460 H     1 <1>   0.0800 
 36 H       -3.4270    -8.9290     2.0860 H     1 <1>   0.0800 
 37 H       -5.7120   -10.1050     0.5040 H     1 <1>   0.0800 
 38 H       -2.7280   -12.3850     0.8400 H     1 <1>   0.0800 
 39 H       -1.9180   -11.7590    -0.5440 H     1 <1>   0.0800 
 40 H       -5.0440   -11.9860     1.5330 H     1 <1>   0.4000 
 41 H       -1.3450    -9.7050     0.8610 H     1 <1>   0.0800 
 42 H       -2.0100   -10.5740     2.2250 H     1 <1>   0.0800 
 43 H        0.2970   -11.5090     0.5090 H     1 <1>   0.0800 
 44 H       -0.3780   -12.3930     1.8610 H     1 <1>   0.0800 
 45 H        0.4190   -10.8590     2.1260 H     1 <1>   0.0800 
@<TRIPOS>BOND
  1   1   2  1   
  2   2   3  ar  
  3   2   4  ar  
  4   3   5  ar  
  5   3  26  1   
  6   4   6  ar  
  7   4  27  1   
  8   5   7  ar  
  9   5   8  1   
 10   6   7  ar  
 11   6  28  1   
 12   7   9  1   
 13   8  10  2   
 14   8  29  1   
 15   9  10  1   
 16   9  30  1   
 17  10  11  1   
 18  11  12  2   
 19  11  13  am  
 20  13  14  1   
 21  13  15  1   
 22  14  16  1   
 23  14  31  1   
 24  14  32  1   
 25  15  17  1   
 26  15  33  1   
 27  15  34  1   
 28  16  18  1   
 29  16  19  1   
 30  16  20  1   
 31  17  19  1   
 32  17  35  1   
 33  17  36  1   
 34  18  21  ar  
 35  18  22  ar  
 36  19  23  1   
 37  19  37  1   
 38  20  24  1   
 39  20  38  1   
 40  20  39  1   
 41  23  40  1   
 42  24  25  1   
 43  24  41  1   
 44  24  42  1   
 45  25  43  1   
 46  25  44  1   
 47  25  45  1   
@<TRIPOS>SUBSTRUCTURE
  1 ****  13 GROUP 4 **** **** 0

# MOE 2024.06 (io_trps.svl 2023.06)
