@<TRIPOS>MOLECULE
NONAME
39 41 1 0 0 
SMALL
USER_CHARGES


@<TRIPOS>ATOM
  1 CL      -2.4270     0.1710     2.3590 Cl    1 <1>  -0.1240 
  2 C       -2.8250    -0.7990     0.9640 C.2   1 <1>   0.2640 
  3 O       -3.4460    -1.9430     1.1600 O.3   1 <1>  -0.2800 
  4 C       -2.5990    -0.5600    -0.3420 C.2   1 <1>  -0.1500 
  5 C       -3.6350    -2.4780    -0.0350 C.2   1 <1>  -0.0400 
  6 C       -3.1380    -1.6740    -1.0050 C.2   1 <1>  -0.1500 
  7 C       -4.3500    -3.8150    -0.1090 C.3   1 <1>   0.5230 
  8 N       -5.5780    -3.7270     0.7280 N.4   1 <1>  -0.9590 
  9 C       -6.0620    -5.1040     1.0980 C.3   1 <1>   0.3430 
 10 C       -6.5850    -2.8330     0.0680 C.3   1 <1>   0.3430 
 11 C       -7.3550    -5.1340     1.9410 C.3   1 <1>   0.1400 
 12 C       -7.5780    -2.2900     1.0970 C.3   1 <1>  -0.1600 
 13 N       -8.5060    -4.6180     1.1500 N.am  1 <1>  -0.6600 
 14 C       -8.8180    -3.1710     1.2860 C.3   1 <1>   0.1400 
 15 C       -8.9390    -5.3130     0.0440 C.2   1 <1>   0.7160 
 16 O       -8.8830    -4.7480    -1.0300 O.2   1 <1>  -0.5700 
 17 C       -9.3460    -6.7010     0.1400 C.2   1 <1>  -0.0860 
 18 C       -9.7620    -7.3480     1.2570 C.2   1 <1>  -0.1100 
 19 C       -9.3550    -7.5740    -1.0070 C.2   1 <1>  -0.1500 
 20 S      -10.1380    -9.0260     0.9430 S.3   1 <1>  -0.0800 
 21 C       -9.7450    -8.8350    -0.7520 C.2   1 <1>  -0.1100 
 22 H       -2.1160     0.2870    -0.7960 H     1 <1>   0.1500 
 23 H       -3.1290    -1.8100    -2.0750 H     1 <1>   0.1500 
 24 H       -3.6930    -4.5760     0.2820 H     1 <1>   0.0800 
 25 H       -4.5970    -4.0590    -1.1290 H     1 <1>   0.0800 
 26 H       -5.2660    -3.2340     1.5780 H     1 <1>   0.4500 
 27 H       -5.2890    -5.6070     1.6550 H     1 <1>   0.0800 
 28 H       -6.2370    -5.6750     0.2010 H     1 <1>   0.0800 
 29 H       -7.1040    -3.3530    -0.7220 H     1 <1>   0.0800 
 30 H       -6.0750    -1.9910    -0.3720 H     1 <1>   0.0800 
 31 H       -7.2310    -4.5600     2.8430 H     1 <1>   0.0800 
 32 H       -7.5520    -6.1510     2.2320 H     1 <1>   0.0800 
 33 H       -7.9250    -1.3310     0.7530 H     1 <1>   0.0800 
 34 H       -7.0920    -2.1170     2.0400 H     1 <1>   0.0800 
 35 H       -9.5560    -2.9030     0.5460 H     1 <1>   0.0800 
 36 H       -9.2570    -2.9880     2.2530 H     1 <1>   0.0800 
 37 H       -9.8960    -7.0000     2.2660 H     1 <1>   0.1500 
 38 H       -9.0710    -7.2020    -1.9780 H     1 <1>   0.1500 
 39 H       -9.8560    -9.6980    -1.3860 H     1 <1>   0.1500 
@<TRIPOS>BOND
  1   1   2  1   
  2   2   3  1   
  3   2   4  2   
  4   3   5  1   
  5   4   6  1   
  6   4  22  1   
  7   5   6  2   
  8   5   7  1   
  9   6  23  1   
 10   7   8  1   
 11   7  24  1   
 12   7  25  1   
 13   8   9  1   
 14   8  10  1   
 15   8  26  1   
 16   9  11  1   
 17   9  27  1   
 18   9  28  1   
 19  10  12  1   
 20  10  29  1   
 21  10  30  1   
 22  11  13  1   
 23  11  31  1   
 24  11  32  1   
 25  12  14  1   
 26  12  33  1   
 27  12  34  1   
 28  13  14  1   
 29  13  15  am  
 30  14  35  1   
 31  14  36  1   
 32  15  16  2   
 33  15  17  1   
 34  17  18  2   
 35  17  19  1   
 36  18  20  1   
 37  18  37  1   
 38  19  21  2   
 39  19  38  1   
 40  20  21  1   
 41  21  39  1   
@<TRIPOS>SUBSTRUCTURE
  1 ****   8 GROUP 4 **** **** 0

# MOE 2024.06 (io_trps.svl 2023.06)
