@<TRIPOS>MOLECULE
NONAME
40 41 1 0 0 
SMALL
USER_CHARGES


@<TRIPOS>ATOM
  1 F        0.7480    -1.0510     1.6530 F     1 <1>  -0.1900 
  2 C        0.2520    -1.9830     0.8810 C.ar  1 <1>   0.1900 
  3 C        1.0430    -3.0790     0.5690 C.ar  1 <1>  -0.1440 
  4 C       -1.0440    -1.8360     0.4080 C.ar  1 <1>  -0.1440 
  5 C        0.5050    -4.0610    -0.2480 C.ar  1 <1>  -0.1500 
  6 C        2.4650    -3.2000     1.1010 C.3   1 <1>  -0.0960 
  7 C       -1.5580    -2.8320    -0.4070 C.ar  1 <1>  -0.1500 
  8 C       -1.8770    -0.6130     0.7680 C.3   1 <1>  -0.0960 
  9 C       -0.7920    -3.9440    -0.7320 C.ar  1 <1>  -0.1430 
 10 C       -1.3700    -5.0330    -1.6170 C.3   1 <1>   0.4860 
 11 N       -2.3250    -5.8390    -0.8220 N.4   1 <1>  -0.9590 
 12 C       -1.6210    -6.5540     0.3170 C.3   1 <1>   0.3430 
 13 C       -3.0990    -6.7780    -1.6840 C.3   1 <1>   0.3430 
 14 C       -2.2590    -7.9020     0.7070 C.3   1 <1>   0.2000 
 15 C       -4.2220    -7.4210    -0.8660 C.3   1 <1>  -0.1600 
 16 O       -1.7780    -8.8760    -0.1530 O.3   1 <1>  -0.6800 
 17 C       -3.7840    -7.8400     0.5620 C.3   1 <1>  -0.1860 
 18 C       -4.3880    -9.1610     0.9840 C.2   1 <1>   0.9060 
 19 O       -5.2590    -9.1520     1.8500 O.co2 1 <1>  -0.9000 
 20 O       -3.9580   -10.1880     0.4440 O.co2 1 <1>  -0.9000 
 21 H        1.1080    -4.9160    -0.5050 H     1 <1>   0.1500 
 22 H        2.9320    -4.1090     0.7700 H     1 <1>   0.0800 
 23 H        2.4560    -3.1910     2.1770 H     1 <1>   0.0800 
 24 H        3.0540    -2.3680     0.7580 H     1 <1>   0.0800 
 25 H       -2.5600    -2.7290    -0.7880 H     1 <1>   0.1500 
 26 H       -2.8490    -0.6520     0.3110 H     1 <1>   0.0800 
 27 H       -1.3790     0.2800     0.4330 H     1 <1>   0.0800 
 28 H       -2.0010    -0.5550     1.8350 H     1 <1>   0.0800 
 29 H       -0.5810    -5.6630    -1.9940 H     1 <1>   0.0800 
 30 H       -1.8750    -4.5800    -2.4540 H     1 <1>   0.0800 
 31 H       -3.0010    -5.2010    -0.3900 H     1 <1>   0.4500 
 32 H       -0.5930    -6.7450     0.0600 H     1 <1>   0.0800 
 33 H       -1.6260    -5.9100     1.1810 H     1 <1>   0.0800 
 34 H       -3.5190    -6.2640    -2.5330 H     1 <1>   0.0800 
 35 H       -2.4420    -7.5550    -2.0460 H     1 <1>   0.0800 
 36 H       -1.9790    -8.1870     1.7070 H     1 <1>   0.0800 
 37 H       -5.0670    -6.7590    -0.8030 H     1 <1>   0.0800 
 38 H       -4.5520    -8.2940    -1.4040 H     1 <1>   0.0800 
 39 H       -2.4120    -9.6560    -0.0590 H     1 <1>   0.4000 
 40 H       -4.1470    -7.1050     1.2570 H     1 <1>   0.0800 
@<TRIPOS>BOND
  1   1   2  1   
  2   2   3  ar  
  3   2   4  ar  
  4   3   5  ar  
  5   3   6  1   
  6   4   7  ar  
  7   4   8  1   
  8   5   9  ar  
  9   5  21  1   
 10   6  22  1   
 11   6  23  1   
 12   6  24  1   
 13   7   9  ar  
 14   7  25  1   
 15   8  26  1   
 16   8  27  1   
 17   8  28  1   
 18   9  10  1   
 19  10  11  1   
 20  10  29  1   
 21  10  30  1   
 22  11  12  1   
 23  11  13  1   
 24  11  31  1   
 25  12  14  1   
 26  12  32  1   
 27  12  33  1   
 28  13  15  1   
 29  13  34  1   
 30  13  35  1   
 31  14  16  1   
 32  14  17  1   
 33  14  36  1   
 34  15  17  1   
 35  15  37  1   
 36  15  38  1   
 37  16  39  1   
 38  17  18  1   
 39  17  40  1   
 40  18  19  ar  
 41  18  20  ar  
@<TRIPOS>SUBSTRUCTURE
  1 ****  12 GROUP 4 **** **** 0

# MOE 2024.06 (io_trps.svl 2023.06)
