@<TRIPOS>MOLECULE
NONAME
45 47 1 0 0 
SMALL
USER_CHARGES


@<TRIPOS>ATOM
  1 O       -1.7860    -0.6120    -2.7310 O.2   1 <1>  -0.5700 
  2 C       -2.0700    -0.9470    -1.6050 C.2   1 <1>   0.5690 
  3 N       -1.9600    -0.0950    -0.5460 N.am  1 <1>  -0.6600 
  4 C       -2.5520    -2.3650    -1.3950 C.3   1 <1>  -0.0190 
  5 C       -2.3890    -0.4900     0.8260 C.3   1 <1>   0.2200 
  6 C       -1.4610     1.3020    -0.7030 C.3   1 <1>   0.0600 
  7 C       -1.5830    -3.1430    -0.4850 C.3   1 <1>   0.1200 
  8 C       -4.0510    -2.4010    -1.0380 C.3   1 <1>   0.1400 
  9 C       -1.5100    -1.6360     1.3880 C.3   1 <1>   0.1200 
 10 C       -3.9170    -0.7190     0.8820 C.3   1 <1>   0.1400 
 11 O       -1.7750    -2.9160     0.8770 O.3   1 <1>  -0.5600 
 12 N       -4.3800    -2.0560     0.3820 N.am  1 <1>  -0.6600 
 13 C       -4.9330    -2.9740     1.2580 C.2   1 <1>   0.5440 
 14 O       -5.2440    -2.6160     2.3800 O.2   1 <1>  -0.5700 
 15 C       -5.1490    -4.3570     0.8780 C.ar  1 <1>   0.0860 
 16 C       -6.3180    -4.7970     0.2450 C.ar  1 <1>  -0.1430 
 17 C       -4.1420    -5.2850     1.1340 C.ar  1 <1>  -0.1500 
 18 C       -6.4460    -6.1310    -0.1400 C.ar  1 <1>   0.0820 
 19 C       -7.4440    -3.7940    -0.0200 C.3   1 <1>  -0.0970 
 20 C       -4.2700    -6.6080     0.7640 C.ar  1 <1>  -0.1500 
 21 O       -7.5880    -6.5090    -0.7750 O.3   1 <1>  -0.3630 
 22 C       -5.4170    -7.0320     0.1240 C.ar  1 <1>  -0.1500 
 23 C       -7.8690    -7.8580    -1.0740 C.3   1 <1>   0.0400 
 24 H       -2.4750    -2.8320    -2.3600 H     1 <1>   0.0800 
 25 H       -2.2010     0.3580     1.4610 H     1 <1>   0.0800 
 26 H       -0.6080     1.4570    -0.0670 H     1 <1>   0.0800 
 27 H       -2.2370     1.9980    -0.4370 H     1 <1>   0.0800 
 28 H       -1.1660     1.4910    -1.7210 H     1 <1>   0.0800 
 29 H       -0.5610    -2.9100    -0.7300 H     1 <1>   0.0800 
 30 H       -1.7330    -4.1970    -0.6390 H     1 <1>   0.0800 
 31 H       -4.4210    -3.3820    -1.2720 H     1 <1>   0.0800 
 32 H       -4.5760    -1.7150    -1.6810 H     1 <1>   0.0800 
 33 H       -1.6790    -1.7010     2.4480 H     1 <1>   0.0800 
 34 H       -0.4690    -1.4170     1.2300 H     1 <1>   0.0800 
 35 H       -4.4110     0.0530     0.3180 H     1 <1>   0.0800 
 36 H       -4.2210    -0.5930     1.9050 H     1 <1>   0.0800 
 37 H       -3.2480    -4.9490     1.6330 H     1 <1>   0.1500 
 38 H       -7.5580    -3.1250     0.8140 H     1 <1>   0.0800 
 39 H       -8.3890    -4.2850    -0.1640 H     1 <1>   0.0800 
 40 H       -7.2200    -3.2180    -0.8980 H     1 <1>   0.0800 
 41 H       -3.4760    -7.3040     0.9740 H     1 <1>   0.1500 
 42 H       -5.4890    -8.0640    -0.1600 H     1 <1>   0.1500 
 43 H       -8.8490    -7.9050    -1.5120 H     1 <1>   0.0800 
 44 H       -7.8490    -8.4290    -0.1620 H     1 <1>   0.0800 
 45 H       -7.1380    -8.2210    -1.7740 H     1 <1>   0.0800 
@<TRIPOS>BOND
  1   1   2  2   
  2   2   3  am  
  3   2   4  1   
  4   3   5  1   
  5   3   6  1   
  6   4   7  1   
  7   4   8  1   
  8   4  24  1   
  9   5   9  1   
 10   5  10  1   
 11   5  25  1   
 12   6  26  1   
 13   6  27  1   
 14   6  28  1   
 15   7  11  1   
 16   7  29  1   
 17   7  30  1   
 18   8  12  1   
 19   8  31  1   
 20   8  32  1   
 21   9  11  1   
 22   9  33  1   
 23   9  34  1   
 24  10  12  1   
 25  10  35  1   
 26  10  36  1   
 27  12  13  am  
 28  13  14  2   
 29  13  15  1   
 30  15  16  ar  
 31  15  17  ar  
 32  16  18  ar  
 33  16  19  1   
 34  17  20  ar  
 35  17  37  1   
 36  18  21  1   
 37  18  22  ar  
 38  19  38  1   
 39  19  39  1   
 40  19  40  1   
 41  20  22  ar  
 42  20  41  1   
 43  21  23  1   
 44  22  42  1   
 45  23  43  1   
 46  23  44  1   
 47  23  45  1   
@<TRIPOS>SUBSTRUCTURE
  1 ****  12 GROUP 4 **** **** 0

# MOE 2024.06 (io_trps.svl 2023.06)
