@<TRIPOS>MOLECULE
NONAME
51 55 1 0 0 
SMALL
USER_CHARGES


@<TRIPOS>ATOM
  1 CL      -1.4580     0.8070     2.4490 Cl    1 <1>  -0.1230 
  2 C       -2.0970     2.1540     1.5220 C.2   1 <1>   0.1230 
  3 C       -3.1080     2.1000     0.5580 C.2   1 <1>   0.2030 
  4 C       -1.7070     3.4340     1.6300 C.2   1 <1>  -0.3020 
  5 N       -3.3280     3.3300     0.1030 N.2   1 <1>  -0.7070 
  6 C       -3.7630     0.8630     0.1550 C.2   1 <1>   0.7160 
  7 N       -2.4650     4.1230     0.7570 N.pl3 1 <1>   0.3140 
  8 O       -3.0850    -0.1280    -0.0650 O.2   1 <1>  -0.5700 
  9 N       -5.1370     0.7370     0.0100 N.am  1 <1>  -0.6600 
 10 C       -2.3950     5.5680     0.5120 C.3   1 <1>   0.0160 
 11 C       -6.1200     1.8140     0.3370 C.3   1 <1>   0.1400 
 12 C       -5.7350    -0.5470    -0.4710 C.3   1 <1>   0.1400 
 13 C       -6.9850     2.1680    -0.8930 C.3   1 <1>   0.1430 
 14 C       -7.2110    -0.3890    -0.8750 C.3   1 <1>  -0.1600 
 15 C       -8.1540     2.9970    -0.3880 C.ar  1 <1>   0.1670 
 16 C       -7.4290     0.9030    -1.6790 C.3   1 <1>  -0.1600 
 17 C       -6.2640     3.1770    -1.8240 C.3   1 <1>  -0.1600 
 18 N       -9.2090     2.5290     0.2350 N.ar  1 <1>  -0.6200 
 19 C       -7.9720     4.3220    -0.6390 C.ar  1 <1>  -0.1440 
 20 C       -6.6660     4.5820    -1.3480 C.3   1 <1>  -0.0170 
 21 C      -10.1230     3.4370     0.6020 C.ar  1 <1>   0.6200 
 22 C       -8.9500     5.1890    -0.2280 C.ar  1 <1>   0.1600 
 23 N      -10.0260     4.7580     0.3900 N.ar  1 <1>  -0.6200 
 24 C      -11.3140     2.9500     1.2870 C.ar  1 <1>   0.0000 
 25 C      -12.5310     3.6360     1.2200 C.ar  1 <1>  -0.1500 
 26 C      -11.2980     1.7730     2.0430 C.ar  1 <1>  -0.1500 
 27 C      -13.6640     3.1770     1.8660 C.ar  1 <1>  -0.1500 
 28 C      -12.4270     1.3080     2.6930 C.ar  1 <1>  -0.1500 
 29 C      -13.6150     2.0100     2.6060 C.ar  1 <1>  -0.1500 
 30 H       -0.9590     3.8750     2.2600 H     1 <1>   0.1500 
 31 H       -2.6820     6.0930     1.4030 H     1 <1>   0.0800 
 32 H       -3.0630     5.8240    -0.2900 H     1 <1>   0.0800 
 33 H       -1.3900     5.8320     0.2390 H     1 <1>   0.0800 
 34 H       -5.6400     2.6960     0.7170 H     1 <1>   0.0800 
 35 H       -6.7610     1.4510     1.1220 H     1 <1>   0.0800 
 36 H       -5.6420    -1.2930     0.2990 H     1 <1>   0.0800 
 37 H       -5.1730    -0.8840    -1.3270 H     1 <1>   0.0800 
 38 H       -7.8280    -0.3760     0.0070 H     1 <1>   0.0800 
 39 H       -7.5100    -1.2400    -1.4620 H     1 <1>   0.0800 
 40 H       -6.8530     0.8180    -2.5830 H     1 <1>   0.0800 
 41 H       -8.4640     0.9890    -1.9630 H     1 <1>   0.0800 
 42 H       -6.6260     3.0600    -2.8300 H     1 <1>   0.0800 
 43 H       -5.1970     3.0380    -1.8310 H     1 <1>   0.0800 
 44 H       -6.7820     5.2630    -2.1730 H     1 <1>   0.0800 
 45 H       -5.9410     4.9650    -0.6510 H     1 <1>   0.0800 
 46 H       -8.8510     6.2470    -0.4060 H     1 <1>   0.1500 
 47 H      -12.5900     4.5460     0.6480 H     1 <1>   0.1500 
 48 H      -10.3830     1.2130     2.1230 H     1 <1>   0.1500 
 49 H      -14.5850     3.7290     1.7940 H     1 <1>   0.1500 
 50 H      -12.3810     0.3990     3.2660 H     1 <1>   0.1500 
 51 H      -14.4950     1.6500     3.1100 H     1 <1>   0.1500 
@<TRIPOS>BOND
  1   1   2  1   
  2   2   3  1   
  3   2   4  2   
  4   3   5  2   
  5   3   6  1   
  6   4   7  1   
  7   4  30  1   
  8   5   7  1   
  9   6   8  2   
 10   6   9  am  
 11   7  10  1   
 12   9  11  1   
 13   9  12  1   
 14  10  31  1   
 15  10  32  1   
 16  10  33  1   
 17  11  13  1   
 18  11  34  1   
 19  11  35  1   
 20  12  14  1   
 21  12  36  1   
 22  12  37  1   
 23  13  15  1   
 24  13  16  1   
 25  13  17  1   
 26  14  16  1   
 27  14  38  1   
 28  14  39  1   
 29  15  18  ar  
 30  15  19  ar  
 31  16  40  1   
 32  16  41  1   
 33  17  20  1   
 34  17  42  1   
 35  17  43  1   
 36  18  21  ar  
 37  19  20  1   
 38  19  22  ar  
 39  20  44  1   
 40  20  45  1   
 41  21  23  ar  
 42  21  24  1   
 43  22  23  ar  
 44  22  46  1   
 45  24  25  ar  
 46  24  26  ar  
 47  25  27  ar  
 48  25  47  1   
 49  26  28  ar  
 50  26  48  1   
 51  27  29  ar  
 52  27  49  1   
 53  28  29  ar  
 54  28  50  1   
 55  29  51  1   
@<TRIPOS>SUBSTRUCTURE
  1 ****  11 GROUP 4 **** **** 0

# MOE 2024.06 (io_trps.svl 2023.06)
