@<TRIPOS>MOLECULE
NONAME
42 43 1 0 0 
SMALL
USER_CHARGES


@<TRIPOS>ATOM
  1 O        0.3550    -0.2620    -2.7630 O.2   1 <1>  -0.5700 
  2 C        0.8420    -0.8690    -1.8380 C.2   1 <1>   0.5690 
  3 N        1.5660    -0.2740    -0.8420 N.am  1 <1>  -0.4940 
  4 C        0.6390    -2.3880    -1.7690 C.3   1 <1>   0.2610 
  5 C        1.9330     1.0630    -0.6620 C.2   1 <1>   0.2040 
  6 O        1.0310    -2.8650    -0.4830 O.3   1 <1>  -0.3630 
  7 C        1.4710    -3.1240    -2.8290 C.3   1 <1>  -0.2400 
  8 O        1.6620     1.9910    -1.5480 O.3   1 <1>  -0.0190 
  9 C        2.5900     1.6510     0.3580 C.2   1 <1>  -0.1810 
 10 C        0.5860    -4.0390     0.0370 C.ar  1 <1>   0.0820 
 11 N        2.1040     3.1650    -1.1740 N.2   1 <1>  -0.4100 
 12 C        2.6660     2.9880    -0.0320 C.2   1 <1>   0.1080 
 13 C        3.1320     1.0420     1.6400 C.3   1 <1>  -0.0590 
 14 C       -0.3440    -4.8680    -0.5830 C.ar  1 <1>  -0.1500 
 15 C        1.1110    -4.4080     1.2660 C.ar  1 <1>  -0.1500 
 16 C        3.3150     4.1130     0.7550 C.3   1 <1>   0.0210 
 17 C       -0.7430    -6.0490     0.0200 C.ar  1 <1>   0.0820 
 18 C        0.7160    -5.5860     1.8740 C.ar  1 <1>  -0.1500 
 19 C        4.8190     4.1930     0.4740 C.3   1 <1>  -0.2400 
 20 O       -1.6530    -6.7960    -0.6540 O.3   1 <1>  -0.3620 
 21 C       -0.2100    -6.4080     1.2550 C.ar  1 <1>  -0.1500 
 22 C       -2.1340    -8.0140    -0.1300 C.3   1 <1>   0.0400 
 23 H        1.8610    -0.9210    -0.1120 H     1 <1>   0.3700 
 24 H       -0.4110    -2.5730    -1.9020 H     1 <1>   0.0800 
 25 H        2.5170    -2.9220    -2.6860 H     1 <1>   0.0800 
 26 H        1.1900    -2.7790    -3.8080 H     1 <1>   0.0800 
 27 H        1.3020    -4.1840    -2.7840 H     1 <1>   0.0800 
 28 H        2.9260    -0.0120     1.6770 H     1 <1>   0.0800 
 29 H        2.6720     1.5110     2.4920 H     1 <1>   0.0800 
 30 H        4.1960     1.1870     1.6950 H     1 <1>   0.0800 
 31 H       -0.7790    -4.6300    -1.5330 H     1 <1>   0.1500 
 32 H        1.8300    -3.7700     1.7460 H     1 <1>   0.1500 
 33 H        3.1450     3.9630     1.8050 H     1 <1>   0.0800 
 34 H        2.8510     5.0430     0.4760 H     1 <1>   0.0800 
 35 H        1.1290    -5.8640     2.8280 H     1 <1>   0.1500 
 36 H        5.3050     3.2770     0.7590 H     1 <1>   0.0800 
 37 H        5.2570     5.0050     1.0250 H     1 <1>   0.0800 
 38 H        4.9860     4.3580    -0.5760 H     1 <1>   0.0800 
 39 H       -0.5010    -7.3170     1.7460 H     1 <1>   0.1500 
 40 H       -2.8400    -8.4230    -0.8300 H     1 <1>   0.0800 
 41 H       -2.6210    -7.8220     0.8100 H     1 <1>   0.0800 
 42 H       -1.3080    -8.6920    -0.0060 H     1 <1>   0.0800 
@<TRIPOS>BOND
  1   1   2  2   
  2   2   3  am  
  3   2   4  1   
  4   3   5  1   
  5   3  23  1   
  6   4   6  1   
  7   4   7  1   
  8   4  24  1   
  9   5   8  1   
 10   5   9  2   
 11   6  10  1   
 12   7  25  1   
 13   7  26  1   
 14   7  27  1   
 15   8  11  1   
 16   9  12  1   
 17   9  13  1   
 18  10  14  ar  
 19  10  15  ar  
 20  11  12  2   
 21  12  16  1   
 22  13  28  1   
 23  13  29  1   
 24  13  30  1   
 25  14  17  ar  
 26  14  31  1   
 27  15  18  ar  
 28  15  32  1   
 29  16  19  1   
 30  16  33  1   
 31  16  34  1   
 32  17  20  1   
 33  17  21  ar  
 34  18  21  ar  
 35  18  35  1   
 36  19  36  1   
 37  19  37  1   
 38  19  38  1   
 39  20  22  1   
 40  21  39  1   
 41  22  40  1   
 42  22  41  1   
 43  22  42  1   
@<TRIPOS>SUBSTRUCTURE
  1 ****   6 GROUP 4 **** **** 0

# MOE 2024.06 (io_trps.svl 2023.06)
