@<TRIPOS>MOLECULE
NONAME
44 47 1 0 0 
SMALL
USER_CHARGES


@<TRIPOS>ATOM
  1 O        3.7660    -1.6730    -1.7680 O.2   1 <1>  -0.5700 
  2 C        2.6190    -1.5780    -1.4110 C.2   1 <1>   0.5690 
  3 N        2.1240    -0.4910    -0.7410 N.am  1 <1>  -0.4940 
  4 C        1.6960    -2.7430    -1.7300 C.3   1 <1>   0.1570 
  5 C        2.7520     0.6850    -0.3260 C.2   1 <1>   0.2040 
  6 N        0.4150    -2.6210    -1.0040 N.pl3 1 <1>   0.0480 
  7 O        3.9940     0.9730    -0.6300 O.3   1 <1>  -0.0190 
  8 C        2.2610     1.7000     0.4110 C.2   1 <1>  -0.1810 
  9 C       -0.6370    -1.8530    -1.3980 C.ar  1 <1>  -0.1520 
 10 C        0.2110    -2.8600     0.3220 C.2   1 <1>   0.1010 
 11 N        4.3570     2.1300    -0.1360 N.2   1 <1>  -0.4100 
 12 C        3.3330     2.5870     0.4940 C.2   1 <1>   0.1080 
 13 C        0.8770     1.8630     1.0200 C.3   1 <1>  -0.0590 
 14 C       -1.4240    -1.6960    -0.2740 C.ar  1 <1>   0.2270 
 15 C       -0.9850    -1.2500    -2.6100 C.ar  1 <1>  -0.1500 
 16 N       -0.8640    -2.3290     0.7890 N.2   1 <1>  -0.5650 
 17 C        1.1980    -3.6510     1.1660 C.3   1 <1>  -0.0150 
 18 C        3.3310     3.9210     1.2180 C.3   1 <1>   0.0210 
 19 C       -2.5930    -0.9400    -0.3370 C.ar  1 <1>  -0.1500 
 20 C       -2.1390    -0.5010    -2.6640 C.ar  1 <1>  -0.1500 
 21 C        1.3660    -5.1230     0.9440 C.3   1 <1>  -0.2000 
 22 C        0.7020    -4.6240     2.1910 C.3   1 <1>  -0.2000 
 23 C        2.7680     5.0360     0.3300 C.3   1 <1>  -0.2400 
 24 C       -2.9450    -0.3460    -1.5290 C.ar  1 <1>  -0.1500 
 25 H        1.1380    -0.5500    -0.4750 H     1 <1>   0.3700 
 26 H        2.1780    -3.6610    -1.4520 H     1 <1>   0.0800 
 27 H        1.5060    -2.7650    -2.7860 H     1 <1>   0.0800 
 28 H        0.2610     1.0080     0.8070 H     1 <1>   0.0800 
 29 H        0.3990     2.7370     0.6170 H     1 <1>   0.0800 
 30 H        0.9560     1.9680     2.0870 H     1 <1>   0.0800 
 31 H       -0.3680    -1.3700    -3.4840 H     1 <1>   0.1500 
 32 H        2.0670    -3.0740     1.4330 H     1 <1>   0.1000 
 33 H        4.3410     4.1650     1.4990 H     1 <1>   0.0800 
 34 H        2.7500     3.8410     2.1190 H     1 <1>   0.0800 
 35 H       -3.1910    -0.8390     0.5500 H     1 <1>   0.1500 
 36 H       -2.4360    -0.0260    -3.5840 H     1 <1>   0.1500 
 37 H        2.3490    -5.5530     1.0220 H     1 <1>   0.1000 
 38 H        0.7510    -5.6200     0.2140 H     1 <1>   0.1000 
 39 H       -0.3620    -4.7380     2.3030 H     1 <1>   0.1000 
 40 H        1.2250    -4.6900     3.1280 H     1 <1>   0.1000 
 41 H        3.3610     5.1230    -0.5640 H     1 <1>   0.0800 
 42 H        2.7910     5.9750     0.8530 H     1 <1>   0.0800 
 43 H        1.7540     4.8170     0.0490 H     1 <1>   0.0800 
 44 H       -3.8450     0.2410    -1.5980 H     1 <1>   0.1500 
@<TRIPOS>BOND
  1   1   2  2   
  2   2   3  am  
  3   2   4  1   
  4   3   5  1   
  5   3  25  1   
  6   4   6  1   
  7   4  26  1   
  8   4  27  1   
  9   5   7  1   
 10   5   8  2   
 11   6   9  1   
 12   6  10  1   
 13   7  11  1   
 14   8  12  1   
 15   8  13  1   
 16   9  14  ar  
 17   9  15  ar  
 18  10  16  2   
 19  10  17  1   
 20  11  12  2   
 21  12  18  1   
 22  13  28  1   
 23  13  29  1   
 24  13  30  1   
 25  14  16  1   
 26  14  19  ar  
 27  15  20  ar  
 28  15  31  1   
 29  17  21  1   
 30  17  22  1   
 31  17  32  1   
 32  18  23  1   
 33  18  33  1   
 34  18  34  1   
 35  19  24  ar  
 36  19  35  1   
 37  20  24  ar  
 38  20  36  1   
 39  21  22  1   
 40  21  37  1   
 41  21  38  1   
 42  22  39  1   
 43  22  40  1   
 44  23  41  1   
 45  23  42  1   
 46  23  43  1   
 47  24  44  1   
@<TRIPOS>SUBSTRUCTURE
  1 ****   3 GROUP 4 **** **** 0

# MOE 2024.06 (io_trps.svl 2023.06)
