@<TRIPOS>MOLECULE
NONAME
51 52 1 0 0 
SMALL
USER_CHARGES


@<TRIPOS>ATOM
  1 O        2.4840    -2.5860     0.0020 O.2   1 <1>  -0.5700 
  2 C        2.0230    -1.4870    -0.1920 C.2   1 <1>   0.5690 
  3 N        2.2570    -0.5070     0.7220 N.am  1 <1>  -0.5470 
  4 C        1.2590    -1.1980    -1.4960 C.3   1 <1>   0.1710 
  5 C        1.9890     0.8660     0.6510 C.ar  1 <1>   0.1170 
  6 N       -0.1420    -1.7150    -1.5810 N.3   1 <1>  -0.8100 
  7 C        3.0190     1.7850     0.3980 C.ar  1 <1>  -0.1430 
  8 C        0.6810     1.3270     0.8420 C.ar  1 <1>  -0.1430 
  9 C       -0.1960    -3.2010    -1.5790 C.3   1 <1>   0.1100 
 10 C       -0.8070    -1.1680    -2.7700 C.3   1 <1>   0.0300 
 11 C        2.7070     3.1350     0.3160 C.ar  1 <1>  -0.1500 
 12 C        4.4990     1.4110     0.2000 C.3   1 <1>   0.0630 
 13 C        0.4040     2.6780     0.7510 C.ar  1 <1>  -0.1500 
 14 C       -0.4820     0.3920     1.1580 C.3   1 <1>  -0.0970 
 15 C       -0.5680    -3.7740    -0.2040 C.3   1 <1>   0.2000 
 16 C        1.4110     3.5830     0.4860 C.ar  1 <1>  -0.1500 
 17 C        4.7380     0.6160    -1.0890 C.3   1 <1>  -0.2400 
 18 C        5.1090     0.7030     1.4170 C.3   1 <1>  -0.2400 
 19 O       -0.7050    -5.1640    -0.3450 O.3   1 <1>  -0.5600 
 20 C       -1.8880    -3.1810     0.3340 C.3   1 <1>   0.1200 
 21 C       -1.0730    -5.8030     0.8410 C.3   1 <1>   0.1200 
 22 O       -2.2940    -3.8360     1.5070 O.3   1 <1>  -0.5600 
 23 C       -2.3990    -5.2220     1.3600 C.3   1 <1>   0.1200 
 24 H        2.8350    -0.8120     1.5020 H     1 <1>   0.3700 
 25 H        1.8340    -1.6100    -2.3070 H     1 <1>   0.0800 
 26 H        1.2400    -0.1330    -1.6350 H     1 <1>   0.0800 
 27 H        0.7520    -3.6110    -1.8860 H     1 <1>   0.0800 
 28 H       -0.9420    -3.5390    -2.2770 H     1 <1>   0.0800 
 29 H       -0.7950    -0.0920    -2.7340 H     1 <1>   0.0800 
 30 H       -1.8330    -1.4920    -2.7970 H     1 <1>   0.0800 
 31 H       -0.3090    -1.4980    -3.6660 H     1 <1>   0.0800 
 32 H        3.4730     3.8640     0.1170 H     1 <1>   0.1500 
 33 H        5.0520     2.3280     0.0890 H     1 <1>   0.0800 
 34 H       -0.6020     3.0360     0.8880 H     1 <1>   0.1500 
 35 H       -0.1530    -0.4890     1.6780 H     1 <1>   0.0800 
 36 H       -0.9670     0.0980     0.2460 H     1 <1>   0.0800 
 37 H       -1.2030     0.8880     1.7820 H     1 <1>   0.0800 
 38 H        0.2280    -3.5860     0.4940 H     1 <1>   0.0800 
 39 H        1.1890     4.6330     0.4170 H     1 <1>   0.1500 
 40 H        4.3580    -0.3840    -1.0090 H     1 <1>   0.0800 
 41 H        5.7920     0.5570    -1.2930 H     1 <1>   0.0800 
 42 H        4.2570     1.1060    -1.9170 H     1 <1>   0.0800 
 43 H        4.7520    -0.3050     1.5090 H     1 <1>   0.0800 
 44 H        4.8660     1.2430     2.3150 H     1 <1>   0.0800 
 45 H        6.1790     0.6680     1.3200 H     1 <1>   0.0800 
 46 H       -2.6670    -3.2740    -0.4010 H     1 <1>   0.0800 
 47 H       -1.7580    -2.1410     0.5660 H     1 <1>   0.0800 
 48 H       -0.2890    -5.6670     1.5660 H     1 <1>   0.0800 
 49 H       -1.1780    -6.8520     0.6320 H     1 <1>   0.0800 
 50 H       -2.6410    -5.6380     2.3210 H     1 <1>   0.0800 
 51 H       -3.1990    -5.4360     0.6740 H     1 <1>   0.0800 
@<TRIPOS>BOND
  1   1   2  2   
  2   2   3  am  
  3   2   4  1   
  4   3   5  1   
  5   3  24  1   
  6   4   6  1   
  7   4  25  1   
  8   4  26  1   
  9   5   7  ar  
 10   5   8  ar  
 11   6   9  1   
 12   6  10  1   
 13   7  11  ar  
 14   7  12  1   
 15   8  13  ar  
 16   8  14  1   
 17   9  15  1   
 18   9  27  1   
 19   9  28  1   
 20  10  29  1   
 21  10  30  1   
 22  10  31  1   
 23  11  16  ar  
 24  11  32  1   
 25  12  17  1   
 26  12  18  1   
 27  12  33  1   
 28  13  16  ar  
 29  13  34  1   
 30  14  35  1   
 31  14  36  1   
 32  14  37  1   
 33  15  19  1   
 34  15  20  1   
 35  15  38  1   
 36  16  39  1   
 37  17  40  1   
 38  17  41  1   
 39  17  42  1   
 40  18  43  1   
 41  18  44  1   
 42  18  45  1   
 43  19  21  1   
 44  20  22  1   
 45  20  46  1   
 46  20  47  1   
 47  21  23  1   
 48  21  48  1   
 49  21  49  1   
 50  22  23  1   
 51  23  50  1   
 52  23  51  1   
@<TRIPOS>SUBSTRUCTURE
  1 ****   2 GROUP 4 **** **** 0

# MOE 2024.06 (io_trps.svl 2023.06)
