@<TRIPOS>MOLECULE
NONAME
45 47 1 0 0 
SMALL
USER_CHARGES


@<TRIPOS>ATOM
  1 O       -1.5430     1.2820    -1.8170 O.2   1 <1>  -0.5700 
  2 C       -1.6350     1.6710    -0.6620 C.2   1 <1>   0.7160 
  3 N       -2.5750     1.0460     0.1450 N.am  1 <1>  -0.6600 
  4 C       -0.7680     2.7560    -0.2250 C.2   1 <1>   0.1410 
  5 C       -3.1010    -0.2990    -0.2380 C.3   1 <1>   0.1400 
  6 C       -3.1280     1.6780     1.3800 C.3   1 <1>   0.1400 
  7 N       -0.4650     3.0440     1.0640 N.2   1 <1>  -0.2270 
  8 C       -0.0960     3.6430    -0.9980 C.2   1 <1>  -0.3020 
  9 C       -4.3470    -0.1770    -1.1270 C.3   1 <1>   0.1400 
 10 C       -4.6280     1.4360     1.5980 C.3   1 <1>  -0.1600 
 11 N        0.3320     4.0500     1.0950 N.2   1 <1>  -0.4180 
 12 N        0.5720     4.4270    -0.1600 N.pl3 1 <1>   0.3000 
 13 N       -5.5590     0.2090    -0.3370 N.am  1 <1>  -0.6600 
 14 C       -5.4730     1.5430     0.3240 C.3   1 <1>   0.1400 
 15 C       -6.6840    -0.5720    -0.1750 C.2   1 <1>   0.5690 
 16 O       -7.5960    -0.2060     0.5290 O.2   1 <1>  -0.5700 
 17 C       -6.7890    -1.9260    -0.8770 C.3   1 <1>   0.0440 
 18 C       -8.0690    -2.7250    -0.6120 C.ar  1 <1>  -0.1430 
 19 C       -8.2490    -3.4780     0.5460 C.ar  1 <1>  -0.1430 
 20 C       -9.0730    -2.7020    -1.5710 C.ar  1 <1>  -0.1500 
 21 C       -9.4200    -4.2000     0.7170 C.ar  1 <1>  -0.1500 
 22 C       -7.1970    -3.5240     1.6460 C.3   1 <1>  -0.0970 
 23 C      -10.2390    -3.4240    -1.3920 C.ar  1 <1>  -0.1500 
 24 C      -10.4120    -4.1770    -0.2470 C.ar  1 <1>  -0.1500 
 25 H       -3.3230    -0.8800     0.6400 H     1 <1>   0.0800 
 26 H       -2.3390    -0.8250    -0.7880 H     1 <1>   0.0800 
 27 H       -2.9830     2.7430     1.3190 H     1 <1>   0.0800 
 28 H       -2.5770     1.3240     2.2350 H     1 <1>   0.0800 
 29 H       -0.0710     3.7310    -2.0690 H     1 <1>   0.1500 
 30 H       -4.4980    -1.1180    -1.6200 H     1 <1>   0.0800 
 31 H       -4.1680     0.5570    -1.8940 H     1 <1>   0.0800 
 32 H       -4.9730     2.1810     2.2920 H     1 <1>   0.0800 
 33 H       -4.7920     0.4830     2.0680 H     1 <1>   0.0800 
 34 H        1.1920     5.2100    -0.3930 H     1 <1>   0.2700 
 35 H       -5.0540     2.2660    -0.3540 H     1 <1>   0.0800 
 36 H       -6.4610     1.8830     0.5850 H     1 <1>   0.0800 
 37 H       -5.9480    -2.5250    -0.5890 H     1 <1>   0.0800 
 38 H       -6.7070    -1.7510    -1.9330 H     1 <1>   0.0800 
 39 H       -8.9570    -2.1170    -2.4650 H     1 <1>   0.1500 
 40 H       -9.5720    -4.7850     1.6060 H     1 <1>   0.1500 
 41 H       -6.9600    -2.5260     1.9700 H     1 <1>   0.0800 
 42 H       -6.3060    -4.0030     1.2870 H     1 <1>   0.0800 
 43 H       -7.5570    -4.0710     2.4980 H     1 <1>   0.0800 
 44 H      -11.0100    -3.3980    -2.1410 H     1 <1>   0.1500 
 45 H      -11.3170    -4.7400    -0.1030 H     1 <1>   0.1500 
@<TRIPOS>BOND
  1   1   2  2   
  2   2   3  am  
  3   2   4  1   
  4   3   5  1   
  5   3   6  1   
  6   4   7  1   
  7   4   8  2   
  8   5   9  1   
  9   5  25  1   
 10   5  26  1   
 11   6  10  1   
 12   6  27  1   
 13   6  28  1   
 14   7  11  2   
 15   8  12  1   
 16   8  29  1   
 17   9  13  1   
 18   9  30  1   
 19   9  31  1   
 20  10  14  1   
 21  10  32  1   
 22  10  33  1   
 23  11  12  1   
 24  12  34  1   
 25  13  14  1   
 26  13  15  am  
 27  14  35  1   
 28  14  36  1   
 29  15  16  2   
 30  15  17  1   
 31  17  18  1   
 32  17  37  1   
 33  17  38  1   
 34  18  19  ar  
 35  18  20  ar  
 36  19  21  ar  
 37  19  22  1   
 38  20  23  ar  
 39  20  39  1   
 40  21  24  ar  
 41  21  40  1   
 42  22  41  1   
 43  22  42  1   
 44  22  43  1   
 45  23  24  ar  
 46  23  44  1   
 47  24  45  1   
@<TRIPOS>SUBSTRUCTURE
  1 ****  13 GROUP 4 **** **** 0

# MOE 2024.06 (io_trps.svl 2023.06)
