@<TRIPOS>MOLECULE
NONAME
52 53 1 0 0 
SMALL
USER_CHARGES


@<TRIPOS>ATOM
  1 S        0.9290     0.0870     0.0780 S.o2  1 <1>   1.3330 
  2 O        1.3610    -0.2260    -1.2630 O.2   1 <1>  -0.6500 
  3 O        1.9110     0.4910     1.0600 O.2   1 <1>  -0.6500 
  4 N       -0.0060    -1.1820     0.6960 N.am  1 <1>  -0.8490 
  5 C       -0.2170     1.4590    -0.0300 C.3   1 <1>  -0.0550 
  6 C        0.7880    -2.1280     1.4880 C.3   1 <1>   0.1160 
  7 C       -0.7560    -1.9100    -0.3350 C.3   1 <1>   0.1160 
  8 C        0.4370     2.7140    -0.6540 C.3   1 <1>  -0.0800 
  9 C       -0.4340     3.9690    -0.6620 C.3   1 <1>   0.2000 
 10 C        1.7290     3.1670     0.0380 C.3   1 <1>   0.3430 
 11 O       -1.0690     4.1160     0.5670 O.3   1 <1>  -0.6800 
 12 C        0.5770     5.1040    -0.8540 C.3   1 <1>   0.3430 
 13 N        1.8610     4.6270    -0.2380 N.4   1 <1>  -0.9590 
 14 C        2.2710     5.4170     0.9570 C.3   1 <1>   0.4860 
 15 C        2.4530     6.8640     0.5330 C.ar  1 <1>  -0.1430 
 16 C        3.5270     7.2290    -0.2810 C.ar  1 <1>  -0.1430 
 17 C        1.5360     7.8300     0.9470 C.ar  1 <1>  -0.1430 
 18 C        3.6430     8.5430    -0.7040 C.ar  1 <1>  -0.1500 
 19 C        4.6110     6.2560    -0.7340 C.3   1 <1>  -0.0970 
 20 C        1.6780     9.1360     0.5090 C.ar  1 <1>  -0.1500 
 21 C        0.3730     7.5200     1.8860 C.3   1 <1>  -0.0970 
 22 C        2.7220     9.4980    -0.3210 C.ar  1 <1>  -0.1430 
 23 C        2.8640    10.9340    -0.7930 C.3   1 <1>  -0.0970 
 24 H       -1.0610     1.1720    -0.6280 H     1 <1>   0.0800 
 25 H       -0.5800     1.6740     0.9570 H     1 <1>   0.0800 
 26 H        0.1560    -2.9030     1.8870 H     1 <1>   0.0800 
 27 H        1.2550    -1.6190     2.3150 H     1 <1>   0.0800 
 28 H        1.5560    -2.5770     0.8790 H     1 <1>   0.0800 
 29 H       -1.3920    -2.6490     0.1230 H     1 <1>   0.0800 
 30 H       -0.0820    -2.4030    -1.0160 H     1 <1>   0.0800 
 31 H       -1.3770    -1.2310    -0.8940 H     1 <1>   0.0800 
 32 H        0.6920     2.4790    -1.6740 H     1 <1>   0.0800 
 33 H       -1.1890     3.9620    -1.4310 H     1 <1>   0.0800 
 34 H        2.5810     2.6140    -0.3280 H     1 <1>   0.0800 
 35 H        1.6440     2.9980     1.1000 H     1 <1>   0.0800 
 36 H       -0.4660     4.0120     1.3260 H     1 <1>   0.4000 
 37 H        0.2210     6.0230    -0.4190 H     1 <1>   0.0800 
 38 H        0.7290     5.2610    -1.9090 H     1 <1>   0.0800 
 39 H        2.6010     4.7890    -0.9320 H     1 <1>   0.4500 
 40 H        1.5220     5.3440     1.7270 H     1 <1>   0.0800 
 41 H        3.2000     5.0410     1.3530 H     1 <1>   0.0800 
 42 H        4.4630     8.8350    -1.3380 H     1 <1>   0.1500 
 43 H        5.5210     6.7900    -0.9470 H     1 <1>   0.0800 
 44 H        4.3100     5.7490    -1.6320 H     1 <1>   0.0800 
 45 H        4.8420     5.5360     0.0300 H     1 <1>   0.0800 
 46 H        0.9750     9.8910     0.8170 H     1 <1>   0.1500 
 47 H       -0.1580     8.4190     2.1440 H     1 <1>   0.0800 
 48 H        0.7370     7.0880     2.8010 H     1 <1>   0.0800 
 49 H       -0.3280     6.8480     1.4270 H     1 <1>   0.0800 
 50 H        3.3330    10.9700    -1.7600 H     1 <1>   0.0800 
 51 H        3.4660    11.4880    -0.0960 H     1 <1>   0.0800 
 52 H        1.9000    11.4050    -0.8690 H     1 <1>   0.0800 
@<TRIPOS>BOND
  1   1   2  2   
  2   1   3  2   
  3   1   4  am  
  4   1   5  1   
  5   4   6  1   
  6   4   7  1   
  7   5   8  1   
  8   5  24  1   
  9   5  25  1   
 10   6  26  1   
 11   6  27  1   
 12   6  28  1   
 13   7  29  1   
 14   7  30  1   
 15   7  31  1   
 16   8   9  1   
 17   8  10  1   
 18   8  32  1   
 19   9  11  1   
 20   9  12  1   
 21   9  33  1   
 22  10  13  1   
 23  10  34  1   
 24  10  35  1   
 25  11  36  1   
 26  12  13  1   
 27  12  37  1   
 28  12  38  1   
 29  13  14  1   
 30  13  39  1   
 31  14  15  1   
 32  14  40  1   
 33  14  41  1   
 34  15  16  ar  
 35  15  17  ar  
 36  16  18  ar  
 37  16  19  1   
 38  17  20  ar  
 39  17  21  1   
 40  18  22  ar  
 41  18  42  1   
 42  19  43  1   
 43  19  44  1   
 44  19  45  1   
 45  20  22  ar  
 46  20  46  1   
 47  21  47  1   
 48  21  48  1   
 49  21  49  1   
 50  22  23  1   
 51  23  50  1   
 52  23  51  1   
 53  23  52  1   
@<TRIPOS>SUBSTRUCTURE
  1 ****  13 GROUP 4 **** **** 0

# MOE 2024.06 (io_trps.svl 2023.06)
