@<TRIPOS>MOLECULE
NONAME
64 68 1 0 0 
SMALL
USER_CHARGES


@<TRIPOS>ATOM
  1 O       -1.6340     1.0850     0.9170 O.2   1 <1>  -0.5700 
  2 C       -2.0450     1.6620    -0.0660 C.2   1 <1>   0.5440 
  3 N       -1.1060     2.0410    -0.9640 N.am  1 <1>  -0.8000 
  4 C       -3.4620     1.9120    -0.2710 C.ar  1 <1>   0.0860 
  5 C       -3.9270     2.8990    -1.1450 C.ar  1 <1>  -0.1500 
  6 C       -4.4270     1.1640     0.4080 C.ar  1 <1>  -0.1500 
  7 C       -5.2780     3.1160    -1.3370 C.ar  1 <1>  -0.1500 
  8 C       -5.7810     1.3740     0.2240 C.ar  1 <1>  -0.1500 
  9 C       -6.2180     2.3570    -0.6580 C.ar  1 <1>   0.0830 
 10 O       -7.5190     2.6320    -0.9010 O.3   1 <1>  -0.3630 
 11 C       -8.5590     1.9420    -0.2550 C.3   1 <1>   0.1200 
 12 C       -9.8750     2.5270    -0.7690 C.3   1 <1>  -0.1600 
 13 C      -11.0700     1.8590    -0.0930 C.3   1 <1>   0.3430 
 14 N      -12.3480     2.3680    -0.6710 N.4   1 <1>  -0.9590 
 15 C      -12.6650     3.7990    -0.2860 C.3   1 <1>   0.3430 
 16 C      -13.4940     1.4590    -0.3550 C.3   1 <1>   0.3430 
 17 C      -13.5520     3.9840     0.9730 C.3   1 <1>   0.1430 
 18 C      -13.7800     1.4160     1.1540 C.3   1 <1>  -0.1600 
 19 C      -14.9500     4.3440     0.4950 C.ar  1 <1>   0.1670 
 20 C      -13.5250     2.7440     1.8970 C.3   1 <1>  -0.1600 
 21 C      -13.1400     5.2560     1.7640 C.3   1 <1>  -0.1600 
 22 N      -15.7920     3.5190    -0.0780 N.ar  1 <1>  -0.6200 
 23 C      -15.2310     5.6610     0.6950 C.ar  1 <1>  -0.1430 
 24 C      -14.0860     6.3950     1.3420 C.3   1 <1>  -0.0170 
 25 C      -16.9700     4.0440    -0.4420 C.ar  1 <1>   0.6200 
 26 C      -16.4560     6.1240     0.2890 C.ar  1 <1>   0.1600 
 27 N      -17.3260     5.3240    -0.2830 N.ar  1 <1>  -0.6200 
 28 C      -17.9240     3.1490    -1.0720 C.ar  1 <1>   0.0000 
 29 C      -18.6930     3.5570    -2.1640 C.ar  1 <1>  -0.1500 
 30 C      -18.1070     1.8410    -0.6160 C.ar  1 <1>  -0.1500 
 31 C      -19.5900     2.7010    -2.7780 C.ar  1 <1>  -0.1500 
 32 C      -19.0020     0.9800    -1.2250 C.ar  1 <1>  -0.1500 
 33 C      -19.7450     1.4090    -2.3100 C.ar  1 <1>  -0.1500 
 34 H       -0.1310     1.8040    -0.7730 H     1 <1>   0.3700 
 35 H       -1.3170     2.4080    -1.8900 H     1 <1>   0.3700 
 36 H       -3.2230     3.5120    -1.6780 H     1 <1>   0.1500 
 37 H       -4.0970     0.4010     1.0940 H     1 <1>   0.1500 
 38 H       -5.6150     3.8800    -2.0150 H     1 <1>   0.1500 
 39 H       -6.4720     0.7640     0.7740 H     1 <1>   0.1500 
 40 H       -8.4510     2.0900     0.8060 H     1 <1>   0.0800 
 41 H       -8.4720     0.8960    -0.5000 H     1 <1>   0.0800 
 42 H       -9.9230     2.3680    -1.8320 H     1 <1>   0.0800 
 43 H       -9.8710     3.5820    -0.5640 H     1 <1>   0.0800 
 44 H      -11.0440     2.0410     0.9690 H     1 <1>   0.0800 
 45 H      -11.0070     0.7940    -0.2510 H     1 <1>   0.0800 
 46 H      -12.2410     2.3530    -1.6950 H     1 <1>   0.4500 
 47 H      -13.1740     4.2750    -1.1080 H     1 <1>   0.0800 
 48 H      -11.7440     4.3350    -0.1390 H     1 <1>   0.0800 
 49 H      -13.2960     0.4620    -0.7140 H     1 <1>   0.0800 
 50 H      -14.3740     1.8170    -0.8660 H     1 <1>   0.0800 
 51 H      -13.2040     0.6300     1.6110 H     1 <1>   0.0800 
 52 H      -14.8150     1.1440     1.2730 H     1 <1>   0.0800 
 53 H      -14.2570     2.8570     2.6790 H     1 <1>   0.0800 
 54 H      -12.5610     2.6920     2.3730 H     1 <1>   0.0800 
 55 H      -12.1080     5.5260     1.6180 H     1 <1>   0.0800 
 56 H      -13.2890     5.0880     2.8180 H     1 <1>   0.0800 
 57 H      -13.6160     7.0450     0.6250 H     1 <1>   0.0800 
 58 H      -14.4160     6.9700     2.1910 H     1 <1>   0.0800 
 59 H      -16.7270     7.1580     0.4280 H     1 <1>   0.1500 
 60 H      -18.5860     4.5620    -2.5350 H     1 <1>   0.1500 
 61 H      -17.5420     1.4970     0.2320 H     1 <1>   0.1500 
 62 H      -20.1690     3.0410    -3.6190 H     1 <1>   0.1500 
 63 H      -19.1260    -0.0230    -0.8540 H     1 <1>   0.1500 
 64 H      -20.4420     0.7420    -2.7860 H     1 <1>   0.1500 
@<TRIPOS>BOND
  1   1   2  2   
  2   2   3  am  
  3   2   4  1   
  4   3  34  1   
  5   3  35  1   
  6   4   5  ar  
  7   4   6  ar  
  8   5   7  ar  
  9   5  36  1   
 10   6   8  ar  
 11   6  37  1   
 12   7   9  ar  
 13   7  38  1   
 14   8   9  ar  
 15   8  39  1   
 16   9  10  1   
 17  10  11  1   
 18  11  12  1   
 19  11  40  1   
 20  11  41  1   
 21  12  13  1   
 22  12  42  1   
 23  12  43  1   
 24  13  14  1   
 25  13  44  1   
 26  13  45  1   
 27  14  15  1   
 28  14  16  1   
 29  14  46  1   
 30  15  17  1   
 31  15  47  1   
 32  15  48  1   
 33  16  18  1   
 34  16  49  1   
 35  16  50  1   
 36  17  19  1   
 37  17  20  1   
 38  17  21  1   
 39  18  20  1   
 40  18  51  1   
 41  18  52  1   
 42  19  22  ar  
 43  19  23  ar  
 44  20  53  1   
 45  20  54  1   
 46  21  24  1   
 47  21  55  1   
 48  21  56  1   
 49  22  25  ar  
 50  23  24  1   
 51  23  26  ar  
 52  24  57  1   
 53  24  58  1   
 54  25  27  ar  
 55  25  28  1   
 56  26  27  ar  
 57  26  59  1   
 58  28  29  ar  
 59  28  30  ar  
 60  29  31  ar  
 61  29  60  1   
 62  30  32  ar  
 63  30  61  1   
 64  31  33  ar  
 65  31  62  1   
 66  32  33  ar  
 67  32  63  1   
 68  33  64  1   
@<TRIPOS>SUBSTRUCTURE
  1 ****  14 GROUP 4 **** **** 0

# MOE 2024.06 (io_trps.svl 2023.06)
