@<TRIPOS>MOLECULE
NONAME
50 51 1 0 0 
SMALL
USER_CHARGES


@<TRIPOS>ATOM
  1 O       -0.4610    -1.2750    -0.0420 O.2   1 <1>  -0.5700 
  2 C       -1.2990    -0.4200    -0.1950 C.2   1 <1>   0.5690 
  3 N       -2.4110    -0.6740    -0.9660 N.am  1 <1>  -0.6600 
  4 C       -1.0710     0.8730     0.5960 C.3   1 <1>   0.0440 
  5 C       -2.7940    -2.0940    -1.2640 C.3   1 <1>   0.3210 
  6 C       -3.2410     0.3260    -1.6940 C.3   1 <1>   0.1400 
  7 C       -1.3670     2.2210    -0.0600 C.ar  1 <1>  -0.1440 
  8 C       -4.1550    -2.4280    -0.6540 C.2   1 <1>   0.0460 
  9 C       -4.3190     0.9440    -0.7910 C.3   1 <1>   0.3430 
 10 C       -2.1450     3.1600     0.6040 C.ar  1 <1>  -0.1500 
 11 C       -0.8300     2.5410    -1.2970 C.ar  1 <1>  -0.1500 
 12 N       -5.3070    -1.9740    -1.2000 N.2   1 <1>  -0.5650 
 13 C       -4.4100    -3.1890     0.4370 C.2   1 <1>  -0.3320 
 14 N       -4.5990     2.3780    -1.1360 N.4   1 <1>  -0.9590 
 15 C       -2.4180     4.3900     0.0270 C.ar  1 <1>  -0.1430 
 16 C       -1.1100     3.7620    -1.8840 C.ar  1 <1>  -0.1500 
 17 C       -6.2280    -2.4870    -0.4490 C.2   1 <1>   0.0360 
 18 N       -5.7490    -3.2340     0.5650 N.pl3 1 <1>   0.0330 
 19 C       -3.4720    -3.9080     1.3940 C.3   1 <1>  -0.0600 
 20 C       -5.6060     2.9410    -0.1930 C.3   1 <1>   0.2630 
 21 C       -5.0460     2.5540    -2.5520 C.3   1 <1>   0.2630 
 22 C       -1.9060     4.6820    -1.2250 C.ar  1 <1>  -0.1500 
 23 C       -3.2380     5.4340     0.7670 C.3   1 <1>  -0.0970 
 24 H       -0.0380     0.8890     0.8950 H     1 <1>   0.0800 
 25 H       -1.6410     0.7810     1.5010 H     1 <1>   0.0800 
 26 H       -2.0610    -2.7780    -0.8770 H     1 <1>   0.0800 
 27 H       -2.8350    -2.2440    -2.3280 H     1 <1>   0.0800 
 28 H       -3.7270    -0.1520    -2.5260 H     1 <1>   0.0800 
 29 H       -2.6040     1.0820    -2.1020 H     1 <1>   0.0800 
 30 H       -3.9760     0.8880     0.2280 H     1 <1>   0.0800 
 31 H       -5.2220     0.3630    -0.8720 H     1 <1>   0.0800 
 32 H       -2.5250     2.9400     1.5880 H     1 <1>   0.1500 
 33 H       -0.1900     1.8400    -1.8080 H     1 <1>   0.1500 
 34 H       -3.7040     2.8980    -1.0010 H     1 <1>   0.4500 
 35 H       -0.6920     4.0030    -2.8470 H     1 <1>   0.1500 
 36 H       -7.2850    -2.3490    -0.6020 H     1 <1>   0.1500 
 37 H       -6.2910    -3.7400     1.2720 H     1 <1>   0.2700 
 38 H       -2.4440    -3.6920     1.1610 H     1 <1>   0.0800 
 39 H       -3.6190    -4.9710     1.3300 H     1 <1>   0.0800 
 40 H       -3.6580    -3.5920     2.4050 H     1 <1>   0.0800 
 41 H       -6.5420     2.4140    -0.2860 H     1 <1>   0.0800 
 42 H       -5.7730     3.9850    -0.4060 H     1 <1>   0.0800 
 43 H       -5.2560     2.8500     0.8220 H     1 <1>   0.0800 
 44 H       -5.9460     1.9890    -2.7330 H     1 <1>   0.0800 
 45 H       -4.2820     2.2150    -3.2330 H     1 <1>   0.0800 
 46 H       -5.2420     3.5950    -2.7540 H     1 <1>   0.0800 
 47 H       -2.1010     5.6380    -1.6830 H     1 <1>   0.1500 
 48 H       -3.7630     4.9990     1.5990 H     1 <1>   0.0800 
 49 H       -3.9520     5.8920     0.1060 H     1 <1>   0.0800 
 50 H       -2.5840     6.2000     1.1450 H     1 <1>   0.0800 
@<TRIPOS>BOND
  1   1   2  2   
  2   2   3  am  
  3   2   4  1   
  4   3   5  1   
  5   3   6  1   
  6   4   7  1   
  7   4  24  1   
  8   4  25  1   
  9   5   8  1   
 10   5  26  1   
 11   5  27  1   
 12   6   9  1   
 13   6  28  1   
 14   6  29  1   
 15   7  10  ar  
 16   7  11  ar  
 17   8  12  1   
 18   8  13  2   
 19   9  14  1   
 20   9  30  1   
 21   9  31  1   
 22  10  15  ar  
 23  10  32  1   
 24  11  16  ar  
 25  11  33  1   
 26  12  17  2   
 27  13  18  1   
 28  13  19  1   
 29  14  20  1   
 30  14  21  1   
 31  14  34  1   
 32  15  22  ar  
 33  15  23  1   
 34  16  22  ar  
 35  16  35  1   
 36  17  18  1   
 37  17  36  1   
 38  18  37  1   
 39  19  38  1   
 40  19  39  1   
 41  19  40  1   
 42  20  41  1   
 43  20  42  1   
 44  20  43  1   
 45  21  44  1   
 46  21  45  1   
 47  21  46  1   
 48  22  47  1   
 49  23  48  1   
 50  23  49  1   
 51  23  50  1   
@<TRIPOS>SUBSTRUCTURE
  1 ****   9 GROUP 4 **** **** 0

# MOE 2024.06 (io_trps.svl 2023.06)
