@<TRIPOS>MOLECULE
NONAME
46 47 1 0 0 
SMALL
USER_CHARGES


@<TRIPOS>ATOM
  1 O       -2.6250    -1.1910     0.6060 O.3   1 <1>  -0.3630 
  2 C       -1.5980    -1.9710     0.1940 C.ar  1 <1>   0.0830 
  3 C       -2.6410     0.1970     0.3490 C.3   1 <1>   0.0400 
  4 C       -1.6440    -3.3000     0.5770 C.ar  1 <1>  -0.1500 
  5 C       -0.5330    -1.5150    -0.5760 C.ar  1 <1>  -0.1500 
  6 C       -0.6510    -4.1860     0.1890 C.ar  1 <1>  -0.1430 
  7 C        0.4700    -2.3910    -0.9520 C.ar  1 <1>  -0.1500 
  8 C        0.4140    -3.7210    -0.5720 C.ar  1 <1>  -0.1500 
  9 C       -0.7300    -5.6470     0.5780 C.3   1 <1>   0.4860 
 10 N       -1.1350    -6.4080    -0.6380 N.4   1 <1>  -0.9590 
 11 C       -2.5760    -6.1520    -0.9790 C.3   1 <1>   0.4810 
 12 C       -0.8030    -7.8560    -0.5330 C.3   1 <1>   0.3430 
 13 C       -3.5220    -6.9530    -0.0810 C.2   1 <1>  -0.0380 
 14 C        0.7070    -8.0760    -0.6420 C.3   1 <1>  -0.1600 
 15 N       -3.9210    -8.2230    -0.4460 N.pl3 1 <1>  -0.5500 
 16 C       -4.0170    -6.4850     1.0890 C.2   1 <1>  -0.1360 
 17 C        1.0370    -9.5730    -0.6590 C.3   1 <1>  -0.2400 
 18 C       -4.7480    -8.9630     0.3530 C.2   1 <1>   0.4390 
 19 C       -4.8620    -7.2970     1.8880 C.2   1 <1>   0.7670 
 20 N       -5.2020    -8.5530     1.4750 N.2   1 <1>  -0.6610 
 21 C       -5.1240   -10.3350    -0.1480 C.3   1 <1>  -0.1790 
 22 O       -5.2710    -6.8880     2.9600 O.2   1 <1>  -0.5700 
 23 H       -3.5280     0.6100     0.7960 H     1 <1>   0.0800 
 24 H       -2.6610     0.3570    -0.7150 H     1 <1>   0.0800 
 25 H       -1.7690     0.6460     0.7910 H     1 <1>   0.0800 
 26 H       -2.4740    -3.6110     1.1870 H     1 <1>   0.1500 
 27 H       -0.4680    -0.4890    -0.8870 H     1 <1>   0.1500 
 28 H        1.2980    -2.0310    -1.5410 H     1 <1>   0.1500 
 29 H        1.2140    -4.3760    -0.8730 H     1 <1>   0.1500 
 30 H       -1.4400    -5.7920     1.3760 H     1 <1>   0.0800 
 31 H        0.2390    -5.9660     0.9230 H     1 <1>   0.0800 
 32 H       -0.5780    -6.0030    -1.4010 H     1 <1>   0.4500 
 33 H       -2.7610    -6.4200    -2.0070 H     1 <1>   0.0800 
 34 H       -2.7920    -5.1000    -0.8780 H     1 <1>   0.0800 
 35 H       -1.2820    -8.3930    -1.3360 H     1 <1>   0.0800 
 36 H       -1.1710    -8.2570     0.3990 H     1 <1>   0.0800 
 37 H        1.2190    -7.6310     0.1930 H     1 <1>   0.0800 
 38 H        1.0780    -7.6360    -1.5520 H     1 <1>   0.0800 
 39 H       -3.6920    -8.6400    -1.3540 H     1 <1>   0.4000 
 40 H       -3.8140    -5.5090     1.4840 H     1 <1>   0.1500 
 41 H        0.7020   -10.0520     0.2450 H     1 <1>   0.0800 
 42 H        2.1030    -9.7130    -0.7350 H     1 <1>   0.0800 
 43 H        0.5770   -10.0610    -1.5010 H     1 <1>   0.0800 
 44 H       -5.6490   -10.2570    -1.0830 H     1 <1>   0.0800 
 45 H       -5.7700   -10.8200     0.5630 H     1 <1>   0.0800 
 46 H       -4.2460   -10.9390    -0.2760 H     1 <1>   0.0800 
@<TRIPOS>BOND
  1   1   2  1   
  2   1   3  1   
  3   2   4  ar  
  4   2   5  ar  
  5   3  23  1   
  6   3  24  1   
  7   3  25  1   
  8   4   6  ar  
  9   4  26  1   
 10   5   7  ar  
 11   5  27  1   
 12   6   8  ar  
 13   6   9  1   
 14   7   8  ar  
 15   7  28  1   
 16   8  29  1   
 17   9  10  1   
 18   9  30  1   
 19   9  31  1   
 20  10  11  1   
 21  10  12  1   
 22  10  32  1   
 23  11  13  1   
 24  11  33  1   
 25  11  34  1   
 26  12  14  1   
 27  12  35  1   
 28  12  36  1   
 29  13  15  1   
 30  13  16  2   
 31  14  17  1   
 32  14  37  1   
 33  14  38  1   
 34  15  18  1   
 35  15  39  1   
 36  16  19  1   
 37  16  40  1   
 38  17  41  1   
 39  17  42  1   
 40  17  43  1   
 41  18  20  2   
 42  18  21  1   
 43  19  20  1   
 44  19  22  2   
 45  21  44  1   
 46  21  45  1   
 47  21  46  1   
@<TRIPOS>SUBSTRUCTURE
  1 ****  11 GROUP 4 **** **** 0

# MOE 2024.06 (io_trps.svl 2023.06)
