@<TRIPOS>MOLECULE
NONAME
39 41 1 0 0 
SMALL
USER_CHARGES


@<TRIPOS>ATOM
  1 F       -0.0880    -5.4130    -2.9680 F     1 <1>  -0.3400 
  2 C       -0.0610    -4.2510    -2.3190 C.3   1 <1>   1.1640 
  3 F        1.0940    -3.6810    -2.6570 F     1 <1>  -0.3400 
  4 F       -1.0080    -3.4960    -2.8710 F     1 <1>  -0.3400 
  5 C       -0.2390    -4.4110    -0.7830 C.ar  1 <1>   0.1660 
  6 N       -1.3080    -5.0820    -0.3380 N.ar  1 <1>  -0.6200 
  7 C        0.7040    -3.8600     0.0820 C.ar  1 <1>  -0.1500 
  8 C       -1.4350    -5.2190     0.9750 C.ar  1 <1>   0.4100 
  9 C        0.5640    -4.0000     1.4480 C.ar  1 <1>  -0.1500 
 10 N       -2.5330    -5.9190     1.4210 N.pl3 1 <1>  -0.8380 
 11 C       -0.5320    -4.6970     1.8900 C.ar  1 <1>  -0.1500 
 12 C       -3.8450    -5.2590     1.1900 C.3   1 <1>   0.2090 
 13 C       -2.6260    -7.3360     0.9670 C.3   1 <1>   0.2090 
 14 C       -4.5470    -6.1130     0.1400 C.3   1 <1>   0.2000 
 15 C       -4.0180    -7.5260     0.3550 C.3   1 <1>  -0.0800 
 16 O       -5.9290    -6.0910     0.2840 O.3   1 <1>  -0.6800 
 17 C       -4.0030    -8.3410    -0.9470 C.3   1 <1>   0.0200 
 18 C       -3.3400    -9.6900    -0.7450 C.2   1 <1>  -0.0400 
 19 O       -3.8310   -10.5450     0.1120 O.3   1 <1>  -0.0190 
 20 C       -2.2500   -10.2400    -1.3000 C.2   1 <1>  -0.1500 
 21 N       -3.1250   -11.6370     0.1630 N.2   1 <1>  -0.4100 
 22 C       -2.1660   -11.4820    -0.6780 C.2   1 <1>   0.1080 
 23 C       -1.0970   -12.5170    -0.9480 C.3   1 <1>  -0.0590 
 24 H        1.5560    -3.3190    -0.2940 H     1 <1>   0.1500 
 25 H        1.2810    -3.5820     2.1350 H     1 <1>   0.1500 
 26 H       -0.7130    -4.8530     2.9360 H     1 <1>   0.1500 
 27 H       -4.3980    -5.2530     2.1120 H     1 <1>   0.0800 
 28 H       -3.7160    -4.2500     0.8340 H     1 <1>   0.0800 
 29 H       -1.8570    -7.5440     0.2400 H     1 <1>   0.0800 
 30 H       -2.4880    -8.0000     1.8040 H     1 <1>   0.0800 
 31 H       -4.2980    -5.7430    -0.8400 H     1 <1>   0.0800 
 32 H       -4.6200    -8.0340     1.0880 H     1 <1>   0.0800 
 33 H       -6.1860    -6.4640     1.1480 H     1 <1>   0.4000 
 34 H       -3.4690    -7.8010    -1.7080 H     1 <1>   0.0800 
 35 H       -5.0120    -8.4910    -1.2900 H     1 <1>   0.0800 
 36 H       -1.5800    -9.8460    -2.0420 H     1 <1>   0.1500 
 37 H       -0.1350   -12.0450    -1.0140 H     1 <1>   0.0800 
 38 H       -1.3090   -13.0250    -1.8700 H     1 <1>   0.0800 
 39 H       -1.0770   -13.2380    -0.1500 H     1 <1>   0.0800 
@<TRIPOS>BOND
  1   1   2  1   
  2   2   3  1   
  3   2   4  1   
  4   2   5  1   
  5   5   6  ar  
  6   5   7  ar  
  7   6   8  ar  
  8   7   9  ar  
  9   7  24  1   
 10   8  10  1   
 11   8  11  ar  
 12   9  11  ar  
 13   9  25  1   
 14  10  12  1   
 15  10  13  1   
 16  11  26  1   
 17  12  14  1   
 18  12  27  1   
 19  12  28  1   
 20  13  15  1   
 21  13  29  1   
 22  13  30  1   
 23  14  15  1   
 24  14  16  1   
 25  14  31  1   
 26  15  17  1   
 27  15  32  1   
 28  16  33  1   
 29  17  18  1   
 30  17  34  1   
 31  17  35  1   
 32  18  19  1   
 33  18  20  2   
 34  19  21  1   
 35  20  22  1   
 36  20  36  1   
 37  21  22  2   
 38  22  23  1   
 39  23  37  1   
 40  23  38  1   
 41  23  39  1   
@<TRIPOS>SUBSTRUCTURE
  1 ****  13 GROUP 4 **** **** 0

# MOE 2024.06 (io_trps.svl 2023.06)
