@<TRIPOS>MOLECULE
NONAME
43 44 1 0 0 
SMALL
USER_CHARGES


@<TRIPOS>ATOM
  1 O       -1.7580    -0.0570    -1.3180 O.3   1 <1>  -0.3630 
  2 C       -2.2330    -0.7630    -0.2590 C.ar  1 <1>   0.0820 
  3 C       -1.0170    -0.6580    -2.3560 C.3   1 <1>   0.0400 
  4 C       -2.7790    -0.0460     0.8010 C.ar  1 <1>  -0.1440 
  5 C       -2.1940    -2.1540    -0.2020 C.ar  1 <1>  -0.1500 
  6 C       -3.2700    -0.7230     1.9050 C.ar  1 <1>  -0.1500 
  7 C       -2.8330     1.4750     0.7610 C.3   1 <1>  -0.0960 
  8 C       -2.7000    -2.8270     0.9000 C.ar  1 <1>  -0.1430 
  9 C       -3.2300    -2.1040     1.9580 C.ar  1 <1>  -0.1500 
 10 C       -2.6840    -4.3410     0.9430 C.3   1 <1>   0.4860 
 11 N       -4.0670    -4.8360     0.7100 N.4   1 <1>  -0.9590 
 12 C       -4.1660    -6.3190     0.9920 C.3   1 <1>   0.3430 
 13 C       -4.5490    -4.4730    -0.6560 C.3   1 <1>   0.3430 
 14 C       -5.2020    -7.0680     0.1170 C.3   1 <1>   0.2000 
 15 C       -6.0310    -4.8400    -0.8070 C.3   1 <1>  -0.1600 
 16 O       -4.5970    -7.3780    -1.0970 O.3   1 <1>  -0.6800 
 17 C       -6.4350    -6.1790    -0.1330 C.3   1 <1>  -0.0800 
 18 C       -7.5310    -6.9160    -0.9210 C.3   1 <1>   0.1200 
 19 O       -8.6230    -6.0810    -1.0670 O.3   1 <1>  -0.6800 
 20 H       -0.6920     0.1190    -3.0250 H     1 <1>   0.0800 
 21 H       -1.6480    -1.3500    -2.8840 H     1 <1>   0.0800 
 22 H       -0.1620    -1.1550    -1.9330 H     1 <1>   0.0800 
 23 H       -1.7740    -2.7120    -1.0170 H     1 <1>   0.1500 
 24 H       -3.6860    -0.1710     2.7310 H     1 <1>   0.1500 
 25 H       -3.2880     1.8750     1.6490 H     1 <1>   0.0800 
 26 H       -3.4040     1.7970    -0.0920 H     1 <1>   0.0800 
 27 H       -1.8380     1.8720     0.6760 H     1 <1>   0.0800 
 28 H       -3.6150    -2.5970     2.8350 H     1 <1>   0.1500 
 29 H       -2.3300    -4.6640     1.9090 H     1 <1>   0.0800 
 30 H       -2.0180    -4.7270     0.1880 H     1 <1>   0.0800 
 31 H       -4.6730    -4.3240     1.3610 H     1 <1>   0.4500 
 32 H       -3.2100    -6.7910     0.8380 H     1 <1>   0.0800 
 33 H       -4.4320    -6.4530     2.0270 H     1 <1>   0.0800 
 34 H       -4.4220    -3.4180    -0.8410 H     1 <1>   0.0800 
 35 H       -3.9760    -5.0170    -1.3910 H     1 <1>   0.0800 
 36 H       -5.4750    -7.9960     0.5910 H     1 <1>   0.0800 
 37 H       -6.6410    -4.0440    -0.4160 H     1 <1>   0.0800 
 38 H       -6.2360    -4.8900    -1.8630 H     1 <1>   0.0800 
 39 H       -5.1690    -7.9530    -1.6470 H     1 <1>   0.4000 
 40 H       -6.8460    -5.9520     0.8360 H     1 <1>   0.0800 
 41 H       -7.8540    -7.8130    -0.4180 H     1 <1>   0.0800 
 42 H       -7.1870    -7.1690    -1.9100 H     1 <1>   0.0800 
 43 H       -9.1780    -6.0630    -0.2620 H     1 <1>   0.4000 
@<TRIPOS>BOND
  1   1   2  1   
  2   1   3  1   
  3   2   4  ar  
  4   2   5  ar  
  5   3  20  1   
  6   3  21  1   
  7   3  22  1   
  8   4   6  ar  
  9   4   7  1   
 10   5   8  ar  
 11   5  23  1   
 12   6   9  ar  
 13   6  24  1   
 14   7  25  1   
 15   7  26  1   
 16   7  27  1   
 17   8   9  ar  
 18   8  10  1   
 19   9  28  1   
 20  10  11  1   
 21  10  29  1   
 22  10  30  1   
 23  11  12  1   
 24  11  13  1   
 25  11  31  1   
 26  12  14  1   
 27  12  32  1   
 28  12  33  1   
 29  13  15  1   
 30  13  34  1   
 31  13  35  1   
 32  14  16  1   
 33  14  17  1   
 34  14  36  1   
 35  15  17  1   
 36  15  37  1   
 37  15  38  1   
 38  16  39  1   
 39  17  18  1   
 40  17  40  1   
 41  18  19  1   
 42  18  41  1   
 43  18  42  1   
 44  19  43  1   
@<TRIPOS>SUBSTRUCTURE
  1 ****  13 GROUP 4 **** **** 0

# MOE 2024.06 (io_trps.svl 2023.06)
