@<TRIPOS>MOLECULE
NONAME
57 61 1 0 0 
SMALL
USER_CHARGES


@<TRIPOS>ATOM
  1 O       -1.6280     1.6310     2.8280 O.2   1 <1>  -0.5700 
  2 C       -2.2720     1.5680     1.8050 C.2   1 <1>   0.5690 
  3 N       -2.9080     0.4070     1.4220 N.am  1 <1>  -0.6600 
  4 C       -2.3770     2.8600     0.9950 C.3   1 <1>   0.1810 
  5 C       -2.8290    -0.8210     2.2590 C.3   1 <1>   0.1400 
  6 C       -3.6690     0.2310     0.1570 C.3   1 <1>   0.1400 
  7 O       -1.7920     2.7320    -0.2960 O.3   1 <1>  -0.4300 
  8 C       -4.2360    -1.3200     2.5940 C.3   1 <1>  -0.1600 
  9 C       -5.1010    -0.2020     0.4720 C.3   1 <1>  -0.1600 
 10 C       -1.3050     3.8310    -0.9010 C.2   1 <1>   0.5860 
 11 C       -5.2080    -1.4260     1.4030 C.3   1 <1>   0.4240 
 12 N       -0.1090     3.7430    -1.3770 N.2   1 <1>  -0.6520 
 13 C       -2.1250     4.9940    -0.9860 C.2   1 <1>  -0.1360 
 14 O       -6.4720    -1.3390     2.0140 O.3   1 <1>  -0.5600 
 15 C       -5.0630    -2.7720     0.6380 C.ar  1 <1>  -0.1440 
 16 N        0.3520     4.8960    -1.9800 N.pl3 1 <1>   0.5050 
 17 C       -1.6440     6.1160    -1.5860 C.2   1 <1>  -0.1050 
 18 C       -7.5790    -1.7670     1.2870 C.3   1 <1>   0.1200 
 19 C       -6.1420    -3.6420     0.5140 C.ar  1 <1>  -0.1440 
 20 C       -3.8650    -3.1540     0.0440 C.ar  1 <1>  -0.1500 
 21 C       -0.3350     6.0590    -2.1050 C.2   1 <1>   0.1420 
 22 C        1.5110     5.1860    -2.5630 C.2   1 <1>   0.0370 
 23 C       -7.4830    -3.2770     1.1200 C.3   1 <1>  -0.0170 
 24 C       -6.0160    -4.8480    -0.1560 C.ar  1 <1>  -0.1500 
 25 C       -3.7220    -4.3480    -0.6430 C.ar  1 <1>   0.0820 
 26 N        0.3810     6.9670    -2.7220 N.2   1 <1>  -0.3380 
 27 N        1.5500     6.4030    -3.0080 N.2   1 <1>  -0.3380 
 28 C       -4.8100    -5.2270    -0.7350 C.ar  1 <1>   0.0820 
 29 O       -2.4840    -4.5540    -1.1750 O.3   1 <1>  -0.3620 
 30 O       -4.6710    -6.4290    -1.3660 O.3   1 <1>  -0.3620 
 31 C       -2.3120    -5.2820    -2.3710 C.3   1 <1>   0.0400 
 32 C       -5.6260    -7.4580    -1.2280 C.3   1 <1>   0.0400 
 33 H       -1.8630     3.6400     1.5280 H     1 <1>   0.0800 
 34 H       -3.4110     3.1260     0.8800 H     1 <1>   0.0800 
 35 H       -2.3100    -0.6180     3.1800 H     1 <1>   0.0800 
 36 H       -2.2600    -1.5720     1.7440 H     1 <1>   0.0800 
 37 H       -3.1750    -0.5010    -0.4570 H     1 <1>   0.0800 
 38 H       -3.7010     1.1430    -0.4090 H     1 <1>   0.0800 
 39 H       -4.6430    -0.6280     3.3100 H     1 <1>   0.0800 
 40 H       -4.1640    -2.2780     3.0750 H     1 <1>   0.0800 
 41 H       -5.6050    -0.4130    -0.4520 H     1 <1>   0.0800 
 42 H       -5.5930     0.6320     0.9400 H     1 <1>   0.0800 
 43 H       -3.1180     4.9610    -0.5800 H     1 <1>   0.1500 
 44 H       -2.2020     7.0310    -1.6880 H     1 <1>   0.1500 
 45 H       -7.5980    -1.2680     0.3340 H     1 <1>   0.0800 
 46 H       -8.4620    -1.5040     1.8420 H     1 <1>   0.0800 
 47 H       -2.9980    -2.5330     0.0880 H     1 <1>   0.1500 
 48 H        2.3060     4.4690    -2.6390 H     1 <1>   0.1500 
 49 H       -8.2850    -3.6130     0.4870 H     1 <1>   0.0800 
 50 H       -7.5870    -3.7490     2.0800 H     1 <1>   0.0800 
 51 H       -6.8770    -5.4850    -0.2180 H     1 <1>   0.1500 
 52 H       -1.3570    -5.0200    -2.7880 H     1 <1>   0.0800 
 53 H       -3.0990    -5.0220    -3.0570 H     1 <1>   0.0800 
 54 H       -2.3340    -6.3320    -2.1440 H     1 <1>   0.0800 
 55 H       -5.2370    -8.3400    -1.7040 H     1 <1>   0.0800 
 56 H       -6.5380    -7.1560    -1.7120 H     1 <1>   0.0800 
 57 H       -5.7860    -7.6480    -0.1810 H     1 <1>   0.0800 
@<TRIPOS>BOND
  1   1   2  2   
  2   2   3  am  
  3   2   4  1   
  4   3   5  1   
  5   3   6  1   
  6   4   7  1   
  7   4  33  1   
  8   4  34  1   
  9   5   8  1   
 10   5  35  1   
 11   5  36  1   
 12   6   9  1   
 13   6  37  1   
 14   6  38  1   
 15   7  10  1   
 16   8  11  1   
 17   8  39  1   
 18   8  40  1   
 19   9  11  1   
 20   9  41  1   
 21   9  42  1   
 22  10  12  2   
 23  10  13  1   
 24  11  14  1   
 25  11  15  1   
 26  12  16  1   
 27  13  17  2   
 28  13  43  1   
 29  14  18  1   
 30  15  19  ar  
 31  15  20  ar  
 32  16  21  1   
 33  16  22  1   
 34  17  21  1   
 35  17  44  1   
 36  18  23  1   
 37  18  45  1   
 38  18  46  1   
 39  19  23  1   
 40  19  24  ar  
 41  20  25  ar  
 42  20  47  1   
 43  21  26  2   
 44  22  27  2   
 45  22  48  1   
 46  23  49  1   
 47  23  50  1   
 48  24  28  ar  
 49  24  51  1   
 50  25  28  ar  
 51  25  29  1   
 52  26  27  1   
 53  28  30  1   
 54  29  31  1   
 55  30  32  1   
 56  31  52  1   
 57  31  53  1   
 58  31  54  1   
 59  32  55  1   
 60  32  56  1   
 61  32  57  1   
@<TRIPOS>SUBSTRUCTURE
  1 ****   6 GROUP 4 **** **** 0

# MOE 2024.06 (io_trps.svl 2023.06)
