@<TRIPOS>MOLECULE
NONAME
44 47 1 0 0 
SMALL
USER_CHARGES


@<TRIPOS>ATOM
  1 O        1.4490     0.0050     2.2360 O.3   1 <1>  -0.0190 
  2 N        0.6760     1.0110     1.9770 N.2   1 <1>  -0.4100 
  3 C        2.0940    -0.2030     1.1180 C.2   1 <1>   0.2980 
  4 C        0.8820     1.3660     0.7580 C.2   1 <1>   0.4620 
  5 N        1.8050     0.5990     0.1730 N.2   1 <1>  -0.5650 
  6 C        3.0680    -1.3880     1.0820 C.3   1 <1>   0.3700 
  7 C        0.2020     2.4440     0.0590 C.ar  1 <1>   0.0540 
  8 N        2.5040    -2.5490     0.3880 N.3   1 <1>  -0.8100 
  9 C        4.3570    -1.1260     0.3070 C.3   1 <1>  -0.1600 
 10 C       -0.8100     3.1820     0.6780 C.ar  1 <1>  -0.1500 
 11 C        0.5220     2.7830    -1.2570 C.ar  1 <1>  -0.1500 
 12 C        3.6140    -3.4300     0.0330 C.3   1 <1>   0.1100 
 13 C        1.4240    -3.2350     1.1190 C.3   1 <1>   0.2900 
 14 C        4.8150    -2.5070    -0.1650 C.3   1 <1>  -0.1600 
 15 C       -1.4700     4.2030     0.0180 C.ar  1 <1>  -0.1500 
 16 C       -0.1340     3.8030    -1.9230 C.ar  1 <1>  -0.1500 
 17 C        0.6000    -4.0840     0.1670 C.2   1 <1>   0.0070 
 18 C       -1.1330     4.5150    -1.2860 C.ar  1 <1>  -0.1500 
 19 N        0.4290    -5.3570     0.2910 N.2   1 <1>  -0.3380 
 20 N       -0.0480    -3.6000    -0.9000 N.pl3 1 <1>   0.0480 
 21 N       -0.3530    -5.7460    -0.7170 N.2   1 <1>  -0.3380 
 22 C       -0.6220    -4.6920    -1.4070 C.2   1 <1>   0.0360 
 23 C       -0.1280    -2.2170    -1.4280 C.3   1 <1>   0.0960 
 24 C       -1.1740    -1.3950    -0.6680 C.3   1 <1>  -0.2400 
 25 H        3.3250    -1.6700     2.0890 H     1 <1>   0.0800 
 26 H        4.1440    -0.5090    -0.5490 H     1 <1>   0.0800 
 27 H        5.0910    -0.6330     0.9180 H     1 <1>   0.0800 
 28 H       -1.0850     2.9540     1.6930 H     1 <1>   0.1500 
 29 H        1.2980     2.2410    -1.7690 H     1 <1>   0.1500 
 30 H        3.8150    -4.1250     0.8320 H     1 <1>   0.0800 
 31 H        3.3810    -3.9820    -0.8630 H     1 <1>   0.0800 
 32 H        1.8320    -3.8540     1.9000 H     1 <1>   0.0800 
 33 H        0.7660    -2.5160     1.5740 H     1 <1>   0.0800 
 34 H        5.6470    -2.8630     0.4170 H     1 <1>   0.0800 
 35 H        5.1040    -2.4810    -1.2020 H     1 <1>   0.0800 
 36 H       -2.2460     4.7560     0.5190 H     1 <1>   0.1500 
 37 H        0.1340     4.0440    -2.9380 H     1 <1>   0.1500 
 38 H       -1.6450     5.3100    -1.8020 H     1 <1>   0.1500 
 39 H       -1.2340    -4.6780    -2.2890 H     1 <1>   0.1500 
 40 H        0.8370    -1.7500    -1.3490 H     1 <1>   0.0800 
 41 H       -0.3880    -2.2620    -2.4700 H     1 <1>   0.0800 
 42 H       -0.9080    -1.3120     0.3700 H     1 <1>   0.0800 
 43 H       -2.1450    -1.8490    -0.7530 H     1 <1>   0.0800 
 44 H       -1.2220    -0.4030    -1.0810 H     1 <1>   0.0800 
@<TRIPOS>BOND
  1   1   2  1   
  2   1   3  1   
  3   2   4  2   
  4   3   5  2   
  5   3   6  1   
  6   4   5  1   
  7   4   7  1   
  8   6   8  1   
  9   6   9  1   
 10   6  25  1   
 11   7  10  ar  
 12   7  11  ar  
 13   8  12  1   
 14   8  13  1   
 15   9  14  1   
 16   9  26  1   
 17   9  27  1   
 18  10  15  ar  
 19  10  28  1   
 20  11  16  ar  
 21  11  29  1   
 22  12  14  1   
 23  12  30  1   
 24  12  31  1   
 25  13  17  1   
 26  13  32  1   
 27  13  33  1   
 28  14  34  1   
 29  14  35  1   
 30  15  18  ar  
 31  15  36  1   
 32  16  18  ar  
 33  16  37  1   
 34  17  19  2   
 35  17  20  1   
 36  18  38  1   
 37  19  21  1   
 38  20  22  1   
 39  20  23  1   
 40  21  22  2   
 41  22  39  1   
 42  23  24  1   
 43  23  40  1   
 44  23  41  1   
 45  24  42  1   
 46  24  43  1   
 47  24  44  1   
@<TRIPOS>SUBSTRUCTURE
  1 ****   5 GROUP 4 **** **** 0

# MOE 2024.06 (io_trps.svl 2023.06)
