@<TRIPOS>MOLECULE
NONAME
58 60 1 0 0 
SMALL
USER_CHARGES


@<TRIPOS>ATOM
  1 O       -1.6020    -1.1950    -2.5580 O.2   1 <1>  -0.5700 
  2 C       -2.1150    -0.1000    -2.6170 C.2   1 <1>   0.5690 
  3 N       -3.4330     0.0940    -2.2950 N.am  1 <1>  -0.6600 
  4 C       -1.2060     1.0870    -2.9050 C.3   1 <1>  -0.0990 
  5 C       -4.0670    -0.8370    -1.3350 C.3   1 <1>   0.3200 
  6 C       -4.2440     1.2920    -2.6810 C.3   1 <1>   0.1400 
  7 C       -0.9230     1.8550    -1.5970 C.3   1 <1>  -0.0800 
  8 C       -3.3560    -0.6510    -0.0080 C.2   1 <1>  -0.3320 
  9 C       -4.8090     1.1580    -4.1020 C.3   1 <1>   0.1200 
 10 C       -0.2450     3.2110    -1.8230 C.3   1 <1>  -0.1600 
 11 C       -0.0610     1.0340    -0.6270 C.3   1 <1>  -0.1600 
 12 N       -2.4690    -1.5430     0.4650 N.pl3 1 <1>   0.0330 
 13 C       -3.3900     0.3600     0.8860 C.2   1 <1>   0.0770 
 14 O       -3.7840     1.2680    -5.0330 O.3   1 <1>  -0.6800 
 15 C       -0.0560     3.9440    -0.4910 C.3   1 <1>   0.3430 
 16 C        0.0640     1.7610     0.7070 C.3   1 <1>   0.3430 
 17 C       -2.0100    -1.0110     1.6190 C.2   1 <1>   0.0060 
 18 N       -2.5260     0.1430     1.8980 N.2   1 <1>  -0.5650 
 19 N        0.7000     3.0920     0.4800 N.4   1 <1>  -0.9590 
 20 C       -0.9880    -1.7150     2.4850 C.3   1 <1>  -0.0600 
 21 C        0.9070     3.7950     1.7730 C.3   1 <1>   0.4860 
 22 C        1.7510     5.0300     1.5250 C.ar  1 <1>  -0.1440 
 23 C        1.1700     6.2900     1.5570 C.ar  1 <1>  -0.1500 
 24 C        3.1070     4.9100     1.2560 C.ar  1 <1>  -0.1500 
 25 C        1.9360     7.4160     1.3100 C.ar  1 <1>  -0.1500 
 26 C        3.8710     6.0370     1.0090 C.ar  1 <1>  -0.1500 
 27 C        3.2850     7.2900     1.0340 C.ar  1 <1>  -0.1500 
 28 H       -1.6680     1.7280    -3.6290 H     1 <1>   0.0800 
 29 H       -0.2870     0.7300    -3.3340 H     1 <1>   0.0800 
 30 H       -3.9590    -1.8490    -1.6890 H     1 <1>   0.0800 
 31 H       -5.1170    -0.6250    -1.2310 H     1 <1>   0.0800 
 32 H       -3.6560     2.1890    -2.6190 H     1 <1>   0.0800 
 33 H       -5.0640     1.4050    -1.9930 H     1 <1>   0.0800 
 34 H       -1.8700     2.0420    -1.1190 H     1 <1>   0.0800 
 35 H       -5.5180     1.9440    -4.2990 H     1 <1>   0.0800 
 36 H       -5.2890     0.2030    -4.2270 H     1 <1>   0.0800 
 37 H       -0.8570     3.8180    -2.4680 H     1 <1>   0.0800 
 38 H        0.7080     3.0820    -2.3080 H     1 <1>   0.0800 
 39 H        0.9140     0.8490    -1.0440 H     1 <1>   0.0800 
 40 H       -0.5130     0.0790    -0.4470 H     1 <1>   0.0800 
 41 H       -2.1740    -2.4180     0.0160 H     1 <1>   0.2700 
 42 H       -3.9920     1.2520     0.8470 H     1 <1>   0.1500 
 43 H       -4.0950     1.0180    -5.9260 H     1 <1>   0.4000 
 44 H       -1.0230     4.1850    -0.0800 H     1 <1>   0.0800 
 45 H        0.4760     4.8670    -0.6640 H     1 <1>   0.0800 
 46 H        0.6580     1.1700     1.3850 H     1 <1>   0.0800 
 47 H       -0.9170     1.8840     1.1390 H     1 <1>   0.0800 
 48 H        1.6290     2.9370     0.0740 H     1 <1>   0.4500 
 49 H       -0.0850    -1.8890     1.9300 H     1 <1>   0.0800 
 50 H       -1.3820    -2.6570     2.8220 H     1 <1>   0.0800 
 51 H       -0.7600    -1.1140     3.3470 H     1 <1>   0.0800 
 52 H        1.4180     3.1500     2.4690 H     1 <1>   0.0800 
 53 H       -0.0420     4.0740     2.2010 H     1 <1>   0.0800 
 54 H        0.1230     6.4130     1.7750 H     1 <1>   0.1500 
 55 H        3.5880     3.9460     1.2390 H     1 <1>   0.1500 
 56 H        1.4860     8.3950     1.3350 H     1 <1>   0.1500 
 57 H        4.9240     5.9450     0.8010 H     1 <1>   0.1500 
 58 H        3.8800     8.1670     0.8430 H     1 <1>   0.1500 
@<TRIPOS>BOND
  1   1   2  2   
  2   2   3  am  
  3   2   4  1   
  4   3   5  1   
  5   3   6  1   
  6   4   7  1   
  7   4  28  1   
  8   4  29  1   
  9   5   8  1   
 10   5  30  1   
 11   5  31  1   
 12   6   9  1   
 13   6  32  1   
 14   6  33  1   
 15   7  10  1   
 16   7  11  1   
 17   7  34  1   
 18   8  12  1   
 19   8  13  2   
 20   9  14  1   
 21   9  35  1   
 22   9  36  1   
 23  10  15  1   
 24  10  37  1   
 25  10  38  1   
 26  11  16  1   
 27  11  39  1   
 28  11  40  1   
 29  12  17  1   
 30  12  41  1   
 31  13  18  1   
 32  13  42  1   
 33  14  43  1   
 34  15  19  1   
 35  15  44  1   
 36  15  45  1   
 37  16  19  1   
 38  16  46  1   
 39  16  47  1   
 40  17  18  2   
 41  17  20  1   
 42  19  21  1   
 43  19  48  1   
 44  20  49  1   
 45  20  50  1   
 46  20  51  1   
 47  21  22  1   
 48  21  52  1   
 49  21  53  1   
 50  22  23  ar  
 51  22  24  ar  
 52  23  25  ar  
 53  23  54  1   
 54  24  26  ar  
 55  24  55  1   
 56  25  27  ar  
 57  25  56  1   
 58  26  27  ar  
 59  26  57  1   
 60  27  58  1   
@<TRIPOS>SUBSTRUCTURE
  1 ****   7 GROUP 4 **** **** 0

# MOE 2024.06 (io_trps.svl 2023.06)
