@<TRIPOS>MOLECULE
NONAME
41 42 1 0 0 
SMALL
USER_CHARGES


@<TRIPOS>ATOM
  1 S        0.1530     1.1210    -1.3550 S.o2  1 <1>   1.3330 
  2 O       -0.0610     0.0470    -2.2890 O.2   1 <1>  -0.6500 
  3 O        0.5420     2.4410    -1.8050 O.2   1 <1>  -0.6500 
  4 N        1.3800     0.6410    -0.2830 N.am  1 <1>  -0.8490 
  5 C       -1.2940     1.3160    -0.2950 C.3   1 <1>  -0.0550 
  6 C        2.7010     0.7280    -0.9290 C.3   1 <1>   0.1160 
  7 C        1.2170    -0.7500     0.1820 C.3   1 <1>   0.1160 
  8 C       -1.3350     2.5530     0.6440 C.3   1 <1>  -0.0800 
  9 C       -1.6780     3.8490    -0.1120 C.3   1 <1>   0.2000 
 10 C       -0.0150     2.8660     1.3610 C.3   1 <1>   0.3430 
 11 O       -2.7620     4.4640     0.4960 O.3   1 <1>  -0.6800 
 12 C       -0.4410     4.7550    -0.0310 C.3   1 <1>   0.3430 
 13 N        0.6460     3.8910     0.5180 N.4   1 <1>  -0.9590 
 14 C        1.7850     4.6080     1.1490 C.3   1 <1>   0.4860 
 15 C        2.3340     5.6390     0.1890 C.ar  1 <1>  -0.1440 
 16 C        2.3150     6.9800     0.5030 C.ar  1 <1>   0.1600 
 17 C        2.8700     5.2910    -1.0310 C.ar  1 <1>   0.1600 
 18 N        2.7710     7.8950    -0.3200 N.ar  1 <1>  -0.6200 
 19 N        3.3350     6.1860    -1.8690 N.ar  1 <1>  -0.6200 
 20 C        3.2600     7.4440    -1.4640 C.ar  1 <1>   0.4700 
 21 H       -2.1650     1.3510    -0.9210 H     1 <1>   0.0800 
 22 H       -1.4000     0.4320     0.3030 H     1 <1>   0.0800 
 23 H        3.4760     0.4300    -0.2430 H     1 <1>   0.0800 
 24 H        2.9030     1.7360    -1.2470 H     1 <1>   0.0800 
 25 H        2.7390     0.0860    -1.7960 H     1 <1>   0.0800 
 26 H        2.0100    -1.0090     0.8640 H     1 <1>   0.0800 
 27 H        1.2450    -1.4360    -0.6510 H     1 <1>   0.0800 
 28 H        0.2820    -0.8770     0.6970 H     1 <1>   0.0800 
 29 H       -2.0880     2.3490     1.3860 H     1 <1>   0.0800 
 30 H       -1.9440     3.6700    -1.1420 H     1 <1>   0.0800 
 31 H        0.6000     1.9900     1.4870 H     1 <1>   0.0800 
 32 H       -0.2290     3.2840     2.3320 H     1 <1>   0.0800 
 33 H       -2.6720     4.5560     1.4650 H     1 <1>   0.4000 
 34 H       -0.6400     5.5830     0.6290 H     1 <1>   0.0800 
 35 H       -0.1750     5.1250    -1.0090 H     1 <1>   0.0800 
 36 H        1.0130     3.3900    -0.3190 H     1 <1>   0.4500 
 37 H        1.4560     5.0950     2.0530 H     1 <1>   0.0800 
 38 H        2.5630     3.9070     1.4050 H     1 <1>   0.0800 
 39 H        1.9190     7.3250     1.4440 H     1 <1>   0.1500 
 40 H        2.9210     4.2600    -1.3420 H     1 <1>   0.1500 
 41 H        3.6410     8.1880    -2.1460 H     1 <1>   0.1500 
@<TRIPOS>BOND
  1   1   2  2   
  2   1   3  2   
  3   1   4  am  
  4   1   5  1   
  5   4   6  1   
  6   4   7  1   
  7   5   8  1   
  8   5  21  1   
  9   5  22  1   
 10   6  23  1   
 11   6  24  1   
 12   6  25  1   
 13   7  26  1   
 14   7  27  1   
 15   7  28  1   
 16   8   9  1   
 17   8  10  1   
 18   8  29  1   
 19   9  11  1   
 20   9  12  1   
 21   9  30  1   
 22  10  13  1   
 23  10  31  1   
 24  10  32  1   
 25  11  33  1   
 26  12  13  1   
 27  12  34  1   
 28  12  35  1   
 29  13  14  1   
 30  13  36  1   
 31  14  15  1   
 32  14  37  1   
 33  14  38  1   
 34  15  16  ar  
 35  15  17  ar  
 36  16  18  ar  
 37  16  39  1   
 38  17  19  ar  
 39  17  40  1   
 40  18  20  ar  
 41  19  20  ar  
 42  20  41  1   
@<TRIPOS>SUBSTRUCTURE
  1 ****  13 GROUP 4 **** **** 0

# MOE 2024.06 (io_trps.svl 2023.06)
