@<TRIPOS>MOLECULE
NONAME
52 54 1 0 0 
SMALL
USER_CHARGES


@<TRIPOS>ATOM
  1 O        0.1330     0.1780    -0.2990 O.3   1 <1>  -0.5600 
  2 C        1.3350    -0.5080    -0.5100 C.3   1 <1>   0.3440 
  3 C        0.1290     1.5290    -0.6800 C.3   1 <1>   0.2000 
  4 C        1.1880    -1.9510    -0.0510 C.ar  1 <1>  -0.1440 
  5 C        2.4660     0.1680     0.2980 C.3   1 <1>   0.3430 
  6 C       -1.3060     2.1080    -0.5200 C.3   1 <1>   0.0000 
  7 C        1.1870     2.2900     0.1520 C.3   1 <1>   0.3430 
  8 C        0.4150    -2.2810     1.0550 C.ar  1 <1>  -0.1500 
  9 C        1.8540    -2.9600    -0.7340 C.ar  1 <1>  -0.1500 
 10 N        2.5600     1.6590     0.0650 N.4   1 <1>  -0.9590 
 11 C       -2.2810     1.3240    -1.4160 C.3   1 <1>  -0.2400 
 12 C       -1.8070     2.0190     0.9350 C.3   1 <1>  -0.2400 
 13 C       -1.3470     3.5830    -0.9600 C.3   1 <1>  -0.2400 
 14 C        0.3180    -3.5950     1.4770 C.ar  1 <1>  -0.1500 
 15 C        1.7570    -4.2750    -0.3110 C.ar  1 <1>  -0.1500 
 16 C        3.5330     2.2970     1.0010 C.3   1 <1>   0.4860 
 17 C        0.9910    -4.5920     0.7950 C.ar  1 <1>  -0.1500 
 18 C        3.6280     3.7710     0.6880 C.ar  1 <1>  -0.1430 
 19 C        3.0040     4.7110     1.4760 C.ar  1 <1>   0.1600 
 20 C        4.3290     4.2360    -0.4010 C.ar  1 <1>   0.1600 
 21 N        3.0390     5.9900     1.1900 N.ar  1 <1>  -0.6200 
 22 N        4.3760     5.5100    -0.7040 N.ar  1 <1>  -0.6200 
 23 C        3.7280     6.3250     0.1120 C.ar  1 <1>   0.4770 
 24 C        3.7880     7.7950    -0.2240 C.3   1 <1>  -0.0970 
 25 H        1.5520    -0.4860    -1.5640 H     1 <1>   0.0800 
 26 H        0.3930     1.5780    -1.7230 H     1 <1>   0.0800 
 27 H        3.3990    -0.3080     0.0490 H     1 <1>   0.0800 
 28 H        2.2720    -0.0250     1.3400 H     1 <1>   0.0800 
 29 H        0.8590     2.3030     1.1780 H     1 <1>   0.0800 
 30 H        1.2320     3.3110    -0.1900 H     1 <1>   0.0800 
 31 H       -0.1250    -1.5200     1.5930 H     1 <1>   0.1500 
 32 H        2.4510    -2.7420    -1.6020 H     1 <1>   0.1500 
 33 H        2.8970     1.8150    -0.8940 H     1 <1>   0.4500 
 34 H       -3.2760     1.7280    -1.3440 H     1 <1>   0.0800 
 35 H       -2.3240     0.2900    -1.1220 H     1 <1>   0.0800 
 36 H       -1.9750     1.3680    -2.4470 H     1 <1>   0.0800 
 37 H       -2.8220     2.3730     1.0010 H     1 <1>   0.0800 
 38 H       -1.2100     2.6130     1.6010 H     1 <1>   0.0800 
 39 H       -1.7950     0.9990     1.2780 H     1 <1>   0.0800 
 40 H       -2.3580     3.9520    -0.9270 H     1 <1>   0.0800 
 41 H       -0.9920     3.6910    -1.9700 H     1 <1>   0.0800 
 42 H       -0.7560     4.2100    -0.3170 H     1 <1>   0.0800 
 43 H       -0.2840    -3.8440     2.3340 H     1 <1>   0.1500 
 44 H        2.2730    -5.0550    -0.8450 H     1 <1>   0.1500 
 45 H        3.2090     2.1610     2.0200 H     1 <1>   0.0800 
 46 H        4.5060     1.8440     0.8920 H     1 <1>   0.0800 
 47 H        0.9140    -5.6150     1.1230 H     1 <1>   0.1500 
 48 H        2.4560     4.4240     2.3590 H     1 <1>   0.1500 
 49 H        4.8630     3.5620    -1.0500 H     1 <1>   0.1500 
 50 H        2.9790     8.3210     0.2480 H     1 <1>   0.0800 
 51 H        3.7180     7.9320    -1.2870 H     1 <1>   0.0800 
 52 H        4.7190     8.2010     0.1220 H     1 <1>   0.0800 
@<TRIPOS>BOND
  1   1   2  1   
  2   1   3  1   
  3   2   4  1   
  4   2   5  1   
  5   2  25  1   
  6   3   6  1   
  7   3   7  1   
  8   3  26  1   
  9   4   8  ar  
 10   4   9  ar  
 11   5  10  1   
 12   5  27  1   
 13   5  28  1   
 14   6  11  1   
 15   6  12  1   
 16   6  13  1   
 17   7  10  1   
 18   7  29  1   
 19   7  30  1   
 20   8  14  ar  
 21   8  31  1   
 22   9  15  ar  
 23   9  32  1   
 24  10  16  1   
 25  10  33  1   
 26  11  34  1   
 27  11  35  1   
 28  11  36  1   
 29  12  37  1   
 30  12  38  1   
 31  12  39  1   
 32  13  40  1   
 33  13  41  1   
 34  13  42  1   
 35  14  17  ar  
 36  14  43  1   
 37  15  17  ar  
 38  15  44  1   
 39  16  18  1   
 40  16  45  1   
 41  16  46  1   
 42  17  47  1   
 43  18  19  ar  
 44  18  20  ar  
 45  19  21  ar  
 46  19  48  1   
 47  20  22  ar  
 48  20  49  1   
 49  21  23  ar  
 50  22  23  ar  
 51  23  24  1   
 52  24  50  1   
 53  24  51  1   
 54  24  52  1   
@<TRIPOS>SUBSTRUCTURE
  1 ****   7 GROUP 4 **** **** 0

# MOE 2024.06 (io_trps.svl 2023.06)
