@<TRIPOS>MOLECULE
NONAME
49 51 1 0 0 
SMALL
USER_CHARGES


@<TRIPOS>ATOM
  1 CL       0.0560     0.9740     0.7180 Cl    1 <1>  -0.1770 
  2 C        1.2510    -0.2780     0.5130 C.ar  1 <1>   0.1770 
  3 C        1.6440    -0.6410    -0.7600 C.ar  1 <1>  -0.1500 
  4 C        1.7880    -0.8960     1.6230 C.ar  1 <1>  -0.1500 
  5 C        2.5910    -1.6380    -0.9220 C.ar  1 <1>  -0.1500 
  6 C        2.7340    -1.8910     1.4520 C.ar  1 <1>  -0.1500 
  7 C        3.1520    -2.2820     0.1820 C.ar  1 <1>  -0.1430 
  8 C        4.2200    -3.4040     0.0760 C.3   1 <1>   0.2040 
  9 C        3.7500    -4.6340     0.9220 C.2   1 <1>   0.5690 
 10 C        5.5420    -2.7710     0.6100 C.3   1 <1>  -0.1600 
 11 C        4.5090    -3.8480    -1.3890 C.3   1 <1>  -0.1600 
 12 O        4.4930    -5.0600     1.7820 O.2   1 <1>  -0.5700 
 13 N        2.5350    -5.2690     0.7410 N.am  1 <1>  -0.6600 
 14 C        6.8150    -3.6230     0.4270 C.3   1 <1>  -0.1600 
 15 C        5.7060    -4.8030    -1.5080 C.3   1 <1>  -0.1600 
 16 C        2.2510    -6.5370     1.4820 C.3   1 <1>   0.3200 
 17 C        1.4370    -4.8740    -0.1930 C.3   1 <1>   0.1400 
 18 C        6.9800    -4.1160    -1.0120 C.3   1 <1>  -0.1600 
 19 C        2.9620    -7.7020     0.8170 C.2   1 <1>   0.0060 
 20 C        0.2760    -4.2310     0.5760 C.3   1 <1>   0.1200 
 21 N        2.3790    -8.6850     0.2080 N.2   1 <1>  -0.5650 
 22 N        4.3090    -7.7900     0.8200 N.pl3 1 <1>   0.0330 
 23 O       -0.3390    -3.2830    -0.2260 O.3   1 <1>  -0.6800 
 24 C        3.4030    -9.4550    -0.2090 C.2   1 <1>   0.0770 
 25 C        4.5910    -8.9240     0.1550 C.2   1 <1>  -0.3020 
 26 H        1.2130    -0.1440    -1.6110 H     1 <1>   0.1500 
 27 H        1.4690    -0.5980     2.6060 H     1 <1>   0.1500 
 28 H        2.8720    -1.8910    -1.9280 H     1 <1>   0.1500 
 29 H        3.1470    -2.3620     2.3300 H     1 <1>   0.1500 
 30 H        5.4380    -2.5410     1.6550 H     1 <1>   0.0800 
 31 H        5.6970    -1.8360     0.0980 H     1 <1>   0.0800 
 32 H        4.7400    -2.9840    -1.9850 H     1 <1>   0.0800 
 33 H        3.6560    -4.3270    -1.8270 H     1 <1>   0.0800 
 34 H        6.7900    -4.4710     1.0870 H     1 <1>   0.0800 
 35 H        7.6760    -3.0380     0.7030 H     1 <1>   0.0800 
 36 H        5.8350    -5.0890    -2.5380 H     1 <1>   0.0800 
 37 H        5.5270    -5.7000    -0.9410 H     1 <1>   0.0800 
 38 H        1.1940    -6.7350     1.4960 H     1 <1>   0.0800 
 39 H        2.5810    -6.4500     2.5030 H     1 <1>   0.0800 
 40 H        1.0830    -5.7460    -0.7170 H     1 <1>   0.0800 
 41 H        1.7920    -4.1810    -0.9260 H     1 <1>   0.0800 
 42 H        7.8080    -4.8030    -1.0660 H     1 <1>   0.0800 
 43 H        7.2070    -3.2790    -1.6510 H     1 <1>   0.0800 
 44 H        0.6240    -3.7320     1.4630 H     1 <1>   0.0800 
 45 H       -0.4590    -4.9710     0.8410 H     1 <1>   0.0800 
 46 H        4.9410    -7.0930     1.2380 H     1 <1>   0.2700 
 47 H        0.2410    -2.4990    -0.3230 H     1 <1>   0.4000 
 48 H        3.2290   -10.3660    -0.7580 H     1 <1>   0.1500 
 49 H        5.5910    -9.2780    -0.0170 H     1 <1>   0.1500 
@<TRIPOS>BOND
  1   1   2  1   
  2   2   3  ar  
  3   2   4  ar  
  4   3   5  ar  
  5   3  26  1   
  6   4   6  ar  
  7   4  27  1   
  8   5   7  ar  
  9   5  28  1   
 10   6   7  ar  
 11   6  29  1   
 12   7   8  1   
 13   8   9  1   
 14   8  10  1   
 15   8  11  1   
 16   9  12  2   
 17   9  13  am  
 18  10  14  1   
 19  10  30  1   
 20  10  31  1   
 21  11  15  1   
 22  11  32  1   
 23  11  33  1   
 24  13  16  1   
 25  13  17  1   
 26  14  18  1   
 27  14  34  1   
 28  14  35  1   
 29  15  18  1   
 30  15  36  1   
 31  15  37  1   
 32  16  19  1   
 33  16  38  1   
 34  16  39  1   
 35  17  20  1   
 36  17  40  1   
 37  17  41  1   
 38  18  42  1   
 39  18  43  1   
 40  19  21  2   
 41  19  22  1   
 42  20  23  1   
 43  20  44  1   
 44  20  45  1   
 45  21  24  1   
 46  22  25  1   
 47  22  46  1   
 48  23  47  1   
 49  24  25  2   
 50  24  48  1   
 51  25  49  1   
@<TRIPOS>SUBSTRUCTURE
  1 ****   9 GROUP 4 **** **** 0

# MOE 2024.06 (io_trps.svl 2023.06)
