@<TRIPOS>MOLECULE
NONAME
47 49 1 0 0 
SMALL
USER_CHARGES


@<TRIPOS>ATOM
  1 CL       1.5850    -0.0190    -1.9010 Cl    1 <1>  -0.1230 
  2 C        1.7030    -1.5110    -0.9880 C.2   1 <1>   0.1230 
  3 C        2.4040    -1.7100     0.1520 C.2   1 <1>  -0.3020 
  4 C        1.0760    -2.6980    -1.3330 C.2   1 <1>  -0.1500 
  5 N        2.2360    -3.0000     0.5400 N.pl3 1 <1>   0.0480 
  6 C        1.4070    -3.6260    -0.3720 C.2   1 <1>  -0.2370 
  7 C        2.8630    -3.5880     1.7410 C.3   1 <1>   0.0160 
  8 C        0.9980    -5.0060    -0.3020 C.2   1 <1>   0.7150 
  9 O        1.6240    -5.8300     0.3440 O.2   1 <1>  -0.5700 
 10 N       -0.1340    -5.4500    -0.9470 N.am  1 <1>  -0.6600 
 11 C       -0.2710    -6.8930    -1.2690 C.3   1 <1>   0.1400 
 12 C       -1.4310    -4.7430    -0.7720 C.3   1 <1>   0.1400 
 13 C       -1.0190    -7.5990    -0.1160 C.3   1 <1>   0.4230 
 14 C       -2.2050    -5.4250     0.3650 C.3   1 <1>  -0.1600 
 15 N       -1.0470    -9.1170    -0.2340 N.4   1 <1>  -0.9590 
 16 C       -2.4130    -6.9550     0.1570 C.3   1 <1>   0.0000 
 17 C       -2.0910    -9.7770     0.6160 C.3   1 <1>   0.3430 
 18 C       -1.1070    -9.6590    -1.6310 C.3   1 <1>   0.2630 
 19 C       -3.0090    -7.5590     1.4630 C.3   1 <1>  -0.1600 
 20 C       -3.3660    -7.2110    -1.0460 C.3   1 <1>   0.1200 
 21 C       -2.4160    -8.9290     1.8440 C.3   1 <1>  -0.1600 
 22 O       -4.5450    -6.4930    -0.9280 O.3   1 <1>  -0.6800 
 23 H        3.0060    -1.0010     0.6910 H     1 <1>   0.1500 
 24 H        0.4590    -2.8320    -2.2040 H     1 <1>   0.1500 
 25 H        3.3760    -2.8250     2.2950 H     1 <1>   0.0800 
 26 H        3.5650    -4.3450     1.4390 H     1 <1>   0.0800 
 27 H        2.1040    -4.0310     2.3590 H     1 <1>   0.0800 
 28 H       -0.7940    -6.9890    -2.2020 H     1 <1>   0.0800 
 29 H        0.7100    -7.3240    -1.3850 H     1 <1>   0.0800 
 30 H       -1.2670    -3.7080    -0.5200 H     1 <1>   0.0800 
 31 H       -1.9920    -4.7740    -1.6920 H     1 <1>   0.0800 
 32 H       -0.4330    -7.3790     0.7620 H     1 <1>   0.0800 
 33 H       -1.6520    -5.2520     1.2720 H     1 <1>   0.0800 
 34 H       -3.1510    -4.9250     0.4850 H     1 <1>   0.0800 
 35 H       -0.1390    -9.4130     0.1580 H     1 <1>   0.4500 
 36 H       -2.9960    -9.9100     0.0450 H     1 <1>   0.0800 
 37 H       -1.7490   -10.7530     0.9250 H     1 <1>   0.0800 
 38 H       -2.0160    -9.3490    -2.1190 H     1 <1>   0.0800 
 39 H       -1.0770   -10.7370    -1.6150 H     1 <1>   0.0800 
 40 H       -0.2670    -9.3090    -2.2100 H     1 <1>   0.0800 
 41 H       -2.8440    -6.8970     2.2970 H     1 <1>   0.0800 
 42 H       -4.0770    -7.6560     1.3710 H     1 <1>   0.0800 
 43 H       -3.6310    -8.2490    -1.1260 H     1 <1>   0.0800 
 44 H       -2.9200    -6.9020    -1.9730 H     1 <1>   0.0800 
 45 H       -3.1200    -9.4570     2.4640 H     1 <1>   0.0800 
 46 H       -1.5200    -8.7970     2.4270 H     1 <1>   0.0800 
 47 H       -5.0640    -6.7560    -0.1430 H     1 <1>   0.4000 
@<TRIPOS>BOND
  1   1   2  1   
  2   2   3  2   
  3   2   4  1   
  4   3   5  1   
  5   3  23  1   
  6   4   6  2   
  7   4  24  1   
  8   5   6  1   
  9   5   7  1   
 10   6   8  1   
 11   7  25  1   
 12   7  26  1   
 13   7  27  1   
 14   8   9  2   
 15   8  10  am  
 16  10  11  1   
 17  10  12  1   
 18  11  13  1   
 19  11  28  1   
 20  11  29  1   
 21  12  14  1   
 22  12  30  1   
 23  12  31  1   
 24  13  15  1   
 25  13  16  1   
 26  13  32  1   
 27  14  16  1   
 28  14  33  1   
 29  14  34  1   
 30  15  17  1   
 31  15  18  1   
 32  15  35  1   
 33  16  19  1   
 34  16  20  1   
 35  17  21  1   
 36  17  36  1   
 37  17  37  1   
 38  18  38  1   
 39  18  39  1   
 40  18  40  1   
 41  19  21  1   
 42  19  41  1   
 43  19  42  1   
 44  20  22  1   
 45  20  43  1   
 46  20  44  1   
 47  21  45  1   
 48  21  46  1   
 49  22  47  1   
@<TRIPOS>SUBSTRUCTURE
  1 ****  10 GROUP 4 **** **** 0

# MOE 2024.06 (io_trps.svl 2023.06)
