@<TRIPOS>MOLECULE
NONAME
57 59 1 0 0 
SMALL
USER_CHARGES


@<TRIPOS>ATOM
  1 S        0.2270    -0.5170     1.9520 S.o2  1 <1>   1.4470 
  2 O        0.2980    -1.9280     1.6210 O.2   1 <1>  -0.6500 
  3 O        0.0940    -0.1210     3.3340 O.2   1 <1>  -0.6500 
  4 N       -1.1630     0.0320     1.1430 N.am  1 <1>  -0.8490 
  5 C        1.5810     0.3890     1.1550 C.ar  1 <1>  -0.0090 
  6 C       -1.3130    -0.5750    -0.2000 C.3   1 <1>   0.1960 
  7 C       -2.3640    -0.0700     2.0070 C.3   1 <1>   0.1960 
  8 C        1.4360     1.7200     0.7830 C.ar  1 <1>  -0.1500 
  9 C        2.8030    -0.2240     0.9050 C.ar  1 <1>  -0.1500 
 10 C       -2.1930    -1.8370    -0.0870 C.3   1 <1>   0.4230 
 11 C       -3.6650    -0.2320     1.1990 C.3   1 <1>  -0.1600 
 12 C        2.4600     2.4210     0.1680 C.ar  1 <1>  -0.1440 
 13 C        3.8380     0.4600     0.2940 C.ar  1 <1>  -0.1500 
 14 N       -2.0230    -2.9350    -1.1100 N.4   1 <1>  -0.9590 
 15 C       -3.6620    -1.4730     0.2530 C.3   1 <1>   0.0000 
 16 C        3.6740     1.7890    -0.0820 C.ar  1 <1>   0.0830 
 17 C        2.2520     3.8770    -0.2250 C.3   1 <1>  -0.0970 
 18 C       -3.0880    -3.9870    -0.9910 C.3   1 <1>   0.3430 
 19 C       -1.9010    -2.4420    -2.5180 C.3   1 <1>   0.2630 
 20 C       -4.2430    -2.7210     0.9670 C.3   1 <1>  -0.1600 
 21 C       -4.5690    -1.1400    -0.9640 C.3   1 <1>   0.1200 
 22 O        4.6510     2.5140    -0.6860 O.3   1 <1>  -0.3630 
 23 C       -3.6670    -4.0600     0.4340 C.3   1 <1>  -0.1600 
 24 O       -3.9530    -0.2470    -1.8280 O.3   1 <1>  -0.6800 
 25 C        5.9430     1.9960    -0.8970 C.3   1 <1>   0.1200 
 26 C        6.7900     3.0880    -1.5440 C.3   1 <1>  -0.2400 
 27 H       -1.7670     0.1470    -0.8540 H     1 <1>   0.0800 
 28 H       -0.3460    -0.8220    -0.6040 H     1 <1>   0.0800 
 29 H       -2.2700    -0.9170     2.6690 H     1 <1>   0.0800 
 30 H       -2.4220     0.8120     2.6260 H     1 <1>   0.0800 
 31 H        0.5010     2.2160     0.9830 H     1 <1>   0.1500 
 32 H        2.9480    -1.2520     1.1940 H     1 <1>   0.1500 
 33 H       -1.8320    -2.2870     0.8220 H     1 <1>   0.0800 
 34 H       -4.5000    -0.2820     1.8750 H     1 <1>   0.0800 
 35 H       -3.7880     0.6750     0.6310 H     1 <1>   0.0800 
 36 H        4.7630    -0.0570     0.1200 H     1 <1>   0.1500 
 37 H       -1.1300    -3.3830    -0.8560 H     1 <1>   0.4500 
 38 H        1.2650     4.2160     0.0310 H     1 <1>   0.0800 
 39 H        2.3920     3.9920    -1.2850 H     1 <1>   0.0800 
 40 H        2.9690     4.4960     0.2840 H     1 <1>   0.0800 
 41 H       -3.8900    -3.7640    -1.6750 H     1 <1>   0.0800 
 42 H       -2.6830    -4.9470    -1.2690 H     1 <1>   0.0800 
 43 H       -2.8250    -1.9930    -2.8420 H     1 <1>   0.0800 
 44 H       -1.6690    -3.2600    -3.1810 H     1 <1>   0.0800 
 45 H       -1.1180    -1.7060    -2.5960 H     1 <1>   0.0800 
 46 H       -4.0260    -2.6730     2.0220 H     1 <1>   0.0800 
 47 H       -5.3170    -2.7260     0.8780 H     1 <1>   0.0800 
 48 H       -5.4870    -0.6900    -0.6220 H     1 <1>   0.0800 
 49 H       -4.8240    -2.0160    -1.5320 H     1 <1>   0.0800 
 50 H       -4.4390    -4.8100     0.4590 H     1 <1>   0.0800 
 51 H       -2.8880    -4.4010     1.0950 H     1 <1>   0.0800 
 52 H       -4.6200     0.2160    -2.3810 H     1 <1>   0.4000 
 53 H        6.3550     1.7090     0.0550 H     1 <1>   0.0800 
 54 H        5.8670     1.1410    -1.5460 H     1 <1>   0.0800 
 55 H        6.8460     3.9440    -0.8950 H     1 <1>   0.0800 
 56 H        6.3600     3.3790    -2.4860 H     1 <1>   0.0800 
 57 H        7.7850     2.7240    -1.7180 H     1 <1>   0.0800 
@<TRIPOS>BOND
  1   1   2  2   
  2   1   3  2   
  3   1   4  am  
  4   1   5  1   
  5   4   6  1   
  6   4   7  1   
  7   5   8  ar  
  8   5   9  ar  
  9   6  10  1   
 10   6  27  1   
 11   6  28  1   
 12   7  11  1   
 13   7  29  1   
 14   7  30  1   
 15   8  12  ar  
 16   8  31  1   
 17   9  13  ar  
 18   9  32  1   
 19  10  14  1   
 20  10  15  1   
 21  10  33  1   
 22  11  15  1   
 23  11  34  1   
 24  11  35  1   
 25  12  16  ar  
 26  12  17  1   
 27  13  16  ar  
 28  13  36  1   
 29  14  18  1   
 30  14  19  1   
 31  14  37  1   
 32  15  20  1   
 33  15  21  1   
 34  16  22  1   
 35  17  38  1   
 36  17  39  1   
 37  17  40  1   
 38  18  23  1   
 39  18  41  1   
 40  18  42  1   
 41  19  43  1   
 42  19  44  1   
 43  19  45  1   
 44  20  23  1   
 45  20  46  1   
 46  20  47  1   
 47  21  24  1   
 48  21  48  1   
 49  21  49  1   
 50  22  25  1   
 51  23  50  1   
 52  23  51  1   
 53  24  52  1   
 54  25  26  1   
 55  25  53  1   
 56  25  54  1   
 57  26  55  1   
 58  26  56  1   
 59  26  57  1   
@<TRIPOS>SUBSTRUCTURE
  1 ****   6 GROUP 4 **** **** 0

# MOE 2024.06 (io_trps.svl 2023.06)
