@<TRIPOS>MOLECULE
NONAME
50 51 1 0 0 
SMALL
USER_CHARGES


@<TRIPOS>ATOM
  1 S        0.2960    -0.5260     0.5390 S.3   1 <1>  -0.4600 
  2 C       -0.5960    -2.0880     0.3080 C.3   1 <1>   0.0700 
  3 C        0.5750    -0.4720     2.3260 C.3   1 <1>   0.0700 
  4 C       -1.0200    -2.1800    -1.1560 C.3   1 <1>   0.1400 
  5 C        1.3290     0.8180     2.6330 C.3   1 <1>  -0.2400 
  6 N       -1.6330    -3.5020    -1.4220 N.am  1 <1>  -0.7300 
  7 C       -2.9240    -3.8460    -1.1690 C.2   1 <1>   0.5690 
  8 O       -3.6880    -3.0640    -0.6530 O.2   1 <1>  -0.5700 
  9 C       -3.4020    -5.2590    -1.5290 C.3   1 <1>   0.2610 
 10 O       -2.3040    -6.0440    -1.9740 O.3   1 <1>  -0.5600 
 11 C       -4.1630    -5.8800    -0.3210 C.3   1 <1>   0.3640 
 12 C       -2.6190    -7.3930    -2.1990 C.3   1 <1>   0.1810 
 13 N       -3.8630    -7.3250    -0.0400 N.am  1 <1>  -0.6600 
 14 C       -5.6710    -5.7090    -0.5260 C.ar  1 <1>  -0.1440 
 15 C       -3.1260    -8.0670    -0.9280 C.2   1 <1>   0.5690 
 16 C       -4.3610    -7.8210     1.2730 C.3   1 <1>   0.2200 
 17 C       -6.3390    -4.6680     0.1030 C.ar  1 <1>  -0.1500 
 18 C       -6.3920    -6.5710    -1.3430 C.ar  1 <1>  -0.1500 
 19 O       -2.8560    -9.2350    -0.7700 O.2   1 <1>  -0.5700 
 20 C       -3.1840    -8.1550     2.1890 C.3   1 <1>  -0.2400 
 21 C       -5.3070    -9.0100     1.1010 C.3   1 <1>  -0.2400 
 22 C       -7.7000    -4.4940    -0.0760 C.ar  1 <1>  -0.1500 
 23 C       -7.7530    -6.3990    -1.5230 C.ar  1 <1>  -0.1500 
 24 C       -8.4090    -5.3600    -0.8890 C.ar  1 <1>  -0.1500 
 25 H        0.0770    -2.8820     0.5750 H     1 <1>   0.0800 
 26 H       -1.4530    -2.0720     0.9570 H     1 <1>   0.0800 
 27 H       -0.3880    -0.4940     2.8060 H     1 <1>   0.0800 
 28 H        1.1500    -1.3420     2.5930 H     1 <1>   0.0800 
 29 H       -0.1650    -2.0480    -1.7970 H     1 <1>   0.0800 
 30 H       -1.7340    -1.4030    -1.3700 H     1 <1>   0.0800 
 31 H        0.7470     1.6690     2.3240 H     1 <1>   0.0800 
 32 H        2.2700     0.8300     2.1130 H     1 <1>   0.0800 
 33 H        1.5160     0.8920     3.6890 H     1 <1>   0.0800 
 34 H       -1.0310    -4.2280    -1.8270 H     1 <1>   0.3700 
 35 H       -4.0780    -5.1660    -2.3600 H     1 <1>   0.0800 
 36 H       -3.8810    -5.3270     0.5590 H     1 <1>   0.0800 
 37 H       -3.3630    -7.4550    -2.9720 H     1 <1>   0.0800 
 38 H       -1.7240    -7.8870    -2.5310 H     1 <1>   0.0800 
 39 H       -4.9250    -7.0340     1.7460 H     1 <1>   0.0800 
 40 H       -5.8040    -3.9770     0.7330 H     1 <1>   0.1500 
 41 H       -5.9000    -7.3890    -1.8400 H     1 <1>   0.1500 
 42 H       -2.6220    -8.9860     1.8010 H     1 <1>   0.0800 
 43 H       -3.5460    -8.4220     3.1650 H     1 <1>   0.0800 
 44 H       -2.5360    -7.3040     2.2870 H     1 <1>   0.0800 
 45 H       -4.7900    -9.8670     0.7100 H     1 <1>   0.0800 
 46 H       -6.1150    -8.7500     0.4430 H     1 <1>   0.0800 
 47 H       -5.7240    -9.2800     2.0540 H     1 <1>   0.0800 
 48 H       -8.2070    -3.6820     0.4160 H     1 <1>   0.1500 
 49 H       -8.3020    -7.0750    -2.1550 H     1 <1>   0.1500 
 50 H       -9.4670    -5.2240    -1.0280 H     1 <1>   0.1500 
@<TRIPOS>BOND
  1   1   2  1   
  2   1   3  1   
  3   2   4  1   
  4   2  25  1   
  5   2  26  1   
  6   3   5  1   
  7   3  27  1   
  8   3  28  1   
  9   4   6  1   
 10   4  29  1   
 11   4  30  1   
 12   5  31  1   
 13   5  32  1   
 14   5  33  1   
 15   6   7  am  
 16   6  34  1   
 17   7   8  2   
 18   7   9  1   
 19   9  10  1   
 20   9  11  1   
 21   9  35  1   
 22  10  12  1   
 23  11  13  1   
 24  11  14  1   
 25  11  36  1   
 26  12  15  1   
 27  12  37  1   
 28  12  38  1   
 29  13  15  am  
 30  13  16  1   
 31  14  17  ar  
 32  14  18  ar  
 33  15  19  2   
 34  16  20  1   
 35  16  21  1   
 36  16  39  1   
 37  17  22  ar  
 38  17  40  1   
 39  18  23  ar  
 40  18  41  1   
 41  20  42  1   
 42  20  43  1   
 43  20  44  1   
 44  21  45  1   
 45  21  46  1   
 46  21  47  1   
 47  22  24  ar  
 48  22  48  1   
 49  23  24  ar  
 50  23  49  1   
 51  24  50  1   
@<TRIPOS>SUBSTRUCTURE
  1 ****  11 GROUP 4 **** **** 0

# MOE 2024.06 (io_trps.svl 2023.06)
