@<TRIPOS>MOLECULE
NONAME
65 67 1 0 0 
SMALL
USER_CHARGES


@<TRIPOS>ATOM
  1 F       -0.9680    -0.0140    -1.5340 F     1 <1>  -0.1900 
  2 C       -2.2270     0.3250    -1.4270 C.ar  1 <1>   0.1900 
  3 C       -2.6280     1.4990    -0.7790 C.ar  1 <1>   0.0830 
  4 C       -3.1450    -0.5400    -1.9910 C.ar  1 <1>  -0.1500 
  5 O       -1.8230     2.4290    -0.1900 O.3   1 <1>  -0.3630 
  6 C       -3.9860     1.7650    -0.7160 C.ar  1 <1>  -0.1500 
  7 C       -4.4940    -0.2440    -1.9100 C.ar  1 <1>  -0.1500 
  8 C       -0.4150     2.3400    -0.1950 C.3   1 <1>   0.0400 
  9 C       -4.9430     0.9110    -1.2670 C.ar  1 <1>   0.0530 
 10 C       -6.3460     1.2220    -1.1680 C.2   1 <1>   0.0870 
 11 O       -6.7620     2.4600    -1.2530 O.3   1 <1>  -0.0190 
 12 C       -7.4460     0.4520    -0.9630 C.2   1 <1>  -0.0860 
 13 N       -8.0590     2.5720    -1.1300 N.2   1 <1>  -0.4100 
 14 C       -8.4960     1.3720    -0.9640 C.2   1 <1>   0.3720 
 15 C       -7.5730    -0.9490    -0.7300 C.2   1 <1>   0.7160 
 16 N       -9.8490     1.0370    -0.8120 N.pl3 1 <1>  -0.8210 
 17 O       -7.4900    -1.7310    -1.6630 O.2   1 <1>  -0.5700 
 18 N       -7.7850    -1.4570     0.5390 N.am  1 <1>  -0.6600 
 19 C      -10.4390     0.4560    -2.0480 C.3   1 <1>   0.1290 
 20 C      -10.7040     2.1260    -0.2590 C.3   1 <1>   0.1290 
 21 C       -7.8360    -2.9170     0.7820 C.3   1 <1>   0.1400 
 22 C       -8.0540    -0.5780     1.7150 C.3   1 <1>   0.0600 
 23 C       -9.2520    -3.4260     0.5020 C.3   1 <1>  -0.1600 
 24 C       -9.2800    -4.9520     0.5300 C.3   1 <1>   0.3430 
 25 N      -10.6100    -5.4510     0.0870 N.4   1 <1>  -0.9590 
 26 C      -11.6800    -5.2110     1.0910 C.3   1 <1>   0.3430 
 27 C      -10.5500    -6.8960    -0.2600 C.3   1 <1>   0.3430 
 28 C      -12.9430    -4.6920     0.4030 C.3   1 <1>  -0.1600 
 29 C      -11.6230    -7.2630    -1.2900 C.3   1 <1>  -0.1600 
 30 C      -13.3430    -5.3960    -0.9060 C.3   1 <1>  -0.1600 
 31 C      -13.0760    -6.9100    -0.9180 C.3   1 <1>  -0.1600 
 32 H       -2.8070    -1.4320    -2.4870 H     1 <1>   0.1500 
 33 H       -4.3070     2.6650    -0.2220 H     1 <1>   0.1500 
 34 H       -5.2040    -0.9140    -2.3620 H     1 <1>   0.1500 
 35 H       -0.0240     3.2040     0.3120 H     1 <1>   0.0800 
 36 H       -0.0680     2.3270    -1.2130 H     1 <1>   0.0800 
 37 H       -0.1180     1.4480     0.3270 H     1 <1>   0.0800 
 38 H       -9.8300    -0.3590    -2.4020 H     1 <1>   0.0800 
 39 H      -10.4920     1.2070    -2.8180 H     1 <1>   0.0800 
 40 H      -11.4280     0.0860    -1.8450 H     1 <1>   0.0800 
 41 H      -10.2380     2.5480     0.6150 H     1 <1>   0.0800 
 42 H      -11.6670     1.7350     0.0180 H     1 <1>   0.0800 
 43 H      -10.8330     2.9050    -0.9920 H     1 <1>   0.0800 
 44 H       -7.5440    -3.1320     1.7960 H     1 <1>   0.0800 
 45 H       -7.1310    -3.4030     0.1260 H     1 <1>   0.0800 
 46 H       -7.5540     0.3690     1.6070 H     1 <1>   0.0800 
 47 H       -7.6990    -1.0400     2.6200 H     1 <1>   0.0800 
 48 H       -9.1120    -0.3990     1.7970 H     1 <1>   0.0800 
 49 H       -9.5490    -3.0880    -0.4750 H     1 <1>   0.0800 
 50 H       -9.9180    -3.0160     1.2390 H     1 <1>   0.0800 
 51 H       -9.0570    -5.3120     1.5220 H     1 <1>   0.0800 
 52 H       -8.5200    -5.3190    -0.1420 H     1 <1>   0.0800 
 53 H      -10.8770    -4.9440    -0.7680 H     1 <1>   0.4500 
 54 H      -11.3590    -4.4890     1.8250 H     1 <1>   0.0800 
 55 H      -11.9050    -6.1290     1.6080 H     1 <1>   0.0800 
 56 H      -10.6780    -7.4920     0.6290 H     1 <1>   0.0800 
 57 H       -9.5850    -7.1300    -0.6810 H     1 <1>   0.0800 
 58 H      -12.8350    -3.6380     0.2160 H     1 <1>   0.0800 
 59 H      -13.7510    -4.7950     1.1070 H     1 <1>   0.0800 
 60 H      -11.5710    -8.3270    -1.4410 H     1 <1>   0.0800 
 61 H      -11.3730    -6.8120    -2.2340 H     1 <1>   0.0800 
 62 H      -12.8440    -4.9360    -1.7420 H     1 <1>   0.0800 
 63 H      -14.3980    -5.2340    -1.0580 H     1 <1>   0.0800 
 64 H      -13.3520    -7.3540     0.0240 H     1 <1>   0.0800 
 65 H      -13.7160    -7.3480    -1.6670 H     1 <1>   0.0800 
@<TRIPOS>BOND
  1   1   2  1   
  2   2   3  ar  
  3   2   4  ar  
  4   3   5  1   
  5   3   6  ar  
  6   4   7  ar  
  7   4  32  1   
  8   5   8  1   
  9   6   9  ar  
 10   6  33  1   
 11   7   9  ar  
 12   7  34  1   
 13   8  35  1   
 14   8  36  1   
 15   8  37  1   
 16   9  10  1   
 17  10  11  1   
 18  10  12  2   
 19  11  13  1   
 20  12  14  1   
 21  12  15  1   
 22  13  14  2   
 23  14  16  1   
 24  15  17  2   
 25  15  18  am  
 26  16  19  1   
 27  16  20  1   
 28  18  21  1   
 29  18  22  1   
 30  19  38  1   
 31  19  39  1   
 32  19  40  1   
 33  20  41  1   
 34  20  42  1   
 35  20  43  1   
 36  21  23  1   
 37  21  44  1   
 38  21  45  1   
 39  22  46  1   
 40  22  47  1   
 41  22  48  1   
 42  23  24  1   
 43  23  49  1   
 44  23  50  1   
 45  24  25  1   
 46  24  51  1   
 47  24  52  1   
 48  25  26  1   
 49  25  27  1   
 50  25  53  1   
 51  26  28  1   
 52  26  54  1   
 53  26  55  1   
 54  27  29  1   
 55  27  56  1   
 56  27  57  1   
 57  28  30  1   
 58  28  58  1   
 59  28  59  1   
 60  29  31  1   
 61  29  60  1   
 62  29  61  1   
 63  30  31  1   
 64  30  62  1   
 65  30  63  1   
 66  31  64  1   
 67  31  65  1   
@<TRIPOS>SUBSTRUCTURE
  1 ****  15 GROUP 4 **** **** 0

# MOE 2024.06 (io_trps.svl 2023.06)
