@<TRIPOS>MOLECULE
NONAME
48 51 1 0 0 
SMALL
USER_CHARGES


@<TRIPOS>ATOM
  1 CL       2.5930    -0.7800    -0.3220 Cl    1 <1>  -0.1770 
  2 C        1.6650    -2.2580    -0.2740 C.ar  1 <1>   0.1770 
  3 C        0.5030    -2.3090     0.4600 C.ar  1 <1>  -0.1500 
  4 C        2.1210    -3.3600    -0.9810 C.ar  1 <1>  -0.1500 
  5 C       -0.2490    -3.4880     0.5060 C.ar  1 <1>   0.0860 
  6 C        1.3930    -4.5300    -0.9480 C.ar  1 <1>  -0.1500 
  7 C       -1.4690    -3.6060     1.2570 C.2   1 <1>   0.4690 
  8 C        0.2090    -4.6080    -0.2120 C.ar  1 <1>   0.1000 
  9 O       -1.9340    -2.6730     1.8930 O.2   1 <1>  -0.5700 
 10 C       -2.1520    -4.8490     1.2410 C.2   1 <1>  -0.1360 
 11 N       -0.5210    -5.7950    -0.1810 N.pl3 1 <1>  -0.6000 
 12 C       -1.6970    -5.9150     0.5360 C.2   1 <1>  -0.0380 
 13 C       -2.4580    -7.2360     0.5020 C.3   1 <1>   0.4810 
 14 N       -2.8640    -7.4860    -0.9140 N.4   1 <1>  -0.9590 
 15 C       -4.3280    -7.4040    -1.2010 C.3   1 <1>   0.4230 
 16 C       -2.2900    -8.7690    -1.4280 C.3   1 <1>   0.2630 
 17 C       -5.1830    -8.4100    -0.4320 C.3   1 <1>  -0.1600 
 18 C       -4.9470    -6.0520    -0.8630 C.3   1 <1>  -0.1600 
 19 C       -6.6100    -7.8570    -0.5550 C.3   1 <1>  -0.0800 
 20 C       -6.4550    -6.3330    -0.7930 C.3   1 <1>  -0.0800 
 21 C       -7.5300    -8.2670     0.6160 C.3   1 <1>   0.1400 
 22 C       -7.1950    -5.4500     0.2340 C.3   1 <1>  -0.0990 
 23 N       -8.6770    -7.3430     0.6890 N.am  1 <1>  -0.7300 
 24 C       -8.5720    -6.0090     0.5200 C.2   1 <1>   0.5690 
 25 O       -9.5280    -5.2840     0.5970 O.2   1 <1>  -0.5700 
 26 H        0.1710    -1.4400     1.0010 H     1 <1>   0.1500 
 27 H        3.0360    -3.2830    -1.5430 H     1 <1>   0.1500 
 28 H        1.7460    -5.3860    -1.4940 H     1 <1>   0.1500 
 29 H       -3.0530    -4.8770     1.8260 H     1 <1>   0.1500 
 30 H       -0.0680    -6.6030    -0.6270 H     1 <1>   0.4000 
 31 H       -3.3220    -7.1750     1.1420 H     1 <1>   0.0800 
 32 H       -1.8200    -8.0270     0.8620 H     1 <1>   0.0800 
 33 H       -2.4290    -6.7060    -1.4320 H     1 <1>   0.4500 
 34 H       -4.4890    -7.5760    -2.2540 H     1 <1>   0.0800 
 35 H       -2.7070    -9.6070    -0.8940 H     1 <1>   0.0800 
 36 H       -1.2190    -8.7800    -1.3060 H     1 <1>   0.0800 
 37 H       -2.5150    -8.8850    -2.4770 H     1 <1>   0.0800 
 38 H       -5.1200    -9.3970    -0.8550 H     1 <1>   0.0800 
 39 H       -4.9010    -8.4410     0.6050 H     1 <1>   0.0800 
 40 H       -4.6130    -5.6990     0.0940 H     1 <1>   0.0800 
 41 H       -4.7270    -5.3130    -1.6140 H     1 <1>   0.0800 
 42 H       -7.0470    -8.2720    -1.4490 H     1 <1>   0.0800 
 43 H       -6.8870    -6.1200    -1.7590 H     1 <1>   0.0800 
 44 H       -7.0000    -8.2190     1.5530 H     1 <1>   0.0800 
 45 H       -7.8830    -9.2750     0.4760 H     1 <1>   0.0800 
 46 H       -7.2890    -4.4450    -0.1370 H     1 <1>   0.0800 
 47 H       -6.6640    -5.4160     1.1670 H     1 <1>   0.0800 
 48 H       -9.6030    -7.7150     0.9180 H     1 <1>   0.3700 
@<TRIPOS>BOND
  1   1   2  1   
  2   2   3  ar  
  3   2   4  ar  
  4   3   5  ar  
  5   3  26  1   
  6   4   6  ar  
  7   4  27  1   
  8   5   7  1   
  9   5   8  ar  
 10   6   8  ar  
 11   6  28  1   
 12   7   9  2   
 13   7  10  1   
 14   8  11  1   
 15  10  12  2   
 16  10  29  1   
 17  11  12  1   
 18  11  30  1   
 19  12  13  1   
 20  13  14  1   
 21  13  31  1   
 22  13  32  1   
 23  14  15  1   
 24  14  16  1   
 25  14  33  1   
 26  15  17  1   
 27  15  18  1   
 28  15  34  1   
 29  16  35  1   
 30  16  36  1   
 31  16  37  1   
 32  17  19  1   
 33  17  38  1   
 34  17  39  1   
 35  18  20  1   
 36  18  40  1   
 37  18  41  1   
 38  19  20  1   
 39  19  21  1   
 40  19  42  1   
 41  20  22  1   
 42  20  43  1   
 43  21  23  1   
 44  21  44  1   
 45  21  45  1   
 46  22  24  1   
 47  22  46  1   
 48  22  47  1   
 49  23  24  am  
 50  23  48  1   
 51  24  25  2   
@<TRIPOS>SUBSTRUCTURE
  1 ****  12 GROUP 4 **** **** 0

# MOE 2024.06 (io_trps.svl 2023.06)
