@<TRIPOS>MOLECULE
NONAME
48 49 1 0 0 
SMALL
USER_CHARGES


@<TRIPOS>ATOM
  1 O       -1.4600     0.1420    -0.6960 O.2   1 <1>  -0.5700 
  2 C       -2.2630     1.0220    -0.9500 C.2   1 <1>   0.5440 
  3 N       -3.4950     0.6520    -1.4570 N.am  1 <1>  -0.6600 
  4 C       -1.9250     2.4040    -0.6960 C.ar  1 <1>   0.0860 
  5 C       -3.6630    -0.6880    -2.0870 C.3   1 <1>   0.3200 
  6 C       -4.7000     1.5520    -1.4570 C.3   1 <1>   0.1400 
  7 C       -1.7030     2.8780     0.6000 C.ar  1 <1>   0.0830 
  8 C       -1.8170     3.3170    -1.7450 C.ar  1 <1>  -0.1500 
  9 C       -4.0480    -1.6620    -0.9970 C.2   1 <1>  -0.3320 
 10 C       -5.8070     1.0630    -0.4960 C.3   1 <1>   0.3430 
 11 O       -1.8070     2.0420     1.6520 O.3   1 <1>  -0.3630 
 12 C       -1.4070     4.2120     0.8340 C.ar  1 <1>  -0.1500 
 13 C       -1.5180     4.6460    -1.5120 C.ar  1 <1>  -0.1500 
 14 N       -3.1910    -2.0000    -0.0140 N.pl3 1 <1>   0.0330 
 15 C       -5.1880    -2.3460    -0.7640 C.2   1 <1>   0.0770 
 16 N       -5.2500     0.6310     0.8220 N.4   1 <1>  -0.9590 
 17 C       -0.5910     1.6120     2.2270 C.3   1 <1>   0.0400 
 18 C       -1.3140     5.1030    -0.2200 C.ar  1 <1>  -0.1430 
 19 C       -3.8830    -2.8420     0.7800 C.2   1 <1>   0.0360 
 20 N       -5.0940    -3.0570     0.3750 N.2   1 <1>  -0.5650 
 21 C       -6.2010    -0.2420     1.5760 C.3   1 <1>   0.2630 
 22 C       -4.7880     1.7730     1.6660 C.3   1 <1>   0.2630 
 23 C       -0.9850     6.5660     0.0200 C.3   1 <1>  -0.0970 
 24 H       -2.7400    -1.0000    -2.5500 H     1 <1>   0.0800 
 25 H       -4.4220    -0.6520    -2.8490 H     1 <1>   0.0800 
 26 H       -5.0990     1.6120    -2.4550 H     1 <1>   0.0800 
 27 H       -4.4220     2.5510    -1.1720 H     1 <1>   0.0800 
 28 H       -1.9620     2.9760    -2.7550 H     1 <1>   0.1500 
 29 H       -6.3010     0.2240    -0.9580 H     1 <1>   0.0800 
 30 H       -6.5410     1.8390    -0.3560 H     1 <1>   0.0800 
 31 H       -1.2500     4.5480     1.8440 H     1 <1>   0.1500 
 32 H       -1.4370     5.3310    -2.3400 H     1 <1>   0.1500 
 33 H       -2.2210    -1.6590     0.0810 H     1 <1>   0.2700 
 34 H       -6.0910    -2.3640    -1.3540 H     1 <1>   0.1500 
 35 H       -4.4260     0.0480     0.5720 H     1 <1>   0.4500 
 36 H       -0.8150     0.9350     3.0320 H     1 <1>   0.0800 
 37 H       -0.0550     2.4650     2.6020 H     1 <1>   0.0800 
 38 H       -0.0100     1.1070     1.4750 H     1 <1>   0.0800 
 39 H       -3.4480    -3.2820     1.6620 H     1 <1>   0.1500 
 40 H       -7.0740     0.3150     1.8700 H     1 <1>   0.0800 
 41 H       -5.7240    -0.6350     2.4600 H     1 <1>   0.0800 
 42 H       -6.5110    -1.0760     0.9670 H     1 <1>   0.0800 
 43 H       -5.6290     2.3590     2.0000 H     1 <1>   0.0800 
 44 H       -4.1260     2.4100     1.1040 H     1 <1>   0.0800 
 45 H       -4.2540     1.4080     2.5280 H     1 <1>   0.0800 
 46 H       -0.9540     6.7880     1.0720 H     1 <1>   0.0800 
 47 H       -1.7290     7.1930    -0.4380 H     1 <1>   0.0800 
 48 H       -0.0260     6.7990    -0.4060 H     1 <1>   0.0800 
@<TRIPOS>BOND
  1   1   2  2   
  2   2   3  am  
  3   2   4  1   
  4   3   5  1   
  5   3   6  1   
  6   4   7  ar  
  7   4   8  ar  
  8   5   9  1   
  9   5  24  1   
 10   5  25  1   
 11   6  10  1   
 12   6  26  1   
 13   6  27  1   
 14   7  11  1   
 15   7  12  ar  
 16   8  13  ar  
 17   8  28  1   
 18   9  14  1   
 19   9  15  2   
 20  10  16  1   
 21  10  29  1   
 22  10  30  1   
 23  11  17  1   
 24  12  18  ar  
 25  12  31  1   
 26  13  18  ar  
 27  13  32  1   
 28  14  19  1   
 29  14  33  1   
 30  15  20  1   
 31  15  34  1   
 32  16  21  1   
 33  16  22  1   
 34  16  35  1   
 35  17  36  1   
 36  17  37  1   
 37  17  38  1   
 38  18  23  1   
 39  19  20  2   
 40  19  39  1   
 41  21  40  1   
 42  21  41  1   
 43  21  42  1   
 44  22  43  1   
 45  22  44  1   
 46  22  45  1   
 47  23  46  1   
 48  23  47  1   
 49  23  48  1   
@<TRIPOS>SUBSTRUCTURE
  1 ****   2 GROUP 4 **** **** 0

# MOE 2024.06 (io_trps.svl 2023.06)
