@<TRIPOS>MOLECULE
NONAME
50 52 1 0 0 
SMALL
USER_CHARGES


@<TRIPOS>ATOM
  1 CL       1.4470     0.2150    -1.1120 Cl    1 <1>  -0.1770 
  2 C        0.6530     1.5460    -0.3010 C.ar  1 <1>   0.1770 
  3 C        1.3680     2.4820     0.4420 C.ar  1 <1>  -0.1440 
  4 C       -0.7220     1.6280    -0.4350 C.ar  1 <1>  -0.1500 
  5 C        0.6590     3.5140     1.0440 C.ar  1 <1>  -0.1500 
  6 C        2.8850     2.4260     0.6280 C.3   1 <1>   0.3640 
  7 C       -1.4100     2.6610     0.1740 C.ar  1 <1>  -0.1500 
  8 C       -0.7170     3.6030     0.9120 C.ar  1 <1>  -0.1500 
  9 N        3.2280     1.1620     1.3240 N.am  1 <1>  -0.7300 
 10 C        3.6740     2.6340    -0.6970 C.3   1 <1>   0.2610 
 11 C        4.1810     0.3070     0.8960 C.2   1 <1>   0.5690 
 12 O        4.9650     2.0290    -0.6460 O.3   1 <1>  -0.5600 
 13 C        3.7980     4.1350    -0.9830 C.2   1 <1>   0.5690 
 14 O        4.4170    -0.7080     1.5010 O.2   1 <1>  -0.5700 
 15 C        4.9480     0.6420    -0.3830 C.3   1 <1>   0.1810 
 16 O        2.7970     4.8030    -1.0910 O.2   1 <1>  -0.5700 
 17 N        5.0360     4.6860    -1.0980 N.am  1 <1>  -0.7300 
 18 C        5.3410     6.1070    -1.3620 C.3   1 <1>   0.1400 
 19 C        6.1870     6.6560    -0.2110 C.3   1 <1>  -0.1600 
 20 C        6.6580     8.1040    -0.4460 C.3   1 <1>  -0.0800 
 21 C        7.6350     8.5170     0.6700 C.3   1 <1>  -0.1600 
 22 C        5.4790     9.0950    -0.5150 C.3   1 <1>  -0.1600 
 23 C        8.1220     9.9610     0.4930 C.3   1 <1>  -0.1600 
 24 C        5.9640    10.5410    -0.6860 C.3   1 <1>  -0.1600 
 25 C        6.9420    10.9370     0.4260 C.3   1 <1>  -0.1600 
 26 H       -1.2450     0.8890    -1.0150 H     1 <1>   0.1500 
 27 H        1.1730     4.2680     1.6170 H     1 <1>   0.1500 
 28 H        3.1700     3.2280     1.2880 H     1 <1>   0.0800 
 29 H       -2.4800     2.7330     0.0740 H     1 <1>   0.1500 
 30 H       -1.2490     4.4120     1.3830 H     1 <1>   0.1500 
 31 H        2.6780     0.9070     2.1460 H     1 <1>   0.3700 
 32 H        3.1440     2.1940    -1.5190 H     1 <1>   0.0800 
 33 H        4.4960     0.1390    -1.2190 H     1 <1>   0.0800 
 34 H        5.9660     0.3130    -0.2850 H     1 <1>   0.0800 
 35 H        5.8350     4.0490    -1.0090 H     1 <1>   0.3700 
 36 H        5.8790     6.1860    -2.2910 H     1 <1>   0.0800 
 37 H        4.4220     6.6610    -1.4510 H     1 <1>   0.0800 
 38 H        5.6130     6.6100     0.6980 H     1 <1>   0.0800 
 39 H        7.0530     6.0280    -0.0960 H     1 <1>   0.0800 
 40 H        7.1890     8.1420    -1.3830 H     1 <1>   0.0800 
 41 H        7.1470     8.4270     1.6260 H     1 <1>   0.0800 
 42 H        8.4860     7.8590     0.6710 H     1 <1>   0.0800 
 43 H        4.8360     8.8550    -1.3430 H     1 <1>   0.0800 
 44 H        4.8960     9.0240     0.3870 H     1 <1>   0.0800 
 45 H        8.7640    10.2290     1.3140 H     1 <1>   0.0800 
 46 H        8.6970    10.0350    -0.4140 H     1 <1>   0.0800 
 47 H        6.4520    10.6430    -1.6400 H     1 <1>   0.0800 
 48 H        5.1190    11.2080    -0.6760 H     1 <1>   0.0800 
 49 H        7.3060    11.9340     0.2490 H     1 <1>   0.0800 
 50 H        6.4250    10.9380     1.3710 H     1 <1>   0.0800 
@<TRIPOS>BOND
  1   1   2  1   
  2   2   3  ar  
  3   2   4  ar  
  4   3   5  ar  
  5   3   6  1   
  6   4   7  ar  
  7   4  26  1   
  8   5   8  ar  
  9   5  27  1   
 10   6   9  1   
 11   6  10  1   
 12   6  28  1   
 13   7   8  ar  
 14   7  29  1   
 15   8  30  1   
 16   9  11  am  
 17   9  31  1   
 18  10  12  1   
 19  10  13  1   
 20  10  32  1   
 21  11  14  2   
 22  11  15  1   
 23  12  15  1   
 24  13  16  2   
 25  13  17  am  
 26  15  33  1   
 27  15  34  1   
 28  17  18  1   
 29  17  35  1   
 30  18  19  1   
 31  18  36  1   
 32  18  37  1   
 33  19  20  1   
 34  19  38  1   
 35  19  39  1   
 36  20  21  1   
 37  20  22  1   
 38  20  40  1   
 39  21  23  1   
 40  21  41  1   
 41  21  42  1   
 42  22  24  1   
 43  22  43  1   
 44  22  44  1   
 45  23  25  1   
 46  23  45  1   
 47  23  46  1   
 48  24  25  1   
 49  24  47  1   
 50  24  48  1   
 51  25  49  1   
 52  25  50  1   
@<TRIPOS>SUBSTRUCTURE
  1 ****  13 GROUP 4 **** **** 0

# MOE 2024.06 (io_trps.svl 2023.06)
