@<TRIPOS>MOLECULE
NONAME
48 51 1 0 0 
SMALL
USER_CHARGES


@<TRIPOS>ATOM
  1 O        0.8730    -0.4590     1.9600 O.3   1 <1>  -0.0190 
  2 N        1.1820     0.7620     1.6460 N.2   1 <1>  -0.4100 
  3 C        1.2060    -1.1540     0.9000 C.2   1 <1>   0.2980 
  4 C        1.6680     0.7380     0.4670 C.2   1 <1>   0.3350 
  5 N        1.6940    -0.4800    -0.0660 N.2   1 <1>  -0.5650 
  6 C        0.9940    -2.6630     0.9160 C.3   1 <1>   0.2900 
  7 C        2.1550     1.9670    -0.2950 C.3   1 <1>   0.3010 
  8 N       -0.4360    -3.0530     0.9190 N.3   1 <1>  -0.8100 
  9 O        3.5570     2.0130    -0.3450 O.3   1 <1>  -0.5600 
 10 C       -1.1590    -2.5530    -0.2580 C.3   1 <1>   0.1100 
 11 C       -0.6190    -4.5140     0.9300 C.3   1 <1>   0.1100 
 12 C        4.0670     3.1050    -1.0370 C.3   1 <1>   0.0400 
 13 C       -2.3810    -3.4570    -0.3540 C.3   1 <1>   0.2000 
 14 C       -1.8240    -4.8280     0.0220 C.3   1 <1>  -0.0800 
 15 O       -3.2640    -3.0730     0.6370 O.3   1 <1>  -0.6800 
 16 C       -1.4140    -5.6170    -1.2360 C.3   1 <1>  -0.0170 
 17 C       -0.8440    -6.9830    -0.8900 C.ar  1 <1>   0.1670 
 18 N        0.4450    -7.1270    -0.9350 N.ar  1 <1>  -0.6200 
 19 C       -1.7290    -8.0150    -0.5380 C.ar  1 <1>  -0.1500 
 20 C        0.9570    -8.3460    -0.6240 C.ar  1 <1>   0.3100 
 21 C       -1.2430    -9.2460    -0.2180 C.ar  1 <1>  -0.1500 
 22 C        0.1470    -9.4410    -0.2530 C.ar  1 <1>   0.0000 
 23 C        2.3490    -8.5290    -0.6670 C.ar  1 <1>  -0.1500 
 24 C        0.7590   -10.6710     0.0610 C.ar  1 <1>  -0.1500 
 25 C        2.9250    -9.7320    -0.3580 C.ar  1 <1>  -0.1500 
 26 C        2.1200   -10.8150     0.0100 C.ar  1 <1>  -0.1500 
 27 H        1.4690    -3.0610     1.7960 H     1 <1>   0.0800 
 28 H        1.4820    -3.0860     0.0550 H     1 <1>   0.0800 
 29 H        1.8030     2.8550     0.1980 H     1 <1>   0.0800 
 30 H        1.7760     1.9340    -1.3000 H     1 <1>   0.0800 
 31 H       -1.4340    -1.5170    -0.1460 H     1 <1>   0.0800 
 32 H       -0.5560    -2.6670    -1.1420 H     1 <1>   0.0800 
 33 H        0.2690    -5.0130     0.5780 H     1 <1>   0.0800 
 34 H       -0.8140    -4.8390     1.9380 H     1 <1>   0.0800 
 35 H        5.1410     3.0430    -1.0120 H     1 <1>   0.0800 
 36 H        3.7470     4.0140    -0.5570 H     1 <1>   0.0800 
 37 H        3.7270     3.0720    -2.0580 H     1 <1>   0.0800 
 38 H       -2.8850    -3.4190    -1.3050 H     1 <1>   0.0800 
 39 H       -2.5600    -5.4010     0.5590 H     1 <1>   0.0800 
 40 H       -2.7190    -2.8900     1.4330 H     1 <1>   0.4000 
 41 H       -0.6800    -5.0630    -1.7960 H     1 <1>   0.0800 
 42 H       -2.2700    -5.7530    -1.8720 H     1 <1>   0.0800 
 43 H       -2.7860    -7.8180    -0.5250 H     1 <1>   0.1500 
 44 H       -1.8900   -10.0590     0.0580 H     1 <1>   0.1500 
 45 H        2.9500    -7.6860    -0.9540 H     1 <1>   0.1500 
 46 H        0.1350   -11.5000     0.3430 H     1 <1>   0.1500 
 47 H        3.9930    -9.8600    -0.3960 H     1 <1>   0.1500 
 48 H        2.5850   -11.7560     0.2500 H     1 <1>   0.1500 
@<TRIPOS>BOND
  1   1   2  1   
  2   1   3  1   
  3   2   4  2   
  4   3   5  2   
  5   3   6  1   
  6   4   5  1   
  7   4   7  1   
  8   6   8  1   
  9   6  27  1   
 10   6  28  1   
 11   7   9  1   
 12   7  29  1   
 13   7  30  1   
 14   8  10  1   
 15   8  11  1   
 16   9  12  1   
 17  10  13  1   
 18  10  31  1   
 19  10  32  1   
 20  11  14  1   
 21  11  33  1   
 22  11  34  1   
 23  12  35  1   
 24  12  36  1   
 25  12  37  1   
 26  13  14  1   
 27  13  15  1   
 28  13  38  1   
 29  14  16  1   
 30  14  39  1   
 31  15  40  1   
 32  16  17  1   
 33  16  41  1   
 34  16  42  1   
 35  17  18  ar  
 36  17  19  ar  
 37  18  20  ar  
 38  19  21  ar  
 39  19  43  1   
 40  20  22  ar  
 41  20  23  ar  
 42  21  22  ar  
 43  21  44  1   
 44  22  24  ar  
 45  23  25  ar  
 46  23  45  1   
 47  24  26  ar  
 48  24  46  1   
 49  25  26  ar  
 50  25  47  1   
 51  26  48  1   
@<TRIPOS>SUBSTRUCTURE
  1 ****  11 GROUP 4 **** **** 0

# MOE 2024.06 (io_trps.svl 2023.06)
