@<TRIPOS>MOLECULE
NONAME
49 52 1 0 0 
SMALL
USER_CHARGES


@<TRIPOS>ATOM
  1 S       -0.1790    -0.5100    -0.8390 S.3   1 <1>  -0.0800 
  2 C       -1.5380     0.2900    -0.0830 C.2   1 <1>  -0.1400 
  3 C        0.3480     0.9870    -1.5590 C.2   1 <1>  -0.1100 
  4 C       -1.5570     1.6150    -0.3680 C.2   1 <1>  -0.0540 
  5 C       -2.4680    -0.5930     0.7260 C.3   1 <1>  -0.0600 
  6 C       -0.4550     2.0220    -1.2180 C.2   1 <1>  -0.0860 
  7 C       -2.5550     2.5560     0.0940 C.ar  1 <1>   0.0540 
  8 C       -0.2500     3.3860    -1.6570 C.2   1 <1>   0.7160 
  9 C       -2.7850     2.7420     1.4540 C.ar  1 <1>  -0.1500 
 10 C       -3.3100     3.3050    -0.8040 C.ar  1 <1>  -0.1500 
 11 O       -0.2780     3.6300    -2.8490 O.2   1 <1>  -0.5700 
 12 N        0.0040     4.4070    -0.7680 N.am  1 <1>  -0.6600 
 13 C       -3.7300     3.6460     1.9040 C.ar  1 <1>  -0.1500 
 14 C       -4.2560     4.2110    -0.3610 C.ar  1 <1>  -0.1500 
 15 C        0.1050     5.8360    -1.1880 C.3   1 <1>   0.1400 
 16 C        0.2770     4.2130     0.6840 C.3   1 <1>   0.1400 
 17 C       -4.4670     4.3840     0.9960 C.ar  1 <1>  -0.1500 
 18 C        1.4540     6.4370    -0.7600 C.3   1 <1>   0.1100 
 19 C        1.6270     4.8410     1.0690 C.3   1 <1>   0.1100 
 20 N        1.7020     6.2660     0.6910 N.3   1 <1>  -0.8100 
 21 C        3.0100     6.8460     1.0970 C.3   1 <1>   0.2910 
 22 C        3.1500     8.3540     0.8650 C.2   1 <1>   0.3350 
 23 N        2.8910     9.2540     1.7310 N.2   1 <1>  -0.4100 
 24 N        3.5980     8.8490    -0.2870 N.2   1 <1>  -0.5650 
 25 O        3.1430    10.4020     1.1810 O.3   1 <1>  -0.0190 
 26 C        3.5610    10.0910    -0.0200 C.2   1 <1>   0.2980 
 27 C        3.9560    11.2030    -0.9630 C.3   1 <1>  -0.0600 
 28 H        1.2240     0.9590    -2.1820 H     1 <1>   0.1500 
 29 H       -2.8330    -1.3950     0.1100 H     1 <1>   0.0800 
 30 H       -3.3100    -0.0300     1.0860 H     1 <1>   0.0800 
 31 H       -1.9410    -1.0090     1.5650 H     1 <1>   0.0800 
 32 H       -2.2130     2.1720     2.1640 H     1 <1>   0.1500 
 33 H       -3.1510     3.1740    -1.8600 H     1 <1>   0.1500 
 34 H       -3.8930     3.7780     2.9600 H     1 <1>   0.1500 
 35 H       -4.8280     4.7820    -1.0720 H     1 <1>   0.1500 
 36 H       -0.6910     6.3930    -0.7270 H     1 <1>   0.0800 
 37 H       -0.0030     5.9300    -2.2550 H     1 <1>   0.0800 
 38 H        0.2940     3.1680     0.9360 H     1 <1>   0.0800 
 39 H       -0.5070     4.6810     1.2540 H     1 <1>   0.0800 
 40 H       -5.2030     5.0890     1.3420 H     1 <1>   0.1500 
 41 H        1.4420     7.4840    -1.0050 H     1 <1>   0.0800 
 42 H        2.2420     5.9710    -1.3270 H     1 <1>   0.0800 
 43 H        2.4160     4.2910     0.5840 H     1 <1>   0.0800 
 44 H        1.7570     4.7480     2.1330 H     1 <1>   0.0800 
 45 H        3.8040     6.3470     0.5710 H     1 <1>   0.0800 
 46 H        3.1510     6.6710     2.1490 H     1 <1>   0.0800 
 47 H        4.2760    10.7910    -1.9030 H     1 <1>   0.0800 
 48 H        4.7620    11.7710    -0.5360 H     1 <1>   0.0800 
 49 H        3.1160    11.8500    -1.1310 H     1 <1>   0.0800 
@<TRIPOS>BOND
  1   1   2  1   
  2   1   3  1   
  3   2   4  2   
  4   2   5  1   
  5   3   6  2   
  6   3  28  1   
  7   4   6  1   
  8   4   7  1   
  9   5  29  1   
 10   5  30  1   
 11   5  31  1   
 12   6   8  1   
 13   7   9  ar  
 14   7  10  ar  
 15   8  11  2   
 16   8  12  am  
 17   9  13  ar  
 18   9  32  1   
 19  10  14  ar  
 20  10  33  1   
 21  12  15  1   
 22  12  16  1   
 23  13  17  ar  
 24  13  34  1   
 25  14  17  ar  
 26  14  35  1   
 27  15  18  1   
 28  15  36  1   
 29  15  37  1   
 30  16  19  1   
 31  16  38  1   
 32  16  39  1   
 33  17  40  1   
 34  18  20  1   
 35  18  41  1   
 36  18  42  1   
 37  19  20  1   
 38  19  43  1   
 39  19  44  1   
 40  20  21  1   
 41  21  22  1   
 42  21  45  1   
 43  21  46  1   
 44  22  23  2   
 45  22  24  1   
 46  23  25  1   
 47  24  26  2   
 48  25  26  1   
 49  26  27  1   
 50  27  47  1   
 51  27  48  1   
 52  27  49  1   
@<TRIPOS>SUBSTRUCTURE
  1 ****  12 GROUP 4 **** **** 0

# MOE 2024.06 (io_trps.svl 2023.06)
