@<TRIPOS>MOLECULE
NONAME
53 56 1 0 0 
SMALL
USER_CHARGES


@<TRIPOS>ATOM
  1 S        1.1330    -2.7240    -0.8530 S.3   1 <1>  -0.0800 
  2 C       -0.1450    -3.3730     0.1580 C.2   1 <1>  -0.1100 
  3 C       -0.0360    -2.1270    -2.0150 C.2   1 <1>  -0.1100 
  4 C       -1.3560    -3.1470    -0.3890 C.2   1 <1>  -0.1810 
  5 C       -1.2890    -2.4260    -1.6270 C.2   1 <1>  -0.1500 
  6 C       -2.7020    -3.5760     0.1880 C.3   1 <1>   0.0820 
  7 C       -2.6350    -4.8220     1.0690 C.2   1 <1>   0.5690 
  8 O       -3.1810    -4.7780     2.1460 O.2   1 <1>  -0.5700 
  9 N       -2.0150    -5.9830     0.6640 N.am  1 <1>  -0.6600 
 10 C       -1.7480    -7.0410     1.6930 C.3   1 <1>   0.2200 
 11 C       -1.6610    -6.2670    -0.7520 C.3   1 <1>   0.1400 
 12 C       -0.4550    -7.8560     1.4290 C.3   1 <1>   0.1200 
 13 C       -3.0170    -7.9070     1.8670 C.3   1 <1>   0.3430 
 14 C       -1.9520    -7.7220    -1.1400 C.3   1 <1>  -0.0800 
 15 O       -0.6550    -8.9380     0.5550 O.3   1 <1>  -0.5600 
 16 N       -3.2890    -8.8360     0.7150 N.4   1 <1>  -0.9590 
 17 C       -0.7580    -8.6460    -0.8090 C.3   1 <1>   0.1200 
 18 C       -3.3350    -8.2050    -0.6430 C.3   1 <1>   0.3430 
 19 C       -4.4190    -9.7590     0.9690 C.3   1 <1>   0.5240 
 20 C       -4.3860   -10.8360    -0.0930 C.2   1 <1>  -0.1810 
 21 C       -3.4040   -11.8150    -0.2380 C.2   1 <1>   0.1080 
 22 C       -5.2550   -11.0610    -1.1060 C.2   1 <1>  -0.3320 
 23 N       -3.6270   -12.5710    -1.2610 N.2   1 <1>  -0.7070 
 24 C       -2.1910   -12.0470     0.6390 C.3   1 <1>  -0.0590 
 25 N       -4.7760   -12.1210    -1.7920 N.pl3 1 <1>   0.3000 
 26 C       -6.5420   -10.3490    -1.4940 C.3   1 <1>  -0.0600 
 27 H        0.1550    -3.8620     1.0680 H     1 <1>   0.1500 
 28 H        0.3450    -1.6050    -2.8750 H     1 <1>   0.1500 
 29 H       -2.1790    -2.1580    -2.1710 H     1 <1>   0.1500 
 30 H       -3.3940    -3.7680    -0.6090 H     1 <1>   0.0800 
 31 H       -3.0980    -2.7610     0.7670 H     1 <1>   0.0800 
 32 H       -1.5850    -6.5330     2.6290 H     1 <1>   0.0800 
 33 H       -2.2330    -5.6250    -1.3990 H     1 <1>   0.0800 
 34 H       -0.6210    -6.0360    -0.9140 H     1 <1>   0.0800 
 35 H       -0.1200    -8.2800     2.3590 H     1 <1>   0.0800 
 36 H        0.3360    -7.2280     1.0530 H     1 <1>   0.0800 
 37 H       -3.8570    -7.2480     2.0160 H     1 <1>   0.0800 
 38 H       -2.8980    -8.4910     2.7630 H     1 <1>   0.0800 
 39 H       -2.0110    -7.7110    -2.2140 H     1 <1>   0.0800 
 40 H       -2.4360    -9.4240     0.6620 H     1 <1>   0.4500 
 41 H        0.1720    -8.2090    -1.1320 H     1 <1>   0.0800 
 42 H       -0.8760    -9.5860    -1.3220 H     1 <1>   0.0800 
 43 H       -3.6920    -8.9350    -1.3510 H     1 <1>   0.0800 
 44 H       -4.0320    -7.3830    -0.6430 H     1 <1>   0.0800 
 45 H       -4.3230   -10.2140     1.9410 H     1 <1>   0.0800 
 46 H       -5.3540    -9.2260     0.9250 H     1 <1>   0.0800 
 47 H       -2.2920   -11.5630     1.5910 H     1 <1>   0.0800 
 48 H       -1.3090   -11.6840     0.1440 H     1 <1>   0.0800 
 49 H       -2.0730   -13.1030     0.8050 H     1 <1>   0.0800 
 50 H       -5.2030   -12.5640    -2.6160 H     1 <1>   0.2700 
 51 H       -6.7490    -9.5320    -0.8280 H     1 <1>   0.0800 
 52 H       -7.3690   -11.0360    -1.4520 H     1 <1>   0.0800 
 53 H       -6.4670    -9.9630    -2.4960 H     1 <1>   0.0800 
@<TRIPOS>BOND
  1   1   2  1   
  2   1   3  1   
  3   2   4  2   
  4   2  27  1   
  5   3   5  2   
  6   3  28  1   
  7   4   5  1   
  8   4   6  1   
  9   5  29  1   
 10   6   7  1   
 11   6  30  1   
 12   6  31  1   
 13   7   8  2   
 14   7   9  am  
 15   9  10  1   
 16   9  11  1   
 17  10  12  1   
 18  10  13  1   
 19  10  32  1   
 20  11  14  1   
 21  11  33  1   
 22  11  34  1   
 23  12  15  1   
 24  12  35  1   
 25  12  36  1   
 26  13  16  1   
 27  13  37  1   
 28  13  38  1   
 29  14  17  1   
 30  14  18  1   
 31  14  39  1   
 32  15  17  1   
 33  16  18  1   
 34  16  19  1   
 35  16  40  1   
 36  17  41  1   
 37  17  42  1   
 38  18  43  1   
 39  18  44  1   
 40  19  20  1   
 41  19  45  1   
 42  19  46  1   
 43  20  21  1   
 44  20  22  2   
 45  21  23  2   
 46  21  24  1   
 47  22  25  1   
 48  22  26  1   
 49  23  25  1   
 50  24  47  1   
 51  24  48  1   
 52  24  49  1   
 53  25  50  1   
 54  26  51  1   
 55  26  52  1   
 56  26  53  1   
@<TRIPOS>SUBSTRUCTURE
  1 ****  14 GROUP 4 **** **** 0

# MOE 2024.06 (io_trps.svl 2023.06)
