@<TRIPOS>MOLECULE
NONAME
49 50 1 0 0 
SMALL
USER_CHARGES


@<TRIPOS>ATOM
  1 S       -0.0180     0.0950    -0.1060 S.3   1 <1>  -0.4600 
  2 C       -0.2800     1.8830    -0.1070 C.3   1 <1>   0.0700 
  3 C       -1.6910    -0.5930     0.0500 C.3   1 <1>  -0.0100 
  4 C        1.1010     2.5220    -0.2770 C.3   1 <1>   0.3430 
  5 N        1.0460     4.0190    -0.3220 N.4   1 <1>  -0.9590 
  6 C        2.3640     4.5540    -0.7810 C.3   1 <1>   0.3430 
  7 C        0.6380     4.6070     0.9930 C.3   1 <1>   0.3430 
  8 C        2.2840     6.0670    -0.9240 C.3   1 <1>  -0.1600 
  9 C        0.5430     6.1260     0.8820 C.3   1 <1>  -0.1600 
 10 C        1.8720     6.6980     0.4020 C.3   1 <1>   0.2890 
 11 N        1.7420     8.1480     0.2110 N.pl3 1 <1>  -0.8690 
 12 C        2.7850     9.0230     0.3750 C.ar  1 <1>   0.4100 
 13 N        3.9990     8.5060     0.5180 N.ar  1 <1>  -0.6200 
 14 C        2.5420    10.3940     0.3840 C.ar  1 <1>  -0.1500 
 15 C        4.9860     9.3740     0.6720 C.ar  1 <1>   0.1600 
 16 C        3.5820    11.2780     0.5400 C.ar  1 <1>  -0.1500 
 17 C        4.8670    10.7610     0.6800 C.ar  1 <1>   0.0860 
 18 C        6.0380    11.5910     0.8420 C.2   1 <1>   0.5440 
 19 O        6.8750    11.2700     1.6650 O.2   1 <1>  -0.5700 
 20 N        6.2520    12.7290     0.0850 N.am  1 <1>  -0.6600 
 21 C        7.3130    13.7090     0.4490 C.3   1 <1>   0.0600 
 22 C        5.6240    12.9660    -1.2440 C.3   1 <1>   0.0600 
 23 H       -0.7370     2.1300     0.8340 H     1 <1>   0.0800 
 24 H       -0.9340     2.1060    -0.9310 H     1 <1>   0.0800 
 25 H       -1.6030    -1.6650     0.0580 H     1 <1>   0.0800 
 26 H       -2.2710    -0.2680    -0.7950 H     1 <1>   0.0800 
 27 H       -2.1160    -0.2420     0.9730 H     1 <1>   0.0800 
 28 H        1.5280     2.1500    -1.1950 H     1 <1>   0.0800 
 29 H        1.7370     2.2040     0.5340 H     1 <1>   0.0800 
 30 H        0.3490     4.2970    -1.0280 H     1 <1>   0.4500 
 31 H        2.6310     4.1190    -1.7310 H     1 <1>   0.0800 
 32 H        3.1320     4.3020    -0.0670 H     1 <1>   0.0800 
 33 H        1.3650     4.3480     1.7480 H     1 <1>   0.0800 
 34 H       -0.3180     4.2130     1.2980 H     1 <1>   0.0800 
 35 H        1.5890     6.3290    -1.7000 H     1 <1>   0.0800 
 36 H        3.2540     6.4400    -1.2040 H     1 <1>   0.0800 
 37 H        0.3130     6.5340     1.8510 H     1 <1>   0.0800 
 38 H       -0.2490     6.3900     0.2040 H     1 <1>   0.0800 
 39 H        2.6280     6.5020     1.1460 H     1 <1>   0.0800 
 40 H        0.7960     8.5320     0.2350 H     1 <1>   0.4000 
 41 H        1.5370    10.7510     0.2690 H     1 <1>   0.1500 
 42 H        5.9750     8.9670     0.8020 H     1 <1>   0.1500 
 43 H        3.4190    12.3410     0.5610 H     1 <1>   0.1500 
 44 H        7.5860    13.6020     1.4850 H     1 <1>   0.0800 
 45 H        6.9560    14.7120     0.2920 H     1 <1>   0.0800 
 46 H        8.1850    13.5400    -0.1580 H     1 <1>   0.0800 
 47 H        5.1300    12.0800    -1.6000 H     1 <1>   0.0800 
 48 H        6.3800    13.2400    -1.9600 H     1 <1>   0.0800 
 49 H        4.9070    13.7650    -1.1690 H     1 <1>   0.0800 
@<TRIPOS>BOND
  1   1   2  1   
  2   1   3  1   
  3   2   4  1   
  4   2  23  1   
  5   2  24  1   
  6   3  25  1   
  7   3  26  1   
  8   3  27  1   
  9   4   5  1   
 10   4  28  1   
 11   4  29  1   
 12   5   6  1   
 13   5   7  1   
 14   5  30  1   
 15   6   8  1   
 16   6  31  1   
 17   6  32  1   
 18   7   9  1   
 19   7  33  1   
 20   7  34  1   
 21   8  10  1   
 22   8  35  1   
 23   8  36  1   
 24   9  10  1   
 25   9  37  1   
 26   9  38  1   
 27  10  11  1   
 28  10  39  1   
 29  11  12  1   
 30  11  40  1   
 31  12  13  ar  
 32  12  14  ar  
 33  13  15  ar  
 34  14  16  ar  
 35  14  41  1   
 36  15  17  ar  
 37  15  42  1   
 38  16  17  ar  
 39  16  43  1   
 40  17  18  1   
 41  18  19  2   
 42  18  20  am  
 43  20  21  1   
 44  20  22  1   
 45  21  44  1   
 46  21  45  1   
 47  21  46  1   
 48  22  47  1   
 49  22  48  1   
 50  22  49  1   
@<TRIPOS>SUBSTRUCTURE
  1 ****  11 GROUP 4 **** **** 0

# MOE 2024.06 (io_trps.svl 2023.06)
