@<TRIPOS>MOLECULE
NONAME
47 49 1 0 0 
SMALL
USER_CHARGES


@<TRIPOS>ATOM
  1 O       -1.0590    -0.0350    -1.1640 O.2   1 <1>  -0.5700 
  2 C       -1.8360     0.5590    -0.4460 C.2   1 <1>   0.6340 
  3 O       -1.7320     1.8880    -0.3440 O.3   1 <1>  -0.4300 
  4 C       -2.8850    -0.1030     0.3090 C.ar  1 <1>   0.0860 
  5 C       -0.7390     2.6120    -1.0430 C.3   1 <1>   0.0400 
  6 C       -3.8270     0.6150     1.0490 C.ar  1 <1>  -0.1500 
  7 C       -2.9940    -1.4950     0.3170 C.ar  1 <1>  -0.1500 
  8 C       -4.8180    -0.0400     1.7550 C.ar  1 <1>   0.0830 
  9 C       -3.9900    -2.1730     1.0130 C.ar  1 <1>   0.0860 
 10 O       -5.7190     0.6560     2.4620 O.3   1 <1>  -0.5320 
 11 C       -4.9000    -1.4160     1.7440 C.ar  1 <1>  -0.1500 
 12 C       -4.0680    -3.6190     0.9770 C.2   1 <1>   0.5440 
 13 O       -3.1440    -4.2830     1.4040 O.2   1 <1>  -0.5700 
 14 N       -5.1640    -4.2660     0.4580 N.am  1 <1>  -0.6600 
 15 C       -6.2900    -3.6340    -0.2770 C.3   1 <1>   0.1400 
 16 C       -5.2530    -5.7450     0.3540 C.3   1 <1>   0.1400 
 17 C       -7.3400    -4.7390    -0.3670 C.3   1 <1>   0.2000 
 18 C       -6.5020    -6.0140    -0.4950 C.3   1 <1>  -0.0800 
 19 O       -8.0360    -4.7590     0.8320 O.3   1 <1>  -0.6800 
 20 C       -7.2270    -7.3240    -0.1370 C.3   1 <1>   0.0210 
 21 C       -6.3030    -8.5140    -0.3090 C.2   1 <1>   0.1080 
 22 N       -5.8130    -8.8620    -1.4580 N.2   1 <1>  -0.7070 
 23 C       -5.8730    -9.3440     0.7200 C.2   1 <1>  -0.1500 
 24 N       -5.0490    -9.9380    -1.1900 N.pl3 1 <1>   0.3000 
 25 C       -5.0680   -10.2480     0.1240 C.2   1 <1>  -0.3320 
 26 C       -4.3040   -11.4070     0.7370 C.3   1 <1>  -0.0600 
 27 H       -0.8470     3.6560    -0.8070 H     1 <1>   0.0800 
 28 H       -0.8720     2.4540    -2.1000 H     1 <1>   0.0800 
 29 H        0.2300     2.2600    -0.7350 H     1 <1>   0.0800 
 30 H       -3.7790     1.6890     1.0690 H     1 <1>   0.1500 
 31 H       -2.2770    -2.0780    -0.2370 H     1 <1>   0.1500 
 32 H       -5.5780     1.6200     2.4440 H     1 <1>   0.4500 
 33 H       -5.6740    -1.9060     2.3090 H     1 <1>   0.1500 
 34 H       -6.6760    -2.7650     0.2250 H     1 <1>   0.0800 
 35 H       -5.9550    -3.3650    -1.2640 H     1 <1>   0.0800 
 36 H       -4.3700    -6.1520    -0.1100 H     1 <1>   0.0800 
 37 H       -5.3560    -6.1610     1.3420 H     1 <1>   0.0800 
 38 H       -8.0400    -4.6000    -1.1730 H     1 <1>   0.0800 
 39 H       -6.1760    -6.0880    -1.5180 H     1 <1>   0.0800 
 40 H       -7.3850    -4.7490     1.5630 H     1 <1>   0.4000 
 41 H       -8.0770    -7.4520    -0.7810 H     1 <1>   0.0800 
 42 H       -7.5800    -7.2980     0.8780 H     1 <1>   0.0800 
 43 H       -6.1400    -9.2600     1.7580 H     1 <1>   0.1500 
 44 H       -4.5290   -10.4350    -1.9220 H     1 <1>   0.2700 
 45 H       -4.4800   -11.4450     1.7980 H     1 <1>   0.0800 
 46 H       -3.2480   -11.2860     0.5700 H     1 <1>   0.0800 
 47 H       -4.6250   -12.3370     0.3030 H     1 <1>   0.0800 
@<TRIPOS>BOND
  1   1   2  2   
  2   2   3  1   
  3   2   4  1   
  4   3   5  1   
  5   4   6  ar  
  6   4   7  ar  
  7   5  27  1   
  8   5  28  1   
  9   5  29  1   
 10   6   8  ar  
 11   6  30  1   
 12   7   9  ar  
 13   7  31  1   
 14   8  10  1   
 15   8  11  ar  
 16   9  11  ar  
 17   9  12  1   
 18  10  32  1   
 19  11  33  1   
 20  12  13  2   
 21  12  14  am  
 22  14  15  1   
 23  14  16  1   
 24  15  17  1   
 25  15  34  1   
 26  15  35  1   
 27  16  18  1   
 28  16  36  1   
 29  16  37  1   
 30  17  18  1   
 31  17  19  1   
 32  17  38  1   
 33  18  20  1   
 34  18  39  1   
 35  19  40  1   
 36  20  21  1   
 37  20  41  1   
 38  20  42  1   
 39  21  22  2   
 40  21  23  1   
 41  22  24  1   
 42  23  25  2   
 43  23  43  1   
 44  24  25  1   
 45  24  44  1   
 46  25  26  1   
 47  26  45  1   
 48  26  46  1   
 49  26  47  1   
@<TRIPOS>SUBSTRUCTURE
  1 ****  14 GROUP 4 **** **** 0

# MOE 2024.06 (io_trps.svl 2023.06)
