@<TRIPOS>MOLECULE
NONAME
39 40 1 0 0 
SMALL
USER_CHARGES


@<TRIPOS>ATOM
  1 S       -1.0750    -0.5970    -0.5820 S.3   1 <1>  -0.0800 
  2 C       -1.1150    -1.7560     0.7060 C.2   1 <1>   0.4420 
  3 C       -0.8280     0.6230     0.6210 C.2   1 <1>   0.1980 
  4 N       -0.9660    -1.2080     1.8560 N.2   1 <1>  -0.3380 
  5 N       -1.2920    -3.0730     0.3400 N.am  1 <1>  -0.4940 
  6 N       -0.8020     0.1490     1.8010 N.2   1 <1>  -0.3380 
  7 C       -0.6900     2.0700     0.1770 C.3   1 <1>   0.3000 
  8 C       -1.4510    -4.1810     1.1240 C.2   1 <1>   0.5690 
  9 O        0.2270     2.1740    -0.8750 O.3   1 <1>  -0.5600 
 10 O       -1.5120    -4.1440     2.3270 O.2   1 <1>  -0.5700 
 11 C       -1.5640    -5.5440     0.4290 C.3   1 <1>   0.1710 
 12 C        0.4610     3.4780    -1.3010 C.3   1 <1>   0.0400 
 13 N       -2.8910    -5.8720    -0.1590 N.3   1 <1>  -0.8100 
 14 C       -3.9470    -5.8750     0.8790 C.3   1 <1>   0.2900 
 15 C       -3.2540    -5.0460    -1.3200 C.3   1 <1>   0.0300 
 16 C       -5.2640    -6.3990     0.3270 C.2   1 <1>  -0.1400 
 17 S       -6.5870    -5.2470     0.2120 S.3   1 <1>  -0.0800 
 18 C       -5.6540    -7.6120    -0.1140 C.2   1 <1>  -0.1810 
 19 C       -7.6570    -6.4730    -0.4410 C.2   1 <1>  -0.1100 
 20 C       -7.0180    -7.6510    -0.5490 C.2   1 <1>  -0.1500 
 21 C       -4.7930    -8.8580    -0.1820 C.3   1 <1>  -0.0590 
 22 H       -1.3330    -3.2360    -0.6610 H     1 <1>   0.3700 
 23 H       -0.3400     2.6660     1.0010 H     1 <1>   0.0800 
 24 H       -1.6420     2.4380    -0.1610 H     1 <1>   0.0800 
 25 H       -1.3200    -6.2990     1.1550 H     1 <1>   0.0800 
 26 H       -0.8160    -5.6030    -0.3410 H     1 <1>   0.0800 
 27 H        1.1710     3.4420    -2.1090 H     1 <1>   0.0800 
 28 H        0.8700     4.0510    -0.4870 H     1 <1>   0.0800 
 29 H       -0.4600     3.9120    -1.6490 H     1 <1>   0.0800 
 30 H       -4.0890    -4.8820     1.2720 H     1 <1>   0.0800 
 31 H       -3.6440    -6.5120     1.6920 H     1 <1>   0.0800 
 32 H       -2.4430    -5.0220    -2.0270 H     1 <1>   0.0800 
 33 H       -3.5010    -4.0440    -1.0150 H     1 <1>   0.0800 
 34 H       -4.1100    -5.4710    -1.8160 H     1 <1>   0.0800 
 35 H       -8.6640    -6.1770    -0.6770 H     1 <1>   0.1500 
 36 H       -7.4530    -8.5610    -0.9230 H     1 <1>   0.1500 
 37 H       -3.7930    -8.6450     0.1500 H     1 <1>   0.0800 
 38 H       -4.7470    -9.2140    -1.1950 H     1 <1>   0.0800 
 39 H       -5.2100    -9.6270     0.4420 H     1 <1>   0.0800 
@<TRIPOS>BOND
  1   1   2  1   
  2   1   3  1   
  3   2   4  2   
  4   2   5  1   
  5   3   6  2   
  6   3   7  1   
  7   4   6  1   
  8   5   8  am  
  9   5  22  1   
 10   7   9  1   
 11   7  23  1   
 12   7  24  1   
 13   8  10  2   
 14   8  11  1   
 15   9  12  1   
 16  11  13  1   
 17  11  25  1   
 18  11  26  1   
 19  12  27  1   
 20  12  28  1   
 21  12  29  1   
 22  13  14  1   
 23  13  15  1   
 24  14  16  1   
 25  14  30  1   
 26  14  31  1   
 27  15  32  1   
 28  15  33  1   
 29  15  34  1   
 30  16  17  1   
 31  16  18  2   
 32  17  19  1   
 33  18  20  1   
 34  18  21  1   
 35  19  20  2   
 36  19  35  1   
 37  20  36  1   
 38  21  37  1   
 39  21  38  1   
 40  21  39  1   
@<TRIPOS>SUBSTRUCTURE
  1 ****   5 GROUP 4 **** **** 0

# MOE 2024.06 (io_trps.svl 2023.06)
