@<TRIPOS>MOLECULE
NONAME
54 55 1 0 0 
SMALL
USER_CHARGES


@<TRIPOS>ATOM
  1 O        0.3660     1.3260    -0.7290 O.2   1 <1>  -0.5700 
  2 C        0.8630     0.2180    -0.6800 C.2   1 <1>   0.5690 
  3 N        2.1820     0.0530    -1.0750 N.am  1 <1>  -0.6600 
  4 C       -0.0280    -0.9420    -0.1210 C.3   1 <1>   0.3410 
  5 C        2.9400     1.1960    -1.6490 C.3   1 <1>   0.1400 
  6 C        2.9530    -1.2220    -1.0150 C.3   1 <1>   0.0600 
  7 O        0.2600    -2.1510    -0.8340 O.3   1 <1>  -0.3630 
  8 C       -1.5310    -0.6400    -0.3090 C.3   1 <1>  -0.2400 
  9 C        0.2560    -1.1300     1.3820 C.3   1 <1>  -0.2400 
 10 C        3.6840     1.9260    -0.5290 C.3   1 <1>  -0.1600 
 11 C       -0.3080    -3.3380    -0.5190 C.ar  1 <1>   0.0820 
 12 C        4.3690     3.1940    -1.0470 C.3   1 <1>   0.0210 
 13 C        0.2800    -4.1650     0.4280 C.ar  1 <1>  -0.1500 
 14 C       -1.4520    -3.7500    -1.1840 C.ar  1 <1>  -0.1500 
 15 C        5.0780     3.9120     0.0890 C.2   1 <1>  -0.1810 
 16 C       -0.2930    -5.3870     0.7390 C.ar  1 <1>  -0.1430 
 17 C       -2.0250    -4.9710    -0.8780 C.ar  1 <1>  -0.1500 
 18 C        4.4800     4.7100     1.0650 C.2   1 <1>   0.1080 
 19 C        6.3960     3.9280     0.3920 C.2   1 <1>  -0.3320 
 20 C       -1.4480    -5.7840     0.0840 C.ar  1 <1>  -0.1500 
 21 C        0.3380    -6.2920     1.7810 C.3   1 <1>  -0.0970 
 22 N        5.3430     5.1870     1.9050 N.2   1 <1>  -0.7070 
 23 C        3.0040     5.0160     1.1860 C.3   1 <1>  -0.0590 
 24 N        6.5250     4.7050     1.4870 N.pl3 1 <1>   0.3000 
 25 C        7.5780     3.2500    -0.2800 C.3   1 <1>  -0.0600 
 26 H        2.2580     1.8750    -2.1350 H     1 <1>   0.0800 
 27 H        3.6320     0.8400    -2.3920 H     1 <1>   0.0800 
 28 H        2.6510    -1.8140    -0.1720 H     1 <1>   0.0800 
 29 H        4.0050    -1.0190    -0.9210 H     1 <1>   0.0800 
 30 H        2.7830    -1.7860    -1.9160 H     1 <1>   0.0800 
 31 H       -1.7540    -0.5330    -1.3550 H     1 <1>   0.0800 
 32 H       -1.7860     0.2810     0.1830 H     1 <1>   0.0800 
 33 H       -2.1420    -1.4150     0.1160 H     1 <1>   0.0800 
 34 H        1.2780    -1.4140     1.5450 H     1 <1>   0.0800 
 35 H       -0.3980    -1.8650     1.8130 H     1 <1>   0.0800 
 36 H        0.0870    -0.1990     1.8930 H     1 <1>   0.0800 
 37 H        4.4230     1.2770    -0.0960 H     1 <1>   0.0800 
 38 H        2.9790     2.1980     0.2370 H     1 <1>   0.0800 
 39 H        3.6410     3.8540    -1.4840 H     1 <1>   0.0800 
 40 H        5.0770     2.9380    -1.8130 H     1 <1>   0.0800 
 41 H        1.1830    -3.8480     0.9130 H     1 <1>   0.1500 
 42 H       -1.8850    -3.1170    -1.9370 H     1 <1>   0.1500 
 43 H       -2.9170    -5.2900    -1.3880 H     1 <1>   0.1500 
 44 H       -1.9010    -6.7320     0.3160 H     1 <1>   0.1500 
 45 H        1.0040    -5.7370     2.4160 H     1 <1>   0.0800 
 46 H        0.8940    -7.0740     1.2950 H     1 <1>   0.0800 
 47 H       -0.4240    -6.7380     2.3960 H     1 <1>   0.0800 
 48 H        2.5670     5.1590     0.2160 H     1 <1>   0.0800 
 49 H        2.8670     5.9130     1.7620 H     1 <1>   0.0800 
 50 H        2.5080     4.2050     1.6850 H     1 <1>   0.0800 
 51 H        7.4020     4.9240     1.9740 H     1 <1>   0.2700 
 52 H        7.2530     2.6340    -1.0970 H     1 <1>   0.0800 
 53 H        8.0970     2.6280     0.4270 H     1 <1>   0.0800 
 54 H        8.2600     3.9900    -0.6610 H     1 <1>   0.0800 
@<TRIPOS>BOND
  1   1   2  2   
  2   2   3  am  
  3   2   4  1   
  4   3   5  1   
  5   3   6  1   
  6   4   7  1   
  7   4   8  1   
  8   4   9  1   
  9   5  10  1   
 10   5  26  1   
 11   5  27  1   
 12   6  28  1   
 13   6  29  1   
 14   6  30  1   
 15   7  11  1   
 16   8  31  1   
 17   8  32  1   
 18   8  33  1   
 19   9  34  1   
 20   9  35  1   
 21   9  36  1   
 22  10  12  1   
 23  10  37  1   
 24  10  38  1   
 25  11  13  ar  
 26  11  14  ar  
 27  12  15  1   
 28  12  39  1   
 29  12  40  1   
 30  13  16  ar  
 31  13  41  1   
 32  14  17  ar  
 33  14  42  1   
 34  15  18  1   
 35  15  19  2   
 36  16  20  ar  
 37  16  21  1   
 38  17  20  ar  
 39  17  43  1   
 40  18  22  2   
 41  18  23  1   
 42  19  24  1   
 43  19  25  1   
 44  20  44  1   
 45  21  45  1   
 46  21  46  1   
 47  21  47  1   
 48  22  24  1   
 49  23  48  1   
 50  23  49  1   
 51  23  50  1   
 52  24  51  1   
 53  25  52  1   
 54  25  53  1   
 55  25  54  1   
@<TRIPOS>SUBSTRUCTURE
  1 ****   3 GROUP 4 **** **** 0

# MOE 2024.06 (io_trps.svl 2023.06)
