@<TRIPOS>MOLECULE
NONAME
21 21 1 0 0 
SMALL
USER_CHARGES


@<TRIPOS>ATOM
  1 F        4.6860     3.1130     0.6320 F     1 <1>  -0.3400 
  2 C        4.9280     2.1850    -0.2780 C.3   1 <1>   0.6000 
  3 F        3.7760     1.5440    -0.4200 F     1 <1>  -0.3400 
  4 C        5.9980     1.2200     0.2620 C.3   1 <1>  -0.1600 
  5 C        6.0620    -0.1500    -0.4520 C.3   1 <1>  -0.0800 
  6 C        4.8550    -1.0590    -0.1620 C.3   1 <1>   0.3430 
  7 C        7.2890    -0.9590    -0.0140 C.3   1 <1>  -0.1600 
  8 N        5.4090    -2.3030     0.4340 N.4   1 <1>  -0.9060 
  9 C        6.8230    -2.4050     0.0170 C.3   1 <1>   0.3430 
 10 H        5.1700     2.6660    -1.2100 H     1 <1>   0.0800 
 11 H        5.8280     1.0740     1.3150 H     1 <1>   0.0800 
 12 H        6.9470     1.7140     0.1550 H     1 <1>   0.0800 
 13 H        6.1090     0.0110    -1.5170 H     1 <1>   0.0800 
 14 H        4.3420    -1.2810    -1.0840 H     1 <1>   0.0800 
 15 H        4.1620    -0.5870     0.5170 H     1 <1>   0.0800 
 16 H        7.6070    -0.6780     0.9770 H     1 <1>   0.0800 
 17 H        8.1210    -0.8310    -0.6860 H     1 <1>   0.0800 
 18 H        4.8650    -3.1310     0.1590 H     1 <1>   0.4500 
 19 H        5.3650    -2.2260     1.4580 H     1 <1>   0.4500 
 20 H        7.4050    -3.0030     0.7010 H     1 <1>   0.0800 
 21 H        6.8840    -2.8270    -0.9740 H     1 <1>   0.0800 
@<TRIPOS>BOND
  1   1   2  1   
  2   2   3  1   
  3   2   4  1   
  4   2  10  1   
  5   4   5  1   
  6   4  11  1   
  7   4  12  1   
  8   5   6  1   
  9   5   7  1   
 10   5  13  1   
 11   6   8  1   
 12   6  14  1   
 13   6  15  1   
 14   7   9  1   
 15   7  16  1   
 16   7  17  1   
 17   8   9  1   
 18   8  18  1   
 19   8  19  1   
 20   9  20  1   
 21   9  21  1   
@<TRIPOS>SUBSTRUCTURE
  1 ****   5 GROUP 4 **** **** 0

# MOE 2024.06 (io_trps.svl 2023.06)
