@<TRIPOS>MOLECULE
NONAME
48 49 1 0 0 
SMALL
USER_CHARGES


@<TRIPOS>ATOM
  1 F       -6.2920     0.2770    -1.6000 F     1 <1>  -0.1900 
  2 C       -5.1970     0.7470    -1.0540 C.ar  1 <1>   0.1900 
  3 C       -4.5800     0.0260    -0.0320 C.ar  1 <1>   0.0820 
  4 C       -4.7010     1.9450    -1.5290 C.ar  1 <1>  -0.1500 
  5 O       -5.1510    -1.1450     0.3670 O.3   1 <1>  -0.3630 
  6 C       -3.4100     0.5390     0.5310 C.ar  1 <1>  -0.1500 
  7 C       -3.5420     2.4180    -0.9460 C.ar  1 <1>   0.1900 
  8 C       -4.5530    -1.9700     1.3570 C.3   1 <1>   0.1810 
  9 C       -2.8900     1.7400     0.0700 C.ar  1 <1>  -0.1500 
 10 F       -3.0420     3.5470    -1.3700 F     1 <1>  -0.1900 
 11 C       -5.4340    -3.1810     1.6610 C.2   1 <1>   0.5690 
 12 O       -5.8070    -3.3100     2.8020 O.2   1 <1>  -0.5700 
 13 N       -5.8120    -4.0860     0.6960 N.am  1 <1>  -0.6600 
 14 C       -6.5810    -5.2990     1.1590 C.3   1 <1>   0.3210 
 15 C       -5.4100    -3.9810    -0.7510 C.3   1 <1>   0.1400 
 16 C       -7.0260    -6.2610     0.0550 C.2   1 <1>   0.0460 
 17 C       -6.3260    -3.0830    -1.6220 C.3   1 <1>   0.3430 
 18 N       -8.0660    -5.9720    -0.7600 N.2   1 <1>  -0.5650 
 19 C       -6.5070    -7.4750    -0.2470 C.2   1 <1>  -0.3320 
 20 N       -7.7830    -3.1610    -1.2840 N.4   1 <1>  -0.9590 
 21 C       -8.1670    -7.0170    -1.5180 C.2   1 <1>   0.0360 
 22 N       -7.2460    -7.9660    -1.2580 N.pl3 1 <1>   0.0330 
 23 C       -5.3470    -8.2510     0.3590 C.3   1 <1>  -0.0600 
 24 C       -8.6360    -2.9400    -2.4830 C.3   1 <1>   0.2630 
 25 C       -8.1610    -2.2200    -0.1860 C.3   1 <1>   0.2630 
 26 H       -5.1890     2.4890    -2.3160 H     1 <1>   0.1500 
 27 H       -2.8900     0.0300     1.3220 H     1 <1>   0.1500 
 28 H       -4.4360    -1.3890     2.2550 H     1 <1>   0.0800 
 29 H       -3.5910    -2.2930     1.0060 H     1 <1>   0.0800 
 30 H       -1.9890     2.1530     0.4920 H     1 <1>   0.1500 
 31 H       -7.4570    -4.9740     1.6920 H     1 <1>   0.0800 
 32 H       -5.9700    -5.8360     1.8620 H     1 <1>   0.0800 
 33 H       -5.3640    -4.9590    -1.1950 H     1 <1>   0.0800 
 34 H       -4.4090    -3.5920    -0.8140 H     1 <1>   0.0800 
 35 H       -6.1830    -3.3770    -2.6480 H     1 <1>   0.0800 
 36 H       -5.9990    -2.0620    -1.5430 H     1 <1>   0.0800 
 37 H       -7.9500    -4.1370    -0.9480 H     1 <1>   0.4500 
 38 H       -8.9100    -7.1460    -2.2870 H     1 <1>   0.1500 
 39 H       -7.1450    -8.8750    -1.7230 H     1 <1>   0.2700 
 40 H       -4.8560    -7.6780     1.1240 H     1 <1>   0.0800 
 41 H       -4.6230    -8.4910    -0.3990 H     1 <1>   0.0800 
 42 H       -5.7040    -9.1660     0.7980 H     1 <1>   0.0800 
 43 H       -8.4830    -1.9470    -2.8730 H     1 <1>   0.0800 
 44 H       -9.6760    -3.0560    -2.2230 H     1 <1>   0.0800 
 45 H       -8.3940    -3.6590    -3.2480 H     1 <1>   0.0800 
 46 H       -7.9390    -1.2040    -0.4700 H     1 <1>   0.0800 
 47 H       -7.6180    -2.4510     0.7140 H     1 <1>   0.0800 
 48 H       -9.2140    -2.3010     0.0260 H     1 <1>   0.0800 
@<TRIPOS>BOND
  1   1   2  1   
  2   2   3  ar  
  3   2   4  ar  
  4   3   5  1   
  5   3   6  ar  
  6   4   7  ar  
  7   4  26  1   
  8   5   8  1   
  9   6   9  ar  
 10   6  27  1   
 11   7   9  ar  
 12   7  10  1   
 13   8  11  1   
 14   8  28  1   
 15   8  29  1   
 16   9  30  1   
 17  11  12  2   
 18  11  13  am  
 19  13  14  1   
 20  13  15  1   
 21  14  16  1   
 22  14  31  1   
 23  14  32  1   
 24  15  17  1   
 25  15  33  1   
 26  15  34  1   
 27  16  18  1   
 28  16  19  2   
 29  17  20  1   
 30  17  35  1   
 31  17  36  1   
 32  18  21  2   
 33  19  22  1   
 34  19  23  1   
 35  20  24  1   
 36  20  25  1   
 37  20  37  1   
 38  21  22  1   
 39  21  38  1   
 40  22  39  1   
 41  23  40  1   
 42  23  41  1   
 43  23  42  1   
 44  24  43  1   
 45  24  44  1   
 46  24  45  1   
 47  25  46  1   
 48  25  47  1   
 49  25  48  1   
@<TRIPOS>SUBSTRUCTURE
  1 ****  15 GROUP 4 **** **** 0

# MOE 2024.06 (io_trps.svl 2023.06)
