@<TRIPOS>MOLECULE
NONAME
46 48 1 0 0 
SMALL
USER_CHARGES


@<TRIPOS>ATOM
  1 O       -0.4960     0.2500     0.6300 O.2   1 <1>  -0.5700 
  2 C       -1.4220     0.9540     0.2720 C.2   1 <1>   0.5440 
  3 N       -2.5010     0.3720    -0.3670 N.am  1 <1>  -0.6600 
  4 C       -1.3710     2.3790     0.5440 C.ar  1 <1>   0.0860 
  5 C       -3.8070     1.0860    -0.5030 C.3   1 <1>   0.2200 
  6 C       -2.4280    -1.0580    -0.7960 C.3   1 <1>   0.0600 
  7 C       -1.4290     3.3170    -0.4840 C.ar  1 <1>  -0.1500 
  8 C       -1.2830     2.8570     1.8470 C.ar  1 <1>  -0.1500 
  9 C       -5.0120     0.3130     0.0250 C.3   1 <1>  -0.1600 
 10 C       -4.1710     1.4020    -1.9500 C.3   1 <1>  -0.1600 
 11 C       -1.4330     4.6800    -0.2340 C.ar  1 <1>  -0.1430 
 12 C       -1.2810     4.2140     2.1110 C.ar  1 <1>  -0.1500 
 13 C       -6.2140     1.0010    -0.6360 C.3   1 <1>  -0.0800 
 14 C       -5.6770     1.6910    -1.9040 C.3   1 <1>  -0.0800 
 15 C       -1.3610     5.1340     1.0780 C.ar  1 <1>  -0.1430 
 16 C       -1.5110     5.6470    -1.4070 C.3   1 <1>  -0.0970 
 17 C       -6.8340     2.1070     0.2310 C.3   1 <1>  -0.1600 
 18 C       -6.0000     3.1860    -1.7560 C.3   1 <1>  -0.1600 
 19 C       -1.3600     6.6200     1.4080 C.3   1 <1>  -0.0970 
 20 C       -7.1300     3.2380    -0.7410 C.3   1 <1>   0.2000 
 21 O       -7.1180     4.4460    -0.0810 O.3   1 <1>  -0.6800 
 22 H       -3.7750     2.0160     0.0380 H     1 <1>   0.0800 
 23 H       -3.0220    -1.2260    -1.6750 H     1 <1>   0.0800 
 24 H       -2.7810    -1.6900     0.0000 H     1 <1>   0.0800 
 25 H       -1.4100    -1.3270    -1.0190 H     1 <1>   0.0800 
 26 H       -1.4710     2.9550    -1.4950 H     1 <1>   0.1500 
 27 H       -1.2150     2.1490     2.6540 H     1 <1>   0.1500 
 28 H       -4.9870    -0.7080    -0.3080 H     1 <1>   0.0800 
 29 H       -5.0610     0.3350     1.0990 H     1 <1>   0.0800 
 30 H       -3.6060     2.2310    -2.3360 H     1 <1>   0.0800 
 31 H       -4.0020     0.5420    -2.5720 H     1 <1>   0.0800 
 32 H       -1.2130     4.5480     3.1320 H     1 <1>   0.1500 
 33 H       -6.9700     0.2790    -0.8970 H     1 <1>   0.0800 
 34 H       -6.1670     1.2980    -2.7790 H     1 <1>   0.0800 
 35 H       -1.5570     5.1180    -2.3420 H     1 <1>   0.0800 
 36 H       -0.6420     6.2790    -1.4210 H     1 <1>   0.0800 
 37 H       -2.3910     6.2600    -1.3230 H     1 <1>   0.0800 
 38 H       -6.1270     2.4400     0.9710 H     1 <1>   0.0800 
 39 H       -7.7310     1.7680     0.7170 H     1 <1>   0.0800 
 40 H       -6.2990     3.6170    -2.6940 H     1 <1>   0.0800 
 41 H       -5.1440     3.7150    -1.3720 H     1 <1>   0.0800 
 42 H       -1.3070     6.7800     2.4700 H     1 <1>   0.0800 
 43 H       -2.2600     7.0810     1.0430 H     1 <1>   0.0800 
 44 H       -0.5120     7.0970     0.9530 H     1 <1>   0.0800 
 45 H       -8.0880     3.1040    -1.2170 H     1 <1>   0.0800 
 46 H       -6.2570     4.5730     0.3610 H     1 <1>   0.4000 
@<TRIPOS>BOND
  1   1   2  2   
  2   2   3  am  
  3   2   4  1   
  4   3   5  1   
  5   3   6  1   
  6   4   7  ar  
  7   4   8  ar  
  8   5   9  1   
  9   5  10  1   
 10   5  22  1   
 11   6  23  1   
 12   6  24  1   
 13   6  25  1   
 14   7  11  ar  
 15   7  26  1   
 16   8  12  ar  
 17   8  27  1   
 18   9  13  1   
 19   9  28  1   
 20   9  29  1   
 21  10  14  1   
 22  10  30  1   
 23  10  31  1   
 24  11  15  ar  
 25  11  16  1   
 26  12  15  ar  
 27  12  32  1   
 28  13  14  1   
 29  13  17  1   
 30  13  33  1   
 31  14  18  1   
 32  14  34  1   
 33  15  19  1   
 34  16  35  1   
 35  16  36  1   
 36  16  37  1   
 37  17  20  1   
 38  17  38  1   
 39  17  39  1   
 40  18  20  1   
 41  18  40  1   
 42  18  41  1   
 43  19  42  1   
 44  19  43  1   
 45  19  44  1   
 46  20  21  1   
 47  20  45  1   
 48  21  46  1   
@<TRIPOS>SUBSTRUCTURE
  1 ****   5 GROUP 4 **** **** 0

# MOE 2024.06 (io_trps.svl 2023.06)
