@<TRIPOS>MOLECULE
NONAME
53 57 1 0 0 
SMALL
USER_CHARGES


@<TRIPOS>ATOM
  1 O       -0.7540     0.5680     1.2780 O.2   1 <1>  -0.5700 
  2 C       -1.7820     1.1190     0.9220 C.2   1 <1>   0.7150 
  3 N       -2.9810     0.4740     1.1640 N.am  1 <1>  -0.6600 
  4 C       -1.7040     2.4010     0.2510 C.2   1 <1>   0.0550 
  5 C       -4.2270     0.7120     0.3860 C.3   1 <1>   0.1400 
  6 C       -3.0990    -0.6170     2.1720 C.3   1 <1>   0.1400 
  7 O       -2.6560     3.3140     0.4050 O.3   1 <1>  -0.2800 
  8 C       -0.7550     2.9100    -0.5630 C.2   1 <1>   0.0460 
  9 C       -4.6190    -0.5790    -0.3360 C.3   1 <1>  -0.1600 
 10 C       -3.4790    -1.9190     1.4670 C.3   1 <1>  -0.1600 
 11 C       -2.2130     4.3110    -0.3330 C.2   1 <1>   0.2980 
 12 N       -1.0960     4.1360    -0.9390 N.2   1 <1>  -0.5650 
 13 C        0.5440     2.3110    -1.0640 C.3   1 <1>  -0.0590 
 14 C       -4.7570    -1.7560     0.6390 C.3   1 <1>   0.4600 
 15 C       -3.0760     5.5630    -0.3870 C.3   1 <1>   0.0200 
 16 O       -5.7920    -1.4750     1.5570 O.3   1 <1>  -0.5600 
 17 C       -5.0760    -3.0490    -0.1010 C.2   1 <1>  -0.3320 
 18 C       -2.5110     6.6720    -1.2880 C.3   1 <1>  -0.2400 
 19 C       -7.1200    -1.7140     1.1560 C.3   1 <1>   0.1200 
 20 N       -4.2500    -3.7200    -0.9600 N.pl3 1 <1>   0.0330 
 21 C       -6.2440    -3.7140     0.0030 C.2   1 <1>  -0.1810 
 22 C       -7.3600    -3.2080     0.8820 C.3   1 <1>   0.0210 
 23 C       -4.9160    -4.8380    -1.4020 C.ar  1 <1>  -0.1520 
 24 C       -6.1760    -4.8640    -0.8110 C.ar  1 <1>   0.0000 
 25 C       -4.5180    -5.8470    -2.2830 C.ar  1 <1>  -0.1500 
 26 C       -7.0550    -5.9120    -1.0990 C.ar  1 <1>  -0.1500 
 27 C       -5.3930    -6.8720    -2.5590 C.ar  1 <1>  -0.1500 
 28 C       -6.6620    -6.9050    -1.9670 C.ar  1 <1>  -0.1500 
 29 H       -4.0880     1.4880    -0.3440 H     1 <1>   0.0800 
 30 H       -5.0120     1.0140     1.0590 H     1 <1>   0.0800 
 31 H       -3.8600    -0.3530     2.8880 H     1 <1>   0.0800 
 32 H       -2.1740    -0.7480     2.7070 H     1 <1>   0.0800 
 33 H       -3.8580    -0.8080    -1.0590 H     1 <1>   0.0800 
 34 H       -5.5350    -0.4380    -0.8760 H     1 <1>   0.0800 
 35 H       -3.6260    -2.6990     2.1910 H     1 <1>   0.0800 
 36 H       -2.6640    -2.2100     0.8320 H     1 <1>   0.0800 
 37 H        0.6580     1.2960    -0.7310 H     1 <1>   0.0800 
 38 H        1.3700     2.8920    -0.6980 H     1 <1>   0.0800 
 39 H        0.5570     2.3270    -2.1380 H     1 <1>   0.0800 
 40 H       -3.1810     5.9410     0.6140 H     1 <1>   0.0800 
 41 H       -4.0520     5.2850    -0.7400 H     1 <1>   0.0800 
 42 H       -1.5400     6.9750    -0.9360 H     1 <1>   0.0800 
 43 H       -3.1640     7.5260    -1.2830 H     1 <1>   0.0800 
 44 H       -2.4130     6.3140    -2.2970 H     1 <1>   0.0800 
 45 H       -7.3200    -1.1360     0.2710 H     1 <1>   0.0800 
 46 H       -7.7670    -1.3730     1.9440 H     1 <1>   0.0800 
 47 H       -3.2950    -3.4600    -1.2240 H     1 <1>   0.2700 
 48 H       -8.3070    -3.3400     0.3920 H     1 <1>   0.0800 
 49 H       -7.3690    -3.7540     1.8070 H     1 <1>   0.0800 
 50 H       -3.5420    -5.8150    -2.7330 H     1 <1>   0.1500 
 51 H       -8.0240    -5.9250    -0.6370 H     1 <1>   0.1500 
 52 H       -5.1100    -7.6610    -3.2340 H     1 <1>   0.1500 
 53 H       -7.3270    -7.7180    -2.1990 H     1 <1>   0.1500 
@<TRIPOS>BOND
  1   1   2  2   
  2   2   3  am  
  3   2   4  1   
  4   3   5  1   
  5   3   6  1   
  6   4   7  1   
  7   4   8  2   
  8   5   9  1   
  9   5  29  1   
 10   5  30  1   
 11   6  10  1   
 12   6  31  1   
 13   6  32  1   
 14   7  11  1   
 15   8  12  1   
 16   8  13  1   
 17   9  14  1   
 18   9  33  1   
 19   9  34  1   
 20  10  14  1   
 21  10  35  1   
 22  10  36  1   
 23  11  12  2   
 24  11  15  1   
 25  13  37  1   
 26  13  38  1   
 27  13  39  1   
 28  14  16  1   
 29  14  17  1   
 30  15  18  1   
 31  15  40  1   
 32  15  41  1   
 33  16  19  1   
 34  17  20  1   
 35  17  21  2   
 36  18  42  1   
 37  18  43  1   
 38  18  44  1   
 39  19  22  1   
 40  19  45  1   
 41  19  46  1   
 42  20  23  1   
 43  20  47  1   
 44  21  22  1   
 45  21  24  1   
 46  22  48  1   
 47  22  49  1   
 48  23  24  ar  
 49  23  25  ar  
 50  24  26  ar  
 51  25  27  ar  
 52  25  50  1   
 53  26  28  ar  
 54  26  51  1   
 55  27  28  ar  
 56  27  52  1   
 57  28  53  1   
@<TRIPOS>SUBSTRUCTURE
  1 ****   9 GROUP 4 **** **** 0

# MOE 2024.06 (io_trps.svl 2023.06)
