@<TRIPOS>MOLECULE
NONAME
53 56 1 0 0 
SMALL
USER_CHARGES


@<TRIPOS>ATOM
  1 O       -0.2490    -1.8280    -0.9640 O.2   1 <1>  -0.5700 
  2 C        0.7960    -2.4490    -0.8320 C.2   1 <1>   0.7670 
  3 N        1.6390    -2.4850    -1.9080 N.2   1 <1>  -0.6610 
  4 C        1.1190    -3.1270     0.3870 C.2   1 <1>  -0.1240 
  5 C        2.7330    -3.1320    -1.7840 C.2   1 <1>   0.4390 
  6 C        2.3010    -3.7940     0.4650 C.2   1 <1>  -0.0380 
  7 C        0.1060    -3.0880     1.5370 C.3   1 <1>   0.0390 
  8 N        3.0970    -3.7820    -0.6450 N.pl3 1 <1>  -0.5500 
  9 C        3.6970    -3.2050    -2.9420 C.3   1 <1>  -0.1790 
 10 C        2.8420    -4.5770     1.6500 C.3   1 <1>  -0.1020 
 11 C       -0.5570    -4.4410     1.7440 C.2   1 <1>   0.5690 
 12 O       -0.2610    -5.0640     2.7370 O.2   1 <1>  -0.5700 
 13 N       -1.4550    -4.9400     0.8410 N.am  1 <1>  -0.6600 
 14 C       -2.0340    -4.2450    -0.3380 C.3   1 <1>   0.1400 
 15 C       -1.9400    -6.3420     0.8980 C.3   1 <1>   0.1400 
 16 C       -3.1990    -5.1340    -0.7680 C.3   1 <1>   0.2000 
 17 C       -2.7510    -6.5480    -0.3920 C.3   1 <1>  -0.0800 
 18 O       -4.3040    -4.8180     0.0050 O.3   1 <1>  -0.6800 
 19 C       -1.8970    -7.1680    -1.5160 C.3   1 <1>  -0.0160 
 20 C       -1.4910    -8.5970    -1.2000 C.ar  1 <1>   0.1670 
 21 N       -0.2840    -8.7990    -0.7680 N.ar  1 <1>  -0.6200 
 22 C       -2.4310    -9.6240    -1.3870 C.ar  1 <1>  -0.1500 
 23 C        0.0790   -10.0730    -0.4730 C.ar  1 <1>   0.3100 
 24 C       -2.0930   -10.9120    -1.1040 C.ar  1 <1>  -0.1500 
 25 C       -0.7970   -11.1700    -0.6270 C.ar  1 <1>   0.0000 
 26 C        1.3760   -10.3150     0.0060 C.ar  1 <1>  -0.1500 
 27 C       -0.3400   -12.4620    -0.2990 C.ar  1 <1>  -0.1500 
 28 C        1.8010   -11.5790     0.3210 C.ar  1 <1>  -0.1500 
 29 C        0.9320   -12.6640     0.1650 C.ar  1 <1>  -0.1500 
 30 H       -0.6570    -2.3490     1.3800 H     1 <1>   0.0800 
 31 H        0.6110    -2.8100     2.4420 H     1 <1>   0.0800 
 32 H        3.9860    -4.2870    -0.6410 H     1 <1>   0.4000 
 33 H        4.6410    -2.7780    -2.6600 H     1 <1>   0.0800 
 34 H        3.3070    -2.6550    -3.7800 H     1 <1>   0.0800 
 35 H        3.8380    -4.2280    -3.2370 H     1 <1>   0.0800 
 36 H        3.8500    -4.2710     1.8650 H     1 <1>   0.0800 
 37 H        2.8370    -5.6280     1.4240 H     1 <1>   0.0800 
 38 H        2.2590    -4.4250     2.5380 H     1 <1>   0.0800 
 39 H       -2.3590    -3.2450    -0.1060 H     1 <1>   0.0800 
 40 H       -1.3010    -4.2140    -1.1250 H     1 <1>   0.0800 
 41 H       -1.1110    -7.0240     0.9830 H     1 <1>   0.0800 
 42 H       -2.5720    -6.4570     1.7610 H     1 <1>   0.0800 
 43 H       -3.4650    -5.0160    -1.8050 H     1 <1>   0.0800 
 44 H       -3.6000    -7.1850    -0.2130 H     1 <1>   0.0800 
 45 H       -4.0250    -4.7700     0.9420 H     1 <1>   0.4000 
 46 H       -1.0090    -6.5800    -1.6750 H     1 <1>   0.0800 
 47 H       -2.4540    -7.1660    -2.4360 H     1 <1>   0.0800 
 48 H       -3.4110    -9.3790    -1.7520 H     1 <1>   0.1500 
 49 H       -2.7850   -11.7250    -1.2340 H     1 <1>   0.1500 
 50 H        2.0260    -9.4680     0.1190 H     1 <1>   0.1500 
 51 H       -1.0130   -13.2920    -0.4200 H     1 <1>   0.1500 
 52 H        2.7980   -11.7510     0.6880 H     1 <1>   0.1500 
 53 H        1.2790   -13.6520     0.4160 H     1 <1>   0.1500 
@<TRIPOS>BOND
  1   1   2  2   
  2   2   3  1   
  3   2   4  1   
  4   3   5  2   
  5   4   6  2   
  6   4   7  1   
  7   5   8  1   
  8   5   9  1   
  9   6   8  1   
 10   6  10  1   
 11   7  11  1   
 12   7  30  1   
 13   7  31  1   
 14   8  32  1   
 15   9  33  1   
 16   9  34  1   
 17   9  35  1   
 18  10  36  1   
 19  10  37  1   
 20  10  38  1   
 21  11  12  2   
 22  11  13  am  
 23  13  14  1   
 24  13  15  1   
 25  14  16  1   
 26  14  39  1   
 27  14  40  1   
 28  15  17  1   
 29  15  41  1   
 30  15  42  1   
 31  16  17  1   
 32  16  18  1   
 33  16  43  1   
 34  17  19  1   
 35  17  44  1   
 36  18  45  1   
 37  19  20  1   
 38  19  46  1   
 39  19  47  1   
 40  20  21  ar  
 41  20  22  ar  
 42  21  23  ar  
 43  22  24  ar  
 44  22  48  1   
 45  23  25  ar  
 46  23  26  ar  
 47  24  25  ar  
 48  24  49  1   
 49  25  27  ar  
 50  26  28  ar  
 51  26  50  1   
 52  27  29  ar  
 53  27  51  1   
 54  28  29  ar  
 55  28  52  1   
 56  29  53  1   
@<TRIPOS>SUBSTRUCTURE
  1 ****  15 GROUP 4 **** **** 0

# MOE 2024.06 (io_trps.svl 2023.06)
