@<TRIPOS>MOLECULE
NONAME
53 54 1 0 0 
SMALL
USER_CHARGES


@<TRIPOS>ATOM
  1 O        0.8180     2.0260    -1.6790 O.2   1 <1>  -0.5700 
  2 C        0.2130     2.9820    -1.2530 C.2   1 <1>   0.5690 
  3 N       -0.7120     2.8790    -0.2510 N.am  1 <1>  -0.6600 
  4 C        0.5180     4.3520    -1.8580 C.3   1 <1>   0.1810 
  5 C       -1.4660     4.0770     0.2390 C.3   1 <1>   0.3640 
  6 C       -1.0390     1.5830     0.4090 C.3   1 <1>   0.0600 
  7 O       -0.5540     5.2640    -1.7480 O.3   1 <1>  -0.5600 
  8 C       -2.9900     3.8620     0.1800 C.ar  1 <1>  -0.1430 
  9 C       -1.0620     5.4270    -0.4280 C.3   1 <1>   0.2610 
 10 C       -3.7160     3.5040    -0.9600 C.ar  1 <1>  -0.1430 
 11 C       -3.6780     4.0570     1.3740 C.ar  1 <1>  -0.1500 
 12 C       -0.1080     6.2720     0.4300 C.2   1 <1>   0.5690 
 13 C       -5.0920     3.3490    -0.8730 C.ar  1 <1>  -0.1500 
 14 C       -3.0800     3.2670    -2.3250 C.3   1 <1>  -0.0960 
 15 C       -5.0490     3.9010     1.4490 C.ar  1 <1>  -0.1500 
 16 O       -0.1050     6.1460     1.6320 O.2   1 <1>  -0.5700 
 17 N        0.6930     7.1700    -0.2140 N.am  1 <1>  -0.7300 
 18 C       -5.7590     3.5450     0.3210 C.ar  1 <1>  -0.1500 
 19 C        1.6990     8.1080     0.3320 C.3   1 <1>   0.3000 
 20 C        2.2920     8.9040    -0.8560 C.3   1 <1>   0.1200 
 21 C        1.0100     9.0620     1.3150 C.3   1 <1>  -0.2400 
 22 C        2.7960     7.2970     1.0310 C.3   1 <1>  -0.2400 
 23 O        3.2670     9.8090    -0.4260 O.3   1 <1>  -0.5600 
 24 C        3.8280    10.5700    -1.4410 C.3   1 <1>   0.1200 
 25 C        4.8690    11.4810    -0.8040 C.3   1 <1>  -0.2400 
 26 H        0.7340     4.2310    -2.9040 H     1 <1>   0.0800 
 27 H        1.3830     4.7670    -1.3740 H     1 <1>   0.0800 
 28 H       -1.2270     4.1500     1.2830 H     1 <1>   0.0800 
 29 H       -0.9390     1.6790     1.4760 H     1 <1>   0.0800 
 30 H       -0.3770     0.8050     0.0700 H     1 <1>   0.0800 
 31 H       -2.0500     1.2990     0.1740 H     1 <1>   0.0800 
 32 H       -1.9560     6.0150    -0.5250 H     1 <1>   0.0800 
 33 H       -3.1510     4.3390     2.2700 H     1 <1>   0.1500 
 34 H       -5.6640     3.0720    -1.7410 H     1 <1>   0.1500 
 35 H       -3.8210     2.9910    -3.0540 H     1 <1>   0.0800 
 36 H       -2.3650     2.4680    -2.2770 H     1 <1>   0.0800 
 37 H       -2.6000     4.1590    -2.6750 H     1 <1>   0.0800 
 38 H       -5.5610     4.0560     2.3820 H     1 <1>   0.1500 
 39 H        0.5990     7.1940    -1.2310 H     1 <1>   0.3700 
 40 H       -6.8270     3.4200     0.3710 H     1 <1>   0.1500 
 41 H        1.5120     9.4630    -1.3450 H     1 <1>   0.0800 
 42 H        2.7520     8.2280    -1.5550 H     1 <1>   0.0800 
 43 H        1.7180     9.7850     1.6800 H     1 <1>   0.0800 
 44 H        0.6220     8.5290     2.1630 H     1 <1>   0.0800 
 45 H        0.2090     9.5890     0.8310 H     1 <1>   0.0800 
 46 H        3.5580     7.9580     1.4030 H     1 <1>   0.0800 
 47 H        3.2520     6.6080     0.3450 H     1 <1>   0.0800 
 48 H        2.3970     6.7530     1.8670 H     1 <1>   0.0800 
 49 H        4.2890     9.9110    -2.1580 H     1 <1>   0.0800 
 50 H        3.0530    11.1500    -1.9120 H     1 <1>   0.0800 
 51 H        5.6300    10.8930    -0.3240 H     1 <1>   0.0800 
 52 H        4.4020    12.1230    -0.0790 H     1 <1>   0.0800 
 53 H        5.3310    12.0920    -1.5580 H     1 <1>   0.0800 
@<TRIPOS>BOND
  1   1   2  2   
  2   2   3  am  
  3   2   4  1   
  4   3   5  1   
  5   3   6  1   
  6   4   7  1   
  7   4  26  1   
  8   4  27  1   
  9   5   8  1   
 10   5   9  1   
 11   5  28  1   
 12   6  29  1   
 13   6  30  1   
 14   6  31  1   
 15   7   9  1   
 16   8  10  ar  
 17   8  11  ar  
 18   9  12  1   
 19   9  32  1   
 20  10  13  ar  
 21  10  14  1   
 22  11  15  ar  
 23  11  33  1   
 24  12  16  2   
 25  12  17  am  
 26  13  18  ar  
 27  13  34  1   
 28  14  35  1   
 29  14  36  1   
 30  14  37  1   
 31  15  18  ar  
 32  15  38  1   
 33  17  19  1   
 34  17  39  1   
 35  18  40  1   
 36  19  20  1   
 37  19  21  1   
 38  19  22  1   
 39  20  23  1   
 40  20  41  1   
 41  20  42  1   
 42  21  43  1   
 43  21  44  1   
 44  21  45  1   
 45  22  46  1   
 46  22  47  1   
 47  22  48  1   
 48  23  24  1   
 49  24  25  1   
 50  24  49  1   
 51  24  50  1   
 52  25  51  1   
 53  25  52  1   
 54  25  53  1   
@<TRIPOS>SUBSTRUCTURE
  1 ****   9 GROUP 4 **** **** 0

# MOE 2024.06 (io_trps.svl 2023.06)
