@<TRIPOS>MOLECULE
NONAME
49 50 1 0 0 
SMALL
USER_CHARGES


@<TRIPOS>ATOM
  1 O        0.1500    -0.8770     0.4960 O.2   1 <1>  -0.5700 
  2 C       -1.0030    -1.2350     0.3440 C.2   1 <1>   0.5440 
  3 N       -1.9820    -0.2790     0.2790 N.am  1 <1>  -0.7300 
  4 C       -1.3320    -2.6420     0.2150 C.ar  1 <1>   0.0860 
  5 C       -1.7710     1.1860     0.4070 C.3   1 <1>   0.0600 
  6 C       -0.4030    -3.5560    -0.2850 C.ar  1 <1>  -0.1500 
  7 C       -2.5790    -3.1510     0.5800 C.ar  1 <1>  -0.1500 
  8 C       -0.6920    -4.9010    -0.4360 C.ar  1 <1>  -0.1430 
  9 C       -2.8810    -4.4900     0.4350 C.ar  1 <1>  -0.1500 
 10 C       -1.9520    -5.3890    -0.0800 C.ar  1 <1>   0.1170 
 11 C        0.3850    -5.8220    -0.9980 C.3   1 <1>  -0.0970 
 12 N       -2.2360    -6.7530    -0.2290 N.am  1 <1>  -0.5470 
 13 C       -3.4210    -7.4310    -0.3220 C.2   1 <1>   0.5690 
 14 O       -4.5050    -6.9050    -0.3040 O.2   1 <1>  -0.5700 
 15 C       -3.3600    -8.9370    -0.4570 C.3   1 <1>  -0.0990 
 16 C       -3.6440    -9.6240     0.8820 C.3   1 <1>  -0.0170 
 17 C       -3.5370   -11.1330     0.7330 C.ar  1 <1>  -0.1430 
 18 C       -4.6100   -11.8620     0.2450 C.ar  1 <1>  -0.1500 
 19 C       -2.3690   -11.7920     1.0770 C.ar  1 <1>  -0.1500 
 20 C       -4.5210   -13.2440     0.0970 C.ar  1 <1>   0.0830 
 21 C       -2.2730   -13.1650     0.9330 C.ar  1 <1>  -0.1500 
 22 O       -5.5460   -14.0020    -0.3780 O.3   1 <1>  -0.3620 
 23 C       -3.3420   -13.8980     0.4440 C.ar  1 <1>  -0.1430 
 24 C       -6.7880   -13.4350    -0.7280 C.3   1 <1>   0.0400 
 25 C       -3.2200   -15.4070     0.2930 C.3   1 <1>  -0.0970 
 26 H       -2.9300    -0.5710     0.0330 H     1 <1>   0.3700 
 27 H       -0.7530     1.3970     0.6910 H     1 <1>   0.0800 
 28 H       -2.4280     1.5840     1.1590 H     1 <1>   0.0800 
 29 H       -1.9740     1.6660    -0.5350 H     1 <1>   0.0800 
 30 H        0.5680    -3.1800    -0.5580 H     1 <1>   0.1500 
 31 H       -3.3230    -2.4930     0.9920 H     1 <1>   0.1500 
 32 H       -3.8530    -4.8370     0.7350 H     1 <1>   0.1500 
 33 H        1.2630    -5.2640    -1.2710 H     1 <1>   0.0800 
 34 H        0.0220    -6.3220    -1.8780 H     1 <1>   0.0800 
 35 H        0.6690    -6.5530    -0.2630 H     1 <1>   0.0800 
 36 H       -1.4070    -7.3310    -0.3380 H     1 <1>   0.3700 
 37 H       -2.3960    -9.2370    -0.8230 H     1 <1>   0.0800 
 38 H       -4.0960    -9.2440    -1.1790 H     1 <1>   0.0800 
 39 H       -4.6330    -9.3640     1.2200 H     1 <1>   0.0800 
 40 H       -2.9470    -9.2810     1.6260 H     1 <1>   0.0800 
 41 H       -5.5080   -11.3370    -0.0170 H     1 <1>   0.1500 
 42 H       -1.5270   -11.2440     1.4600 H     1 <1>   0.1500 
 43 H       -1.3590   -13.6610     1.2060 H     1 <1>   0.1500 
 44 H       -7.4350   -14.2270    -1.0610 H     1 <1>   0.0800 
 45 H       -6.6370   -12.7270    -1.5240 H     1 <1>   0.0800 
 46 H       -7.2100   -12.9580     0.1390 H     1 <1>   0.0800 
 47 H       -3.9670   -15.8940     0.8930 H     1 <1>   0.0800 
 48 H       -2.2510   -15.7540     0.6020 H     1 <1>   0.0800 
 49 H       -3.3720   -15.6820    -0.7360 H     1 <1>   0.0800 
@<TRIPOS>BOND
  1   1   2  2   
  2   2   3  am  
  3   2   4  1   
  4   3   5  1   
  5   3  26  1   
  6   4   6  ar  
  7   4   7  ar  
  8   5  27  1   
  9   5  28  1   
 10   5  29  1   
 11   6   8  ar  
 12   6  30  1   
 13   7   9  ar  
 14   7  31  1   
 15   8  10  ar  
 16   8  11  1   
 17   9  10  ar  
 18   9  32  1   
 19  10  12  1   
 20  11  33  1   
 21  11  34  1   
 22  11  35  1   
 23  12  13  am  
 24  12  36  1   
 25  13  14  2   
 26  13  15  1   
 27  15  16  1   
 28  15  37  1   
 29  15  38  1   
 30  16  17  1   
 31  16  39  1   
 32  16  40  1   
 33  17  18  ar  
 34  17  19  ar  
 35  18  20  ar  
 36  18  41  1   
 37  19  21  ar  
 38  19  42  1   
 39  20  22  1   
 40  20  23  ar  
 41  21  23  ar  
 42  21  43  1   
 43  22  24  1   
 44  23  25  1   
 45  24  44  1   
 46  24  45  1   
 47  24  46  1   
 48  25  47  1   
 49  25  48  1   
 50  25  49  1   
@<TRIPOS>SUBSTRUCTURE
  1 ****  13 GROUP 4 **** **** 0

# MOE 2024.06 (io_trps.svl 2023.06)
