@<TRIPOS>MOLECULE
NONAME
37 38 1 0 0 
SMALL
USER_CHARGES


@<TRIPOS>ATOM
  1 CL       1.8330     1.4570     3.1970 Cl    1 <1>  -0.1770 
  2 C        2.2300     1.7200     1.5160 C.ar  1 <1>   0.1770 
  3 C        2.4090     3.0010     1.0230 C.ar  1 <1>   0.1900 
  4 C        2.3740     0.6350     0.6720 C.ar  1 <1>  -0.1500 
  5 F        2.2840     4.0260     1.8290 F     1 <1>  -0.1900 
  6 C        2.7360     3.2360    -0.3040 C.ar  1 <1>  -0.1440 
  7 C        2.6980     0.8500    -0.6590 C.ar  1 <1>  -0.1500 
  8 C        2.8770     2.1390    -1.1460 C.ar  1 <1>  -0.1500 
  9 C        2.9270     4.6530    -0.8140 C.3   1 <1>   0.4870 
 10 N        4.0650     5.2920    -0.0900 N.4   1 <1>  -0.9590 
 11 C        4.0770     6.7670    -0.3730 C.3   1 <1>   0.3430 
 12 C        5.3560     4.6200    -0.4040 C.3   1 <1>   0.3430 
 13 C        5.0170     7.5660     0.5380 C.3   1 <1>   0.0960 
 14 C        6.0310     4.2370     0.9060 C.3   1 <1>  -0.2400 
 15 N        4.9100     8.9900     0.1900 N.pl3 1 <1>   0.3140 
 16 N        4.4100     9.3940    -0.9920 N.2   1 <1>  -0.7070 
 17 C        5.2750    10.0380     0.9520 C.2   1 <1>  -0.3020 
 18 C        4.4710    10.6910    -0.9530 C.2   1 <1>   0.1390 
 19 C        5.0040    11.1540     0.2430 C.2   1 <1>  -0.1500 
 20 H        2.2340    -0.3620     1.0530 H     1 <1>   0.1500 
 21 H        2.8080     0.0050    -1.3210 H     1 <1>   0.1500 
 22 H        3.1230     2.2670    -2.1880 H     1 <1>   0.1500 
 23 H        2.0210     5.2110    -0.6370 H     1 <1>   0.0800 
 24 H        3.1180     4.6450    -1.8750 H     1 <1>   0.0800 
 25 H        3.8620     5.1370     0.9100 H     1 <1>   0.4500 
 26 H        3.0820     7.1630    -0.2460 H     1 <1>   0.0800 
 27 H        4.3670     6.9350    -1.3990 H     1 <1>   0.0800 
 28 H        5.9950     5.2740    -0.9770 H     1 <1>   0.0800 
 29 H        5.1850     3.7260    -0.9830 H     1 <1>   0.0800 
 30 H        6.0380     7.2700     0.3920 H     1 <1>   0.0800 
 31 H        4.7390     7.4470     1.5680 H     1 <1>   0.0800 
 32 H        6.2400     5.1000     1.5110 H     1 <1>   0.0800 
 33 H        6.9660     3.7500     0.6910 H     1 <1>   0.0800 
 34 H        5.4220     3.5450     1.4610 H     1 <1>   0.0800 
 35 H        5.6990     9.9460     1.9360 H     1 <1>   0.1500 
 36 H        4.1440    11.3290    -1.7590 H     1 <1>   0.1500 
 37 H        5.1560    12.1850     0.5130 H     1 <1>   0.1500 
@<TRIPOS>BOND
  1   1   2  1   
  2   2   3  ar  
  3   2   4  ar  
  4   3   5  1   
  5   3   6  ar  
  6   4   7  ar  
  7   4  20  1   
  8   6   8  ar  
  9   6   9  1   
 10   7   8  ar  
 11   7  21  1   
 12   8  22  1   
 13   9  10  1   
 14   9  23  1   
 15   9  24  1   
 16  10  11  1   
 17  10  12  1   
 18  10  25  1   
 19  11  13  1   
 20  11  26  1   
 21  11  27  1   
 22  12  14  1   
 23  12  28  1   
 24  12  29  1   
 25  13  15  1   
 26  13  30  1   
 27  13  31  1   
 28  14  32  1   
 29  14  33  1   
 30  14  34  1   
 31  15  16  1   
 32  15  17  1   
 33  16  18  2   
 34  17  19  2   
 35  17  35  1   
 36  18  19  1   
 37  18  36  1   
 38  19  37  1   
@<TRIPOS>SUBSTRUCTURE
  1 ****  10 GROUP 4 **** **** 0

# MOE 2024.06 (io_trps.svl 2023.06)
