@<TRIPOS>MOLECULE
NONAME
53 56 1 0 0 
SMALL
USER_CHARGES


@<TRIPOS>ATOM
  1 O       -0.5260    -0.6620     0.4600 O.2   1 <1>  -0.5700 
  2 C       -1.7070    -0.3720     0.3690 C.2   1 <1>   0.7150 
  3 N       -2.0360     0.9130    -0.0360 N.am  1 <1>  -0.6600 
  4 C       -2.7260    -1.3530     0.6910 C.2   1 <1>   0.0550 
  5 C       -1.0130     1.9950    -0.0870 C.3   1 <1>   0.0600 
  6 C       -3.3460     1.2700    -0.6440 C.3   1 <1>   0.0600 
  7 O       -2.5380    -2.6450     0.4300 O.3   1 <1>  -0.2800 
  8 C       -3.9540    -1.2140     1.2670 C.2   1 <1>  -0.1500 
  9 C       -3.5960    -3.3240     0.8120 C.2   1 <1>  -0.0400 
 10 C       -4.5150    -2.4880     1.3420 C.2   1 <1>  -0.1500 
 11 C       -3.5980    -4.8330     0.6140 C.3   1 <1>   0.2900 
 12 N       -4.9520    -5.4030     0.7450 N.3   1 <1>  -0.8100 
 13 C       -5.8280    -5.0520    -0.3780 C.3   1 <1>   0.1100 
 14 C       -4.9340    -6.8730     0.7730 C.3   1 <1>   0.1100 
 15 C       -6.9700    -6.0540    -0.2690 C.3   1 <1>   0.2000 
 16 C       -6.2640    -7.3440     0.1520 C.3   1 <1>  -0.0800 
 17 O       -7.7690    -5.6510     0.7830 O.3   1 <1>  -0.6800 
 18 C       -6.0450    -8.2750    -1.0540 C.3   1 <1>  -0.0170 
 19 C       -5.3210    -9.5520    -0.6590 C.ar  1 <1>   0.1670 
 20 N       -4.0510    -9.6270    -0.9150 N.ar  1 <1>  -0.6200 
 21 C       -6.0510   -10.5780    -0.0380 C.ar  1 <1>  -0.1500 
 22 C       -3.4000   -10.7640    -0.5580 C.ar  1 <1>   0.3100 
 23 C       -5.4230   -11.7280     0.3330 C.ar  1 <1>  -0.1500 
 24 C       -4.0480   -11.8480     0.0750 C.ar  1 <1>   0.0000 
 25 C       -2.0250   -10.8710    -0.8230 C.ar  1 <1>  -0.1500 
 26 C       -3.2970   -12.9900     0.4170 C.ar  1 <1>  -0.1500 
 27 C       -1.3130   -11.9910    -0.4830 C.ar  1 <1>  -0.1500 
 28 C       -1.9580   -13.0620     0.1440 C.ar  1 <1>  -0.1500 
 29 H       -1.4390     2.9210     0.2580 H     1 <1>   0.0800 
 30 H       -0.6650     2.1170    -1.0980 H     1 <1>   0.0800 
 31 H       -0.1720     1.7520     0.5400 H     1 <1>   0.0800 
 32 H       -3.1900     1.8840    -1.5140 H     1 <1>   0.0800 
 33 H       -3.9410     1.8150     0.0690 H     1 <1>   0.0800 
 34 H       -3.8790     0.3870    -0.9490 H     1 <1>   0.0800 
 35 H       -4.4190    -0.3100     1.6150 H     1 <1>   0.1500 
 36 H       -5.4790    -2.7390     1.7490 H     1 <1>   0.1500 
 37 H       -2.9520    -5.2680     1.3570 H     1 <1>   0.0800 
 38 H       -3.1950    -5.0650    -0.3570 H     1 <1>   0.0800 
 39 H       -6.1800    -4.0360    -0.3160 H     1 <1>   0.0800 
 40 H       -5.3110    -5.1950    -1.3120 H     1 <1>   0.0800 
 41 H       -4.0990    -7.2430     0.2020 H     1 <1>   0.0800 
 42 H       -4.8380    -7.2190     1.7880 H     1 <1>   0.0800 
 43 H       -7.5740    -6.1350    -1.1560 H     1 <1>   0.0800 
 44 H       -6.8480    -7.8710     0.8860 H     1 <1>   0.0800 
 45 H       -7.1550    -5.4040     1.5080 H     1 <1>   0.4000 
 46 H       -5.4740    -7.7670    -1.8120 H     1 <1>   0.0800 
 47 H       -6.9950    -8.5350    -1.4860 H     1 <1>   0.0800 
 48 H       -7.1020   -10.4410     0.1400 H     1 <1>   0.1500 
 49 H       -5.9490   -12.5350     0.8110 H     1 <1>   0.1500 
 50 H       -1.5490   -10.0380    -1.3060 H     1 <1>   0.1500 
 51 H       -3.7990   -13.8100     0.8980 H     1 <1>   0.1500 
 52 H       -0.2590   -12.0600    -0.6920 H     1 <1>   0.1500 
 53 H       -1.3860   -13.9360     0.4060 H     1 <1>   0.1500 
@<TRIPOS>BOND
  1   1   2  2   
  2   2   3  am  
  3   2   4  1   
  4   3   5  1   
  5   3   6  1   
  6   4   7  1   
  7   4   8  2   
  8   5  29  1   
  9   5  30  1   
 10   5  31  1   
 11   6  32  1   
 12   6  33  1   
 13   6  34  1   
 14   7   9  1   
 15   8  10  1   
 16   8  35  1   
 17   9  10  2   
 18   9  11  1   
 19  10  36  1   
 20  11  12  1   
 21  11  37  1   
 22  11  38  1   
 23  12  13  1   
 24  12  14  1   
 25  13  15  1   
 26  13  39  1   
 27  13  40  1   
 28  14  16  1   
 29  14  41  1   
 30  14  42  1   
 31  15  16  1   
 32  15  17  1   
 33  15  43  1   
 34  16  18  1   
 35  16  44  1   
 36  17  45  1   
 37  18  19  1   
 38  18  46  1   
 39  18  47  1   
 40  19  20  ar  
 41  19  21  ar  
 42  20  22  ar  
 43  21  23  ar  
 44  21  48  1   
 45  22  24  ar  
 46  22  25  ar  
 47  23  24  ar  
 48  23  49  1   
 49  24  26  ar  
 50  25  27  ar  
 51  25  50  1   
 52  26  28  ar  
 53  26  51  1   
 54  27  28  ar  
 55  27  52  1   
 56  28  53  1   
@<TRIPOS>SUBSTRUCTURE
  1 ****  11 GROUP 4 **** **** 0

# MOE 2024.06 (io_trps.svl 2023.06)
