@<TRIPOS>MOLECULE
NONAME
45 47 1 0 0 
SMALL
USER_CHARGES


@<TRIPOS>ATOM
  1 S       -0.7880     0.7690     2.6160 S.3   1 <1>  -0.0800 
  2 C       -1.5660    -0.0560     1.2860 C.2   1 <1>   0.1980 
  3 C       -0.0160     1.8210     1.4660 C.2   1 <1>  -0.1100 
  4 N       -1.2800     0.4050     0.1310 N.2   1 <1>  -0.5650 
  5 C       -2.4940    -1.2140     1.6160 C.3   1 <1>   0.5230 
  6 C       -0.3990     1.4710     0.2280 C.2   1 <1>   0.0460 
  7 N       -2.8220    -1.9390     0.3450 N.4   1 <1>  -0.9590 
  8 C        0.0380     2.1300    -1.0620 C.3   1 <1>  -0.0590 
  9 C       -4.1880    -2.5500     0.3790 C.3   1 <1>   0.3430 
 10 C       -1.7450    -2.9370     0.0340 C.3   1 <1>   0.2630 
 11 C       -4.6800    -2.9830    -1.0100 C.3   1 <1>   0.0960 
 12 N       -5.7570    -3.9780    -0.8540 N.pl3 1 <1>   0.0480 
 13 C       -5.6260    -5.2530    -0.4040 C.2   1 <1>  -0.2370 
 14 C       -7.0730    -3.8450    -1.1300 C.2   1 <1>   0.0360 
 15 C       -4.5190    -6.0130     0.0480 C.2   1 <1>   0.7150 
 16 C       -6.8650    -5.7850    -0.4480 C.2   1 <1>   0.2900 
 17 N       -7.7750    -4.9100    -0.8920 N.2   1 <1>  -0.5650 
 18 O       -3.4190    -5.4910     0.1600 O.2   1 <1>  -0.5700 
 19 N       -4.7350    -7.3340     0.3870 N.am  1 <1>  -0.4200 
 20 N       -7.0890    -7.1000    -0.0600 N.am  1 <1>  -0.4230 
 21 C       -6.0180    -7.8730     0.3530 C.2   1 <1>   0.6900 
 22 C       -3.6030    -8.2080     0.8170 C.3   1 <1>   0.0600 
 23 C       -8.4780    -7.6300    -0.1300 C.3   1 <1>   0.0600 
 24 O       -6.1890    -9.0290     0.6960 O.2   1 <1>  -0.5700 
 25 H        0.6400     2.5880     1.8400 H     1 <1>   0.1500 
 26 H       -3.3900    -0.8130     2.0600 H     1 <1>   0.0800 
 27 H       -2.0240    -1.8780     2.3220 H     1 <1>   0.0800 
 28 H       -2.7600    -1.1880    -0.3690 H     1 <1>   0.4500 
 29 H        0.7140     2.9410    -0.8600 H     1 <1>   0.0800 
 30 H       -0.8190     2.5150    -1.5840 H     1 <1>   0.0800 
 31 H        0.5350     1.4120    -1.6890 H     1 <1>   0.0800 
 32 H       -4.8940    -1.8430     0.7860 H     1 <1>   0.0800 
 33 H       -4.1650    -3.4110     1.0280 H     1 <1>   0.0800 
 34 H       -1.7320    -3.7220     0.7740 H     1 <1>   0.0800 
 35 H       -0.7800    -2.4540     0.0210 H     1 <1>   0.0800 
 36 H       -1.9110    -3.3880    -0.9300 H     1 <1>   0.0800 
 37 H       -3.8900    -3.4470    -1.5720 H     1 <1>   0.0800 
 38 H       -5.0540    -2.1370    -1.5570 H     1 <1>   0.0800 
 39 H       -7.4960    -2.9330    -1.5160 H     1 <1>   0.1500 
 40 H       -2.6530    -7.7560     0.5940 H     1 <1>   0.0800 
 41 H       -3.6600    -9.1530     0.3050 H     1 <1>   0.0800 
 42 H       -3.6710    -8.3860     1.8770 H     1 <1>   0.0800 
 43 H       -9.1220    -7.0270     0.4850 H     1 <1>   0.0800 
 44 H       -8.5230    -8.6490     0.2100 H     1 <1>   0.0800 
 45 H       -8.8250    -7.5850    -1.1470 H     1 <1>   0.0800 
@<TRIPOS>BOND
  1   1   2  1   
  2   1   3  1   
  3   2   4  2   
  4   2   5  1   
  5   3   6  2   
  6   3  25  1   
  7   4   6  1   
  8   5   7  1   
  9   5  26  1   
 10   5  27  1   
 11   6   8  1   
 12   7   9  1   
 13   7  10  1   
 14   7  28  1   
 15   8  29  1   
 16   8  30  1   
 17   8  31  1   
 18   9  11  1   
 19   9  32  1   
 20   9  33  1   
 21  10  34  1   
 22  10  35  1   
 23  10  36  1   
 24  11  12  1   
 25  11  37  1   
 26  11  38  1   
 27  12  13  1   
 28  12  14  1   
 29  13  15  1   
 30  13  16  2   
 31  14  17  2   
 32  14  39  1   
 33  15  18  2   
 34  15  19  am  
 35  16  17  1   
 36  16  20  1   
 37  19  21  am  
 38  19  22  1   
 39  20  21  am  
 40  20  23  1   
 41  21  24  2   
 42  22  40  1   
 43  22  41  1   
 44  22  42  1   
 45  23  43  1   
 46  23  44  1   
 47  23  45  1   
@<TRIPOS>SUBSTRUCTURE
  1 ****   9 GROUP 4 **** **** 0

# MOE 2024.06 (io_trps.svl 2023.06)
