@<TRIPOS>MOLECULE
NONAME
57 59 1 0 0 
SMALL
USER_CHARGES


@<TRIPOS>ATOM
  1 O       -0.6230     0.5620     0.1500 O.2   1 <1>  -0.5700 
  2 C       -1.6620     1.1770     0.2980 C.2   1 <1>   0.5440 
  3 N       -2.8380     0.4650     0.4360 N.am  1 <1>  -0.6600 
  4 C       -1.6230     2.6290     0.3380 C.ar  1 <1>   0.0860 
  5 C       -2.8950    -0.9880     0.0810 C.3   1 <1>   0.1400 
  6 C       -4.0450     1.0060     1.1180 C.3   1 <1>   0.1400 
  7 C       -0.7320     3.2980     1.1750 C.ar  1 <1>  -0.1500 
  8 C       -2.4580     3.4070    -0.4640 C.ar  1 <1>  -0.1500 
  9 C       -4.1780    -1.3120    -0.7060 C.3   1 <1>   0.2000 
 10 C       -5.2960     0.6960     0.2860 C.3   1 <1>  -0.1600 
 11 C       -0.6890     4.6790     1.2250 C.ar  1 <1>  -0.1500 
 12 C       -2.4200     4.7890    -0.4180 C.ar  1 <1>  -0.1500 
 13 O       -4.2300    -2.6820    -0.9500 O.3   1 <1>  -0.6800 
 14 C       -5.4770    -0.8190    -0.0030 C.3   1 <1>   0.0000 
 15 C       -1.5360     5.4360     0.4320 C.ar  1 <1>  -0.1430 
 16 C       -5.6790    -1.6060     1.3240 C.3   1 <1>   0.1200 
 17 C       -6.7320    -1.0490    -0.8970 C.3   1 <1>  -0.1600 
 18 C       -1.4840     6.9560     0.4950 C.3   1 <1>   0.2630 
 19 O       -6.7840    -1.1530     2.0330 O.3   1 <1>  -0.6800 
 20 C       -6.6930    -0.4600    -2.3200 C.3   1 <1>  -0.1600 
 21 O       -0.2480     7.3890    -0.0260 O.3   1 <1>  -0.3630 
 22 C       -8.0070    -0.7370    -3.0550 C.3   1 <1>  -0.2400 
 23 C        0.0740     8.7050    -0.0750 C.ar  1 <1>   0.0830 
 24 C       -0.7570     9.7270     0.3790 C.ar  1 <1>  -0.1500 
 25 C        1.3110     9.0210    -0.6140 C.ar  1 <1>  -0.1500 
 26 C       -0.3440    11.0450     0.2900 C.ar  1 <1>  -0.1500 
 27 C        1.7220    10.3390    -0.7030 C.ar  1 <1>  -0.1500 
 28 C        0.8940    11.3520    -0.2510 C.ar  1 <1>  -0.1500 
 29 H       -2.0490    -1.2480    -0.5330 H     1 <1>   0.0800 
 30 H       -2.8450    -1.5660     0.9850 H     1 <1>   0.0800 
 31 H       -4.1220     0.5610     2.0950 H     1 <1>   0.0800 
 32 H       -3.9620     2.0690     1.2590 H     1 <1>   0.0800 
 33 H       -0.0620     2.7190     1.7870 H     1 <1>   0.1500 
 34 H       -3.1390     2.9140    -1.1360 H     1 <1>   0.1500 
 35 H       -4.0830    -0.8350    -1.6640 H     1 <1>   0.0800 
 36 H       -6.1620     1.0880     0.7880 H     1 <1>   0.0800 
 37 H       -5.2020     1.2380    -0.6370 H     1 <1>   0.0800 
 38 H        0.0150     5.1690     1.8760 H     1 <1>   0.1500 
 39 H       -3.0760     5.3590    -1.0530 H     1 <1>   0.1500 
 40 H       -4.2940    -3.1870    -0.1190 H     1 <1>   0.4000 
 41 H       -4.8260    -1.5250     1.9730 H     1 <1>   0.0800 
 42 H       -5.8480    -2.6490     1.1200 H     1 <1>   0.0800 
 43 H       -6.8950    -2.1100    -0.9860 H     1 <1>   0.0800 
 44 H       -7.5950    -0.6490    -0.3930 H     1 <1>   0.0800 
 45 H       -1.5580     7.2880     1.5150 H     1 <1>   0.0800 
 46 H       -2.2700     7.3940    -0.0950 H     1 <1>   0.0800 
 47 H       -6.7210    -0.1950     2.2040 H     1 <1>   0.4000 
 48 H       -6.5390     0.6030    -2.2890 H     1 <1>   0.0800 
 49 H       -5.8920    -0.9050    -2.8840 H     1 <1>   0.0800 
 50 H       -8.8340    -0.2880    -2.5340 H     1 <1>   0.0800 
 51 H       -8.1790    -1.7970    -3.1300 H     1 <1>   0.0800 
 52 H       -7.9660    -0.3280    -4.0490 H     1 <1>   0.0800 
 53 H       -1.7210     9.5230     0.8030 H     1 <1>   0.1500 
 54 H        1.9470     8.2280    -0.9630 H     1 <1>   0.1500 
 55 H       -0.9840    11.8360     0.6400 H     1 <1>   0.1500 
 56 H        2.6840    10.5760    -1.1230 H     1 <1>   0.1500 
 57 H        1.2130    12.3780    -0.3190 H     1 <1>   0.1500 
@<TRIPOS>BOND
  1   1   2  2   
  2   2   3  am  
  3   2   4  1   
  4   3   5  1   
  5   3   6  1   
  6   4   7  ar  
  7   4   8  ar  
  8   5   9  1   
  9   5  29  1   
 10   5  30  1   
 11   6  10  1   
 12   6  31  1   
 13   6  32  1   
 14   7  11  ar  
 15   7  33  1   
 16   8  12  ar  
 17   8  34  1   
 18   9  13  1   
 19   9  14  1   
 20   9  35  1   
 21  10  14  1   
 22  10  36  1   
 23  10  37  1   
 24  11  15  ar  
 25  11  38  1   
 26  12  15  ar  
 27  12  39  1   
 28  13  40  1   
 29  14  16  1   
 30  14  17  1   
 31  15  18  1   
 32  16  19  1   
 33  16  41  1   
 34  16  42  1   
 35  17  20  1   
 36  17  43  1   
 37  17  44  1   
 38  18  21  1   
 39  18  45  1   
 40  18  46  1   
 41  19  47  1   
 42  20  22  1   
 43  20  48  1   
 44  20  49  1   
 45  21  23  1   
 46  22  50  1   
 47  22  51  1   
 48  22  52  1   
 49  23  24  ar  
 50  23  25  ar  
 51  24  26  ar  
 52  24  53  1   
 53  25  27  ar  
 54  25  54  1   
 55  26  28  ar  
 56  26  55  1   
 57  27  28  ar  
 58  27  56  1   
 59  28  57  1   
@<TRIPOS>SUBSTRUCTURE
  1 ****   8 GROUP 4 **** **** 0

# MOE 2024.06 (io_trps.svl 2023.06)
