@<TRIPOS>MOLECULE
NONAME
53 55 1 0 0 
SMALL
USER_CHARGES


@<TRIPOS>ATOM
  1 S       -0.7440     0.0240     0.0290 S.o2  1 <1>   1.2040 
  2 O       -0.0940     0.5440     1.2110 O.2   1 <1>  -0.6500 
  3 O       -0.5380     0.6580    -1.2540 O.2   1 <1>  -0.6500 
  4 C       -0.3940    -1.7480    -0.1170 C.ar  1 <1>  -0.0090 
  5 C       -2.4980     0.0360     0.3440 C.3   1 <1>  -0.1350 
  6 C       -0.3400    -2.3710    -1.3580 C.ar  1 <1>  -0.1500 
  7 C       -0.1870    -2.5350     1.0090 C.ar  1 <1>  -0.1500 
  8 C       -0.0830    -3.7270    -1.4730 C.ar  1 <1>  -0.1500 
  9 C        0.0680    -3.8920     0.9050 C.ar  1 <1>  -0.1500 
 10 C        0.1240    -4.4980    -0.3410 C.ar  1 <1>  -0.1440 
 11 C        0.4250    -5.9830    -0.4650 C.3   1 <1>   0.4860 
 12 N       -0.7700    -6.7660    -0.0920 N.4   1 <1>  -0.9590 
 13 C       -0.4270    -8.2210     0.0440 C.3   1 <1>   0.3430 
 14 C       -1.8980    -6.5820    -1.0430 C.3   1 <1>   0.3430 
 15 C       -1.6610    -9.1340     0.1600 C.3   1 <1>  -0.1060 
 16 C       -3.1760    -7.1720    -0.4340 C.3   1 <1>  -0.1600 
 17 C       -1.9490    -9.7020    -1.2200 C.2   1 <1>   0.9060 
 18 C       -2.9060    -8.3170     0.5580 C.3   1 <1>   0.2000 
 19 C       -1.3780   -10.2960     1.1510 C.3   1 <1>  -0.0160 
 20 O       -1.3070    -9.2890    -2.1930 O.co2 1 <1>  -0.9000 
 21 O       -2.8830   -10.4940    -1.3410 O.co2 1 <1>  -0.9000 
 22 O       -2.7000    -7.7310     1.8070 O.3   1 <1>  -0.6800 
 23 C        0.0330   -10.8590     1.0160 C.ar  1 <1>  -0.1440 
 24 C        0.9830   -10.6160     1.9980 C.ar  1 <1>  -0.1500 
 25 C        0.3840   -11.6130    -0.0940 C.ar  1 <1>  -0.1500 
 26 C        2.2700   -11.1110     1.8660 C.ar  1 <1>  -0.1500 
 27 C        1.6700   -12.1060    -0.2270 C.ar  1 <1>  -0.1500 
 28 C        2.6150   -11.8540     0.7520 C.ar  1 <1>  -0.1500 
 29 H       -2.7200    -0.4970     1.2480 H     1 <1>   0.0800 
 30 H       -3.0290    -0.4180    -0.4690 H     1 <1>   0.0800 
 31 H       -2.8410     1.0460     0.4530 H     1 <1>   0.0800 
 32 H       -0.4910    -1.7830    -2.2490 H     1 <1>   0.1500 
 33 H       -0.2160    -2.0740     1.9840 H     1 <1>   0.1500 
 34 H       -0.0390    -4.1700    -2.4550 H     1 <1>   0.1500 
 35 H        0.2290    -4.4640     1.8030 H     1 <1>   0.1500 
 36 H        1.2440    -6.2340     0.1880 H     1 <1>   0.0800 
 37 H        0.7140    -6.2210    -1.4760 H     1 <1>   0.0800 
 38 H       -1.1370    -6.4750     0.8260 H     1 <1>   0.4500 
 39 H        0.1760    -8.5440    -0.7910 H     1 <1>   0.0800 
 40 H        0.1710    -8.3450     0.9300 H     1 <1>   0.0800 
 41 H       -2.0530    -5.5380    -1.2560 H     1 <1>   0.0800 
 42 H       -1.6720    -7.0880    -1.9690 H     1 <1>   0.0800 
 43 H       -3.7670    -7.5560    -1.2480 H     1 <1>   0.0800 
 44 H       -3.7580    -6.4000     0.0360 H     1 <1>   0.0800 
 45 H       -3.7770    -8.9520     0.6250 H     1 <1>   0.0800 
 46 H       -1.5060    -9.9590     2.1620 H     1 <1>   0.0800 
 47 H       -2.0900   -11.0910     0.9990 H     1 <1>   0.0800 
 48 H       -3.0140    -8.3420     2.5050 H     1 <1>   0.4000 
 49 H        0.7290   -10.0450     2.8730 H     1 <1>   0.1500 
 50 H       -0.3420   -11.8210    -0.8650 H     1 <1>   0.1500 
 51 H        3.0020   -10.9220     2.6320 H     1 <1>   0.1500 
 52 H        1.9300   -12.6860    -1.0960 H     1 <1>   0.1500 
 53 H        3.6140   -12.2400     0.6460 H     1 <1>   0.1500 
@<TRIPOS>BOND
  1   1   2  2   
  2   1   3  2   
  3   1   4  1   
  4   1   5  1   
  5   4   6  ar  
  6   4   7  ar  
  7   5  29  1   
  8   5  30  1   
  9   5  31  1   
 10   6   8  ar  
 11   6  32  1   
 12   7   9  ar  
 13   7  33  1   
 14   8  10  ar  
 15   8  34  1   
 16   9  10  ar  
 17   9  35  1   
 18  10  11  1   
 19  11  12  1   
 20  11  36  1   
 21  11  37  1   
 22  12  13  1   
 23  12  14  1   
 24  12  38  1   
 25  13  15  1   
 26  13  39  1   
 27  13  40  1   
 28  14  16  1   
 29  14  41  1   
 30  14  42  1   
 31  15  17  1   
 32  15  18  1   
 33  15  19  1   
 34  16  18  1   
 35  16  43  1   
 36  16  44  1   
 37  17  20  ar  
 38  17  21  ar  
 39  18  22  1   
 40  18  45  1   
 41  19  23  1   
 42  19  46  1   
 43  19  47  1   
 44  22  48  1   
 45  23  24  ar  
 46  23  25  ar  
 47  24  26  ar  
 48  24  49  1   
 49  25  27  ar  
 50  25  50  1   
 51  26  28  ar  
 52  26  51  1   
 53  27  28  ar  
 54  27  52  1   
 55  28  53  1   
@<TRIPOS>SUBSTRUCTURE
  1 ****  12 GROUP 4 **** **** 0

# MOE 2024.06 (io_trps.svl 2023.06)
