@<TRIPOS>MOLECULE
NONAME
25 26 1 0 0 
SMALL
USER_CHARGES


@<TRIPOS>ATOM
  1 F        0.8660    -0.6800    -0.7650 F     1 <1>  -0.2320 
  2 C        1.9700    -0.0560    -1.1600 C.3   1 <1>   0.4630 
  3 F        2.5720    -0.8390    -2.0460 F     1 <1>  -0.2320 
  4 C        2.0680     1.4340    -1.1800 C.3   1 <1>  -0.1150 
  5 C        2.8060     0.6340    -0.1390 C.3   1 <1>  -0.2000 
  6 C        0.9650     2.3480    -0.6530 C.ar  1 <1>  -0.0320 
  7 C        2.8300     2.0210    -2.3480 C.2   1 <1>   0.9470 
  8 C       -0.3680     2.1350    -0.9640 C.ar  1 <1>  -0.1500 
  9 C        1.3090     3.4220     0.1520 C.ar  1 <1>  -0.1500 
 10 O        3.9250     2.5550    -2.1230 O.co2 1 <1>  -0.9000 
 11 O        2.3490     1.9560    -3.4840 O.co2 1 <1>  -0.9000 
 12 C       -1.3560     2.9680    -0.4620 C.ar  1 <1>   0.0830 
 13 C        0.3320     4.2630     0.6570 C.ar  1 <1>  -0.1500 
 14 O       -2.6370     2.6810    -0.8080 O.3   1 <1>  -0.3630 
 15 C       -1.0000     4.0370     0.3560 C.ar  1 <1>  -0.1500 
 16 C       -3.7020     3.5250    -0.4370 C.3   1 <1>   0.0400 
 17 H        3.8770     0.6210    -0.2220 H     1 <1>   0.1000 
 18 H        2.4530     0.6810     0.8740 H     1 <1>   0.1000 
 19 H       -0.6460     1.3210    -1.6070 H     1 <1>   0.1500 
 20 H        2.3480     3.5990     0.3710 H     1 <1>   0.1500 
 21 H        0.6150     5.0920     1.2800 H     1 <1>   0.1500 
 22 H       -1.7380     4.7010     0.7610 H     1 <1>   0.1500 
 23 H       -4.6070     3.1230    -0.8550 H     1 <1>   0.0800 
 24 H       -3.5210     4.5080    -0.8350 H     1 <1>   0.0800 
 25 H       -3.7710     3.5480     0.6360 H     1 <1>   0.0800 
@<TRIPOS>BOND
  1   1   2  1   
  2   2   3  1   
  3   2   4  1   
  4   2   5  1   
  5   4   5  1   
  6   4   6  1   
  7   4   7  1   
  8   5  17  1   
  9   5  18  1   
 10   6   8  ar  
 11   6   9  ar  
 12   7  10  ar  
 13   7  11  ar  
 14   8  12  ar  
 15   8  19  1   
 16   9  13  ar  
 17   9  20  1   
 18  12  14  1   
 19  12  15  ar  
 20  13  15  ar  
 21  13  21  1   
 22  14  16  1   
 23  15  22  1   
 24  16  23  1   
 25  16  24  1   
 26  16  25  1   
@<TRIPOS>SUBSTRUCTURE
  1 ****   6 GROUP 4 **** **** 0

# MOE 2024.06 (io_trps.svl 2023.06)
