@<TRIPOS>MOLECULE
NONAME
52 54 1 0 0 
SMALL
USER_CHARGES


@<TRIPOS>ATOM
  1 O       -0.8630     0.2270     2.4300 O.3   1 <1>  -0.3630 
  2 C       -0.9000     0.9540     1.2830 C.ar  1 <1>   0.0820 
  3 C       -2.0750     0.0320     3.1400 C.3   1 <1>   0.1200 
  4 C       -0.5380     0.3590     0.0750 C.ar  1 <1>   0.0820 
  5 C       -1.3060     2.2790     1.3000 C.ar  1 <1>  -0.1500 
  6 C       -2.6360    -1.3640     2.8190 C.3   1 <1>   0.3430 
  7 O       -0.1530    -0.9380     0.0310 O.3   1 <1>  -0.3630 
  8 C       -0.6170     1.0770    -1.1050 C.ar  1 <1>  -0.1500 
  9 C       -1.3800     2.9930     0.1150 C.ar  1 <1>  -0.1500 
 10 N       -2.6170    -1.6330     1.3500 N.4   1 <1>  -0.9590 
 11 C        1.2210    -1.1560     0.2760 C.3   1 <1>   0.0400 
 12 C       -1.0420     2.3960    -1.0900 C.ar  1 <1>  -0.1430 
 13 C       -3.6240    -0.8730     0.5350 C.3   1 <1>   0.3430 
 14 C       -2.6870    -3.0650     0.9570 C.3   1 <1>   0.3430 
 15 C       -1.1230     3.1930    -2.3800 C.3   1 <1>  -0.0970 
 16 C       -4.2740    -1.8920    -0.4090 C.3   1 <1>   0.2000 
 17 C       -3.2770    -3.0510    -0.4490 C.3   1 <1>  -0.0800 
 18 O       -5.4820    -2.3100     0.1410 O.3   1 <1>  -0.6800 
 19 C       -3.8250    -4.4170    -0.9040 C.3   1 <1>  -0.0170 
 20 C       -2.7570    -5.4860    -0.7320 C.ar  1 <1>  -0.1430 
 21 C       -2.8440    -6.4600     0.2430 C.ar  1 <1>  -0.1500 
 22 C       -1.6370    -5.5300    -1.5400 C.ar  1 <1>  -0.1500 
 23 C       -1.8270    -7.3900     0.3740 C.ar  1 <1>   0.1600 
 24 C       -0.6760    -6.5040    -1.3250 C.ar  1 <1>   0.1600 
 25 N       -0.7410    -7.4250    -0.3790 N.ar  1 <1>  -0.6200 
 26 H       -1.8560     0.1110     4.1900 H     1 <1>   0.0800 
 27 H       -2.7810     0.8000     2.8780 H     1 <1>   0.0800 
 28 H       -1.5560     2.7600     2.2290 H     1 <1>   0.1500 
 29 H       -3.6380    -1.4540     3.2050 H     1 <1>   0.0800 
 30 H       -2.0210    -2.0910     3.3230 H     1 <1>   0.0800 
 31 H       -0.3400     0.6040    -2.0310 H     1 <1>   0.1500 
 32 H       -1.6940     4.0230     0.1350 H     1 <1>   0.1500 
 33 H       -1.6830    -1.2930     1.0290 H     1 <1>   0.4500 
 34 H        1.4190    -2.2100     0.2030 H     1 <1>   0.0800 
 35 H        1.4640    -0.8020     1.2630 H     1 <1>   0.0800 
 36 H        1.7960    -0.6230    -0.4610 H     1 <1>   0.0800 
 37 H       -4.3720    -0.4030     1.1510 H     1 <1>   0.0800 
 38 H       -3.1170    -0.1170    -0.0430 H     1 <1>   0.0800 
 39 H       -1.7140    -3.5300     0.9710 H     1 <1>   0.0800 
 40 H       -3.3470    -3.6000     1.6200 H     1 <1>   0.0800 
 41 H       -1.9640     3.8630    -2.3570 H     1 <1>   0.0800 
 42 H       -1.2340     2.5390    -3.2270 H     1 <1>   0.0800 
 43 H       -0.2250     3.7710    -2.5070 H     1 <1>   0.0800 
 44 H       -4.4780    -1.4740    -1.3810 H     1 <1>   0.0800 
 45 H       -2.4810    -2.7750    -1.1190 H     1 <1>   0.0800 
 46 H       -5.3730    -2.7610     0.9990 H     1 <1>   0.4000 
 47 H       -4.1190    -4.3660    -1.9380 H     1 <1>   0.0800 
 48 H       -4.6960    -4.6940    -0.3370 H     1 <1>   0.0800 
 49 H       -3.6920    -6.5150     0.9020 H     1 <1>   0.1500 
 50 H       -1.4990    -4.8220    -2.3370 H     1 <1>   0.1500 
 51 H       -1.9090    -8.1460     1.1380 H     1 <1>   0.1500 
 52 H        0.1910    -6.5260    -1.9630 H     1 <1>   0.1500 
@<TRIPOS>BOND
  1   1   2  1   
  2   1   3  1   
  3   2   4  ar  
  4   2   5  ar  
  5   3   6  1   
  6   3  26  1   
  7   3  27  1   
  8   4   7  1   
  9   4   8  ar  
 10   5   9  ar  
 11   5  28  1   
 12   6  10  1   
 13   6  29  1   
 14   6  30  1   
 15   7  11  1   
 16   8  12  ar  
 17   8  31  1   
 18   9  12  ar  
 19   9  32  1   
 20  10  13  1   
 21  10  14  1   
 22  10  33  1   
 23  11  34  1   
 24  11  35  1   
 25  11  36  1   
 26  12  15  1   
 27  13  16  1   
 28  13  37  1   
 29  13  38  1   
 30  14  17  1   
 31  14  39  1   
 32  14  40  1   
 33  15  41  1   
 34  15  42  1   
 35  15  43  1   
 36  16  17  1   
 37  16  18  1   
 38  16  44  1   
 39  17  19  1   
 40  17  45  1   
 41  18  46  1   
 42  19  20  1   
 43  19  47  1   
 44  19  48  1   
 45  20  21  ar  
 46  20  22  ar  
 47  21  23  ar  
 48  21  49  1   
 49  22  24  ar  
 50  22  50  1   
 51  23  25  ar  
 52  23  51  1   
 53  24  25  ar  
 54  24  52  1   
@<TRIPOS>SUBSTRUCTURE
  1 ****  10 GROUP 4 **** **** 0

# MOE 2024.06 (io_trps.svl 2023.06)
