@<TRIPOS>MOLECULE
NONAME
61 64 1 0 0 
SMALL
USER_CHARGES


@<TRIPOS>ATOM
  1 S       -0.5750    -0.0270    -0.1880 S.3   1 <1>  -0.0800 
  2 C       -0.7100     1.6350     0.3670 C.2   1 <1>  -0.1400 
  3 C       -1.6040    -0.6000     1.1150 C.2   1 <1>  -0.1400 
  4 C       -1.4880     1.6940     1.4650 C.2   1 <1>  -0.1500 
  5 C        0.0330     2.6970    -0.4380 C.3   1 <1>   0.1000 
  6 C       -1.9950     0.4270     1.8930 C.2   1 <1>  -0.1500 
  7 C       -1.8860    -2.0820     1.1550 C.3   1 <1>   0.5230 
  8 C        1.5510     2.5630    -0.2350 C.3   1 <1>  -0.1600 
  9 C       -0.4330     4.1140    -0.0630 C.3   1 <1>  -0.1600 
 10 N       -2.5520    -2.4580    -0.1320 N.4   1 <1>  -0.9590 
 11 C        2.3260     3.6360    -1.0130 C.3   1 <1>  -0.1600 
 12 C        0.3310     5.1880    -0.8510 C.3   1 <1>  -0.1600 
 13 C       -2.5860    -3.9440    -0.4010 C.3   1 <1>   0.3430 
 14 C       -3.8830    -1.7810    -0.2870 C.3   1 <1>   0.3430 
 15 C        1.8450     5.0460    -0.6480 C.3   1 <1>  -0.1600 
 16 C       -3.7620    -4.7220     0.2860 C.3   1 <1>   0.4230 
 17 C       -4.9450    -2.5240     0.5260 C.3   1 <1>  -0.1600 
 18 N       -3.8180    -6.2210    -0.0270 N.4   1 <1>  -0.9590 
 19 C       -5.1190    -3.9980     0.0620 C.3   1 <1>   0.0000 
 20 C       -5.1570    -6.8580     0.2360 C.3   1 <1>   0.3430 
 21 C       -3.3540    -6.6430    -1.3950 C.3   1 <1>   0.2630 
 22 C       -6.2190    -4.6520     0.9440 C.3   1 <1>  -0.1600 
 23 C       -5.5200    -4.0770    -1.4430 C.3   1 <1>   0.1200 
 24 C       -5.9140    -6.1110     1.3320 C.3   1 <1>  -0.1600 
 25 O       -6.3550    -3.0360    -1.7960 O.3   1 <1>  -0.6800 
 26 H       -1.7330     2.5910     2.0080 H     1 <1>   0.1500 
 27 H       -0.1890     2.5400    -1.4800 H     1 <1>   0.0800 
 28 H       -2.6260     0.3710     2.7650 H     1 <1>   0.1500 
 29 H       -2.5160    -2.3130     1.9970 H     1 <1>   0.0800 
 30 H       -0.9510    -2.6090     1.2630 H     1 <1>   0.0800 
 31 H        1.7760     2.6540     0.8140 H     1 <1>   0.0800 
 32 H        1.8790     1.5900    -0.5570 H     1 <1>   0.0800 
 33 H       -1.4870     4.2100    -0.2590 H     1 <1>   0.0800 
 34 H       -0.2730     4.2770     0.9890 H     1 <1>   0.0800 
 35 H       -1.9410    -2.0070    -0.8360 H     1 <1>   0.4500 
 36 H        3.3770     3.5480    -0.7990 H     1 <1>   0.0800 
 37 H        2.1920     3.4780    -2.0700 H     1 <1>   0.0800 
 38 H        0.1010     5.0950    -1.8990 H     1 <1>   0.0800 
 39 H        0.0150     6.1650    -0.5300 H     1 <1>   0.0800 
 40 H       -2.6790    -4.0800    -1.4650 H     1 <1>   0.0800 
 41 H       -1.6490    -4.3790    -0.0960 H     1 <1>   0.0800 
 42 H       -3.8250    -0.7530     0.0370 H     1 <1>   0.0800 
 43 H       -4.1760    -1.7750    -1.3260 H     1 <1>   0.0800 
 44 H        2.3600     5.7720    -1.2540 H     1 <1>   0.0800 
 45 H        2.0860     5.2490     0.3820 H     1 <1>   0.0800 
 46 H       -3.5770    -4.6480     1.3450 H     1 <1>   0.0800 
 47 H       -4.6920    -2.4770     1.5700 H     1 <1>   0.0800 
 48 H       -5.8760    -1.9910     0.4240 H     1 <1>   0.0800 
 49 H       -3.1840    -6.6810     0.6470 H     1 <1>   0.4500 
 50 H       -5.7550    -6.8430    -0.6610 H     1 <1>   0.0800 
 51 H       -5.0250    -7.8900     0.5240 H     1 <1>   0.0800 
 52 H       -3.9800    -6.2130    -2.1600 H     1 <1>   0.0800 
 53 H       -3.4010    -7.7170    -1.4880 H     1 <1>   0.0800 
 54 H       -2.3340    -6.3410    -1.5670 H     1 <1>   0.0800 
 55 H       -6.3600    -4.1000     1.8590 H     1 <1>   0.0800 
 56 H       -7.1650    -4.6130     0.4290 H     1 <1>   0.0800 
 57 H       -6.0230    -4.9990    -1.6810 H     1 <1>   0.0800 
 58 H       -4.6620    -3.9910    -2.0840 H     1 <1>   0.0800 
 59 H       -6.8420    -6.6220     1.5300 H     1 <1>   0.0800 
 60 H       -5.3420    -6.1450     2.2440 H     1 <1>   0.0800 
 61 H       -7.2990    -3.2280    -1.6020 H     1 <1>   0.4000 
@<TRIPOS>BOND
  1   1   2  1   
  2   1   3  1   
  3   2   4  2   
  4   2   5  1   
  5   3   6  2   
  6   3   7  1   
  7   4   6  1   
  8   4  26  1   
  9   5   8  1   
 10   5   9  1   
 11   5  27  1   
 12   6  28  1   
 13   7  10  1   
 14   7  29  1   
 15   7  30  1   
 16   8  11  1   
 17   8  31  1   
 18   8  32  1   
 19   9  12  1   
 20   9  33  1   
 21   9  34  1   
 22  10  13  1   
 23  10  14  1   
 24  10  35  1   
 25  11  15  1   
 26  11  36  1   
 27  11  37  1   
 28  12  15  1   
 29  12  38  1   
 30  12  39  1   
 31  13  16  1   
 32  13  40  1   
 33  13  41  1   
 34  14  17  1   
 35  14  42  1   
 36  14  43  1   
 37  15  44  1   
 38  15  45  1   
 39  16  18  1   
 40  16  19  1   
 41  16  46  1   
 42  17  19  1   
 43  17  47  1   
 44  17  48  1   
 45  18  20  1   
 46  18  21  1   
 47  18  49  1   
 48  19  22  1   
 49  19  23  1   
 50  20  24  1   
 51  20  50  1   
 52  20  51  1   
 53  21  52  1   
 54  21  53  1   
 55  21  54  1   
 56  22  24  1   
 57  22  55  1   
 58  22  56  1   
 59  23  25  1   
 60  23  57  1   
 61  23  58  1   
 62  24  59  1   
 63  24  60  1   
 64  25  61  1   
@<TRIPOS>SUBSTRUCTURE
  1 ****  10 GROUP 4 **** **** 0

# MOE 2024.06 (io_trps.svl 2023.06)
