@<TRIPOS>MOLECULE
NONAME
53 56 1 0 0 
SMALL
USER_CHARGES


@<TRIPOS>ATOM
  1 S       -0.9090     0.2960     1.2630 S.3   1 <1>  -0.0800 
  2 C       -1.3590     0.7970    -0.3590 C.2   1 <1>   0.0960 
  3 C        0.6450     1.1050     1.0980 C.2   1 <1>  -0.1100 
  4 S       -2.9840     0.3190    -0.9620 S.3   1 <1>  -0.1570 
  5 C       -0.3940     1.5240    -0.9470 C.2   1 <1>  -0.1500 
  6 C        0.7560     1.6940    -0.1100 C.2   1 <1>  -0.1500 
  7 C       -3.1880    -1.4280    -0.6550 C.ar  1 <1>   0.4620 
  8 N       -2.1300    -2.1380    -0.2300 N.ar  1 <1>  -0.1790 
  9 C       -4.3690    -2.0540    -0.8620 C.ar  1 <1>  -0.1500 
 10 C       -2.2560    -3.4550    -0.0150 C.ar  1 <1>   0.7710 
 11 C       -4.4420    -3.4340    -0.6110 C.ar  1 <1>   0.4100 
 12 N       -3.3820    -4.1160    -0.2010 N.ar  1 <1>  -0.6200 
 13 N       -1.2110    -4.1600     0.4100 N.pl3 1 <1>  -0.9000 
 14 N       -5.6040    -4.1210    -0.7790 N.pl3 1 <1>  -0.8380 
 15 C       -5.6370    -5.5780    -1.1270 C.3   1 <1>   0.2090 
 16 C       -6.9570    -3.5370    -0.5180 C.3   1 <1>   0.2090 
 17 C       -6.3410    -6.3990    -0.0150 C.3   1 <1>   0.4230 
 18 C       -7.6190    -4.3270     0.6150 C.3   1 <1>  -0.1600 
 19 N       -6.3070    -7.9110    -0.2320 N.4   1 <1>  -0.9590 
 20 C       -7.7580    -5.8460     0.3180 C.3   1 <1>   0.0000 
 21 C       -7.3060    -8.6700     0.5910 C.3   1 <1>   0.3430 
 22 C       -6.3890    -8.3640    -1.6610 C.3   1 <1>   0.2630 
 23 C       -8.2980    -6.5520     1.5970 C.3   1 <1>  -0.1600 
 24 C       -8.7260    -6.0790    -0.8790 C.3   1 <1>   0.1200 
 25 C       -7.6420    -7.9180     1.8770 C.3   1 <1>  -0.1600 
 26 O       -9.9190    -5.3960    -0.7140 O.3   1 <1>  -0.6800 
 27 H        1.3220     1.0620     1.9350 H     1 <1>   0.1500 
 28 H       -0.4400     1.9580    -1.9320 H     1 <1>   0.1500 
 29 H        1.6090     2.2570    -0.4530 H     1 <1>   0.1500 
 30 H       -1.2390    -1.6840    -0.0510 H     1 <1>   0.4570 
 31 H       -5.2260    -1.5190    -1.2230 H     1 <1>   0.1500 
 32 H       -0.2640    -3.8310     0.6160 H     1 <1>   0.4000 
 33 H       -1.3340    -5.1630     0.5730 H     1 <1>   0.4000 
 34 H       -6.1570    -5.6840    -2.0620 H     1 <1>   0.0800 
 35 H       -4.6380    -5.9500    -1.2640 H     1 <1>   0.0800 
 36 H       -6.8830    -2.5070    -0.2170 H     1 <1>   0.0800 
 37 H       -7.5570    -3.5780    -1.4130 H     1 <1>   0.0800 
 38 H       -5.7560    -6.2110     0.8700 H     1 <1>   0.0800 
 39 H       -7.0240    -4.1780     1.5000 H     1 <1>   0.0800 
 40 H       -8.5830    -3.8930     0.8180 H     1 <1>   0.0800 
 41 H       -5.3840    -8.2050     0.1180 H     1 <1>   0.4500 
 42 H       -8.2160    -8.8040     0.0290 H     1 <1>   0.0800 
 43 H       -6.9180    -9.6470     0.8300 H     1 <1>   0.0800 
 44 H       -7.3240    -8.0620    -2.1020 H     1 <1>   0.0800 
 45 H       -6.3170    -9.4390    -1.7160 H     1 <1>   0.0800 
 46 H       -5.5820    -7.9450    -2.2400 H     1 <1>   0.0800 
 47 H       -8.1390    -5.9370     2.4670 H     1 <1>   0.0800 
 48 H       -9.3630    -6.6850     1.5220 H     1 <1>   0.0800 
 49 H       -8.9650    -7.1190    -1.0010 H     1 <1>   0.0800 
 50 H       -8.3020    -5.7200    -1.8000 H     1 <1>   0.0800 
 51 H       -8.3130    -8.5140     2.4720 H     1 <1>   0.0800 
 52 H       -6.7430    -7.7880     2.4560 H     1 <1>   0.0800 
 53 H      -10.4550    -5.7530     0.0230 H     1 <1>   0.4000 
@<TRIPOS>BOND
  1   1   2  1   
  2   1   3  1   
  3   2   4  1   
  4   2   5  2   
  5   3   6  2   
  6   3  27  1   
  7   4   7  1   
  8   5   6  1   
  9   5  28  1   
 10   6  29  1   
 11   7   8  ar  
 12   7   9  ar  
 13   8  10  ar  
 14   8  30  1   
 15   9  11  ar  
 16   9  31  1   
 17  10  12  ar  
 18  10  13  1   
 19  11  12  ar  
 20  11  14  1   
 21  13  32  1   
 22  13  33  1   
 23  14  15  1   
 24  14  16  1   
 25  15  17  1   
 26  15  34  1   
 27  15  35  1   
 28  16  18  1   
 29  16  36  1   
 30  16  37  1   
 31  17  19  1   
 32  17  20  1   
 33  17  38  1   
 34  18  20  1   
 35  18  39  1   
 36  18  40  1   
 37  19  21  1   
 38  19  22  1   
 39  19  41  1   
 40  20  23  1   
 41  20  24  1   
 42  21  25  1   
 43  21  42  1   
 44  21  43  1   
 45  22  44  1   
 46  22  45  1   
 47  22  46  1   
 48  23  25  1   
 49  23  47  1   
 50  23  48  1   
 51  24  26  1   
 52  24  49  1   
 53  24  50  1   
 54  25  51  1   
 55  25  52  1   
 56  26  53  1   
@<TRIPOS>SUBSTRUCTURE
  1 ****  11 GROUP 4 **** **** 0

# MOE 2024.06 (io_trps.svl 2023.06)
