@<TRIPOS>MOLECULE
NONAME
54 57 1 0 0 
SMALL
USER_CHARGES


@<TRIPOS>ATOM
  1 O       -1.9570     0.4060    -2.0810 O.2   1 <1>  -0.5700 
  2 C       -1.6240     0.6500    -0.9480 C.2   1 <1>   0.5690 
  3 N       -1.6870    -0.2780     0.0350 N.am  1 <1>  -0.7300 
  4 C       -1.1580     2.0420    -0.6100 C.3   1 <1>  -0.0990 
  5 C       -2.1650    -1.6640    -0.1630 C.3   1 <1>   0.2200 
  6 C       -2.3390     3.0110    -0.6930 C.3   1 <1>   0.0960 
  7 C       -3.6520    -1.7220     0.1340 C.3   1 <1>  -0.0800 
  8 C       -1.5920    -2.5770     0.9160 C.3   1 <1>   0.1200 
  9 N       -1.9110     4.3620    -0.2970 N.pl3 1 <1>   0.3140 
 10 C       -3.6690    -1.8950     1.6550 C.3   1 <1>   0.1200 
 11 C       -4.3280    -2.8980    -0.5970 C.3   1 <1>  -0.0170 
 12 O       -2.4460    -2.4700     2.0160 O.3   1 <1>  -0.5600 
 13 N       -1.8130     4.6960     1.0030 N.2   1 <1>  -0.7070 
 14 C       -1.5460     5.3890    -1.0980 C.2   1 <1>  -0.3320 
 15 C       -5.8410    -2.8770    -0.4060 C.ar  1 <1>  -0.1440 
 16 C       -1.3980     5.9220     1.0010 C.2   1 <1>   0.1080 
 17 C       -1.2110     6.4130    -0.2850 C.2   1 <1>  -0.1500 
 18 C       -1.5280     5.3520    -2.6170 C.3   1 <1>  -0.0600 
 19 C       -6.6790    -1.9690    -1.0970 C.ar  1 <1>   0.0000 
 20 C       -6.4350    -3.7530     0.4550 C.ar  1 <1>  -0.1500 
 21 C       -1.1550     6.6950     2.2750 C.3   1 <1>  -0.0590 
 22 C       -8.0690    -2.0260    -0.8320 C.ar  1 <1>   0.3100 
 23 C       -6.2220    -1.0130    -2.0360 C.ar  1 <1>  -0.1500 
 24 C       -7.8220    -3.7270     0.6410 C.ar  1 <1>   0.1600 
 25 N       -8.6230    -2.9070     0.0390 N.ar  1 <1>  -0.6200 
 26 C       -8.9240    -1.1330    -1.4970 C.ar  1 <1>  -0.1500 
 27 C       -7.0840    -0.1590    -2.6680 C.ar  1 <1>  -0.1500 
 28 C       -8.4520    -0.2160    -2.3960 C.ar  1 <1>  -0.1500 
 29 H       -1.4790    -0.0310     1.0060 H     1 <1>   0.3700 
 30 H       -0.7410     2.0590     0.3810 H     1 <1>   0.0800 
 31 H       -0.3970     2.3310    -1.3120 H     1 <1>   0.0800 
 32 H       -1.9160    -2.0000    -1.1560 H     1 <1>   0.0800 
 33 H       -3.1200     2.7000    -0.0240 H     1 <1>   0.0800 
 34 H       -2.7330     3.0400    -1.6920 H     1 <1>   0.0800 
 35 H       -4.1390    -0.8050    -0.1470 H     1 <1>   0.0800 
 36 H       -0.5920    -2.3050     1.2050 H     1 <1>   0.0800 
 37 H       -1.6090    -3.6030     0.5920 H     1 <1>   0.0800 
 38 H       -4.4700    -2.5230     2.0010 H     1 <1>   0.0800 
 39 H       -3.7320    -0.9370     2.1440 H     1 <1>   0.0800 
 40 H       -3.9310    -3.8290    -0.2330 H     1 <1>   0.0800 
 41 H       -4.1080    -2.8540    -1.6500 H     1 <1>   0.0800 
 42 H       -0.8710     7.3990    -0.5440 H     1 <1>   0.1500 
 43 H       -1.1730     6.2890    -3.0060 H     1 <1>   0.0800 
 44 H       -2.5200     5.1790    -2.9970 H     1 <1>   0.0800 
 45 H       -0.8770     4.5690    -2.9640 H     1 <1>   0.0800 
 46 H       -5.8640    -4.4750     1.0100 H     1 <1>   0.1500 
 47 H       -0.8020     7.6850     2.0530 H     1 <1>   0.0800 
 48 H       -0.4210     6.1830     2.8700 H     1 <1>   0.0800 
 49 H       -2.0710     6.7630     2.8320 H     1 <1>   0.0800 
 50 H       -5.1740    -0.9510    -2.2650 H     1 <1>   0.1500 
 51 H       -8.2500    -4.4350     1.3310 H     1 <1>   0.1500 
 52 H       -9.9730    -1.1970    -1.2740 H     1 <1>   0.1500 
 53 H       -6.7210     0.5640    -3.3790 H     1 <1>   0.1500 
 54 H       -9.1210     0.4610    -2.9000 H     1 <1>   0.1500 
@<TRIPOS>BOND
  1   1   2  2   
  2   2   3  am  
  3   2   4  1   
  4   3   5  1   
  5   3  29  1   
  6   4   6  1   
  7   4  30  1   
  8   4  31  1   
  9   5   7  1   
 10   5   8  1   
 11   5  32  1   
 12   6   9  1   
 13   6  33  1   
 14   6  34  1   
 15   7  10  1   
 16   7  11  1   
 17   7  35  1   
 18   8  12  1   
 19   8  36  1   
 20   8  37  1   
 21   9  13  1   
 22   9  14  1   
 23  10  12  1   
 24  10  38  1   
 25  10  39  1   
 26  11  15  1   
 27  11  40  1   
 28  11  41  1   
 29  13  16  2   
 30  14  17  2   
 31  14  18  1   
 32  15  19  ar  
 33  15  20  ar  
 34  16  17  1   
 35  16  21  1   
 36  17  42  1   
 37  18  43  1   
 38  18  44  1   
 39  18  45  1   
 40  19  22  ar  
 41  19  23  ar  
 42  20  24  ar  
 43  20  46  1   
 44  21  47  1   
 45  21  48  1   
 46  21  49  1   
 47  22  25  ar  
 48  22  26  ar  
 49  23  27  ar  
 50  23  50  1   
 51  24  25  ar  
 52  24  51  1   
 53  26  28  ar  
 54  26  52  1   
 55  27  28  ar  
 56  27  53  1   
 57  28  54  1   
@<TRIPOS>SUBSTRUCTURE
  1 ****   7 GROUP 4 **** **** 0

# MOE 2024.06 (io_trps.svl 2023.06)
