@<TRIPOS>MOLECULE
NONAME
42 44 1 0 0 
SMALL
USER_CHARGES


@<TRIPOS>ATOM
  1 CL       2.7880     0.5430     2.5280 Cl    1 <1>  -0.1770 
  2 C        3.1580    -0.1730     0.9750 C.ar  1 <1>   0.1770 
  3 C        3.8130     0.5610    -0.0130 C.ar  1 <1>   0.0830 
  4 C        2.7890    -1.4870     0.7580 C.ar  1 <1>  -0.1500 
  5 O        4.1890     1.8440     0.1810 O.3   1 <1>  -0.3630 
  6 C        4.1140    -0.0400    -1.2270 C.ar  1 <1>  -0.1500 
  7 C        3.0890    -2.0640    -0.4620 C.ar  1 <1>   0.1770 
  8 C        3.1720     2.8320     0.0680 C.3   1 <1>   0.1810 
  9 C        3.7480    -1.3580    -1.4550 C.ar  1 <1>  -0.1500 
 10 CL       2.6300    -3.7210    -0.7580 Cl    1 <1>  -0.1770 
 11 C        3.6870     4.2470     0.3410 C.2   1 <1>   0.5690 
 12 O        3.0920     4.8750     1.1890 O.2   1 <1>  -0.5700 
 13 N        4.7260     4.8150    -0.3700 N.am  1 <1>  -0.6600 
 14 C        5.2620     6.1590     0.0400 C.3   1 <1>   0.1400 
 15 C        5.4890     4.1020    -1.4410 C.3   1 <1>   0.1400 
 16 C        6.7150     6.1660     0.5730 C.3   1 <1>   0.2200 
 17 C        6.9590     3.7910    -1.0940 C.3   1 <1>  -0.0190 
 18 N        7.7000     6.1090    -0.5450 N.am  1 <1>  -0.6600 
 19 C        7.0380     5.1140     1.6620 C.3   1 <1>   0.1200 
 20 C        7.8280     5.0040    -1.3350 C.2   1 <1>   0.5690 
 21 C        7.2620     3.1570     0.2780 C.3   1 <1>   0.1200 
 22 C        8.5350     7.3270    -0.7490 C.3   1 <1>   0.0600 
 23 O        6.6560     3.8020     1.3570 O.3   1 <1>  -0.5600 
 24 O        8.6190     4.9550    -2.2480 O.2   1 <1>  -0.5700 
 25 H        2.2830    -2.0480     1.5210 H     1 <1>   0.1500 
 26 H        4.6320     0.5200    -1.9850 H     1 <1>   0.1500 
 27 H        2.7640     2.7860    -0.9240 H     1 <1>   0.0800 
 28 H        2.3980     2.6020     0.7760 H     1 <1>   0.0800 
 29 H        3.9710    -1.8380    -2.3910 H     1 <1>   0.1500 
 30 H        5.1940     6.8290    -0.7980 H     1 <1>   0.0800 
 31 H        4.6390     6.5710     0.8130 H     1 <1>   0.0800 
 32 H        5.0010     3.1800    -1.6910 H     1 <1>   0.0800 
 33 H        5.4660     4.7070    -2.3310 H     1 <1>   0.0800 
 34 H        6.8450     7.1220     1.0470 H     1 <1>   0.0800 
 35 H        7.2800     3.0680    -1.8200 H     1 <1>   0.0800 
 36 H        6.5020     5.3750     2.5560 H     1 <1>   0.0800 
 37 H        8.0900     5.1190     1.8890 H     1 <1>   0.0800 
 38 H        8.3230     3.1260     0.4550 H     1 <1>   0.0800 
 39 H        6.8910     2.1470     0.2860 H     1 <1>   0.0800 
 40 H        9.1140     7.5250     0.1360 H     1 <1>   0.0800 
 41 H        7.9020     8.1720    -0.9570 H     1 <1>   0.0800 
 42 H        9.2120     7.1950    -1.5760 H     1 <1>   0.0800 
@<TRIPOS>BOND
  1   1   2  1   
  2   2   3  ar  
  3   2   4  ar  
  4   3   5  1   
  5   3   6  ar  
  6   4   7  ar  
  7   4  25  1   
  8   5   8  1   
  9   6   9  ar  
 10   6  26  1   
 11   7   9  ar  
 12   7  10  1   
 13   8  11  1   
 14   8  27  1   
 15   8  28  1   
 16   9  29  1   
 17  11  12  2   
 18  11  13  am  
 19  13  14  1   
 20  13  15  1   
 21  14  16  1   
 22  14  30  1   
 23  14  31  1   
 24  15  17  1   
 25  15  32  1   
 26  15  33  1   
 27  16  18  1   
 28  16  19  1   
 29  16  34  1   
 30  17  20  1   
 31  17  21  1   
 32  17  35  1   
 33  18  20  am  
 34  18  22  1   
 35  19  23  1   
 36  19  36  1   
 37  19  37  1   
 38  20  24  2   
 39  21  23  1   
 40  21  38  1   
 41  21  39  1   
 42  22  40  1   
 43  22  41  1   
 44  22  42  1   
@<TRIPOS>SUBSTRUCTURE
  1 ****   5 GROUP 4 **** **** 0

# MOE 2024.06 (io_trps.svl 2023.06)
