@<TRIPOS>MOLECULE
NONAME
44 46 1 0 0 
SMALL
USER_CHARGES


@<TRIPOS>ATOM
  1 F        4.2600     1.0690     2.2610 F     1 <1>  -0.1900 
  2 C        3.6620     0.1850     1.5020 C.ar  1 <1>   0.1900 
  3 C        3.2010     0.5610     0.2410 C.ar  1 <1>   0.0830 
  4 C        3.5260    -1.0990     1.9920 C.ar  1 <1>  -0.1500 
  5 O        3.3760     1.8480    -0.1630 O.3   1 <1>  -0.3630 
  6 C        2.5760    -0.4000    -0.5550 C.ar  1 <1>  -0.1500 
  7 C        2.9050    -2.0210     1.1730 C.ar  1 <1>   0.1900 
  8 C        3.4470     2.1690    -1.5460 C.3   1 <1>   0.1810 
  9 C        2.4290    -1.6980    -0.0860 C.ar  1 <1>  -0.1500 
 10 F        2.7610    -3.2460     1.6040 F     1 <1>  -0.1900 
 11 C        3.8900     3.6120    -1.7860 C.2   1 <1>   0.5690 
 12 O        3.2150     4.2610    -2.5540 O.2   1 <1>  -0.5700 
 13 N        5.0190     4.1420    -1.2030 N.am  1 <1>  -0.6600 
 14 C        5.3750     5.5780    -1.4310 C.3   1 <1>   0.1400 
 15 C        5.9050     3.3680    -0.2820 C.3   1 <1>   0.1400 
 16 C        6.0550     6.2050    -0.2030 C.3   1 <1>  -0.0800 
 17 C        7.3140     3.9590    -0.2800 C.3   1 <1>  -0.1600 
 18 C        7.3030     5.3970     0.2590 C.3   1 <1>   0.2800 
 19 C        6.3540     7.6960    -0.4850 C.3   1 <1>  -0.1600 
 20 O        7.2450     5.2970     1.6380 O.3   1 <1>  -0.6800 
 21 C        8.6200     6.1190    -0.0800 C.3   1 <1>  -0.1600 
 22 C        7.3420     8.2680     0.5390 C.3   1 <1>  -0.1600 
 23 C        8.7030     7.5510     0.4880 C.3   1 <1>  -0.1600 
 24 H        3.8890    -1.3680     2.9660 H     1 <1>   0.1500 
 25 H        2.1930    -0.1550    -1.5290 H     1 <1>   0.1500 
 26 H        4.1440     1.5020    -2.0170 H     1 <1>   0.0800 
 27 H        2.4700     2.0320    -1.9700 H     1 <1>   0.0800 
 28 H        1.9500    -2.4530    -0.6850 H     1 <1>   0.1500 
 29 H        6.0320     5.6370    -2.2810 H     1 <1>   0.0800 
 30 H        4.4850     6.1390    -1.6620 H     1 <1>   0.0800 
 31 H        5.4930     3.4010     0.7140 H     1 <1>   0.0800 
 32 H        5.9530     2.3390    -0.5940 H     1 <1>   0.0800 
 33 H        5.3250     6.1710     0.5890 H     1 <1>   0.0800 
 34 H        7.6840     3.9450    -1.2890 H     1 <1>   0.0800 
 35 H        7.9690     3.3450     0.3110 H     1 <1>   0.0800 
 36 H        6.7730     7.8120    -1.4700 H     1 <1>   0.0800 
 37 H        5.4350     8.2560    -0.4520 H     1 <1>   0.0800 
 38 H        8.1120     5.0200     1.9810 H     1 <1>   0.4000 
 39 H        9.4640     5.5420     0.2530 H     1 <1>   0.0800 
 40 H        8.6900     6.1830    -1.1520 H     1 <1>   0.0800 
 41 H        7.4800     9.3230     0.3720 H     1 <1>   0.0800 
 42 H        6.9180     8.1480     1.5220 H     1 <1>   0.0800 
 43 H        9.1060     7.5190     1.4860 H     1 <1>   0.0800 
 44 H        9.3870     8.1220    -0.1170 H     1 <1>   0.0800 
@<TRIPOS>BOND
  1   1   2  1   
  2   2   3  ar  
  3   2   4  ar  
  4   3   5  1   
  5   3   6  ar  
  6   4   7  ar  
  7   4  24  1   
  8   5   8  1   
  9   6   9  ar  
 10   6  25  1   
 11   7   9  ar  
 12   7  10  1   
 13   8  11  1   
 14   8  26  1   
 15   8  27  1   
 16   9  28  1   
 17  11  12  2   
 18  11  13  am  
 19  13  14  1   
 20  13  15  1   
 21  14  16  1   
 22  14  29  1   
 23  14  30  1   
 24  15  17  1   
 25  15  31  1   
 26  15  32  1   
 27  16  18  1   
 28  16  19  1   
 29  16  33  1   
 30  17  18  1   
 31  17  34  1   
 32  17  35  1   
 33  18  20  1   
 34  18  21  1   
 35  19  22  1   
 36  19  36  1   
 37  19  37  1   
 38  20  38  1   
 39  21  23  1   
 40  21  39  1   
 41  21  40  1   
 42  22  23  1   
 43  22  41  1   
 44  22  42  1   
 45  23  43  1   
 46  23  44  1   
@<TRIPOS>SUBSTRUCTURE
  1 ****  15 GROUP 4 **** **** 0

# MOE 2024.06 (io_trps.svl 2023.06)
