@<TRIPOS>MOLECULE
NONAME
44 47 1 0 0 
SMALL
USER_CHARGES


@<TRIPOS>ATOM
  1 O        0.2980     1.0090     0.4320 O.2   1 <1>  -0.5700 
  2 C       -0.2970     2.0160     0.0840 C.2   1 <1>   0.5440 
  3 N       -1.6780     1.9320    -0.0210 N.am  1 <1>  -0.6600 
  4 C        0.4870     3.2080    -0.2350 C.ar  1 <1>   0.3960 
  5 C       -2.5530     3.0010    -0.6000 C.3   1 <1>   0.1400 
  6 C       -2.3900     0.6880     0.4060 C.3   1 <1>   0.1400 
  7 N        0.1360     4.4300     0.2070 N.ar  1 <1>  -0.6200 
  8 C        1.6340     3.0300    -1.0160 C.ar  1 <1>   0.1600 
  9 C       -3.6660     3.4030     0.3920 C.3   1 <1>   0.1440 
 10 C       -3.9200     0.8410     0.3670 C.3   1 <1>  -0.1600 
 11 C        0.9640     5.3820    -0.1810 C.ar  1 <1>   0.1600 
 12 N        2.4570     3.9880    -1.4120 N.ar  1 <1>  -0.6200 
 13 C       -4.6140     4.3170    -0.3660 C.ar  1 <1>   0.1670 
 14 C       -4.3680     2.1620     1.0140 C.3   1 <1>  -0.1600 
 15 C       -3.1260     4.3540     1.4940 C.3   1 <1>  -0.1600 
 16 C        2.0920     5.1750    -0.9690 C.ar  1 <1>   0.1670 
 17 N       -5.5080     3.9330    -1.2470 N.ar  1 <1>  -0.6200 
 18 C       -4.4080     5.6280    -0.0440 C.ar  1 <1>  -0.1440 
 19 C       -3.3060     5.7880     0.9730 C.3   1 <1>  -0.0170 
 20 C        2.9840     6.3330    -1.3680 C.3   1 <1>  -0.0970 
 21 C       -6.1920     4.9280    -1.7900 C.ar  1 <1>   0.7200 
 22 C       -5.1880     6.5720    -0.6660 C.ar  1 <1>   0.1600 
 23 N       -6.0990     6.2290    -1.5490 N.ar  1 <1>  -0.6200 
 24 N       -7.1140     4.5740    -2.6850 N.pl3 1 <1>  -0.9000 
 25 H       -3.0080     2.6130    -1.4950 H     1 <1>   0.0800 
 26 H       -1.9910     3.8670    -0.8920 H     1 <1>   0.0800 
 27 H       -2.0840     0.4530     1.4120 H     1 <1>   0.0800 
 28 H       -2.0870    -0.1280    -0.2280 H     1 <1>   0.0800 
 29 H        1.8730     2.0280    -1.3260 H     1 <1>   0.1500 
 30 H       -4.3710     0.0120     0.8820 H     1 <1>   0.0800 
 31 H       -4.2570     0.8030    -0.6550 H     1 <1>   0.0800 
 32 H        0.7390     6.3830     0.1430 H     1 <1>   0.1500 
 33 H       -5.4360     2.2610     0.9300 H     1 <1>   0.0800 
 34 H       -4.1350     2.0970     2.0620 H     1 <1>   0.0800 
 35 H       -2.1050     4.1400     1.7560 H     1 <1>   0.0800 
 36 H       -3.7270     4.2580     2.3810 H     1 <1>   0.0800 
 37 H       -2.4080     6.1290     0.4880 H     1 <1>   0.0800 
 38 H       -3.5800     6.4660     1.7630 H     1 <1>   0.0800 
 39 H        2.6160     7.2640    -0.9770 H     1 <1>   0.0800 
 40 H        3.0280     6.4000    -2.4400 H     1 <1>   0.0800 
 41 H        3.9780     6.1660    -0.9940 H     1 <1>   0.0800 
 42 H       -5.0630     7.6170    -0.4400 H     1 <1>   0.1500 
 43 H       -7.8300     5.2720    -2.8620 H     1 <1>   0.4000 
 44 H       -7.4170     3.6060    -2.6300 H     1 <1>   0.4000 
@<TRIPOS>BOND
  1   1   2  2   
  2   2   3  am  
  3   2   4  1   
  4   3   5  1   
  5   3   6  1   
  6   4   7  ar  
  7   4   8  ar  
  8   5   9  1   
  9   5  25  1   
 10   5  26  1   
 11   6  10  1   
 12   6  27  1   
 13   6  28  1   
 14   7  11  ar  
 15   8  12  ar  
 16   8  29  1   
 17   9  13  1   
 18   9  14  1   
 19   9  15  1   
 20  10  14  1   
 21  10  30  1   
 22  10  31  1   
 23  11  16  ar  
 24  11  32  1   
 25  12  16  ar  
 26  13  17  ar  
 27  13  18  ar  
 28  14  33  1   
 29  14  34  1   
 30  15  19  1   
 31  15  35  1   
 32  15  36  1   
 33  16  20  1   
 34  17  21  ar  
 35  18  19  1   
 36  18  22  ar  
 37  19  37  1   
 38  19  38  1   
 39  20  39  1   
 40  20  40  1   
 41  20  41  1   
 42  21  23  ar  
 43  21  24  1   
 44  22  23  ar  
 45  22  42  1   
 46  24  43  1   
 47  24  44  1   
@<TRIPOS>SUBSTRUCTURE
  1 ****   5 GROUP 4 **** **** 0

# MOE 2024.06 (io_trps.svl 2023.06)
