@<TRIPOS>MOLECULE
NONAME
55 58 1 0 0 
SMALL
USER_CHARGES


@<TRIPOS>ATOM
  1 O        1.4680     1.4550    -2.7640 O.2   1 <1>  -0.5700 
  2 C        1.7850     1.1380    -1.6300 C.2   1 <1>   0.5440 
  3 N        1.4360     1.9750    -0.5940 N.am  1 <1>  -0.6600 
  4 C        2.5370    -0.0720    -1.4250 C.ar  1 <1>   0.0860 
  5 C        1.6520     1.6970     0.8430 C.3   1 <1>   0.1400 
  6 C        0.5270     3.1260    -0.7810 C.3   1 <1>   0.1400 
  7 C        1.9590    -1.2310    -0.8680 C.ar  1 <1>   0.4100 
  8 C        3.8720    -0.1230    -1.7980 C.ar  1 <1>  -0.1500 
  9 C        0.5840     2.5170     1.5550 C.3   1 <1>  -0.1600 
 10 C        0.3140     3.6920     0.6190 C.3   1 <1>  -0.1600 
 11 N        2.6340    -2.3690    -0.6700 N.ar  1 <1>  -0.6200 
 12 N        0.6240    -1.2730    -0.4990 N.pl3 1 <1>  -0.8380 
 13 C        4.5620    -1.2950    -1.5950 C.ar  1 <1>  -0.1500 
 14 C        3.9020    -2.3730    -1.0350 C.ar  1 <1>   0.1600 
 15 C        0.2260    -2.1080     0.6840 C.3   1 <1>   0.2090 
 16 C       -0.3840    -1.2040    -1.6140 C.3   1 <1>   0.2090 
 17 C       -0.4030    -3.3930     0.1180 C.3   1 <1>   0.4230 
 18 C       -1.7780    -1.7050    -1.1940 C.3   1 <1>  -0.1600 
 19 N       -0.4280    -4.6170     0.9840 N.4   1 <1>  -0.9590 
 20 C       -1.8110    -3.0520    -0.4000 C.3   1 <1>  -0.1060 
 21 C       -0.8760    -5.8030     0.2040 C.3   1 <1>   0.3430 
 22 C        0.8370    -4.8640     1.7220 C.3   1 <1>   0.2630 
 23 C       -2.7840    -2.8960     0.7830 C.2   1 <1>   0.9060 
 24 C       -2.2530    -4.2320    -1.2950 C.3   1 <1>  -0.1600 
 25 C       -2.2180    -5.5500    -0.4970 C.3   1 <1>  -0.1600 
 26 O       -3.9470    -2.5670     0.5550 O.co2 1 <1>  -0.9000 
 27 O       -2.3960    -3.1530     1.9340 O.co2 1 <1>  -0.9000 
 28 H        1.5500     0.6510     1.0690 H     1 <1>   0.0800 
 29 H        2.6350     2.0370     1.1210 H     1 <1>   0.0800 
 30 H        0.9640     3.8510    -1.4460 H     1 <1>   0.0800 
 31 H       -0.4030     2.7730    -1.1940 H     1 <1>   0.0800 
 32 H        4.3440     0.7390    -2.2370 H     1 <1>   0.1500 
 33 H       -0.3050     1.9170     1.6530 H     1 <1>   0.0800 
 34 H        0.9040     2.8320     2.5320 H     1 <1>   0.0800 
 35 H        1.0340     4.4720     0.7930 H     1 <1>   0.0800 
 36 H       -0.6760     4.0930     0.7390 H     1 <1>   0.0800 
 37 H        5.5980    -1.3770    -1.8710 H     1 <1>   0.1500 
 38 H        4.4530    -3.2860    -0.8830 H     1 <1>   0.1500 
 39 H        1.0900    -2.3170     1.2840 H     1 <1>   0.0800 
 40 H       -0.4780    -1.5640     1.2900 H     1 <1>   0.0800 
 41 H       -0.4740    -0.1860    -1.9540 H     1 <1>   0.0800 
 42 H       -0.0290    -1.7950    -2.4420 H     1 <1>   0.0800 
 43 H        0.2050    -3.6380    -0.7360 H     1 <1>   0.0800 
 44 H       -2.2020    -0.9280    -0.5800 H     1 <1>   0.0800 
 45 H       -2.4130    -1.7680    -2.0590 H     1 <1>   0.0800 
 46 H       -1.1930    -4.3630     1.6660 H     1 <1>   0.4500 
 47 H       -0.1320    -6.0350    -0.5400 H     1 <1>   0.0800 
 48 H       -0.9750    -6.6530     0.8600 H     1 <1>   0.0800 
 49 H        1.6590    -4.9540     1.0310 H     1 <1>   0.0800 
 50 H        0.7580    -5.7690     2.3000 H     1 <1>   0.0800 
 51 H        1.0360    -4.0470     2.3960 H     1 <1>   0.0800 
 52 H       -3.2570    -4.0590    -1.6480 H     1 <1>   0.0800 
 53 H       -1.6070    -4.3060    -2.1530 H     1 <1>   0.0800 
 54 H       -2.4300    -6.3720    -1.1580 H     1 <1>   0.0800 
 55 H       -2.9980    -5.5400     0.2470 H     1 <1>   0.0800 
@<TRIPOS>BOND
  1   1   2  2   
  2   2   3  am  
  3   2   4  1   
  4   3   5  1   
  5   3   6  1   
  6   4   7  ar  
  7   4   8  ar  
  8   5   9  1   
  9   5  28  1   
 10   5  29  1   
 11   6  10  1   
 12   6  30  1   
 13   6  31  1   
 14   7  11  ar  
 15   7  12  1   
 16   8  13  ar  
 17   8  32  1   
 18   9  10  1   
 19   9  33  1   
 20   9  34  1   
 21  10  35  1   
 22  10  36  1   
 23  11  14  ar  
 24  12  15  1   
 25  12  16  1   
 26  13  14  ar  
 27  13  37  1   
 28  14  38  1   
 29  15  17  1   
 30  15  39  1   
 31  15  40  1   
 32  16  18  1   
 33  16  41  1   
 34  16  42  1   
 35  17  19  1   
 36  17  20  1   
 37  17  43  1   
 38  18  20  1   
 39  18  44  1   
 40  18  45  1   
 41  19  21  1   
 42  19  22  1   
 43  19  46  1   
 44  20  23  1   
 45  20  24  1   
 46  21  25  1   
 47  21  47  1   
 48  21  48  1   
 49  22  49  1   
 50  22  50  1   
 51  22  51  1   
 52  23  26  ar  
 53  23  27  ar  
 54  24  25  1   
 55  24  52  1   
 56  24  53  1   
 57  25  54  1   
 58  25  55  1   
@<TRIPOS>SUBSTRUCTURE
  1 ****  12 GROUP 4 **** **** 0

# MOE 2024.06 (io_trps.svl 2023.06)
