@<TRIPOS>MOLECULE
NONAME
39 40 1 0 0 
SMALL
USER_CHARGES


@<TRIPOS>ATOM
  1 S        0.3300     0.2060    -1.3570 S.o2  1 <1>   1.3330 
  2 O        0.7320    -0.9860    -2.0710 O.2   1 <1>  -0.6500 
  3 O       -0.5950     1.1300    -1.9740 O.2   1 <1>  -0.6500 
  4 N       -0.3550    -0.2800     0.1200 N.am  1 <1>  -0.8490 
  5 C        1.8150     1.0910    -0.8770 C.3   1 <1>  -0.0550 
  6 C       -1.0780     0.7980     0.8070 C.3   1 <1>   0.1160 
  7 C       -1.2350    -1.4410    -0.0400 C.3   1 <1>   0.1160 
  8 C        2.9260     0.1950    -0.2840 C.3   1 <1>  -0.0800 
  9 C        4.2340     0.9160    -0.0050 C.3   1 <1>   0.2890 
 10 C        2.5940    -0.4430     1.0710 C.3   1 <1>   0.1200 
 11 N        3.9580     2.2400     0.6150 N.pl3 1 <1>  -0.8690 
 12 C        4.8460    -0.0040     1.0420 C.3   1 <1>   0.1200 
 13 O        3.7730    -0.4410     1.8220 O.3   1 <1>  -0.5600 
 14 C        4.7360     3.3670     0.4330 C.ar  1 <1>   0.4100 
 15 N        5.7550     3.2420    -0.4120 N.ar  1 <1>  -0.6200 
 16 C        4.4420     4.5580     1.1160 C.ar  1 <1>   0.0730 
 17 C        6.5130     4.3090    -0.5870 C.ar  1 <1>   0.1600 
 18 C        3.3170     4.6270     1.9940 C.1   1 <1>   0.4840 
 19 C        5.2550     5.6590     0.9150 C.ar  1 <1>  -0.1500 
 20 C        6.3130     5.5230     0.0420 C.ar  1 <1>  -0.1500 
 21 N        2.4180     4.6670     2.6950 N.1   1 <1>  -0.5570 
 22 H        2.2140     1.5740    -1.7480 H     1 <1>   0.0800 
 23 H        1.5560     1.8620    -0.1800 H     1 <1>   0.0800 
 24 H       -1.4210     0.4570     1.7690 H     1 <1>   0.0800 
 25 H       -1.9270     1.1150     0.2250 H     1 <1>   0.0800 
 26 H       -0.4300     1.6440     0.9620 H     1 <1>   0.0800 
 27 H       -1.6410    -1.7360     0.9120 H     1 <1>   0.0800 
 28 H       -0.6790    -2.2730    -0.4400 H     1 <1>   0.0800 
 29 H       -2.0420    -1.2090    -0.7150 H     1 <1>   0.0800 
 30 H        3.1290    -0.6030    -0.9770 H     1 <1>   0.0800 
 31 H        4.8480     1.0030    -0.8860 H     1 <1>   0.0800 
 32 H        2.2460    -1.4560     0.9630 H     1 <1>   0.0800 
 33 H        1.8660     0.1330     1.6160 H     1 <1>   0.0800 
 34 H        3.5440     2.1150     1.5470 H     1 <1>   0.4000 
 35 H        5.5690     0.4980     1.6600 H     1 <1>   0.0800 
 36 H        5.2920    -0.8660     0.5780 H     1 <1>   0.0800 
 37 H        7.3400     4.2110    -1.2710 H     1 <1>   0.1500 
 38 H        5.0690     6.5920     1.4210 H     1 <1>   0.1500 
 39 H        6.9770     6.3480    -0.1500 H     1 <1>   0.1500 
@<TRIPOS>BOND
  1   1   2  2   
  2   1   3  2   
  3   1   4  am  
  4   1   5  1   
  5   4   6  1   
  6   4   7  1   
  7   5   8  1   
  8   5  22  1   
  9   5  23  1   
 10   6  24  1   
 11   6  25  1   
 12   6  26  1   
 13   7  27  1   
 14   7  28  1   
 15   7  29  1   
 16   8   9  1   
 17   8  10  1   
 18   8  30  1   
 19   9  11  1   
 20   9  12  1   
 21   9  31  1   
 22  10  13  1   
 23  10  32  1   
 24  10  33  1   
 25  11  14  1   
 26  11  34  1   
 27  12  13  1   
 28  12  35  1   
 29  12  36  1   
 30  14  15  ar  
 31  14  16  ar  
 32  15  17  ar  
 33  16  18  1   
 34  16  19  ar  
 35  17  20  ar  
 36  17  37  1   
 37  18  21  3   
 38  19  20  ar  
 39  19  38  1   
 40  20  39  1   
@<TRIPOS>SUBSTRUCTURE
  1 ****  11 GROUP 4 **** **** 0

# MOE 2024.06 (io_trps.svl 2023.06)
