@<TRIPOS>MOLECULE
NONAME
55 58 1 0 0 
SMALL
USER_CHARGES


@<TRIPOS>ATOM
  1 F        0.5670     1.4180     1.3690 F     1 <1>  -0.1900 
  2 C        0.6950     2.5180     0.6720 C.ar  1 <1>   0.1900 
  3 C       -0.3580     3.4280     0.5280 C.ar  1 <1>   0.0820 
  4 C        1.9300     2.7380     0.0920 C.ar  1 <1>  -0.1500 
  5 O       -1.6120     3.3300     1.0520 O.3   1 <1>  -0.3630 
  6 C       -0.1250     4.5700    -0.2210 C.ar  1 <1>  -0.1500 
  7 C        2.1390     3.8890    -0.6480 C.ar  1 <1>  -0.1500 
  8 C       -2.0770     2.1710     1.7100 C.3   1 <1>   0.0400 
  9 C        1.1130     4.8120    -0.8030 C.ar  1 <1>  -0.1430 
 10 C        1.3320     6.0930    -1.5880 C.3   1 <1>   0.4870 
 11 N        2.2610     6.9860    -0.8490 N.4   1 <1>  -0.9590 
 12 C        1.8550     7.2080     0.5940 C.3   1 <1>   0.4230 
 13 C        2.5560     8.2230    -1.6550 C.3   1 <1>   0.3430 
 14 C        0.6880     8.2120     0.7760 C.3   1 <1>   0.1200 
 15 C        3.0870     7.5590     1.4700 C.3   1 <1>   0.1400 
 16 C        3.0260     9.4550    -0.8480 C.3   1 <1>  -0.0800 
 17 O        0.7400     9.3110    -0.0910 O.3   1 <1>  -0.5600 
 18 N        4.3100     7.9210     0.6830 N.am  1 <1>  -0.6600 
 19 C        1.8890    10.0960    -0.0250 C.3   1 <1>   0.1200 
 20 C        4.3090     9.2280    -0.0250 C.3   1 <1>   0.1400 
 21 C        5.2170     6.9510     0.3320 C.2   1 <1>   0.7150 
 22 O        4.7480     5.8890    -0.0440 O.2   1 <1>  -0.5700 
 23 C        6.6320     7.2160     0.3390 C.2   1 <1>  -0.2370 
 24 N        7.5960     6.4160    -0.2340 N.pl3 1 <1>   0.0480 
 25 C        7.2820     8.2840     0.9110 C.2   1 <1>  -0.1500 
 26 C        8.8020     6.9950    -0.0270 C.2   1 <1>  -0.3020 
 27 C        7.4150     5.1310    -0.9390 C.3   1 <1>   0.0160 
 28 C        8.6440     8.1460     0.6740 C.2   1 <1>  -0.1500 
 29 H        2.7170     2.0150     0.2230 H     1 <1>   0.1500 
 30 H       -0.9380     5.2660    -0.3390 H     1 <1>   0.1500 
 31 H        3.1080     4.0520    -1.0920 H     1 <1>   0.1500 
 32 H       -3.1150     2.3170     1.9500 H     1 <1>   0.0800 
 33 H       -1.5130     2.0300     2.6150 H     1 <1>   0.0800 
 34 H       -1.9710     1.3260     1.0530 H     1 <1>   0.0800 
 35 H        0.3890     6.5930    -1.7360 H     1 <1>   0.0800 
 36 H        1.7440     5.8520    -2.5540 H     1 <1>   0.0800 
 37 H        3.1600     6.4750    -0.7470 H     1 <1>   0.4500 
 38 H        1.4980     6.2760     0.9980 H     1 <1>   0.0800 
 39 H        3.3050     7.9860    -2.3930 H     1 <1>   0.0800 
 40 H        1.6620     8.5130    -2.1840 H     1 <1>   0.0800 
 41 H        0.6440     8.5760     1.7880 H     1 <1>   0.0800 
 42 H       -0.2410     7.7070     0.5780 H     1 <1>   0.0800 
 43 H        3.3160     6.6970     2.0740 H     1 <1>   0.0800 
 44 H        2.8550     8.3550     2.1560 H     1 <1>   0.0800 
 45 H        3.2900    10.2020    -1.5740 H     1 <1>   0.0800 
 46 H        1.6330    11.0530    -0.4490 H     1 <1>   0.0800 
 47 H        2.1560    10.2550     1.0070 H     1 <1>   0.0800 
 48 H        4.4440    10.0220     0.6910 H     1 <1>   0.0800 
 49 H        5.1540     9.2590    -0.6940 H     1 <1>   0.0800 
 50 H        6.8440     9.0990     1.4610 H     1 <1>   0.1500 
 51 H        9.7220     6.5640    -0.3810 H     1 <1>   0.1500 
 52 H        8.3670     4.7660    -1.2780 H     1 <1>   0.0800 
 53 H        6.7660     5.2750    -1.7830 H     1 <1>   0.0800 
 54 H        6.9790     4.4160    -0.2660 H     1 <1>   0.0800 
 55 H        9.4120     8.8290     0.9980 H     1 <1>   0.1500 
@<TRIPOS>BOND
  1   1   2  1   
  2   2   3  ar  
  3   2   4  ar  
  4   3   5  1   
  5   3   6  ar  
  6   4   7  ar  
  7   4  29  1   
  8   5   8  1   
  9   6   9  ar  
 10   6  30  1   
 11   7   9  ar  
 12   7  31  1   
 13   8  32  1   
 14   8  33  1   
 15   8  34  1   
 16   9  10  1   
 17  10  11  1   
 18  10  35  1   
 19  10  36  1   
 20  11  12  1   
 21  11  13  1   
 22  11  37  1   
 23  12  14  1   
 24  12  15  1   
 25  12  38  1   
 26  13  16  1   
 27  13  39  1   
 28  13  40  1   
 29  14  17  1   
 30  14  41  1   
 31  14  42  1   
 32  15  18  1   
 33  15  43  1   
 34  15  44  1   
 35  16  19  1   
 36  16  20  1   
 37  16  45  1   
 38  17  19  1   
 39  18  20  1   
 40  18  21  am  
 41  19  46  1   
 42  19  47  1   
 43  20  48  1   
 44  20  49  1   
 45  21  22  2   
 46  21  23  1   
 47  23  24  1   
 48  23  25  2   
 49  24  26  1   
 50  24  27  1   
 51  25  28  1   
 52  25  50  1   
 53  26  28  2   
 54  26  51  1   
 55  27  52  1   
 56  27  53  1   
 57  27  54  1   
 58  28  55  1   
@<TRIPOS>SUBSTRUCTURE
  1 ****  11 GROUP 4 **** **** 0

# MOE 2024.06 (io_trps.svl 2023.06)
