@<TRIPOS>MOLECULE
NONAME
54 58 1 0 0 
SMALL
USER_CHARGES


@<TRIPOS>ATOM
  1 S        0.3740     0.3540     2.0590 S.3   1 <1>  -0.0800 
  2 C        1.1010    -1.0120     1.2150 C.ar  1 <1>   0.2970 
  3 C        1.2890     1.4930     1.0770 C.2   1 <1>  -0.1400 
  4 N        0.8020    -2.2630     1.4980 N.ar  1 <1>  -0.5670 
  5 C        1.9870    -0.5820     0.2540 C.ar  1 <1>   0.0000 
  6 C        2.0640     0.8600     0.1820 C.2   1 <1>  -0.1810 
  7 C        1.1300     2.9800     1.3000 C.3   1 <1>   0.0200 
  8 C        1.4620    -3.1270     0.7570 C.ar  1 <1>   0.4770 
  9 C        2.6200    -1.6160    -0.4400 C.ar  1 <1>   0.4100 
 10 C        2.9220     1.6450    -0.8000 C.3   1 <1>   0.0210 
 11 C        2.2520     3.7210     0.5510 C.3   1 <1>  -0.1600 
 12 N        2.3530    -2.8830    -0.2010 N.ar  1 <1>  -0.6200 
 13 C        1.1410    -4.6050     0.9940 C.3   1 <1>   0.4870 
 14 N        3.5550    -1.4150    -1.3990 N.pl3 1 <1>  -0.9000 
 15 C        2.4970     3.1280    -0.8510 C.3   1 <1>  -0.1600 
 16 N        0.9230    -5.3440    -0.3040 N.4   1 <1>  -0.9590 
 17 C       -0.3800    -4.9250    -0.9120 C.3   1 <1>   0.3430 
 18 C        0.8640    -6.8210    -0.0970 C.3   1 <1>   0.3430 
 19 C       -1.3730    -6.0310    -0.5420 C.3   1 <1>   0.2000 
 20 C       -0.5010    -7.2840    -0.6210 C.3   1 <1>  -0.0800 
 21 O       -1.7790    -5.8250     0.7740 O.3   1 <1>  -0.6800 
 22 C       -1.0300    -8.5350     0.1060 C.3   1 <1>  -0.0170 
 23 C        0.0210    -9.6330     0.0810 C.ar  1 <1>  -0.1430 
 24 C        0.3260   -10.3250    -1.0750 C.ar  1 <1>  -0.1500 
 25 C        0.7320    -9.9880     1.2110 C.ar  1 <1>  -0.1500 
 26 C        1.3150   -11.2950    -1.0500 C.ar  1 <1>   0.1600 
 27 C        1.7010   -10.9740     1.1280 C.ar  1 <1>   0.1600 
 28 N        2.0150   -11.6240     0.0210 N.ar  1 <1>  -0.6200 
 29 H        0.1690     3.2880     0.9270 H     1 <1>   0.0800 
 30 H        1.1790     3.2060     2.3510 H     1 <1>   0.0800 
 31 H        3.9510     1.5760    -0.4920 H     1 <1>   0.0800 
 32 H        2.8270     1.2270    -1.7860 H     1 <1>   0.0800 
 33 H        1.9990     4.7640     0.4700 H     1 <1>   0.0800 
 34 H        3.1610     3.6460     1.1230 H     1 <1>   0.0800 
 35 H        0.2610    -4.6770     1.6130 H     1 <1>   0.0800 
 36 H        1.9680    -5.0400     1.5270 H     1 <1>   0.0800 
 37 H        4.1000    -2.2150    -1.7230 H     1 <1>   0.4000 
 38 H        4.0280    -0.5150    -1.4790 H     1 <1>   0.4000 
 39 H        3.2540     3.6980    -1.3610 H     1 <1>   0.0800 
 40 H        1.5880     3.2080    -1.4230 H     1 <1>   0.0800 
 41 H        1.7010    -5.0530    -0.9180 H     1 <1>   0.4500 
 42 H       -0.7130    -3.9640    -0.5550 H     1 <1>   0.0800 
 43 H       -0.2780    -4.8870    -1.9840 H     1 <1>   0.0800 
 44 H        1.6630    -7.3260    -0.6170 H     1 <1>   0.0800 
 45 H        0.9350    -7.0490     0.9540 H     1 <1>   0.0800 
 46 H       -2.2370    -6.0470    -1.1850 H     1 <1>   0.0800 
 47 H       -0.3720    -7.5340    -1.6600 H     1 <1>   0.0800 
 48 H       -2.6300    -6.2770     0.9580 H     1 <1>   0.4000 
 49 H       -1.9270    -8.8880    -0.3730 H     1 <1>   0.0800 
 50 H       -1.2740    -8.3100     1.1300 H     1 <1>   0.0800 
 51 H       -0.1930   -10.1280    -1.9950 H     1 <1>   0.1500 
 52 H        0.5450    -9.5180     2.1590 H     1 <1>   0.1500 
 53 H        1.5420   -11.8270    -1.9590 H     1 <1>   0.1500 
 54 H        2.2470   -11.2420     2.0170 H     1 <1>   0.1500 
@<TRIPOS>BOND
  1   1   2  1   
  2   1   3  1   
  3   2   4  ar  
  4   2   5  ar  
  5   3   6  2   
  6   3   7  1   
  7   4   8  ar  
  8   5   6  1   
  9   5   9  ar  
 10   6  10  1   
 11   7  11  1   
 12   7  29  1   
 13   7  30  1   
 14   8  12  ar  
 15   8  13  1   
 16   9  12  ar  
 17   9  14  1   
 18  10  15  1   
 19  10  31  1   
 20  10  32  1   
 21  11  15  1   
 22  11  33  1   
 23  11  34  1   
 24  13  16  1   
 25  13  35  1   
 26  13  36  1   
 27  14  37  1   
 28  14  38  1   
 29  15  39  1   
 30  15  40  1   
 31  16  17  1   
 32  16  18  1   
 33  16  41  1   
 34  17  19  1   
 35  17  42  1   
 36  17  43  1   
 37  18  20  1   
 38  18  44  1   
 39  18  45  1   
 40  19  20  1   
 41  19  21  1   
 42  19  46  1   
 43  20  22  1   
 44  20  47  1   
 45  21  48  1   
 46  22  23  1   
 47  22  49  1   
 48  22  50  1   
 49  23  24  ar  
 50  23  25  ar  
 51  24  26  ar  
 52  24  51  1   
 53  25  27  ar  
 54  25  52  1   
 55  26  28  ar  
 56  26  53  1   
 57  27  28  ar  
 58  27  54  1   
@<TRIPOS>SUBSTRUCTURE
  1 ****  13 GROUP 4 **** **** 0

# MOE 2024.06 (io_trps.svl 2023.06)
