@<TRIPOS>MOLECULE
NONAME
45 47 1 0 0 
SMALL
USER_CHARGES


@<TRIPOS>ATOM
  1 S       -0.2650     0.3520    -0.3530 S.3   1 <1>  -0.0800 
  2 C       -0.2670    -1.3850    -0.4390 C.2   1 <1>   0.4620 
  3 C        1.4240     0.2650     0.0160 C.2   1 <1>   0.1980 
  4 N        0.9010    -1.8740    -0.2060 N.2   1 <1>  -0.3380 
  5 N       -1.4330    -2.0680    -0.7310 N.pl3 1 <1>  -0.8220 
  6 N        1.8560    -0.9300     0.0530 N.2   1 <1>  -0.3380 
  7 C        2.1520     1.5810     0.2420 C.3   1 <1>   0.0200 
  8 C       -2.7900    -1.4510    -0.8700 C.3   1 <1>   0.2090 
  9 C       -1.4440    -3.5590    -0.8520 C.3   1 <1>   0.2090 
 10 C        3.6400     1.3950     0.5650 C.3   1 <1>  -0.2400 
 11 C       -3.8320    -2.2000    -0.0120 C.3   1 <1>   0.2950 
 12 C       -2.5700    -4.1850     0.0040 C.3   1 <1>   0.2000 
 13 O       -3.7980    -3.5740    -0.2810 O.3   1 <1>  -0.5600 
 14 C       -5.2560    -1.7100    -0.2940 C.3   1 <1>  -0.1950 
 15 C       -2.7580    -5.6870    -0.2470 C.3   1 <1>  -0.1600 
 16 C       -5.8180    -0.5160     0.4130 C.3   1 <1>  -0.2000 
 17 C       -6.3510    -1.8900     0.7090 C.3   1 <1>  -0.2000 
 18 C       -1.5370    -6.5250     0.1670 C.3   1 <1>  -0.1600 
 19 C       -1.8130    -8.0220    -0.0160 C.3   1 <1>  -0.1600 
 20 C       -0.5980    -8.8600     0.3930 C.3   1 <1>  -0.2400 
 21 H        2.0550     2.1820    -0.6440 H     1 <1>   0.0800 
 22 H        1.6760     2.1020     1.0530 H     1 <1>   0.0800 
 23 H       -2.7810    -0.4200    -0.5710 H     1 <1>   0.0800 
 24 H       -3.0900    -1.4940    -1.9020 H     1 <1>   0.0800 
 25 H       -1.5910    -3.8270    -1.8830 H     1 <1>   0.0800 
 26 H       -0.4960    -3.9620    -0.5410 H     1 <1>   0.0800 
 27 H        4.1360     0.8890    -0.2450 H     1 <1>   0.0800 
 28 H        3.7550     0.8050     1.4580 H     1 <1>   0.0800 
 29 H        4.1110     2.3490     0.7170 H     1 <1>   0.0800 
 30 H       -3.6040    -2.0600     1.0310 H     1 <1>   0.0800 
 31 H       -2.3540    -4.0250     1.0470 H     1 <1>   0.0800 
 32 H       -5.5220    -1.8340    -1.3300 H     1 <1>   0.1000 
 33 H       -3.6110    -6.0150     0.3200 H     1 <1>   0.0800 
 34 H       -2.9670    -5.8460    -1.2910 H     1 <1>   0.0800 
 35 H       -5.2380    -0.0230     1.1740 H     1 <1>   0.1000 
 36 H       -6.4420     0.1680    -0.1370 H     1 <1>   0.1000 
 37 H       -7.3290    -2.1620     0.3520 H     1 <1>   0.1000 
 38 H       -6.1130    -2.3550     1.6510 H     1 <1>   0.1000 
 39 H       -0.6830    -6.2530    -0.4290 H     1 <1>   0.0800 
 40 H       -1.3020    -6.3310     1.2000 H     1 <1>   0.0800 
 41 H       -2.6600    -8.3110     0.5830 H     1 <1>   0.0800 
 42 H       -2.0500    -8.2230    -1.0470 H     1 <1>   0.0800 
 43 H       -0.3560    -8.6910     1.4270 H     1 <1>   0.0800 
 44 H        0.2560    -8.6050    -0.2100 H     1 <1>   0.0800 
 45 H       -0.8110    -9.9060     0.2590 H     1 <1>   0.0800 
@<TRIPOS>BOND
  1   1   2  1   
  2   1   3  1   
  3   2   4  2   
  4   2   5  1   
  5   3   6  2   
  6   3   7  1   
  7   4   6  1   
  8   5   8  1   
  9   5   9  1   
 10   7  10  1   
 11   7  21  1   
 12   7  22  1   
 13   8  11  1   
 14   8  23  1   
 15   8  24  1   
 16   9  12  1   
 17   9  25  1   
 18   9  26  1   
 19  10  27  1   
 20  10  28  1   
 21  10  29  1   
 22  11  13  1   
 23  11  14  1   
 24  11  30  1   
 25  12  13  1   
 26  12  15  1   
 27  12  31  1   
 28  14  16  1   
 29  14  17  1   
 30  14  32  1   
 31  15  18  1   
 32  15  33  1   
 33  15  34  1   
 34  16  17  1   
 35  16  35  1   
 36  16  36  1   
 37  17  37  1   
 38  17  38  1   
 39  18  19  1   
 40  18  39  1   
 41  18  40  1   
 42  19  20  1   
 43  19  41  1   
 44  19  42  1   
 45  20  43  1   
 46  20  44  1   
 47  20  45  1   
@<TRIPOS>SUBSTRUCTURE
  1 ****   5 GROUP 4 **** **** 0

# MOE 2024.06 (io_trps.svl 2023.06)
