@<TRIPOS>MOLECULE
NONAME
51 54 1 0 0 
SMALL
USER_CHARGES


@<TRIPOS>ATOM
  1 S        0.7110    -0.7360     0.1520 S.o2  1 <1>   1.5760 
  2 O        1.5460    -1.3090    -0.8790 O.2   1 <1>  -0.6500 
  3 O        1.2540    -0.3740     1.4370 O.2   1 <1>  -0.6500 
  4 N       -0.2140     0.5120    -0.5080 N.am  1 <1>  -0.8490 
  5 N       -0.5150    -1.8230     0.4510 N.am  1 <1>  -0.9140 
  6 C        0.5290     1.4090    -1.3960 C.3   1 <1>   0.1960 
  7 C       -1.0810     1.2250     0.4400 C.3   1 <1>   0.1960 
  8 C       -0.9890    -2.5190    -0.7350 C.3   1 <1>   0.2760 
  9 C        1.3570     2.4300    -0.6070 C.3   1 <1>  -0.1600 
 10 C       -0.3450     2.3160     1.2340 C.3   1 <1>  -0.1600 
 11 C       -2.3720    -3.0980    -0.4750 C.3   1 <1>  -0.0800 
 12 C       -0.1980    -3.8110    -0.9420 C.3   1 <1>   0.1200 
 13 C        0.4630     3.2510     0.3270 C.3   1 <1>  -0.1600 
 14 C       -2.0660    -4.4240     0.2310 C.3   1 <1>   0.1200 
 15 C       -3.3480    -2.1850     0.2940 C.3   1 <1>  -0.0170 
 16 O       -0.7160    -4.7040    -0.0040 O.3   1 <1>  -0.5600 
 17 C       -4.7160    -2.8430     0.4380 C.ar  1 <1>  -0.1430 
 18 C       -5.6500    -2.8980    -0.6240 C.ar  1 <1>   0.0000 
 19 C       -5.0740    -3.4170     1.6230 C.ar  1 <1>  -0.1500 
 20 C       -6.8760    -3.5650    -0.3860 C.ar  1 <1>   0.3100 
 21 C       -5.4420    -2.3310    -1.9030 C.ar  1 <1>  -0.1500 
 22 C       -6.3180    -4.0430     1.7560 C.ar  1 <1>   0.1600 
 23 N       -7.1930    -4.1300     0.8060 N.ar  1 <1>  -0.6200 
 24 C       -7.8170    -3.6500    -1.4250 C.ar  1 <1>  -0.1500 
 25 C       -6.3810    -2.4300    -2.8940 C.ar  1 <1>  -0.1500 
 26 C       -7.5830    -3.0990    -2.6550 C.ar  1 <1>  -0.1500 
 27 H       -0.0770    -2.5360     1.0310 H     1 <1>   0.4200 
 28 H        1.1700     0.8410    -2.0490 H     1 <1>   0.0800 
 29 H       -0.1750     1.9370    -2.0170 H     1 <1>   0.0800 
 30 H       -1.8760     1.6890    -0.1190 H     1 <1>   0.0800 
 31 H       -1.5350     0.5240     1.1210 H     1 <1>   0.0800 
 32 H       -0.9770    -1.8750    -1.6000 H     1 <1>   0.0800 
 33 H        2.1160     1.9200    -0.0380 H     1 <1>   0.0800 
 34 H        1.8550     3.0880    -1.2960 H     1 <1>   0.0800 
 35 H       -1.0660     2.8910     1.7880 H     1 <1>   0.0800 
 36 H        0.3100     1.8610     1.9550 H     1 <1>   0.0800 
 37 H       -2.8090    -3.3420    -1.4270 H     1 <1>   0.0800 
 38 H        0.8610    -3.7010    -0.7890 H     1 <1>   0.0800 
 39 H       -0.3810    -4.2160    -1.9210 H     1 <1>   0.0800 
 40 H       -0.2120     3.8520    -0.2590 H     1 <1>   0.0800 
 41 H        1.0650     3.9120     0.9270 H     1 <1>   0.0800 
 42 H       -2.6660    -5.2310    -0.1560 H     1 <1>   0.0800 
 43 H       -2.2000    -4.3490     1.2960 H     1 <1>   0.0800 
 44 H       -3.4430    -1.2390    -0.2070 H     1 <1>   0.0800 
 45 H       -2.9560    -1.9770     1.2740 H     1 <1>   0.0800 
 46 H       -4.4190    -3.4070     2.4750 H     1 <1>   0.1500 
 47 H       -4.5280    -1.8080    -2.1070 H     1 <1>   0.1500 
 48 H       -6.5610    -4.4840     2.7090 H     1 <1>   0.1500 
 49 H       -8.7350    -4.1670    -1.2170 H     1 <1>   0.1500 
 50 H       -6.2100    -1.9960    -3.8650 H     1 <1>   0.1500 
 51 H       -8.3140    -3.1720    -3.4420 H     1 <1>   0.1500 
@<TRIPOS>BOND
  1   1   2  2   
  2   1   3  2   
  3   1   4  am  
  4   1   5  am  
  5   4   6  1   
  6   4   7  1   
  7   5   8  1   
  8   5  27  1   
  9   6   9  1   
 10   6  28  1   
 11   6  29  1   
 12   7  10  1   
 13   7  30  1   
 14   7  31  1   
 15   8  11  1   
 16   8  12  1   
 17   8  32  1   
 18   9  13  1   
 19   9  33  1   
 20   9  34  1   
 21  10  13  1   
 22  10  35  1   
 23  10  36  1   
 24  11  14  1   
 25  11  15  1   
 26  11  37  1   
 27  12  16  1   
 28  12  38  1   
 29  12  39  1   
 30  13  40  1   
 31  13  41  1   
 32  14  16  1   
 33  14  42  1   
 34  14  43  1   
 35  15  17  1   
 36  15  44  1   
 37  15  45  1   
 38  17  18  ar  
 39  17  19  ar  
 40  18  20  ar  
 41  18  21  ar  
 42  19  22  ar  
 43  19  46  1   
 44  20  23  ar  
 45  20  24  ar  
 46  21  25  ar  
 47  21  47  1   
 48  22  23  ar  
 49  22  48  1   
 50  24  26  ar  
 51  24  49  1   
 52  25  26  ar  
 53  25  50  1   
 54  26  51  1   
@<TRIPOS>SUBSTRUCTURE
  1 ****  15 GROUP 4 **** **** 0

# MOE 2024.06 (io_trps.svl 2023.06)
