@<TRIPOS>MOLECULE
NONAME
44 47 1 0 0 
SMALL
USER_CHARGES


@<TRIPOS>ATOM
  1 O       -1.9150     0.7170     2.8140 O.2   1 <1>  -0.5700 
  2 C       -2.0210     1.1040     1.6650 C.2   1 <1>   0.5440 
  3 N       -2.6370     0.2750     0.7550 N.am  1 <1>  -0.6600 
  4 C       -1.5690     2.4340     1.3140 C.ar  1 <1>   0.0860 
  5 C       -3.1410     0.6850    -0.5740 C.3   1 <1>   0.1400 
  6 C       -3.1000    -1.0960     1.0860 C.3   1 <1>   0.1400 
  7 C       -0.6300     2.6760     0.3050 C.ar  1 <1>   0.0820 
  8 C       -2.0830     3.5360     2.0000 C.ar  1 <1>  -0.1500 
  9 C       -4.3330    -0.2380    -0.8170 C.3   1 <1>   0.2000 
 10 C       -3.9590    -1.5450    -0.1090 C.3   1 <1>  -0.0800 
 11 O       -0.1020     1.6330    -0.3860 O.3   1 <1>  -0.3630 
 12 C       -0.2300     3.9830     0.0100 C.ar  1 <1>   0.0820 
 13 C       -1.7000     4.8290     1.6960 C.ar  1 <1>  -0.1500 
 14 O       -5.4340     0.2940    -0.1680 O.3   1 <1>  -0.6800 
 15 C       -3.1870    -2.4820    -1.0600 C.3   1 <1>  -0.0170 
 16 C        0.6630     1.9030    -1.5450 C.3   1 <1>   0.1200 
 17 O        0.7040     4.2370    -0.9410 O.3   1 <1>  -0.3630 
 18 C       -0.7720     5.0540     0.6940 C.ar  1 <1>  -0.1500 
 19 C       -2.9440    -3.8500    -0.4400 C.ar  1 <1>   0.1670 
 20 C        1.5220     3.1540    -1.3340 C.3   1 <1>   0.1200 
 21 N       -1.7600    -4.0510     0.1120 N.ar  1 <1>  -0.6200 
 22 C       -3.9480    -4.8170    -0.4770 C.ar  1 <1>   0.1600 
 23 C       -1.6470    -5.2650     0.6240 C.ar  1 <1>   0.1600 
 24 N       -3.8390    -6.0330     0.0330 N.ar  1 <1>  -0.6200 
 25 C       -2.6530    -6.2230     0.5850 C.ar  1 <1>   0.1600 
 26 H       -3.4270     1.7230    -0.5990 H     1 <1>   0.0800 
 27 H       -2.3760     0.5030    -1.3070 H     1 <1>   0.0800 
 28 H       -2.2530    -1.7390     1.2550 H     1 <1>   0.0800 
 29 H       -3.6930    -1.0610     1.9840 H     1 <1>   0.0800 
 30 H       -2.7960     3.3630     2.7890 H     1 <1>   0.1500 
 31 H       -4.5770    -0.3530    -1.8590 H     1 <1>   0.0800 
 32 H       -4.8420    -2.0570     0.2310 H     1 <1>   0.0800 
 33 H       -2.1180     5.6600     2.2380 H     1 <1>   0.1500 
 34 H       -5.1740     0.5150     0.7500 H     1 <1>   0.4000 
 35 H       -2.2430    -2.0420    -1.3300 H     1 <1>   0.0800 
 36 H       -3.7520    -2.6160    -1.9650 H     1 <1>   0.0800 
 37 H        1.2790     1.0440    -1.7430 H     1 <1>   0.0800 
 38 H       -0.0140     2.0510    -2.3670 H     1 <1>   0.0800 
 39 H       -0.4600     6.0530     0.4490 H     1 <1>   0.1500 
 40 H        2.0280     3.4300    -2.2410 H     1 <1>   0.0800 
 41 H        2.2490     2.9840    -0.5590 H     1 <1>   0.0800 
 42 H       -4.8840    -4.5740    -0.9470 H     1 <1>   0.1500 
 43 H       -0.7140    -5.5140     1.0970 H     1 <1>   0.1500 
 44 H       -2.4670    -7.1850     1.0300 H     1 <1>   0.1500 
@<TRIPOS>BOND
  1   1   2  2   
  2   2   3  am  
  3   2   4  1   
  4   3   5  1   
  5   3   6  1   
  6   4   7  ar  
  7   4   8  ar  
  8   5   9  1   
  9   5  26  1   
 10   5  27  1   
 11   6  10  1   
 12   6  28  1   
 13   6  29  1   
 14   7  11  1   
 15   7  12  ar  
 16   8  13  ar  
 17   8  30  1   
 18   9  10  1   
 19   9  14  1   
 20   9  31  1   
 21  10  15  1   
 22  10  32  1   
 23  11  16  1   
 24  12  17  1   
 25  12  18  ar  
 26  13  18  ar  
 27  13  33  1   
 28  14  34  1   
 29  15  19  1   
 30  15  35  1   
 31  15  36  1   
 32  16  20  1   
 33  16  37  1   
 34  16  38  1   
 35  17  20  1   
 36  18  39  1   
 37  19  21  ar  
 38  19  22  ar  
 39  20  40  1   
 40  20  41  1   
 41  21  23  ar  
 42  22  24  ar  
 43  22  42  1   
 44  23  25  ar  
 45  23  43  1   
 46  24  25  ar  
 47  25  44  1   
@<TRIPOS>SUBSTRUCTURE
  1 ****   3 GROUP 4 **** **** 0

# MOE 2024.06 (io_trps.svl 2023.06)
