@<TRIPOS>MOLECULE
NONAME
48 51 1 0 0 
SMALL
USER_CHARGES


@<TRIPOS>ATOM
  1 S       -0.3670    -0.0820    -0.8140 S.3   1 <1>  -0.0800 
  2 C        0.1490     1.0730     0.4120 C.2   1 <1>   0.3250 
  3 C       -0.2930    -1.3650     0.3550 C.2   1 <1>  -0.1400 
  4 N        0.3840     0.5050     1.5440 N.2   1 <1>  -0.5650 
  5 C        0.3000     2.4610     0.0530 C.ar  1 <1>   0.0530 
  6 C        0.1380    -0.8500     1.5150 C.2   1 <1>   0.0770 
  7 C       -0.6810    -2.7580    -0.0840 C.3   1 <1>   0.5230 
  8 C       -0.6780     3.1890    -0.6430 C.ar  1 <1>   0.0830 
  9 C        1.4700     3.1260     0.4210 C.ar  1 <1>  -0.1500 
 10 N       -2.1430    -2.9640     0.1320 N.4   1 <1>  -0.9590 
 11 O       -1.8450     2.5640    -0.9540 O.3   1 <1>  -0.3620 
 12 C       -0.4490     4.5230    -0.9780 C.ar  1 <1>  -0.1500 
 13 C        1.6890     4.4490     0.0930 C.ar  1 <1>  -0.1500 
 14 C       -2.4800    -4.4190    -0.0280 C.3   1 <1>   0.3430 
 15 C       -2.9720    -2.1020    -0.7660 C.3   1 <1>   0.3430 
 16 C       -2.9270     3.2440    -1.5540 C.3   1 <1>   0.0400 
 17 C        0.7280     5.1490    -0.6140 C.ar  1 <1>  -0.1500 
 18 C       -3.9700    -4.7200     0.2170 C.3   1 <1>   0.1000 
 19 C       -4.4590    -2.3350    -0.4890 C.3   1 <1>  -0.1600 
 20 C       -4.2250    -6.1850    -0.0990 C.2   1 <1>   0.0060 
 21 C       -4.8540    -3.8110    -0.6530 C.3   1 <1>  -0.1600 
 22 N       -3.3400    -6.9520    -0.6490 N.2   1 <1>  -0.5650 
 23 N       -5.3930    -6.8160     0.1680 N.pl3 1 <1>   0.0330 
 24 C       -3.9590    -8.1450    -0.7500 C.2   1 <1>   0.0770 
 25 C       -5.2130    -8.0790    -0.2550 C.2   1 <1>  -0.3020 
 26 H        0.3060    -1.3950     2.4300 H     1 <1>   0.1500 
 27 H       -0.1270    -3.4710     0.5040 H     1 <1>   0.0800 
 28 H       -0.4250    -2.9030    -1.1210 H     1 <1>   0.0800 
 29 H        2.2210     2.5880     0.9750 H     1 <1>   0.1500 
 30 H       -2.3440    -2.6790     1.0980 H     1 <1>   0.4500 
 31 H       -1.1740     5.0980    -1.5210 H     1 <1>   0.1500 
 32 H        2.6030     4.9360     0.3860 H     1 <1>   0.1500 
 33 H       -1.8940    -5.0170     0.6500 H     1 <1>   0.0800 
 34 H       -2.2380    -4.7350    -1.0310 H     1 <1>   0.0800 
 35 H       -2.7570    -2.3340    -1.7970 H     1 <1>   0.0800 
 36 H       -2.7450    -1.0610    -0.5980 H     1 <1>   0.0800 
 37 H       -3.7430     2.5530    -1.6570 H     1 <1>   0.0800 
 38 H       -2.6240     3.5980    -2.5240 H     1 <1>   0.0800 
 39 H       -3.2200     4.0630    -0.9200 H     1 <1>   0.0800 
 40 H        0.8980     6.1790    -0.8750 H     1 <1>   0.1500 
 41 H       -4.1860    -4.5540     1.2570 H     1 <1>   0.0800 
 42 H       -5.0350    -1.7370    -1.1750 H     1 <1>   0.0800 
 43 H       -4.6950    -1.9940     0.5040 H     1 <1>   0.0800 
 44 H       -5.8900    -3.9400    -0.3880 H     1 <1>   0.0800 
 45 H       -4.7440    -4.0960    -1.6870 H     1 <1>   0.0800 
 46 H       -6.2400    -6.4290     0.5960 H     1 <1>   0.2700 
 47 H       -3.4640    -9.0020    -1.1790 H     1 <1>   0.1500 
 48 H       -5.9650    -8.8450    -0.1850 H     1 <1>   0.1500 
@<TRIPOS>BOND
  1   1   2  1   
  2   1   3  1   
  3   2   4  2   
  4   2   5  1   
  5   3   6  2   
  6   3   7  1   
  7   4   6  1   
  8   5   8  ar  
  9   5   9  ar  
 10   6  26  1   
 11   7  10  1   
 12   7  27  1   
 13   7  28  1   
 14   8  11  1   
 15   8  12  ar  
 16   9  13  ar  
 17   9  29  1   
 18  10  14  1   
 19  10  15  1   
 20  10  30  1   
 21  11  16  1   
 22  12  17  ar  
 23  12  31  1   
 24  13  17  ar  
 25  13  32  1   
 26  14  18  1   
 27  14  33  1   
 28  14  34  1   
 29  15  19  1   
 30  15  35  1   
 31  15  36  1   
 32  16  37  1   
 33  16  38  1   
 34  16  39  1   
 35  17  40  1   
 36  18  20  1   
 37  18  21  1   
 38  18  41  1   
 39  19  21  1   
 40  19  42  1   
 41  19  43  1   
 42  20  22  2   
 43  20  23  1   
 44  21  44  1   
 45  21  45  1   
 46  22  24  1   
 47  23  25  1   
 48  23  46  1   
 49  24  25  2   
 50  24  47  1   
 51  25  48  1   
@<TRIPOS>SUBSTRUCTURE
  1 ****  15 GROUP 4 **** **** 0

# MOE 2024.06 (io_trps.svl 2023.06)
