@<TRIPOS>MOLECULE
NONAME
38 39 1 0 0 
SMALL
USER_CHARGES


@<TRIPOS>ATOM
  1 CL       1.0700    -1.5450     2.1740 Cl    1 <1>  -0.1770 
  2 C        0.4800    -2.8000     1.1170 C.ar  1 <1>   0.1770 
  3 C        0.7050    -4.1210     1.4480 C.ar  1 <1>  -0.1500 
  4 C       -0.2050    -2.4510    -0.0340 C.ar  1 <1>  -0.1500 
  5 C        0.2190    -5.0860     0.5870 C.ar  1 <1>   0.1900 
  6 C       -0.6810    -3.4390    -0.8840 C.ar  1 <1>  -0.1500 
  7 F        0.4080    -6.3430     0.8930 F     1 <1>  -0.1900 
  8 C       -0.4720    -4.7780    -0.5770 C.ar  1 <1>  -0.1440 
  9 C       -0.9780    -5.8840    -1.4850 C.3   1 <1>   0.4870 
 10 N       -2.0020    -6.6720    -0.7520 N.4   1 <1>  -0.9590 
 11 C       -2.2600    -7.9750    -1.4040 C.3   1 <1>   0.5230 
 12 C       -3.2600    -5.8760    -0.5340 C.3   1 <1>   0.3430 
 13 C       -2.9260    -8.8570    -0.3840 C.2   1 <1>  -0.3320 
 14 C       -3.7860    -5.9750     0.9050 C.3   1 <1>   0.1200 
 15 N       -2.3180    -9.4730     0.6570 N.pl3 1 <1>   0.0480 
 16 C       -4.2340    -9.1950    -0.3210 C.2   1 <1>   0.0770 
 17 O       -4.8180    -5.0630     1.0280 O.3   1 <1>  -0.6800 
 18 C       -3.3180   -10.1250     1.2910 C.2   1 <1>   0.0360 
 19 C       -0.8930    -9.5110     1.0450 C.3   1 <1>   0.0160 
 20 N       -4.4760    -9.9740     0.7410 N.2   1 <1>  -0.5650 
 21 H        1.2390    -4.3820     2.3440 H     1 <1>   0.1500 
 22 H       -0.3590    -1.4080    -0.2590 H     1 <1>   0.1500 
 23 H       -1.2080    -3.1450    -1.7780 H     1 <1>   0.1500 
 24 H       -0.1470    -6.5160    -1.7550 H     1 <1>   0.0800 
 25 H       -1.3970    -5.4660    -2.3850 H     1 <1>   0.0800 
 26 H       -1.6040    -6.8790     0.1710 H     1 <1>   0.4500 
 27 H       -1.3380    -8.4330    -1.7270 H     1 <1>   0.0800 
 28 H       -2.9010    -7.8460    -2.2620 H     1 <1>   0.0800 
 29 H       -4.0300    -6.2040    -1.2120 H     1 <1>   0.0800 
 30 H       -3.0640    -4.8340    -0.7290 H     1 <1>   0.0800 
 31 H       -3.0260    -5.7080     1.6180 H     1 <1>   0.0800 
 32 H       -4.1790    -6.9530     1.1220 H     1 <1>   0.0800 
 33 H       -5.0390    -8.9160    -0.9840 H     1 <1>   0.1500 
 34 H       -5.2580    -5.1350     1.9030 H     1 <1>   0.4000 
 35 H       -3.1470   -10.7180     2.1740 H     1 <1>   0.1500 
 36 H       -0.2690    -9.3860     0.1790 H     1 <1>   0.0800 
 37 H       -0.6730   -10.4630     1.4960 H     1 <1>   0.0800 
 38 H       -0.6920    -8.7320     1.7580 H     1 <1>   0.0800 
@<TRIPOS>BOND
  1   1   2  1   
  2   2   3  ar  
  3   2   4  ar  
  4   3   5  ar  
  5   3  21  1   
  6   4   6  ar  
  7   4  22  1   
  8   5   7  1   
  9   5   8  ar  
 10   6   8  ar  
 11   6  23  1   
 12   8   9  1   
 13   9  10  1   
 14   9  24  1   
 15   9  25  1   
 16  10  11  1   
 17  10  12  1   
 18  10  26  1   
 19  11  13  1   
 20  11  27  1   
 21  11  28  1   
 22  12  14  1   
 23  12  29  1   
 24  12  30  1   
 25  13  15  1   
 26  13  16  2   
 27  14  17  1   
 28  14  31  1   
 29  14  32  1   
 30  15  18  1   
 31  15  19  1   
 32  16  20  1   
 33  16  33  1   
 34  17  34  1   
 35  18  20  2   
 36  18  35  1   
 37  19  36  1   
 38  19  37  1   
 39  19  38  1   
@<TRIPOS>SUBSTRUCTURE
  1 ****  10 GROUP 4 **** **** 0

# MOE 2024.06 (io_trps.svl 2023.06)
