@<TRIPOS>MOLECULE
NONAME
62 65 1 0 0 
SMALL
USER_CHARGES


@<TRIPOS>ATOM
  1 O        0.8260    -1.4490    -1.4470 O.2   1 <1>  -0.5700 
  2 C        0.0460    -2.0940    -0.7800 C.2   1 <1>   0.5690 
  3 N        0.2840    -2.2790     0.5630 N.am  1 <1>  -0.6600 
  4 C       -1.1790    -2.6800    -1.4800 C.3   1 <1>   0.0440 
  5 C        1.3370    -1.4710     1.2400 C.3   1 <1>   0.1400 
  6 C       -0.5820    -3.0960     1.4660 C.3   1 <1>   0.0600 
  7 C       -2.5020    -2.2760    -0.8310 C.ar  1 <1>  -0.1440 
  8 C        2.7330    -1.9590     0.8090 C.3   1 <1>   0.3430 
  9 C       -2.7370    -0.9510    -0.4960 C.ar  1 <1>  -0.1500 
 10 C       -3.4740    -3.2280    -0.5600 C.ar  1 <1>  -0.1500 
 11 N        3.7550    -0.8640     0.7400 N.4   1 <1>  -0.9590 
 12 C       -3.9220    -0.5780     0.1340 C.ar  1 <1>   0.0820 
 13 C       -4.6590    -2.8620     0.0560 C.ar  1 <1>  -0.1500 
 14 C        3.5480    -0.0060    -0.4660 C.3   1 <1>   0.4860 
 15 C        5.1380    -1.4270     0.7530 C.3   1 <1>   0.2630 
 16 O       -4.2050     0.6930     0.5170 O.3   1 <1>  -0.3620 
 17 C       -4.8790    -1.5420     0.4050 C.ar  1 <1>  -0.1500 
 18 C        2.9260     1.3080    -0.0270 C.ar  1 <1>  -0.1430 
 19 C       -3.3130     1.7420     0.2170 C.3   1 <1>   0.1200 
 20 C        3.4730     2.0640     1.0030 C.ar  1 <1>  -0.1500 
 21 C        1.7920     1.7720    -0.6780 C.ar  1 <1>  -0.1500 
 22 C       -3.8200     3.0350     0.8450 C.3   1 <1>   0.0960 
 23 C        2.8740     3.2510     1.3880 C.ar  1 <1>  -0.1500 
 24 C        1.2060     2.9690    -0.3070 C.ar  1 <1>  -0.1500 
 25 N       -2.8430     4.0900     0.5470 N.pl3 1 <1>   0.3140 
 26 C        1.7410     3.7130     0.7400 C.ar  1 <1>   0.0820 
 27 N       -2.9950     4.9580    -0.4560 N.2   1 <1>  -0.4180 
 28 C       -1.6150     4.2090     1.0520 C.2   1 <1>  -0.3020 
 29 O        1.2230     4.8860     1.1850 O.3   1 <1>  -0.3630 
 30 N       -1.9010     5.6220    -0.5910 N.2   1 <1>  -0.2270 
 31 C       -1.0300     5.1660     0.3150 C.2   1 <1>   0.0460 
 32 C        0.3940     5.6980     0.3680 C.3   1 <1>   0.3010 
 33 H       -1.0800    -3.7490    -1.4940 H     1 <1>   0.0800 
 34 H       -1.1860    -2.3460    -2.5020 H     1 <1>   0.0800 
 35 H        1.2350    -1.5450     2.3080 H     1 <1>   0.0800 
 36 H        1.1900    -0.4420     0.9620 H     1 <1>   0.0800 
 37 H       -1.0570    -3.8930     0.9220 H     1 <1>   0.0800 
 38 H       -1.3440    -2.4710     1.9020 H     1 <1>   0.0800 
 39 H        0.0060    -3.5340     2.2540 H     1 <1>   0.0800 
 40 H        2.6510    -2.4200    -0.1620 H     1 <1>   0.0800 
 41 H        3.0540    -2.7140     1.5070 H     1 <1>   0.0800 
 42 H       -1.9840    -0.2230    -0.7300 H     1 <1>   0.1500 
 43 H       -3.3190    -4.2600    -0.8240 H     1 <1>   0.1500 
 44 H        3.6240    -0.2400     1.5480 H     1 <1>   0.4500 
 45 H       -5.4110    -3.6040     0.2630 H     1 <1>   0.1500 
 46 H        2.9100    -0.5000    -1.1800 H     1 <1>   0.0800 
 47 H        4.4910     0.2030    -0.9450 H     1 <1>   0.0800 
 48 H        5.2910    -2.0670    -0.1010 H     1 <1>   0.0800 
 49 H        5.2980    -2.0050     1.6490 H     1 <1>   0.0800 
 50 H        5.8670    -0.6330     0.7240 H     1 <1>   0.0800 
 51 H       -5.7950    -1.2530     0.8870 H     1 <1>   0.1500 
 52 H       -3.2580     1.8380    -0.8550 H     1 <1>   0.0800 
 53 H       -2.3510     1.4890     0.6260 H     1 <1>   0.0800 
 54 H        4.3680     1.7550     1.5140 H     1 <1>   0.1500 
 55 H        1.3530     1.2060    -1.4850 H     1 <1>   0.1500 
 56 H       -3.9070     2.9310     1.9100 H     1 <1>   0.0800 
 57 H       -4.7690     3.3100     0.4220 H     1 <1>   0.0800 
 58 H        3.2870     3.8370     2.1900 H     1 <1>   0.1500 
 59 H        0.3350     3.3000    -0.8410 H     1 <1>   0.1500 
 60 H       -1.2270     3.6170     1.8590 H     1 <1>   0.1500 
 61 H        0.8220     5.7370    -0.6180 H     1 <1>   0.0800 
 62 H        0.3930     6.6880     0.7860 H     1 <1>   0.0800 
@<TRIPOS>BOND
  1   1   2  2   
  2   2   3  am  
  3   2   4  1   
  4   3   5  1   
  5   3   6  1   
  6   4   7  1   
  7   4  33  1   
  8   4  34  1   
  9   5   8  1   
 10   5  35  1   
 11   5  36  1   
 12   6  37  1   
 13   6  38  1   
 14   6  39  1   
 15   7   9  ar  
 16   7  10  ar  
 17   8  11  1   
 18   8  40  1   
 19   8  41  1   
 20   9  12  ar  
 21   9  42  1   
 22  10  13  ar  
 23  10  43  1   
 24  11  14  1   
 25  11  15  1   
 26  11  44  1   
 27  12  16  1   
 28  12  17  ar  
 29  13  17  ar  
 30  13  45  1   
 31  14  18  1   
 32  14  46  1   
 33  14  47  1   
 34  15  48  1   
 35  15  49  1   
 36  15  50  1   
 37  16  19  1   
 38  17  51  1   
 39  18  20  ar  
 40  18  21  ar  
 41  19  22  1   
 42  19  52  1   
 43  19  53  1   
 44  20  23  ar  
 45  20  54  1   
 46  21  24  ar  
 47  21  55  1   
 48  22  25  1   
 49  22  56  1   
 50  22  57  1   
 51  23  26  ar  
 52  23  58  1   
 53  24  26  ar  
 54  24  59  1   
 55  25  27  1   
 56  25  28  1   
 57  26  29  1   
 58  27  30  2   
 59  28  31  2   
 60  28  60  1   
 61  29  32  1   
 62  30  31  1   
 63  31  32  1   
 64  32  61  1   
 65  32  62  1   
@<TRIPOS>SUBSTRUCTURE
  1 ****  21 GROUP 4 **** **** 0

# MOE 2024.06 (io_trps.svl 2023.06)
