@<TRIPOS>MOLECULE
NONAME
47 49 1 0 0 
SMALL
USER_CHARGES


@<TRIPOS>ATOM
  1 S        0.4400     0.5210    -1.5760 S.o2  1 <1>   1.3330 
  2 O       -0.3700     1.4340    -2.3500 O.2   1 <1>  -0.6500 
  3 O        0.7030    -0.8080    -2.0800 O.2   1 <1>  -0.6500 
  4 N       -0.3010     0.3630    -0.0540 N.am  1 <1>  -0.8490 
  5 C        2.0140     1.2960    -1.1990 C.3   1 <1>  -0.0550 
  6 C       -1.2430    -0.7610    -0.0130 C.3   1 <1>   0.1160 
  7 C       -0.9740     1.5870     0.3930 C.3   1 <1>   0.1160 
  8 C        3.0060     0.3820    -0.4470 C.3   1 <1>  -0.0800 
  9 C        4.3970     0.9660    -0.2590 C.3   1 <1>   0.2200 
 10 C        2.6030     0.0080     0.9850 C.3   1 <1>   0.1200 
 11 N        4.3240     2.3840     0.1720 N.am  1 <1>  -0.7300 
 12 C        4.8890     0.1280     0.9120 C.3   1 <1>   0.1200 
 13 O        3.7780    -0.0070     1.7450 O.3   1 <1>  -0.5600 
 14 C        4.5300     3.4680    -0.6340 C.2   1 <1>   0.5440 
 15 O        4.6850     3.2620    -1.8220 O.2   1 <1>  -0.5700 
 16 C        4.5540     4.8180    -0.0990 C.ar  1 <1>   0.0860 
 17 C        5.1060     5.8680    -0.8370 C.ar  1 <1>  -0.1500 
 18 C        4.0320     5.1360     1.1610 C.ar  1 <1>  -0.1500 
 19 C        5.1430     7.1590    -0.3500 C.ar  1 <1>   0.0820 
 20 C        4.0680     6.4260     1.6610 C.ar  1 <1>  -0.1500 
 21 O        5.7100     8.1270    -1.1240 O.3   1 <1>  -0.3620 
 22 C        4.6240     7.4530     0.9140 C.ar  1 <1>   0.1170 
 23 C        5.4620     9.5080    -0.8390 C.3   1 <1>   0.1810 
 24 N        4.6840     8.7590     1.3900 N.am  1 <1>  -0.5470 
 25 C        5.1250     9.7870     0.6250 C.2   1 <1>   0.5690 
 26 O        5.2260    10.8990     1.0780 O.2   1 <1>  -0.5700 
 27 H        2.4730     1.5890    -2.1240 H     1 <1>   0.0800 
 28 H        1.8420     2.1900    -0.6350 H     1 <1>   0.0800 
 29 H       -1.6880    -0.8410     0.9640 H     1 <1>   0.0800 
 30 H       -0.7270    -1.6830    -0.2220 H     1 <1>   0.0800 
 31 H       -2.0190    -0.6250    -0.7480 H     1 <1>   0.0800 
 32 H       -1.3440     1.4600     1.3970 H     1 <1>   0.0800 
 33 H       -1.8020     1.8220    -0.2570 H     1 <1>   0.0800 
 34 H       -0.2860     2.4140     0.3860 H     1 <1>   0.0800 
 35 H        3.1080    -0.5340    -1.0040 H     1 <1>   0.0800 
 36 H        5.0200     0.8600    -1.1330 H     1 <1>   0.0800 
 37 H        2.1420    -0.9650     1.0290 H     1 <1>   0.0800 
 38 H        1.9460     0.7410     1.4200 H     1 <1>   0.0800 
 39 H        4.2040     2.4940     1.1800 H     1 <1>   0.3700 
 40 H        5.6970     0.5910     1.4500 H     1 <1>   0.0800 
 41 H        5.1800    -0.8550     0.5840 H     1 <1>   0.0800 
 42 H        5.5160     5.6680    -1.8120 H     1 <1>   0.1500 
 43 H        3.5870     4.3650     1.7630 H     1 <1>   0.1500 
 44 H        3.6610     6.6370     2.6340 H     1 <1>   0.1500 
 45 H        6.3380    10.0610    -1.1180 H     1 <1>   0.0800 
 46 H        4.6390     9.8230    -1.4530 H     1 <1>   0.0800 
 47 H        4.4400     8.9850     2.3540 H     1 <1>   0.3700 
@<TRIPOS>BOND
  1   1   2  2   
  2   1   3  2   
  3   1   4  am  
  4   1   5  1   
  5   4   6  1   
  6   4   7  1   
  7   5   8  1   
  8   5  27  1   
  9   5  28  1   
 10   6  29  1   
 11   6  30  1   
 12   6  31  1   
 13   7  32  1   
 14   7  33  1   
 15   7  34  1   
 16   8   9  1   
 17   8  10  1   
 18   8  35  1   
 19   9  11  1   
 20   9  12  1   
 21   9  36  1   
 22  10  13  1   
 23  10  37  1   
 24  10  38  1   
 25  11  14  am  
 26  11  39  1   
 27  12  13  1   
 28  12  40  1   
 29  12  41  1   
 30  14  15  2   
 31  14  16  1   
 32  16  17  ar  
 33  16  18  ar  
 34  17  19  ar  
 35  17  42  1   
 36  18  20  ar  
 37  18  43  1   
 38  19  21  1   
 39  19  22  ar  
 40  20  22  ar  
 41  20  44  1   
 42  21  23  1   
 43  22  24  1   
 44  23  25  1   
 45  23  45  1   
 46  23  46  1   
 47  24  25  am  
 48  24  47  1   
 49  25  26  2   
@<TRIPOS>SUBSTRUCTURE
  1 ****  14 GROUP 4 **** **** 0

# MOE 2024.06 (io_trps.svl 2023.06)
