@<TRIPOS>MOLECULE
NONAME
43 45 1 0 0 
SMALL
USER_CHARGES


@<TRIPOS>ATOM
  1 O       -0.5210     0.3350     0.4080 O.2   1 <1>  -0.5700 
  2 C       -1.5780     0.9400     0.3210 C.2   1 <1>   0.5440 
  3 N       -2.7180     0.1780     0.1400 N.am  1 <1>  -0.6600 
  4 C       -1.5680     2.4080     0.3890 C.ar  1 <1>   0.3960 
  5 C       -4.0740     0.6820    -0.2000 C.3   1 <1>   0.1400 
  6 C       -2.7000    -1.3060     0.1410 C.3   1 <1>   0.1400 
  7 N       -2.6440     3.0980     0.7650 N.ar  1 <1>  -0.6200 
  8 C       -0.4070     3.0920     0.0620 C.ar  1 <1>  -0.1500 
  9 C       -4.8520    -0.5560    -0.6430 C.3   1 <1>   0.2000 
 10 C       -4.1680    -1.7270     0.0550 C.3   1 <1>  -0.0800 
 11 C       -2.5170     4.4050     0.7770 C.ar  1 <1>   0.7200 
 12 C       -0.3980     4.4620     0.1270 C.ar  1 <1>   0.1660 
 13 O       -6.1850    -0.4870    -0.2700 O.3   1 <1>  -0.6800 
 14 C       -4.3810    -3.0700    -0.6590 C.3   1 <1>   0.0210 
 15 N       -1.4590     5.1350     0.4880 N.ar  1 <1>  -0.6200 
 16 N       -3.5980     5.0870     1.1540 N.pl3 1 <1>  -0.9000 
 17 C        0.8410     5.2610    -0.2160 C.3   1 <1>  -0.0970 
 18 C       -3.5860    -4.1730     0.0100 C.2   1 <1>   0.1080 
 19 N       -3.7580    -4.5110     1.2500 N.2   1 <1>  -0.7070 
 20 C       -2.5910    -4.9250    -0.6070 C.2   1 <1>  -0.1500 
 21 N       -2.8680    -5.5000     1.4600 N.pl3 1 <1>   0.3000 
 22 C       -2.1490    -5.7680     0.3490 C.2   1 <1>  -0.3320 
 23 C       -1.0660    -6.8280     0.2700 C.3   1 <1>  -0.0600 
 24 H       -4.5170     1.1170     0.6790 H     1 <1>   0.0800 
 25 H       -4.0230     1.4100    -0.9910 H     1 <1>   0.0800 
 26 H       -2.1460    -1.6500    -0.7150 H     1 <1>   0.0800 
 27 H       -2.2370    -1.6840     1.0380 H     1 <1>   0.0800 
 28 H        0.4690     2.5470    -0.2360 H     1 <1>   0.1500 
 29 H       -4.8020    -0.6500    -1.7150 H     1 <1>   0.0800 
 30 H       -4.5300    -1.8070     1.0650 H     1 <1>   0.0800 
 31 H       -6.2620    -0.5200     0.7030 H     1 <1>   0.4000 
 32 H       -4.0850    -2.9920    -1.6900 H     1 <1>   0.0800 
 33 H       -5.4240    -3.3300    -0.6290 H     1 <1>   0.0800 
 34 H       -4.2750     4.5750     1.7120 H     1 <1>   0.4000 
 35 H       -3.4230     6.0520     1.4230 H     1 <1>   0.4000 
 36 H        1.6530     4.6150    -0.4990 H     1 <1>   0.0800 
 37 H        1.1410     5.8430     0.6360 H     1 <1>   0.0800 
 38 H        0.6260     5.9270    -1.0320 H     1 <1>   0.0800 
 39 H       -2.2650    -4.8320    -1.6270 H     1 <1>   0.1500 
 40 H       -2.7770    -5.9690     2.3680 H     1 <1>   0.2700 
 41 H       -0.6400    -6.8490    -0.7170 H     1 <1>   0.0800 
 42 H       -1.4780    -7.7980     0.4860 H     1 <1>   0.0800 
 43 H       -0.2830    -6.6140     0.9760 H     1 <1>   0.0800 
@<TRIPOS>BOND
  1   1   2  2   
  2   2   3  am  
  3   2   4  1   
  4   3   5  1   
  5   3   6  1   
  6   4   7  ar  
  7   4   8  ar  
  8   5   9  1   
  9   5  24  1   
 10   5  25  1   
 11   6  10  1   
 12   6  26  1   
 13   6  27  1   
 14   7  11  ar  
 15   8  12  ar  
 16   8  28  1   
 17   9  10  1   
 18   9  13  1   
 19   9  29  1   
 20  10  14  1   
 21  10  30  1   
 22  11  15  ar  
 23  11  16  1   
 24  12  15  ar  
 25  12  17  1   
 26  13  31  1   
 27  14  18  1   
 28  14  32  1   
 29  14  33  1   
 30  16  34  1   
 31  16  35  1   
 32  17  36  1   
 33  17  37  1   
 34  17  38  1   
 35  18  19  2   
 36  18  20  1   
 37  19  21  1   
 38  20  22  2   
 39  20  39  1   
 40  21  22  1   
 41  21  40  1   
 42  22  23  1   
 43  23  41  1   
 44  23  42  1   
 45  23  43  1   
@<TRIPOS>SUBSTRUCTURE
  1 ****   3 GROUP 4 **** **** 0

# MOE 2024.06 (io_trps.svl 2023.06)
