@<TRIPOS>MOLECULE
NONAME
64 68 1 0 0 
SMALL
USER_CHARGES


@<TRIPOS>ATOM
  1 O       -2.4600     1.8710    -3.6010 O.2   1 <1>  -0.5700 
  2 C       -2.2270     2.3180    -2.5040 C.2   1 <1>   0.5690 
  3 N       -2.9210     1.8770    -1.4060 N.am  1 <1>  -0.6600 
  4 C       -1.1530     3.3960    -2.3960 C.3   1 <1>   0.0440 
  5 C       -3.8610     0.7260    -1.4770 C.3   1 <1>   0.1400 
  6 C       -2.7550     2.3120     0.0000 C.3   1 <1>   0.1400 
  7 C       -0.0970     3.1260    -1.3270 C.ar  1 <1>  -0.1440 
  8 C       -4.7410     0.8850    -0.2430 C.3   1 <1>   0.2800 
  9 C       -3.9720     1.7550     0.7660 C.3   1 <1>  -0.0800 
 10 C        0.2460     4.1070    -0.4100 C.ar  1 <1>  -0.1500 
 11 C        0.5290     1.8910    -1.2620 C.ar  1 <1>  -0.1500 
 12 O       -5.8630     1.6570    -0.5150 O.3   1 <1>  -0.5600 
 13 C       -5.3830    -0.3000     0.4660 C.3   1 <1>  -0.1600 
 14 C       -5.1120     2.6730     1.2740 C.3   1 <1>  -0.0800 
 15 C        1.1920     3.8490     0.5680 C.ar  1 <1>  -0.1500 
 16 C        1.4750     1.6340    -0.2850 C.ar  1 <1>  -0.1500 
 17 C       -6.3200     1.8810     0.7530 C.3   1 <1>   0.2000 
 18 C       -6.4290     0.4460     1.3050 C.3   1 <1>  -0.1600 
 19 C       -5.0190     4.0710     0.6270 C.3   1 <1>   0.3430 
 20 C        1.8110     2.6120     0.6390 C.ar  1 <1>  -0.1430 
 21 N       -6.2960     4.8420     0.6580 N.4   1 <1>  -0.9590 
 22 C        2.8510     2.3370     1.7110 C.3   1 <1>   0.2630 
 23 C       -7.0240     4.6970    -0.6390 C.3   1 <1>   0.5240 
 24 C       -6.0750     6.2840     0.9890 C.3   1 <1>   0.2630 
 25 O        3.9220     3.1770     1.4880 O.3   1 <1>  -0.6800 
 26 C       -8.4320     5.1940    -0.4190 C.2   1 <1>  -0.1810 
 27 C       -8.9570     6.3810    -0.9150 C.2   1 <1>   0.1390 
 28 C       -9.4490     4.6360     0.2790 C.2   1 <1>  -0.3020 
 29 N      -10.1840     6.5600    -0.5460 N.2   1 <1>  -0.7070 
 30 N      -10.4980     5.4780     0.1830 N.pl3 1 <1>   0.3140 
 31 C      -11.8390     5.3070     0.7570 C.3   1 <1>   0.0160 
 32 H       -0.6570     3.4760    -3.3460 H     1 <1>   0.0800 
 33 H       -1.6410     4.3330    -2.2120 H     1 <1>   0.0800 
 34 H       -4.4430     0.7400    -2.3830 H     1 <1>   0.0800 
 35 H       -3.2970    -0.1880    -1.4200 H     1 <1>   0.0800 
 36 H       -1.8560     1.8610     0.3890 H     1 <1>   0.0800 
 37 H       -2.6460     3.3780     0.0650 H     1 <1>   0.0800 
 38 H       -3.5990     1.1510     1.5760 H     1 <1>   0.0800 
 39 H       -0.2110     5.0800    -0.4500 H     1 <1>   0.1500 
 40 H        0.2840     1.1200    -1.9740 H     1 <1>   0.1500 
 41 H       -5.8490    -0.9500    -0.2540 H     1 <1>   0.0800 
 42 H       -4.6820    -0.8600     1.0600 H     1 <1>   0.0800 
 43 H       -5.1160     2.7480     2.3470 H     1 <1>   0.0800 
 44 H        1.4570     4.6180     1.2740 H     1 <1>   0.1500 
 45 H        1.9480     0.6680    -0.2520 H     1 <1>   0.1500 
 46 H       -7.2620     2.3970     0.7470 H     1 <1>   0.0800 
 47 H       -6.2160     0.4100     2.3590 H     1 <1>   0.0800 
 48 H       -7.4130     0.0470     1.1270 H     1 <1>   0.0800 
 49 H       -4.7120     3.9510    -0.4000 H     1 <1>   0.0800 
 50 H       -4.2460     4.6270     1.1340 H     1 <1>   0.0800 
 51 H       -6.9230     4.4490     1.3720 H     1 <1>   0.4500 
 52 H        3.2050     1.3210     1.6640 H     1 <1>   0.0800 
 53 H        2.4640     2.5370     2.6950 H     1 <1>   0.0800 
 54 H       -6.5390     5.2680    -1.4140 H     1 <1>   0.0800 
 55 H       -7.0540     3.6650    -0.9470 H     1 <1>   0.0800 
 56 H       -5.4630     6.7540     0.2370 H     1 <1>   0.0800 
 57 H       -5.5840     6.3780     1.9440 H     1 <1>   0.0800 
 58 H       -7.0190     6.8040     1.0400 H     1 <1>   0.0800 
 59 H        4.0550     3.2620     0.5240 H     1 <1>   0.4000 
 60 H       -8.4300     7.0900    -1.5340 H     1 <1>   0.1500 
 61 H       -9.5040     3.7110     0.8220 H     1 <1>   0.1500 
 62 H      -11.9470     4.3100     1.1420 H     1 <1>   0.0800 
 63 H      -12.5700     5.4810    -0.0100 H     1 <1>   0.0800 
 64 H      -11.9740     6.0220     1.5470 H     1 <1>   0.0800 
@<TRIPOS>BOND
  1   1   2  2   
  2   2   3  am  
  3   2   4  1   
  4   3   5  1   
  5   3   6  1   
  6   4   7  1   
  7   4  32  1   
  8   4  33  1   
  9   5   8  1   
 10   5  34  1   
 11   5  35  1   
 12   6   9  1   
 13   6  36  1   
 14   6  37  1   
 15   7  10  ar  
 16   7  11  ar  
 17   8   9  1   
 18   8  12  1   
 19   8  13  1   
 20   9  14  1   
 21   9  38  1   
 22  10  15  ar  
 23  10  39  1   
 24  11  16  ar  
 25  11  40  1   
 26  12  17  1   
 27  13  18  1   
 28  13  41  1   
 29  13  42  1   
 30  14  17  1   
 31  14  19  1   
 32  14  43  1   
 33  15  20  ar  
 34  15  44  1   
 35  16  20  ar  
 36  16  45  1   
 37  17  18  1   
 38  17  46  1   
 39  18  47  1   
 40  18  48  1   
 41  19  21  1   
 42  19  49  1   
 43  19  50  1   
 44  20  22  1   
 45  21  23  1   
 46  21  24  1   
 47  21  51  1   
 48  22  25  1   
 49  22  52  1   
 50  22  53  1   
 51  23  26  1   
 52  23  54  1   
 53  23  55  1   
 54  24  56  1   
 55  24  57  1   
 56  24  58  1   
 57  25  59  1   
 58  26  27  1   
 59  26  28  2   
 60  27  29  2   
 61  27  60  1   
 62  28  30  1   
 63  28  61  1   
 64  29  30  1   
 65  30  31  1   
 66  31  62  1   
 67  31  63  1   
 68  31  64  1   
@<TRIPOS>SUBSTRUCTURE
  1 ****   6 GROUP 4 **** **** 0

# MOE 2024.06 (io_trps.svl 2023.06)
