@<TRIPOS>MOLECULE
NONAME
55 57 1 0 0 
SMALL
USER_CHARGES


@<TRIPOS>ATOM
  1 O       -0.4850     0.5170    -0.1280 O.2   1 <1>  -0.5700 
  2 C       -1.0600     1.4900     0.3310 C.2   1 <1>   0.7150 
  3 N       -2.4440     1.4610     0.3950 N.am  1 <1>  -0.6600 
  4 C       -0.2950     2.6220     0.8120 C.2   1 <1>   0.0550 
  5 C       -3.1400     0.1460     0.2080 C.3   1 <1>   0.1400 
  6 C       -3.2460     2.7210     0.4530 C.3   1 <1>   0.1400 
  7 O        0.7770     3.0520     0.1530 O.3   1 <1>  -0.2800 
  8 C       -0.4630     3.4130     1.9100 C.2   1 <1>  -0.1500 
  9 C       -4.5180     0.0510     0.8740 C.3   1 <1>   0.1400 
 10 C       -4.4050     2.7560    -0.5470 C.3   1 <1>  -0.1600 
 11 C        1.2990     4.0850     0.7820 C.2   1 <1>   0.1600 
 12 C        0.5630     4.3540     1.8870 C.2   1 <1>  -0.1500 
 13 N       -5.5880     0.6230     0.0040 N.am  1 <1>  -0.6600 
 14 C       -5.6880     2.1060    -0.0210 C.3   1 <1>   0.1400 
 15 C        2.4660     4.7200     0.2590 C.1   1 <1>  -0.0200 
 16 C       -6.5760    -0.1630    -0.5550 C.2   1 <1>   0.7150 
 17 C        3.4430     5.2330    -0.1880 C.1   1 <1>  -0.2000 
 18 O       -7.6450     0.3460    -0.8370 O.2   1 <1>  -0.5700 
 19 C       -6.3830    -1.5680    -0.7860 C.2   1 <1>  -0.2370 
 20 C        4.6680     5.8490    -0.7630 C.3   1 <1>   0.4800 
 21 N       -7.3280    -2.5120    -0.5430 N.pl3 1 <1>   0.3140 
 22 C       -5.3110    -2.2560    -1.2700 C.2   1 <1>  -0.1500 
 23 O        5.7080     5.0270    -0.4360 O.3   1 <1>  -0.6800 
 24 C        4.5940     5.9030    -2.2840 C.3   1 <1>  -0.2400 
 25 C        4.9550     7.2140    -0.1510 C.3   1 <1>  -0.2400 
 26 N       -6.8920    -3.7500    -0.8190 N.2   1 <1>  -0.7070 
 27 C       -8.6910    -2.3020    -0.0300 C.3   1 <1>   0.0160 
 28 C       -5.6860    -3.5860    -1.2610 C.2   1 <1>   0.1080 
 29 C       -4.8290    -4.7480    -1.7060 C.3   1 <1>  -0.0590 
 30 H       -2.5220    -0.6260     0.6330 H     1 <1>   0.0800 
 31 H       -3.2290    -0.0570    -0.8440 H     1 <1>   0.0800 
 32 H       -2.6050     3.5550     0.2240 H     1 <1>   0.0800 
 33 H       -3.6160     2.8620     1.4540 H     1 <1>   0.0800 
 34 H       -1.2240     3.3380     2.6650 H     1 <1>   0.1500 
 35 H       -4.5040     0.5520     1.8260 H     1 <1>   0.0800 
 36 H       -4.7310    -0.9860     1.0680 H     1 <1>   0.0800 
 37 H       -4.1160     2.3290    -1.4920 H     1 <1>   0.0800 
 38 H       -4.6360     3.7900    -0.7280 H     1 <1>   0.0800 
 39 H        0.7280     5.1320     2.6110 H     1 <1>   0.1500 
 40 H       -6.4990     2.4060    -0.6640 H     1 <1>   0.0800 
 41 H       -5.9130     2.4640     0.9690 H     1 <1>   0.0800 
 42 H       -4.3660    -1.8720    -1.6050 H     1 <1>   0.1500 
 43 H        5.3970     4.1090    -0.5320 H     1 <1>   0.4000 
 44 H        4.4150     4.9230    -2.6880 H     1 <1>   0.0800 
 45 H        5.5100     6.2940    -2.6880 H     1 <1>   0.0800 
 46 H        3.7860     6.5450    -2.5860 H     1 <1>   0.0800 
 47 H        5.0370     7.1300     0.9170 H     1 <1>   0.0800 
 48 H        4.1550     7.8940    -0.3800 H     1 <1>   0.0800 
 49 H        5.8700     7.6140    -0.5470 H     1 <1>   0.0800 
 50 H       -8.6490    -1.7110     0.8640 H     1 <1>   0.0800 
 51 H       -9.1390    -3.2540     0.1860 H     1 <1>   0.0800 
 52 H       -9.2710    -1.7920    -0.7770 H     1 <1>   0.0800 
 53 H       -3.8670    -4.4030    -2.0370 H     1 <1>   0.0800 
 54 H       -5.3170    -5.2630    -2.5120 H     1 <1>   0.0800 
 55 H       -4.6970    -5.4300    -0.8860 H     1 <1>   0.0800 
@<TRIPOS>BOND
  1   1   2  2   
  2   2   3  am  
  3   2   4  1   
  4   3   5  1   
  5   3   6  1   
  6   4   7  1   
  7   4   8  2   
  8   5   9  1   
  9   5  30  1   
 10   5  31  1   
 11   6  10  1   
 12   6  32  1   
 13   6  33  1   
 14   7  11  1   
 15   8  12  1   
 16   8  34  1   
 17   9  13  1   
 18   9  35  1   
 19   9  36  1   
 20  10  14  1   
 21  10  37  1   
 22  10  38  1   
 23  11  12  2   
 24  11  15  1   
 25  12  39  1   
 26  13  14  1   
 27  13  16  am  
 28  14  40  1   
 29  14  41  1   
 30  15  17  3   
 31  16  18  2   
 32  16  19  1   
 33  17  20  1   
 34  19  21  1   
 35  19  22  2   
 36  20  23  1   
 37  20  24  1   
 38  20  25  1   
 39  21  26  1   
 40  21  27  1   
 41  22  28  1   
 42  22  42  1   
 43  23  43  1   
 44  24  44  1   
 45  24  45  1   
 46  24  46  1   
 47  25  47  1   
 48  25  48  1   
 49  25  49  1   
 50  26  28  2   
 51  27  50  1   
 52  27  51  1   
 53  27  52  1   
 54  28  29  1   
 55  29  53  1   
 56  29  54  1   
 57  29  55  1   
@<TRIPOS>SUBSTRUCTURE
  1 ****   3 GROUP 4 **** **** 0

# MOE 2024.06 (io_trps.svl 2023.06)
