@<TRIPOS>MOLECULE
NONAME
53 57 1 0 0 
SMALL
USER_CHARGES


@<TRIPOS>ATOM
  1 O       -0.2310     0.1330    -0.1830 O.2   1 <1>  -0.5700 
  2 C       -1.0290     1.0410    -0.2560 C.2   1 <1>   0.5690 
  3 N       -2.2680     0.8100    -0.7630 N.am  1 <1>  -0.5470 
  4 C       -0.6490     2.4850     0.2030 C.3   1 <1>   0.4300 
  5 C       -3.2680     1.7910    -0.8470 C.ar  1 <1>   0.1170 
  6 N       -1.8480     3.3770     0.3750 N.pl3 1 <1>  -0.8690 
  7 C        0.0460     2.4470     1.5790 C.3   1 <1>  -0.1600 
  8 C        0.2400     3.1270    -0.8800 C.3   1 <1>  -0.1600 
  9 C       -3.0440     3.0610    -0.2860 C.ar  1 <1>   0.1000 
 10 C       -4.4680     1.5190    -1.4830 C.ar  1 <1>  -0.1500 
 11 C        1.5600     2.3060     1.4450 C.3   1 <1>   0.2090 
 12 C        1.2120     4.1450    -0.2950 C.3   1 <1>   0.2090 
 13 C       -4.0390     4.0210    -0.3850 C.ar  1 <1>  -0.1500 
 14 C       -5.4500     2.4910    -1.5740 C.ar  1 <1>  -0.1500 
 15 N        2.1110     3.4710     0.6880 N.pl3 1 <1>  -0.8380 
 16 C       -5.2350     3.7420    -1.0250 C.ar  1 <1>  -0.1500 
 17 C        3.2380     4.1370     1.1570 C.ar  1 <1>   0.4100 
 18 N        3.2180     5.4570     1.0720 N.ar  1 <1>  -0.6200 
 19 C        4.3360     3.4400     1.6890 C.ar  1 <1>   0.1600 
 20 C        4.3190     6.0620     1.5490 C.ar  1 <1>   0.3960 
 21 N        5.4280     3.9950     2.1730 N.ar  1 <1>  -0.6200 
 22 C        4.4580     7.5220     1.5300 C.2   1 <1>   0.5440 
 23 C        5.3750     5.3170     2.0870 C.ar  1 <1>   0.1600 
 24 O        5.1680     8.0540     2.3690 O.2   1 <1>  -0.5700 
 25 N        3.8560     8.3540     0.6010 N.am  1 <1>  -0.6600 
 26 C        4.1060     9.8120     0.5540 C.3   1 <1>   0.1400 
 27 C        3.0530     7.9240    -0.5690 C.3   1 <1>   0.1400 
 28 C        3.7680    10.2160    -0.8740 C.3   1 <1>  -0.1600 
 29 C        2.7110     9.2100    -1.3160 C.3   1 <1>  -0.1600 
 30 H       -2.4640    -0.1440    -1.0590 H     1 <1>   0.3700 
 31 H       -1.6100     4.3700     0.4220 H     1 <1>   0.4000 
 32 H       -0.3390     1.6250     2.1540 H     1 <1>   0.0800 
 33 H       -0.1500     3.3490     2.1290 H     1 <1>   0.0800 
 34 H       -0.3710     3.5820    -1.6400 H     1 <1>   0.0800 
 35 H        0.8290     2.3680    -1.3630 H     1 <1>   0.0800 
 36 H       -4.6400     0.5480    -1.9110 H     1 <1>   0.1500 
 37 H        1.8050     1.3950     0.9240 H     1 <1>   0.0800 
 38 H        1.9970     2.2640     2.4280 H     1 <1>   0.0800 
 39 H        0.6740     4.9380     0.1970 H     1 <1>   0.0800 
 40 H        1.8070     4.5760    -1.0830 H     1 <1>   0.0800 
 41 H       -3.8820     4.9920     0.0460 H     1 <1>   0.1500 
 42 H       -6.3810     2.2730    -2.0700 H     1 <1>   0.1500 
 43 H       -5.9980     4.4980    -1.0930 H     1 <1>   0.1500 
 44 H        4.2860     2.3680     1.6990 H     1 <1>   0.1500 
 45 H        6.2270     5.8540     2.4660 H     1 <1>   0.1500 
 46 H        5.1300    10.0410     0.8000 H     1 <1>   0.0800 
 47 H        3.4500    10.3000     1.2540 H     1 <1>   0.0800 
 48 H        2.1580     7.4170    -0.2520 H     1 <1>   0.0800 
 49 H        3.6460     7.2700    -1.1860 H     1 <1>   0.0800 
 50 H        4.6500    10.1140    -1.4820 H     1 <1>   0.0800 
 51 H        3.4200    11.2320    -0.9300 H     1 <1>   0.0800 
 52 H        1.7370     9.5450    -1.0030 H     1 <1>   0.0800 
 53 H        2.7040     9.0630    -2.3810 H     1 <1>   0.0800 
@<TRIPOS>BOND
  1   1   2  2   
  2   2   3  am  
  3   2   4  1   
  4   3   5  1   
  5   3  30  1   
  6   4   6  1   
  7   4   7  1   
  8   4   8  1   
  9   5   9  ar  
 10   5  10  ar  
 11   6   9  1   
 12   6  31  1   
 13   7  11  1   
 14   7  32  1   
 15   7  33  1   
 16   8  12  1   
 17   8  34  1   
 18   8  35  1   
 19   9  13  ar  
 20  10  14  ar  
 21  10  36  1   
 22  11  15  1   
 23  11  37  1   
 24  11  38  1   
 25  12  15  1   
 26  12  39  1   
 27  12  40  1   
 28  13  16  ar  
 29  13  41  1   
 30  14  16  ar  
 31  14  42  1   
 32  15  17  1   
 33  16  43  1   
 34  17  18  ar  
 35  17  19  ar  
 36  18  20  ar  
 37  19  21  ar  
 38  19  44  1   
 39  20  22  1   
 40  20  23  ar  
 41  21  23  ar  
 42  22  24  2   
 43  22  25  am  
 44  23  45  1   
 45  25  26  1   
 46  25  27  1   
 47  26  28  1   
 48  26  46  1   
 49  26  47  1   
 50  27  29  1   
 51  27  48  1   
 52  27  49  1   
 53  28  29  1   
 54  28  50  1   
 55  28  51  1   
 56  29  52  1   
 57  29  53  1   
@<TRIPOS>SUBSTRUCTURE
  1 ****  12 GROUP 4 **** **** 0

# MOE 2024.06 (io_trps.svl 2023.06)
