@<TRIPOS>MOLECULE
NONAME
45 47 1 0 0 
SMALL
USER_CHARGES


@<TRIPOS>ATOM
  1 O        4.0690    -1.4230    -1.9690 O.2   1 <1>  -0.5700 
  2 C        3.2040    -1.3950    -1.1120 C.2   1 <1>   0.5440 
  3 N        3.1170    -0.2380    -0.3820 N.am  1 <1>  -0.6600 
  4 C        2.3840    -2.5570    -0.8100 C.ar  1 <1>   0.0860 
  5 C        3.7350    -0.2530     0.9910 C.3   1 <1>   0.2200 
  6 C        3.0190     1.0630    -1.1170 C.3   1 <1>   0.1400 
  7 C        1.2310    -2.4560    -0.0300 C.ar  1 <1>  -0.1500 
  8 C        2.7260    -3.8230    -1.2800 C.ar  1 <1>  -0.1500 
  9 C        3.2150     0.8710     1.9010 C.3   1 <1>   0.1200 
 10 C        5.2840    -0.2170     0.8980 C.3   1 <1>   0.3430 
 11 C        4.0370     2.1350    -0.6840 C.3   1 <1>  -0.0800 
 12 C        0.4600    -3.5610     0.2860 C.ar  1 <1>   0.0820 
 13 C        1.9600    -4.9310    -0.9700 C.ar  1 <1>   0.0820 
 14 O        3.9720     2.0330     1.7310 O.3   1 <1>  -0.5600 
 15 N        5.7790     0.2610    -0.4410 N.4   1 <1>  -0.9590 
 16 C        3.6370     2.8150     0.6350 C.3   1 <1>   0.1200 
 17 C        5.5230     1.7120    -0.7030 C.3   1 <1>   0.3430 
 18 O       -0.6290    -3.3340     1.0600 O.3   1 <1>  -0.3630 
 19 C        0.8260    -4.8160    -0.1870 C.ar  1 <1>  -0.1500 
 20 O        2.3380    -6.1280    -1.4430 O.3   1 <1>  -0.5330 
 21 C        7.2040    -0.1040    -0.6680 C.3   1 <1>   0.2630 
 22 C       -1.5230    -4.3720     1.3980 C.3   1 <1>   0.0400 
 23 H        3.4550    -1.1780     1.4650 H     1 <1>   0.0800 
 24 H        3.1420     0.8790    -2.1720 H     1 <1>   0.0800 
 25 H        2.0220     1.4480    -0.9870 H     1 <1>   0.0800 
 26 H        0.9130    -1.4990     0.3410 H     1 <1>   0.1500 
 27 H        3.5980    -3.9520    -1.8960 H     1 <1>   0.1500 
 28 H        3.3390     0.5770     2.9290 H     1 <1>   0.0800 
 29 H        2.1710     1.0760     1.7340 H     1 <1>   0.0800 
 30 H        5.6430    -1.2190     1.0650 H     1 <1>   0.0800 
 31 H        5.6800     0.4030     1.6860 H     1 <1>   0.0800 
 32 H        3.9510     2.9170    -1.4170 H     1 <1>   0.0800 
 33 H        5.1950    -0.2660    -1.1320 H     1 <1>   0.4500 
 34 H        2.5830     3.0360     0.6690 H     1 <1>   0.0800 
 35 H        4.1730     3.7440     0.7440 H     1 <1>   0.0800 
 36 H        6.0630     2.3070     0.0150 H     1 <1>   0.0800 
 37 H        5.9160     1.9470    -1.6790 H     1 <1>   0.0800 
 38 H        0.2490    -5.6900     0.0410 H     1 <1>   0.1500 
 39 H        1.7320    -6.8530    -1.2080 H     1 <1>   0.4500 
 40 H        7.8390     0.4040     0.0400 H     1 <1>   0.0800 
 41 H        7.5040     0.1720    -1.6660 H     1 <1>   0.0800 
 42 H        7.3370    -1.1670    -0.5560 H     1 <1>   0.0800 
 43 H       -2.3140    -3.9510     1.9930 H     1 <1>   0.0800 
 44 H       -0.9960    -5.1170     1.9680 H     1 <1>   0.0800 
 45 H       -1.9300    -4.7920     0.4950 H     1 <1>   0.0800 
@<TRIPOS>BOND
  1   1   2  2   
  2   2   3  am  
  3   2   4  1   
  4   3   5  1   
  5   3   6  1   
  6   4   7  ar  
  7   4   8  ar  
  8   5   9  1   
  9   5  10  1   
 10   5  23  1   
 11   6  11  1   
 12   6  24  1   
 13   6  25  1   
 14   7  12  ar  
 15   7  26  1   
 16   8  13  ar  
 17   8  27  1   
 18   9  14  1   
 19   9  28  1   
 20   9  29  1   
 21  10  15  1   
 22  10  30  1   
 23  10  31  1   
 24  11  16  1   
 25  11  17  1   
 26  11  32  1   
 27  12  18  1   
 28  12  19  ar  
 29  13  19  ar  
 30  13  20  1   
 31  14  16  1   
 32  15  17  1   
 33  15  21  1   
 34  15  33  1   
 35  16  34  1   
 36  16  35  1   
 37  17  36  1   
 38  17  37  1   
 39  18  22  1   
 40  19  38  1   
 41  20  39  1   
 42  21  40  1   
 43  21  41  1   
 44  21  42  1   
 45  22  43  1   
 46  22  44  1   
 47  22  45  1   
@<TRIPOS>SUBSTRUCTURE
  1 ****   2 GROUP 4 **** **** 0

# MOE 2024.06 (io_trps.svl 2023.06)
