@<TRIPOS>MOLECULE
NONAME
55 58 1 0 0 
SMALL
USER_CHARGES


@<TRIPOS>ATOM
  1 O       -0.0590    -3.1280    -1.6140 O.2   1 <1>  -0.5700 
  2 C       -1.0960    -2.7620    -1.1190 C.2   1 <1>   0.5690 
  3 N       -1.4090    -1.4970    -0.7600 N.am  1 <1>  -0.6600 
  4 C       -2.2370    -3.6950    -0.8320 C.3   1 <1>  -0.0990 
  5 C       -2.7680    -1.3990    -0.1930 C.3   1 <1>   0.1400 
  6 C       -0.5170    -0.3230    -0.8630 C.3   1 <1>   0.1400 
  7 C       -3.4190    -2.7380    -0.5860 C.3   1 <1>  -0.0190 
  8 C       -0.0710     0.1090     0.5310 C.3   1 <1>  -0.2400 
  9 C       -4.4320    -3.2740     0.4240 C.2   1 <1>   0.5690 
 10 O       -4.4390    -2.7860     1.5300 O.2   1 <1>  -0.5700 
 11 N       -5.2980    -4.2890     0.0890 N.am  1 <1>  -0.6600 
 12 C       -5.3770    -4.9840    -1.2270 C.3   1 <1>   0.1400 
 13 C       -6.2480    -4.8540     1.0890 C.3   1 <1>   0.1400 
 14 C       -5.0150    -6.4580    -1.0310 C.3   1 <1>  -0.1600 
 15 C       -5.9060    -6.3260     1.3230 C.3   1 <1>  -0.1600 
 16 C       -5.9170    -7.1340     0.0130 C.3   1 <1>   0.4240 
 17 O       -7.2150    -7.0670    -0.5300 O.3   1 <1>  -0.5600 
 18 C       -5.4650    -8.5920     0.2470 C.ar  1 <1>  -0.1430 
 19 C       -8.1580    -7.9790    -0.0580 C.3   1 <1>   0.1200 
 20 C       -6.3260    -9.6590     0.0100 C.ar  1 <1>  -0.1430 
 21 C       -4.1810    -8.8660     0.7070 C.ar  1 <1>  -0.1500 
 22 C       -7.7350    -9.3840    -0.4740 C.3   1 <1>  -0.0170 
 23 C       -5.9080   -10.9650     0.2160 C.ar  1 <1>  -0.1500 
 24 C       -3.7650   -10.1680     0.9160 C.ar  1 <1>  -0.1500 
 25 C       -4.6210   -11.2260     0.6710 C.ar  1 <1>   0.0830 
 26 O       -4.1340   -12.4720     0.8970 O.3   1 <1>  -0.3630 
 27 C       -4.9170   -13.6200     0.6580 C.3   1 <1>   0.0400 
 28 H       -2.0030    -4.2610     0.0510 H     1 <1>   0.0800 
 29 H       -2.4060    -4.3550    -1.6620 H     1 <1>   0.0800 
 30 H       -3.3040    -0.5640    -0.6080 H     1 <1>   0.0800 
 31 H       -2.6880    -1.2860     0.8750 H     1 <1>   0.0800 
 32 H       -1.0360     0.4800    -1.3590 H     1 <1>   0.0800 
 33 H        0.3460    -0.5840    -1.4540 H     1 <1>   0.0800 
 34 H       -3.9270    -2.5610    -1.5150 H     1 <1>   0.0800 
 35 H       -0.9140     0.4230     1.1200 H     1 <1>   0.0800 
 36 H        0.6140     0.9330     0.4500 H     1 <1>   0.0800 
 37 H        0.4300    -0.7040     1.0240 H     1 <1>   0.0800 
 38 H       -4.7200    -4.5450    -1.9530 H     1 <1>   0.0800 
 39 H       -6.3820    -4.9030    -1.6060 H     1 <1>   0.0800 
 40 H       -7.2530    -4.7620     0.7130 H     1 <1>   0.0800 
 41 H       -6.1930    -4.3170     2.0210 H     1 <1>   0.0800 
 42 H       -3.9870    -6.5150    -0.7270 H     1 <1>   0.0800 
 43 H       -5.1050    -6.9850    -1.9630 H     1 <1>   0.0800 
 44 H       -6.5910    -6.7560     2.0280 H     1 <1>   0.0800 
 45 H       -4.9290    -6.3720     1.7680 H     1 <1>   0.0800 
 46 H       -9.1090    -7.7270    -0.4940 H     1 <1>   0.0800 
 47 H       -8.2290    -7.8970     1.0130 H     1 <1>   0.0800 
 48 H       -3.4900    -8.0680     0.9110 H     1 <1>   0.1500 
 49 H       -7.7740    -9.4670    -1.5460 H     1 <1>   0.0800 
 50 H       -8.4200   -10.0980    -0.0540 H     1 <1>   0.0800 
 51 H       -6.5940   -11.7660     0.0190 H     1 <1>   0.1500 
 52 H       -2.7710   -10.3720     1.2710 H     1 <1>   0.1500 
 53 H       -4.3230   -14.4840     0.8970 H     1 <1>   0.0800 
 54 H       -5.1940   -13.6420    -0.3810 H     1 <1>   0.0800 
 55 H       -5.7860   -13.5870     1.2900 H     1 <1>   0.0800 
@<TRIPOS>BOND
  1   1   2  2   
  2   2   3  am  
  3   2   4  1   
  4   3   5  1   
  5   3   6  1   
  6   4   7  1   
  7   4  28  1   
  8   4  29  1   
  9   5   7  1   
 10   5  30  1   
 11   5  31  1   
 12   6   8  1   
 13   6  32  1   
 14   6  33  1   
 15   7   9  1   
 16   7  34  1   
 17   8  35  1   
 18   8  36  1   
 19   8  37  1   
 20   9  10  2   
 21   9  11  am  
 22  11  12  1   
 23  11  13  1   
 24  12  14  1   
 25  12  38  1   
 26  12  39  1   
 27  13  15  1   
 28  13  40  1   
 29  13  41  1   
 30  14  16  1   
 31  14  42  1   
 32  14  43  1   
 33  15  16  1   
 34  15  44  1   
 35  15  45  1   
 36  16  17  1   
 37  16  18  1   
 38  17  19  1   
 39  18  20  ar  
 40  18  21  ar  
 41  19  22  1   
 42  19  46  1   
 43  19  47  1   
 44  20  22  1   
 45  20  23  ar  
 46  21  24  ar  
 47  21  48  1   
 48  22  49  1   
 49  22  50  1   
 50  23  25  ar  
 51  23  51  1   
 52  24  25  ar  
 53  24  52  1   
 54  25  26  1   
 55  26  27  1   
 56  27  53  1   
 57  27  54  1   
 58  27  55  1   
@<TRIPOS>SUBSTRUCTURE
  1 ****  14 GROUP 4 **** **** 0

# MOE 2024.06 (io_trps.svl 2023.06)
