@<TRIPOS>MOLECULE
NONAME
46 48 1 0 0 
SMALL
USER_CHARGES


@<TRIPOS>ATOM
  1 CL      -1.9290     2.7440     2.0690 Cl    1 <1>  -0.1770 
  2 C       -0.6790     2.8230     0.8480 C.ar  1 <1>   0.1770 
  3 C       -0.9740     2.5290    -0.4760 C.ar  1 <1>  -0.1440 
  4 C        0.5950     3.1910     1.2490 C.ar  1 <1>  -0.1500 
  5 C        0.0720     2.6240    -1.3820 C.ar  1 <1>   0.1900 
  6 C       -2.3840     2.1090    -0.8980 C.3   1 <1>   0.0450 
  7 C        1.6180     3.2740     0.3180 C.ar  1 <1>  -0.1500 
  8 F       -0.1410     2.3700    -2.6460 F     1 <1>  -0.1900 
  9 C        1.3550     2.9890    -1.0120 C.ar  1 <1>  -0.1500 
 10 C       -2.7230     0.6770    -0.4820 C.2   1 <1>   0.5690 
 11 O       -1.8220    -0.1300    -0.4850 O.2   1 <1>  -0.5700 
 12 N       -4.0030     0.3110    -0.1240 N.am  1 <1>  -0.6600 
 13 C       -5.1960     1.1880    -0.3210 C.3   1 <1>   0.2200 
 14 C       -4.2220    -1.0320     0.5010 C.3   1 <1>   0.0600 
 15 C       -6.4540     0.4720    -0.8130 C.3   1 <1>  -0.1600 
 16 C       -5.6320     1.8620     0.9740 C.3   1 <1>  -0.1600 
 17 C       -7.5950     1.4370    -0.4670 C.3   1 <1>  -0.0800 
 18 C       -7.0830     2.2920     0.7170 C.3   1 <1>  -0.0800 
 19 C       -8.9360     0.7150    -0.2220 C.3   1 <1>   0.1400 
 20 C       -7.9710     2.2040     1.9700 C.3   1 <1>  -0.0990 
 21 N       -9.8700     1.6020     0.5150 N.am  1 <1>  -0.6600 
 22 C       -9.4320     2.3270     1.5900 C.2   1 <1>   0.5690 
 23 C      -11.2880     1.6090     0.0670 C.3   1 <1>   0.0600 
 24 O      -10.1480     3.0480     2.2420 O.2   1 <1>  -0.5700 
 25 H        0.7820     3.4070     2.2860 H     1 <1>   0.1500 
 26 H       -2.5000     2.1780    -1.9620 H     1 <1>   0.0800 
 27 H       -3.0730     2.7990    -0.4530 H     1 <1>   0.0800 
 28 H        2.6110     3.5570     0.6250 H     1 <1>   0.1500 
 29 H        2.1310     3.0440    -1.7540 H     1 <1>   0.1500 
 30 H       -4.9760     1.9520    -1.0460 H     1 <1>   0.0800 
 31 H       -4.9410    -0.9660     1.2970 H     1 <1>   0.0800 
 32 H       -3.3040    -1.4120     0.9160 H     1 <1>   0.0800 
 33 H       -4.5720    -1.7250    -0.2430 H     1 <1>   0.0800 
 34 H       -6.4060     0.2740    -1.8690 H     1 <1>   0.0800 
 35 H       -6.6050    -0.4490    -0.2820 H     1 <1>   0.0800 
 36 H       -5.5920     1.1560     1.7840 H     1 <1>   0.0800 
 37 H       -5.0080     2.7060     1.2120 H     1 <1>   0.0800 
 38 H       -7.7350     2.0990    -1.3060 H     1 <1>   0.0800 
 39 H       -7.0810     3.3190     0.3910 H     1 <1>   0.0800 
 40 H       -8.7800    -0.1710     0.3690 H     1 <1>   0.0800 
 41 H       -9.3660     0.4220    -1.1640 H     1 <1>   0.0800 
 42 H       -7.7120     2.9850     2.6620 H     1 <1>   0.0800 
 43 H       -7.8400     1.2600     2.4640 H     1 <1>   0.0800 
 44 H      -11.3470     1.9570    -0.9490 H     1 <1>   0.0800 
 45 H      -11.8770     2.2610     0.6890 H     1 <1>   0.0800 
 46 H      -11.6940     0.6150     0.1290 H     1 <1>   0.0800 
@<TRIPOS>BOND
  1   1   2  1   
  2   2   3  ar  
  3   2   4  ar  
  4   3   5  ar  
  5   3   6  1   
  6   4   7  ar  
  7   4  25  1   
  8   5   8  1   
  9   5   9  ar  
 10   6  10  1   
 11   6  26  1   
 12   6  27  1   
 13   7   9  ar  
 14   7  28  1   
 15   9  29  1   
 16  10  11  2   
 17  10  12  am  
 18  12  13  1   
 19  12  14  1   
 20  13  15  1   
 21  13  16  1   
 22  13  30  1   
 23  14  31  1   
 24  14  32  1   
 25  14  33  1   
 26  15  17  1   
 27  15  34  1   
 28  15  35  1   
 29  16  18  1   
 30  16  36  1   
 31  16  37  1   
 32  17  18  1   
 33  17  19  1   
 34  17  38  1   
 35  18  20  1   
 36  18  39  1   
 37  19  21  1   
 38  19  40  1   
 39  19  41  1   
 40  20  22  1   
 41  20  42  1   
 42  20  43  1   
 43  21  22  am  
 44  21  23  1   
 45  22  24  2   
 46  23  44  1   
 47  23  45  1   
 48  23  46  1   
@<TRIPOS>SUBSTRUCTURE
  1 ****  13 GROUP 4 **** **** 0

# MOE 2024.06 (io_trps.svl 2023.06)
