@<TRIPOS>MOLECULE
NONAME
55 58 1 0 0 
SMALL
USER_CHARGES


@<TRIPOS>ATOM
  1 O        0.6280    -0.5620    -1.6770 O.2   1 <1>  -0.5700 
  2 C        1.1890    -1.4950    -1.1570 C.2   1 <1>   0.5690 
  3 N        0.5600    -2.3920    -0.3380 N.am  1 <1>  -0.6600 
  4 C        2.6690    -1.6910    -1.4070 C.3   1 <1>  -0.0990 
  5 C        1.3280    -3.4510     0.3590 C.3   1 <1>   0.1400 
  6 C       -0.8910    -2.2990    -0.0200 C.3   1 <1>   0.0600 
  7 C        2.9780    -3.1780    -1.6510 C.3   1 <1>  -0.0800 
  8 C        2.3540    -4.1110    -0.5890 C.3   1 <1>  -0.0800 
  9 C        4.4860    -3.4660    -1.6830 C.3   1 <1>  -0.1600 
 10 C        3.5290    -4.7380     0.1710 C.3   1 <1>  -0.1600 
 11 C        4.6980    -4.7020    -0.8130 C.3   1 <1>   0.4230 
 12 N        6.0630    -4.7810    -0.2000 N.4   1 <1>  -0.9590 
 13 C        6.3410    -3.9560     1.0300 C.3   1 <1>   0.4860 
 14 C        6.4170    -6.2070     0.0600 C.3   1 <1>   0.2630 
 15 C        6.5650    -2.5040     0.6620 C.ar  1 <1>  -0.1440 
 16 C        5.6590    -1.5630     1.0950 C.ar  1 <1>   0.0820 
 17 C        7.6790    -2.1390    -0.1350 C.ar  1 <1>   0.0000 
 18 O        4.6380    -1.9680     1.8910 O.3   1 <1>  -0.3620 
 19 C        5.7980    -0.2230     0.6920 C.ar  1 <1>  -0.1500 
 20 C        7.7820    -0.7960    -0.5650 C.ar  1 <1>   0.0000 
 21 C        8.7050    -3.0330    -0.5310 C.ar  1 <1>  -0.1500 
 22 C        3.7780    -1.0450     2.5310 C.3   1 <1>   0.0400 
 23 C        6.8280     0.1400    -0.1250 C.ar  1 <1>  -0.1500 
 24 C        8.8380    -0.4230    -1.4180 C.ar  1 <1>  -0.1500 
 25 C        9.7250    -2.6410    -1.3520 C.ar  1 <1>  -0.1500 
 26 C        9.7880    -1.3230    -1.8110 C.ar  1 <1>  -0.1500 
 27 H        2.9640    -1.1070    -2.2600 H     1 <1>   0.0800 
 28 H        3.1980    -1.3260    -0.5490 H     1 <1>   0.0800 
 29 H        1.8300    -2.9920     1.1940 H     1 <1>   0.0800 
 30 H        0.6580    -4.2000     0.7450 H     1 <1>   0.0800 
 31 H       -1.3850    -3.2130    -0.3000 H     1 <1>   0.0800 
 32 H       -1.3460    -1.4860    -0.5600 H     1 <1>   0.0800 
 33 H       -1.0240    -2.1280     1.0340 H     1 <1>   0.0800 
 34 H        2.5510    -3.4400    -2.6060 H     1 <1>   0.0800 
 35 H        1.8410    -4.8990    -1.1170 H     1 <1>   0.0800 
 36 H        5.0220    -2.6130    -1.3210 H     1 <1>   0.0800 
 37 H        4.8060    -3.6590    -2.6920 H     1 <1>   0.0800 
 38 H        3.2990    -5.7440     0.4730 H     1 <1>   0.0800 
 39 H        3.7260    -4.1440     1.0380 H     1 <1>   0.0800 
 40 H        4.5720    -5.5470    -1.4710 H     1 <1>   0.0800 
 41 H        6.7020    -4.4020    -0.9140 H     1 <1>   0.4500 
 42 H        5.5410    -4.0490     1.7430 H     1 <1>   0.0800 
 43 H        7.2370    -4.3140     1.5090 H     1 <1>   0.0800 
 44 H        5.7610    -6.6250     0.8070 H     1 <1>   0.0800 
 45 H        7.4330    -6.2860     0.4100 H     1 <1>   0.0800 
 46 H        6.3210    -6.7870    -0.8440 H     1 <1>   0.0800 
 47 H        5.0970     0.5270     1.0100 H     1 <1>   0.1500 
 48 H        8.7100    -4.0440    -0.1740 H     1 <1>   0.1500 
 49 H        3.1160    -1.5920     3.1790 H     1 <1>   0.0800 
 50 H        3.2040    -0.5200     1.7880 H     1 <1>   0.0800 
 51 H        4.3690    -0.3590     3.1140 H     1 <1>   0.0800 
 52 H        6.9310     1.1630    -0.4450 H     1 <1>   0.1500 
 53 H        8.8900     0.5970    -1.7580 H     1 <1>   0.1500 
 54 H       10.4990    -3.3270    -1.6530 H     1 <1>   0.1500 
 55 H       10.5940    -1.0290    -2.4620 H     1 <1>   0.1500 
@<TRIPOS>BOND
  1   1   2  2   
  2   2   3  am  
  3   2   4  1   
  4   3   5  1   
  5   3   6  1   
  6   4   7  1   
  7   4  27  1   
  8   4  28  1   
  9   5   8  1   
 10   5  29  1   
 11   5  30  1   
 12   6  31  1   
 13   6  32  1   
 14   6  33  1   
 15   7   8  1   
 16   7   9  1   
 17   7  34  1   
 18   8  10  1   
 19   8  35  1   
 20   9  11  1   
 21   9  36  1   
 22   9  37  1   
 23  10  11  1   
 24  10  38  1   
 25  10  39  1   
 26  11  12  1   
 27  11  40  1   
 28  12  13  1   
 29  12  14  1   
 30  12  41  1   
 31  13  15  1   
 32  13  42  1   
 33  13  43  1   
 34  14  44  1   
 35  14  45  1   
 36  14  46  1   
 37  15  16  ar  
 38  15  17  ar  
 39  16  18  1   
 40  16  19  ar  
 41  17  20  ar  
 42  17  21  ar  
 43  18  22  1   
 44  19  23  ar  
 45  19  47  1   
 46  20  23  ar  
 47  20  24  ar  
 48  21  25  ar  
 49  21  48  1   
 50  22  49  1   
 51  22  50  1   
 52  22  51  1   
 53  23  52  1   
 54  24  26  ar  
 55  24  53  1   
 56  25  26  ar  
 57  25  54  1   
 58  26  55  1   
@<TRIPOS>SUBSTRUCTURE
  1 ****   9 GROUP 4 **** **** 0

# MOE 2024.06 (io_trps.svl 2023.06)
