@<TRIPOS>MOLECULE
NONAME
42 43 1 0 0 
SMALL
USER_CHARGES


@<TRIPOS>ATOM
  1 S       -0.2800     0.0410    -0.4380 S.o2  1 <1>   1.3330 
  2 O       -1.5950     0.6310    -0.4030 O.2   1 <1>  -0.6500 
  3 O       -0.0080    -1.1090    -1.2610 O.2   1 <1>  -0.6500 
  4 N        0.8350     1.2110    -1.0250 N.am  1 <1>  -0.7570 
  5 C        0.3030    -0.3170     1.2280 C.3   1 <1>  -0.0550 
  6 C        0.9080     2.5830    -0.8500 C.ar  1 <1>   0.1990 
  7 C        0.2510     0.8520     2.2290 C.3   1 <1>  -0.2400 
  8 C        2.0010     3.2620    -1.3750 C.ar  1 <1>  -0.1500 
  9 C       -0.0500     3.3330    -0.1710 C.ar  1 <1>  -0.1500 
 10 C        2.1380     4.6290    -1.2270 C.ar  1 <1>  -0.1500 
 11 C        0.0890     4.6990    -0.0230 C.ar  1 <1>  -0.1500 
 12 C        1.1820     5.3890    -0.5480 C.ar  1 <1>   0.0860 
 13 C        1.3050     6.8250    -0.3880 C.2   1 <1>   0.5440 
 14 O        0.8140     7.3890     0.5710 O.2   1 <1>  -0.5700 
 15 N        1.9740     7.5820    -1.3120 N.am  1 <1>  -0.7300 
 16 C        2.1450     9.0470    -1.2370 C.3   1 <1>   0.1400 
 17 C        3.5140     9.3520    -0.6330 C.3   1 <1>  -0.1600 
 18 C        3.6830    10.8580    -0.3970 C.3   1 <1>   0.0960 
 19 N        5.0260    11.1540     0.1330 N.pl3 1 <1>   0.3140 
 20 N        6.0360    11.5590    -0.6430 N.2   1 <1>  -0.4180 
 21 C        5.4430    11.0700     1.3970 C.2   1 <1>  -0.3020 
 22 N        7.0760    11.7320     0.0980 N.2   1 <1>  -0.2270 
 23 C        6.7320    11.4370     1.3550 C.2   1 <1>   0.0770 
 24 H        1.4310     0.7780    -1.7230 H     1 <1>   0.4200 
 25 H        1.3140    -0.6720     1.1710 H     1 <1>   0.0800 
 26 H       -0.2900    -1.1200     1.6230 H     1 <1>   0.0800 
 27 H        0.9120     1.6430     1.9210 H     1 <1>   0.0800 
 28 H        0.5550     0.5160     3.2050 H     1 <1>   0.0800 
 29 H       -0.7510     1.2400     2.2960 H     1 <1>   0.0800 
 30 H        2.7570     2.7080    -1.9020 H     1 <1>   0.1500 
 31 H       -0.9170     2.8580     0.2450 H     1 <1>   0.1500 
 32 H        3.0070     5.1130    -1.6350 H     1 <1>   0.1500 
 33 H       -0.6650     5.2540     0.5100 H     1 <1>   0.1500 
 34 H        2.3370     7.1330    -2.1540 H     1 <1>   0.3700 
 35 H        1.3670     9.4680    -0.6200 H     1 <1>   0.0800 
 36 H        2.0610     9.4700    -2.2240 H     1 <1>   0.0800 
 37 H        4.2830     9.0050    -1.3000 H     1 <1>   0.0800 
 38 H        3.6020     8.8380     0.3090 H     1 <1>   0.0800 
 39 H        2.9520    11.2120     0.3070 H     1 <1>   0.0800 
 40 H        3.5620    11.3950    -1.3210 H     1 <1>   0.0800 
 41 H        4.8220    10.7640     2.2180 H     1 <1>   0.1500 
 42 H        7.4390    11.5050     2.1630 H     1 <1>   0.1500 
@<TRIPOS>BOND
  1   1   2  2   
  2   1   3  2   
  3   1   4  am  
  4   1   5  1   
  5   4   6  1   
  6   4  24  1   
  7   5   7  1   
  8   5  25  1   
  9   5  26  1   
 10   6   8  ar  
 11   6   9  ar  
 12   7  27  1   
 13   7  28  1   
 14   7  29  1   
 15   8  10  ar  
 16   8  30  1   
 17   9  11  ar  
 18   9  31  1   
 19  10  12  ar  
 20  10  32  1   
 21  11  12  ar  
 22  11  33  1   
 23  12  13  1   
 24  13  14  2   
 25  13  15  am  
 26  15  16  1   
 27  15  34  1   
 28  16  17  1   
 29  16  35  1   
 30  16  36  1   
 31  17  18  1   
 32  17  37  1   
 33  17  38  1   
 34  18  19  1   
 35  18  39  1   
 36  18  40  1   
 37  19  20  1   
 38  19  21  1   
 39  20  22  2   
 40  21  23  2   
 41  21  41  1   
 42  22  23  1   
 43  23  42  1   
@<TRIPOS>SUBSTRUCTURE
  1 ****  12 GROUP 4 **** **** 0

# MOE 2024.06 (io_trps.svl 2023.06)
