@<TRIPOS>MOLECULE
STOCK7S-72890
28 29 1 0 0 
SMALL
USER_CHARGES


@<TRIPOS>ATOM
  1 O        9.5910    -1.7560     0.2100 O.3   1 <1>  -0.3630 
  2 C        8.4930    -0.9830    -0.0400 C.ar  1 <1>   0.0830 
  3 C        9.3880    -3.0260     0.8000 C.3   1 <1>   0.1200 
  4 C        7.2230    -1.5680    -0.0100 C.ar  1 <1>   0.0830 
  5 C        8.6000     0.3890    -0.3130 C.ar  1 <1>   0.0830 
  6 C        8.1940    -3.7210     0.1420 C.3   1 <1>   0.1200 
  7 O        7.0510    -2.8930     0.2250 O.3   1 <1>  -0.3630 
  8 C        6.0850    -0.8100    -0.2180 C.ar  1 <1>  -0.1500 
  9 O        9.7480     1.1190    -0.3960 O.3   1 <1>  -0.3630 
 10 C        7.4470     1.1310    -0.5210 C.ar  1 <1>  -0.1500 
 11 C        6.1900     0.5480    -0.4670 C.ar  1 <1>  -0.1430 
 12 C       11.0220     0.5250    -0.5180 C.3   1 <1>   0.0400 
 13 C        4.9530     1.3890    -0.6640 C.3   1 <1>   0.4860 
 14 N        4.6050     1.9210     0.6650 N.4   1 <1>  -0.8530 
 15 H        9.2100    -2.8850     1.8510 H     1 <1>   0.0800 
 16 H       10.2870    -3.6010     0.6670 H     1 <1>   0.0800 
 17 H        7.9700    -4.6490     0.6360 H     1 <1>   0.0800 
 18 H        8.3960    -3.9130    -0.8980 H     1 <1>   0.0800 
 19 H        5.1330    -1.3110    -0.1820 H     1 <1>   0.1500 
 20 H        7.5670     2.1810    -0.7290 H     1 <1>   0.1500 
 21 H       11.7330     1.2980    -0.7450 H     1 <1>   0.0800 
 22 H       10.9990    -0.1970    -1.3150 H     1 <1>   0.0800 
 23 H       11.2800     0.0590     0.4160 H     1 <1>   0.0800 
 24 H        4.1500     0.7830    -1.0560 H     1 <1>   0.0800 
 25 H        5.1570     2.1910    -1.3560 H     1 <1>   0.0800 
 26 H        4.4480     1.1400     1.3100 H     1 <1>   0.4500 
 27 H        3.7730     2.5190     0.6390 H     1 <1>   0.4500 
 28 H        5.4010     2.4540     1.0310 H     1 <1>   0.4500 
@<TRIPOS>BOND
  1   1   2  1   
  2   1   3  1   
  3   2   4  ar  
  4   2   5  ar  
  5   3   6  1   
  6   3  15  1   
  7   3  16  1   
  8   4   7  1   
  9   4   8  ar  
 10   5   9  1   
 11   5  10  ar  
 12   6   7  1   
 13   6  17  1   
 14   6  18  1   
 15   8  11  ar  
 16   8  19  1   
 17   9  12  1   
 18  10  11  ar  
 19  10  20  1   
 20  11  13  1   
 21  12  21  1   
 22  12  22  1   
 23  12  23  1   
 24  13  14  1   
 25  13  24  1   
 26  13  25  1   
 27  14  26  1   
 28  14  27  1   
 29  14  28  1   
@<TRIPOS>SUBSTRUCTURE
  1 ****   2 GROUP 4 **** **** 0

# MOE 2024.06 (io_trps.svl 2023.06)
