@<TRIPOS>MOLECULE
NONAME
45 46 1 0 0 
SMALL
USER_CHARGES


@<TRIPOS>ATOM
  1 CL       3.3740    -2.4750     3.9390 Cl    1 <1>  -0.1770 
  2 C        2.7860    -2.3560     2.3000 C.ar  1 <1>   0.1770 
  3 C        2.7840    -1.1260     1.6770 C.ar  1 <1>  -0.1500 
  4 C        2.3370    -3.4970     1.6650 C.ar  1 <1>  -0.1500 
  5 C        2.3120    -1.0420     0.3730 C.ar  1 <1>   0.0830 
  6 C        1.8660    -3.4380     0.3520 C.ar  1 <1>   0.0860 
  7 O        2.2630     0.1140    -0.3330 O.3   1 <1>  -0.3630 
  8 C        1.8610    -2.1860    -0.2660 C.ar  1 <1>  -0.1500 
  9 C        1.4010    -4.6200    -0.3570 C.2   1 <1>   0.5440 
 10 C        2.6870     1.3380     0.2250 C.3   1 <1>   0.0400 
 11 O        0.6230    -4.5280    -1.2870 O.2   1 <1>  -0.5700 
 12 N        1.8240    -5.8690    -0.0020 N.am  1 <1>  -0.7300 
 13 C        1.4230    -7.1120    -0.6950 C.3   1 <1>   0.2200 
 14 C        0.1180    -7.6210    -0.0930 C.3   1 <1>  -0.0800 
 15 C        2.4000    -8.2350    -0.3760 C.3   1 <1>   0.1200 
 16 C        0.5610    -8.7500     0.8500 C.3   1 <1>   0.1200 
 17 C       -0.8490    -8.0890    -1.1970 C.3   1 <1>  -0.0550 
 18 O        1.9560    -8.7570     0.8310 O.3   1 <1>  -0.5600 
 19 S       -2.4960    -8.5040    -0.6170 S.o2  1 <1>   1.3330 
 20 O       -2.3800    -9.5940     0.3250 O.2   1 <1>  -0.6500 
 21 O       -3.3720    -8.6380    -1.7580 O.2   1 <1>  -0.6500 
 22 N       -2.9940    -7.1310     0.2470 N.am  1 <1>  -0.8490 
 23 C       -3.2500    -5.9620    -0.6030 C.3   1 <1>   0.1160 
 24 C       -4.1710    -7.4120     1.0730 C.3   1 <1>   0.1160 
 25 H        3.1450    -0.2710     2.2150 H     1 <1>   0.1500 
 26 H        2.3520    -4.4260     2.2020 H     1 <1>   0.1500 
 27 H        1.4980    -2.1010    -1.2760 H     1 <1>   0.1500 
 28 H        2.5510     2.1070    -0.5140 H     1 <1>   0.0800 
 29 H        3.7280     1.2620     0.4850 H     1 <1>   0.0800 
 30 H        2.0870     1.5550     1.0910 H     1 <1>   0.0800 
 31 H        2.3800    -6.0200     0.8410 H     1 <1>   0.3700 
 32 H        1.3620    -6.9320    -1.7560 H     1 <1>   0.0800 
 33 H       -0.3600    -6.8420     0.4760 H     1 <1>   0.0800 
 34 H        3.4150    -7.8930    -0.2750 H     1 <1>   0.0800 
 35 H        2.3430    -9.0150    -1.1150 H     1 <1>   0.0800 
 36 H        0.2210    -9.7160     0.5160 H     1 <1>   0.0800 
 37 H        0.2300    -8.5830     1.8600 H     1 <1>   0.0800 
 38 H       -0.4310    -8.9380    -1.7030 H     1 <1>   0.0800 
 39 H       -0.9380    -7.3000    -1.9190 H     1 <1>   0.0800 
 40 H       -3.5340    -5.1190     0.0040 H     1 <1>   0.0800 
 41 H       -4.0400    -6.1700    -1.3060 H     1 <1>   0.0800 
 42 H       -2.3600    -5.6920    -1.1460 H     1 <1>   0.0800 
 43 H       -4.4470    -6.5400     1.6400 H     1 <1>   0.0800 
 44 H       -3.9520    -8.2080     1.7660 H     1 <1>   0.0800 
 45 H       -5.0000    -7.7120     0.4530 H     1 <1>   0.0800 
@<TRIPOS>BOND
  1   1   2  1   
  2   2   3  ar  
  3   2   4  ar  
  4   3   5  ar  
  5   3  25  1   
  6   4   6  ar  
  7   4  26  1   
  8   5   7  1   
  9   5   8  ar  
 10   6   8  ar  
 11   6   9  1   
 12   7  10  1   
 13   8  27  1   
 14   9  11  2   
 15   9  12  am  
 16  10  28  1   
 17  10  29  1   
 18  10  30  1   
 19  12  13  1   
 20  12  31  1   
 21  13  14  1   
 22  13  15  1   
 23  13  32  1   
 24  14  16  1   
 25  14  17  1   
 26  14  33  1   
 27  15  18  1   
 28  15  34  1   
 29  15  35  1   
 30  16  18  1   
 31  16  36  1   
 32  16  37  1   
 33  17  19  1   
 34  17  38  1   
 35  17  39  1   
 36  19  20  2   
 37  19  21  2   
 38  19  22  am  
 39  22  23  1   
 40  22  24  1   
 41  23  40  1   
 42  23  41  1   
 43  23  42  1   
 44  24  43  1   
 45  24  44  1   
 46  24  45  1   
@<TRIPOS>SUBSTRUCTURE
  1 ****   9 GROUP 4 **** **** 0

# MOE 2024.06 (io_trps.svl 2023.06)
