@<TRIPOS>MOLECULE
NONAME
56 60 1 0 0 
SMALL
USER_CHARGES


@<TRIPOS>ATOM
  1 S       -0.3600     1.2920    -2.2340 S.3   1 <1>  -0.0800 
  2 C       -1.3830     0.3780    -3.3180 C.2   1 <1>   0.2280 
  3 C       -0.7830     0.1880    -0.9590 C.2   1 <1>  -0.1100 
  4 N       -1.9690    -0.6180    -2.7830 N.2   1 <1>  -0.5650 
  5 C       -1.6320    -0.7350    -1.4410 C.2   1 <1>   0.0460 
  6 C       -2.2070    -1.9090    -0.6600 C.3   1 <1>   0.0210 
  7 C       -3.5740    -1.7310     0.0570 C.3   1 <1>   0.0610 
  8 C       -3.9030    -3.1120     0.6390 C.2   1 <1>   0.5690 
  9 C       -3.4950    -0.6530     1.1710 C.3   1 <1>   0.2200 
 10 C       -4.6920    -1.1290    -0.8570 C.3   1 <1>  -0.1600 
 11 O       -3.4020    -3.4430     1.6880 O.2   1 <1>  -0.5700 
 12 N       -4.7040    -3.9720    -0.0470 N.am  1 <1>  -0.7300 
 13 N       -3.7520     0.5520     0.3980 N.am  1 <1>  -0.6600 
 14 C       -4.7580    -0.6340     2.0540 C.3   1 <1>  -0.1600 
 15 C       -5.0380     0.2030    -0.1760 C.3   1 <1>   0.2200 
 16 C       -5.0170    -5.3570     0.3830 C.3   1 <1>   0.1400 
 17 C       -3.1360     1.7710     0.5290 C.2   1 <1>   0.5440 
 18 C       -5.8350    -0.0810     1.1020 C.3   1 <1>  -0.1600 
 19 C       -6.1600    -5.3510     1.4000 C.3   1 <1>   0.0200 
 20 O       -2.2750     1.8910     1.3810 O.2   1 <1>  -0.5700 
 21 C       -3.4920     2.8960    -0.3150 C.ar  1 <1>   0.0860 
 22 C       -6.5880    -6.7590     1.7910 C.2   1 <1>  -0.3320 
 23 C       -3.6930     2.7500    -1.6880 C.ar  1 <1>  -0.1500 
 24 C       -3.6400     4.1740     0.2220 C.ar  1 <1>  -0.1500 
 25 N       -7.5280    -6.9990     2.7260 N.pl3 1 <1>   0.0330 
 26 C       -6.1810    -7.9740     1.3530 C.2   1 <1>   0.0770 
 27 C       -4.0420     3.8240    -2.4870 C.ar  1 <1>  -0.1500 
 28 C       -3.9880     5.2540    -0.5690 C.ar  1 <1>  -0.1500 
 29 C       -7.6320    -8.3430     2.7910 C.2   1 <1>   0.0360 
 30 N       -6.8400    -8.9650     1.9810 N.2   1 <1>  -0.5650 
 31 C       -4.1930     5.0790    -1.9260 C.ar  1 <1>  -0.1500 
 32 H       -1.4400     0.7190    -4.3360 H     1 <1>   0.1500 
 33 H       -0.3550     0.3500     0.0140 H     1 <1>   0.1500 
 34 H       -2.2740    -2.7410    -1.3380 H     1 <1>   0.0800 
 35 H       -1.4800    -2.1840     0.0850 H     1 <1>   0.0800 
 36 H       -2.5690    -0.6350     1.7220 H     1 <1>   0.0800 
 37 H       -5.5740    -1.7360    -0.9280 H     1 <1>   0.0800 
 38 H       -4.3420    -0.9410    -1.8530 H     1 <1>   0.0800 
 39 H       -5.0700    -3.6970    -0.9610 H     1 <1>   0.3700 
 40 H       -5.0160    -1.5940     2.4630 H     1 <1>   0.0800 
 41 H       -4.5980     0.0480     2.8720 H     1 <1>   0.0800 
 42 H       -5.4730     0.9500    -0.8180 H     1 <1>   0.0800 
 43 H       -5.2920    -5.9410    -0.4780 H     1 <1>   0.0800 
 44 H       -4.1420    -5.8000     0.8310 H     1 <1>   0.0800 
 45 H       -6.2460     0.8350     1.4900 H     1 <1>   0.0800 
 46 H       -6.6330    -0.7820     0.9330 H     1 <1>   0.0800 
 47 H       -7.0050    -4.8340     0.9810 H     1 <1>   0.0800 
 48 H       -5.8350    -4.8250     2.2810 H     1 <1>   0.0800 
 49 H       -3.5670     1.7770    -2.1300 H     1 <1>   0.1500 
 50 H       -3.4740     4.3120     1.2770 H     1 <1>   0.1500 
 51 H       -8.0530    -6.3160     3.2790 H     1 <1>   0.2700 
 52 H       -5.4370    -8.2010     0.6080 H     1 <1>   0.1500 
 53 H       -4.1940     3.6850    -3.5430 H     1 <1>   0.1500 
 54 H       -4.0980     6.2310    -0.1290 H     1 <1>   0.1500 
 55 H       -8.3150    -8.8320     3.4620 H     1 <1>   0.1500 
 56 H       -4.4640     5.9180    -2.5440 H     1 <1>   0.1500 
@<TRIPOS>BOND
  1   1   2  1   
  2   1   3  1   
  3   2   4  2   
  4   2  32  1   
  5   3   5  2   
  6   3  33  1   
  7   4   5  1   
  8   5   6  1   
  9   6   7  1   
 10   6  34  1   
 11   6  35  1   
 12   7   8  1   
 13   7   9  1   
 14   7  10  1   
 15   8  11  2   
 16   8  12  am  
 17   9  13  1   
 18   9  14  1   
 19   9  36  1   
 20  10  15  1   
 21  10  37  1   
 22  10  38  1   
 23  12  16  1   
 24  12  39  1   
 25  13  15  1   
 26  13  17  am  
 27  14  18  1   
 28  14  40  1   
 29  14  41  1   
 30  15  18  1   
 31  15  42  1   
 32  16  19  1   
 33  16  43  1   
 34  16  44  1   
 35  17  20  2   
 36  17  21  1   
 37  18  45  1   
 38  18  46  1   
 39  19  22  1   
 40  19  47  1   
 41  19  48  1   
 42  21  23  ar  
 43  21  24  ar  
 44  22  25  1   
 45  22  26  2   
 46  23  27  ar  
 47  23  49  1   
 48  24  28  ar  
 49  24  50  1   
 50  25  29  1   
 51  25  51  1   
 52  26  30  1   
 53  26  52  1   
 54  27  31  ar  
 55  27  53  1   
 56  28  31  ar  
 57  28  54  1   
 58  29  30  2   
 59  29  55  1   
 60  31  56  1   
@<TRIPOS>SUBSTRUCTURE
  1 ****   7 GROUP 4 **** **** 0

# MOE 2024.06 (io_trps.svl 2023.06)
