@<TRIPOS>MOLECULE
NONAME
46 49 1 0 0 
SMALL
USER_CHARGES


@<TRIPOS>ATOM
  1 S        0.0700    -0.0420    -0.5420 S.o2  1 <1>   1.4470 
  2 O       -0.0870     0.8280     0.5960 O.2   1 <1>  -0.6500 
  3 O        1.0740     0.2220    -1.5430 O.2   1 <1>  -0.6500 
  4 N       -1.3380     0.1940    -1.3760 N.am  1 <1>  -0.9780 
  5 C        0.0110    -1.7950    -0.0730 C.ar  1 <1>  -0.0090 
  6 C        0.6120    -2.7740    -0.8560 C.ar  1 <1>  -0.1500 
  7 C       -0.6590    -2.2100     1.0720 C.ar  1 <1>  -0.1500 
  8 C        0.5420    -4.1120    -0.5120 C.ar  1 <1>  -0.1500 
  9 C       -0.7300    -3.5490     1.4170 C.ar  1 <1>  -0.1500 
 10 C       -0.1400    -4.5330     0.6270 C.ar  1 <1>   0.0860 
 11 C       -0.2200    -5.9410     0.9720 C.2   1 <1>   0.5440 
 12 O        0.8050    -6.5910     1.0360 O.2   1 <1>  -0.5700 
 13 N       -1.4280    -6.5660     1.2120 N.am  1 <1>  -0.6600 
 14 C       -1.5010    -7.9330     1.8000 C.3   1 <1>   0.1400 
 15 C       -2.7420    -6.0440     0.7460 C.3   1 <1>   0.1400 
 16 C       -2.0590    -8.9020     0.7570 C.3   1 <1>  -0.1600 
 17 C       -3.3070    -6.9940    -0.3120 C.3   1 <1>  -0.1600 
 18 C       -3.4140    -8.4320     0.2150 C.3   1 <1>   0.4610 
 19 O       -4.3050    -8.4550     1.3170 O.3   1 <1>  -0.5600 
 20 C       -3.9110    -9.3840    -0.8760 C.2   1 <1>  -0.1810 
 21 C       -5.6900    -8.4730     1.0650 C.3   1 <1>   0.1200 
 22 C       -5.1150    -9.9630    -0.7900 C.2   1 <1>  -0.1400 
 23 C       -3.1950    -9.7570    -2.0630 C.2   1 <1>  -0.1500 
 24 C       -6.1050    -9.7550     0.3230 C.3   1 <1>   0.0200 
 25 S       -5.4330   -11.0170    -2.1520 S.3   1 <1>  -0.0800 
 26 C       -3.8680   -10.6220    -2.8470 C.2   1 <1>  -0.1100 
 27 H       -1.0150     0.5040    -2.2900 H     1 <1>   0.4200 
 28 H       -1.7370     1.0140    -0.9250 H     1 <1>   0.4200 
 29 H        1.1440    -2.4840    -1.7480 H     1 <1>   0.1500 
 30 H       -1.1300    -1.4740     1.7020 H     1 <1>   0.1500 
 31 H        1.0230    -4.8530    -1.1280 H     1 <1>   0.1500 
 32 H       -1.2480    -3.8440     2.3130 H     1 <1>   0.1500 
 33 H       -2.1440    -7.9120     2.6630 H     1 <1>   0.0800 
 34 H       -0.5280    -8.2650     2.1210 H     1 <1>   0.0800 
 35 H       -2.6410    -5.0620     0.3200 H     1 <1>   0.0800 
 36 H       -3.4140    -5.9830     1.5850 H     1 <1>   0.0800 
 37 H       -2.1690    -9.8800     1.1860 H     1 <1>   0.0800 
 38 H       -1.3490    -8.9770    -0.0450 H     1 <1>   0.0800 
 39 H       -2.6520    -6.9810    -1.1640 H     1 <1>   0.0800 
 40 H       -4.2660    -6.6490    -0.6460 H     1 <1>   0.0800 
 41 H       -5.9430    -7.6060     0.4820 H     1 <1>   0.0800 
 42 H       -6.1980    -8.4120     2.0110 H     1 <1>   0.0800 
 43 H       -2.2150    -9.3640    -2.2720 H     1 <1>   0.1500 
 44 H       -7.0980    -9.6440    -0.0710 H     1 <1>   0.0800 
 45 H       -6.0870   -10.5960     0.9920 H     1 <1>   0.0800 
 46 H       -3.6140   -11.0860    -3.7830 H     1 <1>   0.1500 
@<TRIPOS>BOND
  1   1   2  2   
  2   1   3  2   
  3   1   4  am  
  4   1   5  1   
  5   4  27  1   
  6   4  28  1   
  7   5   6  ar  
  8   5   7  ar  
  9   6   8  ar  
 10   6  29  1   
 11   7   9  ar  
 12   7  30  1   
 13   8  10  ar  
 14   8  31  1   
 15   9  10  ar  
 16   9  32  1   
 17  10  11  1   
 18  11  12  2   
 19  11  13  am  
 20  13  14  1   
 21  13  15  1   
 22  14  16  1   
 23  14  33  1   
 24  14  34  1   
 25  15  17  1   
 26  15  35  1   
 27  15  36  1   
 28  16  18  1   
 29  16  37  1   
 30  16  38  1   
 31  17  18  1   
 32  17  39  1   
 33  17  40  1   
 34  18  19  1   
 35  18  20  1   
 36  19  21  1   
 37  20  22  2   
 38  20  23  1   
 39  21  24  1   
 40  21  41  1   
 41  21  42  1   
 42  22  24  1   
 43  22  25  1   
 44  23  26  2   
 45  23  43  1   
 46  24  44  1   
 47  24  45  1   
 48  25  26  1   
 49  26  46  1   
@<TRIPOS>SUBSTRUCTURE
  1 ****  15 GROUP 4 **** **** 0

# MOE 2024.06 (io_trps.svl 2023.06)
