@<TRIPOS>MOLECULE
NONAME
46 48 1 0 0 
SMALL
USER_CHARGES


@<TRIPOS>ATOM
  1 O        2.6670    -0.6250    -1.4210 O.2   1 <1>  -0.5700 
  2 C        2.2460    -0.8630    -0.3110 C.2   1 <1>   0.5690 
  3 N        1.9420     0.1280     0.5800 N.am  1 <1>  -0.4940 
  4 C        2.0150    -2.3220     0.1490 C.3   1 <1>   0.2810 
  5 C        2.1720     1.5140     0.4950 C.2   1 <1>  -0.0880 
  6 N        0.5760    -2.7480     0.2270 N.am  1 <1>  -0.6600 
  7 C        2.6810    -3.3910    -0.7350 C.3   1 <1>  -0.1600 
  8 N        1.1980     2.4490     0.5970 N.pl3 1 <1>   0.3140 
  9 C        3.3470     2.1870     0.3340 C.2   1 <1>  -0.0540 
 10 C       -0.3230    -2.2060     1.1000 C.2   1 <1>   0.5690 
 11 C        0.3650    -3.9940    -0.5450 C.3   1 <1>   0.1400 
 12 C        1.7560    -4.6010    -0.6690 C.3   1 <1>  -0.1600 
 13 N        1.6920     3.7010     0.5070 N.2   1 <1>  -0.7070 
 14 C       -0.2380     2.1990     0.7730 C.3   1 <1>   0.0160 
 15 C        4.6880     1.6750     0.2230 C.ar  1 <1>   0.0540 
 16 C        2.9640     3.5330     0.3450 C.2   1 <1>   0.1080 
 17 O       -0.0240    -1.3120     1.8560 O.2   1 <1>  -0.5700 
 18 C       -1.7440    -2.7170     1.1410 C.3   1 <1>  -0.1790 
 19 C        5.1710     1.1640    -0.9770 C.ar  1 <1>  -0.1500 
 20 C        5.5440     1.6860     1.3200 C.ar  1 <1>  -0.1500 
 21 C        3.9190     4.6950     0.1910 C.3   1 <1>  -0.0590 
 22 C        6.4620     0.6800    -1.0820 C.ar  1 <1>  -0.1500 
 23 C        6.8380     1.2050     1.2240 C.ar  1 <1>  -0.1500 
 24 C        7.2990     0.7010     0.0200 C.ar  1 <1>  -0.1500 
 25 H        1.3250    -0.1910     1.3430 H     1 <1>   0.3700 
 26 H        2.4270    -2.4120     1.1390 H     1 <1>   0.0800 
 27 H        2.7330    -3.0520    -1.7550 H     1 <1>   0.0800 
 28 H        3.6780    -3.6140    -0.4000 H     1 <1>   0.0800 
 29 H       -0.3080    -4.6700    -0.0460 H     1 <1>   0.0800 
 30 H       -0.0210    -3.7440    -1.5190 H     1 <1>   0.0800 
 31 H        1.9690    -5.1820     0.2110 H     1 <1>   0.0800 
 32 H        1.8420    -5.2300    -1.5380 H     1 <1>   0.0800 
 33 H       -0.5860     1.5790    -0.0310 H     1 <1>   0.0800 
 34 H       -0.7620     3.1360     0.7640 H     1 <1>   0.0800 
 35 H       -0.3960     1.7030     1.7120 H     1 <1>   0.0800 
 36 H       -2.1430    -2.7800     0.1470 H     1 <1>   0.0800 
 37 H       -2.3550    -2.0450     1.7160 H     1 <1>   0.0800 
 38 H       -1.7670    -3.6850     1.6050 H     1 <1>   0.0800 
 39 H        4.5160     1.1440    -1.8310 H     1 <1>   0.1500 
 40 H        5.1820     2.0760     2.2540 H     1 <1>   0.1500 
 41 H        4.6600     4.4660    -0.5510 H     1 <1>   0.0800 
 42 H        4.4030     4.8890     1.1300 H     1 <1>   0.0800 
 43 H        3.3780     5.5720    -0.1140 H     1 <1>   0.0800 
 44 H        6.8120     0.2860    -2.0200 H     1 <1>   0.1500 
 45 H        7.4840     1.2220     2.0830 H     1 <1>   0.1500 
 46 H        8.3040     0.3240    -0.0590 H     1 <1>   0.1500 
@<TRIPOS>BOND
  1   1   2  2   
  2   2   3  am  
  3   2   4  1   
  4   3   5  1   
  5   3  25  1   
  6   4   6  1   
  7   4   7  1   
  8   4  26  1   
  9   5   8  1   
 10   5   9  2   
 11   6  10  am  
 12   6  11  1   
 13   7  12  1   
 14   7  27  1   
 15   7  28  1   
 16   8  13  1   
 17   8  14  1   
 18   9  15  1   
 19   9  16  1   
 20  10  17  2   
 21  10  18  1   
 22  11  12  1   
 23  11  29  1   
 24  11  30  1   
 25  12  31  1   
 26  12  32  1   
 27  13  16  2   
 28  14  33  1   
 29  14  34  1   
 30  14  35  1   
 31  15  19  ar  
 32  15  20  ar  
 33  16  21  1   
 34  18  36  1   
 35  18  37  1   
 36  18  38  1   
 37  19  22  ar  
 38  19  39  1   
 39  20  23  ar  
 40  20  40  1   
 41  21  41  1   
 42  21  42  1   
 43  21  43  1   
 44  22  24  ar  
 45  22  44  1   
 46  23  24  ar  
 47  23  45  1   
 48  24  46  1   
@<TRIPOS>SUBSTRUCTURE
  1 ****   3 GROUP 4 **** **** 0

# MOE 2024.06 (io_trps.svl 2023.06)
