@<TRIPOS>MOLECULE
NONAME
47 49 1 0 0 
SMALL
USER_CHARGES


@<TRIPOS>ATOM
  1 CL       1.9950    -0.1260    -1.3770 Cl    1 <1>  -0.1770 
  2 C        1.5380    -1.6680    -0.7070 C.ar  1 <1>   0.1770 
  3 C        1.1080    -2.6750    -1.5450 C.ar  1 <1>  -0.1500 
  4 C        1.6160    -1.8630     0.6590 C.ar  1 <1>  -0.1500 
  5 C        0.7460    -3.9050    -1.0190 C.ar  1 <1>   0.0830 
  6 C        1.2400    -3.0850     1.1850 C.ar  1 <1>  -0.1500 
  7 O        0.3670    -4.8360    -1.9250 O.3   1 <1>  -0.3630 
  8 C        0.7810    -4.1240     0.3710 C.ar  1 <1>   0.0860 
  9 C        0.8160    -6.1730    -1.8240 C.3   1 <1>   0.0400 
 10 C        0.3390    -5.3470     1.0030 C.2   1 <1>   0.5440 
 11 O        1.1780    -6.1040     1.4560 O.2   1 <1>  -0.5700 
 12 N       -0.9980    -5.6780     1.1220 N.am  1 <1>  -0.6600 
 13 C       -2.0830    -4.7390     0.7020 C.3   1 <1>   0.2200 
 14 C       -1.3890    -6.9880     1.7340 C.3   1 <1>   0.0600 
 15 C       -2.8340    -5.2200    -0.5340 C.3   1 <1>  -0.1600 
 16 C       -3.1710    -4.5300     1.7530 C.3   1 <1>  -0.1600 
 17 C       -4.1500    -4.4320    -0.5140 C.3   1 <1>  -0.0800 
 18 C       -4.3720    -4.0020     0.9560 C.3   1 <1>  -0.0800 
 19 C       -5.3190    -5.2060    -1.1520 C.3   1 <1>   0.1400 
 20 C       -5.7270    -4.4490     1.5340 C.3   1 <1>  -0.0990 
 21 N       -6.6120    -4.5880    -0.7640 N.am  1 <1>  -0.6600 
 22 C       -6.8380    -4.2120     0.5320 C.2   1 <1>   0.5690 
 23 C       -7.6360    -4.4430    -1.8320 C.3   1 <1>   0.0600 
 24 O       -7.8700    -3.7140     0.9100 O.2   1 <1>  -0.5700 
 25 H        1.0610    -2.5080    -2.6050 H     1 <1>   0.1500 
 26 H        1.9660    -1.0680     1.2930 H     1 <1>   0.1500 
 27 H        1.2960    -3.2490     2.2490 H     1 <1>   0.1500 
 28 H        0.8450    -6.5930    -2.8130 H     1 <1>   0.0800 
 29 H        0.1270    -6.7310    -1.2160 H     1 <1>   0.0800 
 30 H        1.8020    -6.1890    -1.3910 H     1 <1>   0.0800 
 31 H       -1.6720    -3.7700     0.4780 H     1 <1>   0.0800 
 32 H       -2.3110    -7.3480     1.3170 H     1 <1>   0.0800 
 33 H       -1.5030    -6.8660     2.7960 H     1 <1>   0.0800 
 34 H       -0.6270    -7.7270     1.5550 H     1 <1>   0.0800 
 35 H       -2.2750    -5.0270    -1.4320 H     1 <1>   0.0800 
 36 H       -3.0340    -6.2730    -0.4590 H     1 <1>   0.0800 
 37 H       -3.4360    -5.4600     2.2200 H     1 <1>   0.0800 
 38 H       -2.8580    -3.8290     2.5050 H     1 <1>   0.0800 
 39 H       -4.0050    -3.5350    -1.0940 H     1 <1>   0.0800 
 40 H       -4.3470    -2.9240     0.9790 H     1 <1>   0.0800 
 41 H       -5.3200    -6.2280    -0.8110 H     1 <1>   0.0800 
 42 H       -5.2120    -5.2060    -2.2230 H     1 <1>   0.0800 
 43 H       -5.9380    -3.9100     2.4400 H     1 <1>   0.0800 
 44 H       -5.7150    -5.4990     1.7620 H     1 <1>   0.0800 
 45 H       -7.2630    -3.7990    -2.6090 H     1 <1>   0.0800 
 46 H       -8.5390    -4.0130    -1.4330 H     1 <1>   0.0800 
 47 H       -7.8690    -5.4080    -2.2470 H     1 <1>   0.0800 
@<TRIPOS>BOND
  1   1   2  1   
  2   2   3  ar  
  3   2   4  ar  
  4   3   5  ar  
  5   3  25  1   
  6   4   6  ar  
  7   4  26  1   
  8   5   7  1   
  9   5   8  ar  
 10   6   8  ar  
 11   6  27  1   
 12   7   9  1   
 13   8  10  1   
 14   9  28  1   
 15   9  29  1   
 16   9  30  1   
 17  10  11  2   
 18  10  12  am  
 19  12  13  1   
 20  12  14  1   
 21  13  15  1   
 22  13  16  1   
 23  13  31  1   
 24  14  32  1   
 25  14  33  1   
 26  14  34  1   
 27  15  17  1   
 28  15  35  1   
 29  15  36  1   
 30  16  18  1   
 31  16  37  1   
 32  16  38  1   
 33  17  18  1   
 34  17  19  1   
 35  17  39  1   
 36  18  20  1   
 37  18  40  1   
 38  19  21  1   
 39  19  41  1   
 40  19  42  1   
 41  20  22  1   
 42  20  43  1   
 43  20  44  1   
 44  21  22  am  
 45  21  23  1   
 46  22  24  2   
 47  23  45  1   
 48  23  46  1   
 49  23  47  1   
@<TRIPOS>SUBSTRUCTURE
  1 ****  13 GROUP 4 **** **** 0

# MOE 2024.06 (io_trps.svl 2023.06)
