@<TRIPOS>MOLECULE
NONAME
51 52 1 0 0 
SMALL
USER_CHARGES


@<TRIPOS>ATOM
  1 S        0.6350     1.4400    -1.4200 S.o2  1 <1>   1.3330 
  2 O        0.9060     0.1080    -1.9080 O.2   1 <1>  -0.6500 
  3 O        0.0520     2.4080    -2.3210 O.2   1 <1>  -0.6500 
  4 N        2.1130     2.0690    -0.8780 N.am  1 <1>  -0.8490 
  5 C       -0.4410     1.2920     0.0220 C.3   1 <1>  -0.0550 
  6 C        2.9280     2.5870    -1.9800 C.3   1 <1>   0.1160 
  7 C        2.9110     1.1270    -0.0850 C.3   1 <1>   0.1160 
  8 C       -0.7910     2.5320     0.8880 C.3   1 <1>  -0.0800 
  9 C       -1.1610     3.7990     0.1080 C.3   1 <1>   0.2000 
 10 C        0.3500     2.9770     1.8080 C.3   1 <1>   0.1400 
 11 O       -2.0560     4.5170     0.8860 O.3   1 <1>  -0.6800 
 12 C        0.1350     4.6090     0.0110 C.3   1 <1>   0.1400 
 13 N        0.9720     4.1460     1.1520 N.am  1 <1>  -0.6600 
 14 C        2.2990     4.4300     1.3360 C.2   1 <1>   0.5690 
 15 O        2.9500     3.8720     2.1880 O.2   1 <1>  -0.5700 
 16 C        2.9950     5.4600     0.4690 C.3   1 <1>  -0.0990 
 17 C        2.7480     6.8840     0.9760 C.3   1 <1>  -0.0170 
 18 C        3.3230     7.9020    -0.0030 C.ar  1 <1>  -0.1440 
 19 C        4.6840     8.2010    -0.0170 C.ar  1 <1>   0.0820 
 20 C        2.4740     8.5340    -0.8980 C.ar  1 <1>  -0.1500 
 21 O        5.4840     7.5560     0.8730 O.3   1 <1>  -0.3620 
 22 C        5.1740     9.1320    -0.9300 C.ar  1 <1>  -0.1500 
 23 C        2.9670     9.4580    -1.8020 C.ar  1 <1>  -0.1500 
 24 C        6.8660     7.8200     0.9620 C.3   1 <1>   0.0400 
 25 C        4.3170     9.7570    -1.8180 C.ar  1 <1>  -0.1500 
 26 H       -1.3730     0.8980    -0.3360 H     1 <1>   0.0800 
 27 H       -0.0340     0.5410     0.6700 H     1 <1>   0.0800 
 28 H        3.8410     3.0120    -1.6000 H     1 <1>   0.0800 
 29 H        2.3900     3.3580    -2.5060 H     1 <1>   0.0800 
 30 H        3.1650     1.7970    -2.6730 H     1 <1>   0.0800 
 31 H        3.7790     1.6270     0.3130 H     1 <1>   0.0800 
 32 H        3.2290     0.2960    -0.6930 H     1 <1>   0.0800 
 33 H        2.3360     0.7510     0.7420 H     1 <1>   0.0800 
 34 H       -1.6220     2.2330     1.5030 H     1 <1>   0.0800 
 35 H       -1.6240     3.6140    -0.8470 H     1 <1>   0.0800 
 36 H        1.0710     2.1940     1.9700 H     1 <1>   0.0800 
 37 H       -0.0400     3.2890     2.7620 H     1 <1>   0.0800 
 38 H       -1.5950     4.8430     1.6850 H     1 <1>   0.4000 
 39 H       -0.0560     5.6660     0.0640 H     1 <1>   0.0800 
 40 H        0.6370     4.3880    -0.9130 H     1 <1>   0.0800 
 41 H        4.0510     5.2600     0.4830 H     1 <1>   0.0800 
 42 H        2.6670     5.3670    -0.5480 H     1 <1>   0.0800 
 43 H        3.2030     7.0060     1.9440 H     1 <1>   0.0800 
 44 H        1.6930     7.0510     1.0960 H     1 <1>   0.0800 
 45 H        1.4220     8.3110    -0.8980 H     1 <1>   0.1500 
 46 H        6.2160     9.3830    -0.9660 H     1 <1>   0.1500 
 47 H        2.3000     9.9450    -2.4930 H     1 <1>   0.1500 
 48 H        7.2730     7.2040     1.7430 H     1 <1>   0.0800 
 49 H        7.0080     8.8580     1.2040 H     1 <1>   0.0800 
 50 H        7.3290     7.5740     0.0230 H     1 <1>   0.0800 
 51 H        4.6990    10.4760    -2.5210 H     1 <1>   0.1500 
@<TRIPOS>BOND
  1   1   2  2   
  2   1   3  2   
  3   1   4  am  
  4   1   5  1   
  5   4   6  1   
  6   4   7  1   
  7   5   8  1   
  8   5  26  1   
  9   5  27  1   
 10   6  28  1   
 11   6  29  1   
 12   6  30  1   
 13   7  31  1   
 14   7  32  1   
 15   7  33  1   
 16   8   9  1   
 17   8  10  1   
 18   8  34  1   
 19   9  11  1   
 20   9  12  1   
 21   9  35  1   
 22  10  13  1   
 23  10  36  1   
 24  10  37  1   
 25  11  38  1   
 26  12  13  1   
 27  12  39  1   
 28  12  40  1   
 29  13  14  am  
 30  14  15  2   
 31  14  16  1   
 32  16  17  1   
 33  16  41  1   
 34  16  42  1   
 35  17  18  1   
 36  17  43  1   
 37  17  44  1   
 38  18  19  ar  
 39  18  20  ar  
 40  19  21  1   
 41  19  22  ar  
 42  20  23  ar  
 43  20  45  1   
 44  21  24  1   
 45  22  25  ar  
 46  22  46  1   
 47  23  25  ar  
 48  23  47  1   
 49  24  48  1   
 50  24  49  1   
 51  24  50  1   
 52  25  51  1   
@<TRIPOS>SUBSTRUCTURE
  1 ****  16 GROUP 4 **** **** 0

# MOE 2024.06 (io_trps.svl 2023.06)
