@<TRIPOS>MOLECULE
NONAME
50 52 1 0 0 
SMALL
USER_CHARGES


@<TRIPOS>ATOM
  1 O       -0.6910     0.0010    -0.0440 O.3   1 <1>  -0.0190 
  2 N       -1.1160    -1.1970     0.2190 N.2   1 <1>  -0.4100 
  3 C        0.5470    -0.1800    -0.4320 C.2   1 <1>   0.2980 
  4 C       -0.1540    -2.0010    -0.0260 C.2   1 <1>   0.3350 
  5 N        0.9470    -1.3870    -0.4450 N.2   1 <1>  -0.5650 
  6 C        1.3790     1.0240    -0.8340 C.3   1 <1>   0.0200 
  7 C       -0.2220    -3.5210     0.1540 C.3   1 <1>   0.2910 
  8 C        2.0980     1.6870     0.3580 C.3   1 <1>  -0.0800 
  9 N       -0.4190    -4.2900    -1.1080 N.3   1 <1>  -0.8100 
 10 C        1.1150     2.2570     1.3910 C.3   1 <1>  -0.2400 
 11 C        3.0250     2.8050    -0.1370 C.3   1 <1>  -0.2400 
 12 C       -1.7000    -3.9560    -1.7540 C.3   1 <1>   0.1100 
 13 C       -0.4660    -5.7400    -0.8360 C.3   1 <1>   0.1100 
 14 C       -2.7290    -4.9680    -1.2450 C.3   1 <1>   0.2000 
 15 C       -1.8850    -6.2360    -1.1560 C.3   1 <1>  -0.0800 
 16 O       -3.1950    -4.6330     0.0370 O.3   1 <1>  -0.5600 
 17 C       -2.4050    -7.2970    -0.1700 C.3   1 <1>   0.0200 
 18 C       -4.1000    -3.5740     0.0890 C.3   1 <1>   0.0400 
 19 C       -1.5240    -8.5320    -0.1750 C.2   1 <1>  -0.0400 
 20 O       -1.3820    -9.2330    -1.2680 O.3   1 <1>  -0.0190 
 21 C       -0.7900    -9.1110     0.7850 C.2   1 <1>  -0.1500 
 22 N       -0.5890   -10.2500    -1.0910 N.2   1 <1>  -0.4100 
 23 C       -0.2180   -10.2030     0.1380 C.2   1 <1>   0.1080 
 24 C        0.7150   -11.2030     0.7830 C.3   1 <1>  -0.0590 
 25 H        2.1140     0.6900    -1.5440 H     1 <1>   0.0800 
 26 H        0.7460     1.7380    -1.3290 H     1 <1>   0.0800 
 27 H       -1.0150    -3.7450     0.8440 H     1 <1>   0.0800 
 28 H        0.7020    -3.8330     0.6050 H     1 <1>   0.0800 
 29 H        2.7040     0.9380     0.8430 H     1 <1>   0.0800 
 30 H        0.4510     2.9690     0.9330 H     1 <1>   0.0800 
 31 H        1.6500     2.7480     2.1840 H     1 <1>   0.0800 
 32 H        0.5270     1.4710     1.8310 H     1 <1>   0.0800 
 33 H        2.4610     3.5790    -0.6260 H     1 <1>   0.0800 
 34 H        3.7480     2.4140    -0.8320 H     1 <1>   0.0800 
 35 H        3.5580     3.2410     0.6900 H     1 <1>   0.0800 
 36 H       -2.0000    -2.9360    -1.6010 H     1 <1>   0.0800 
 37 H       -1.5770    -4.1020    -2.8140 H     1 <1>   0.0800 
 38 H        0.2500    -6.2480    -1.4600 H     1 <1>   0.0800 
 39 H       -0.2190    -5.9430     0.1930 H     1 <1>   0.0800 
 40 H       -3.5690    -5.0830    -1.9080 H     1 <1>   0.0800 
 41 H       -1.8520    -6.6730    -2.1390 H     1 <1>   0.0800 
 42 H       -3.4060    -7.5790    -0.4400 H     1 <1>   0.0800 
 43 H       -2.4310    -6.8940     0.8270 H     1 <1>   0.0800 
 44 H       -4.4540    -3.4900     1.1010 H     1 <1>   0.0800 
 45 H       -4.9280    -3.7760    -0.5690 H     1 <1>   0.0800 
 46 H       -3.6050    -2.6600    -0.1900 H     1 <1>   0.0800 
 47 H       -0.6530    -8.8300     1.8120 H     1 <1>   0.1500 
 48 H        0.2270   -11.6720     1.6170 H     1 <1>   0.0800 
 49 H        1.6040   -10.7060     1.1240 H     1 <1>   0.0800 
 50 H        0.9900   -11.9600     0.0700 H     1 <1>   0.0800 
@<TRIPOS>BOND
  1   1   2  1   
  2   1   3  1   
  3   2   4  2   
  4   3   5  2   
  5   3   6  1   
  6   4   5  1   
  7   4   7  1   
  8   6   8  1   
  9   6  25  1   
 10   6  26  1   
 11   7   9  1   
 12   7  27  1   
 13   7  28  1   
 14   8  10  1   
 15   8  11  1   
 16   8  29  1   
 17   9  12  1   
 18   9  13  1   
 19  10  30  1   
 20  10  31  1   
 21  10  32  1   
 22  11  33  1   
 23  11  34  1   
 24  11  35  1   
 25  12  14  1   
 26  12  36  1   
 27  12  37  1   
 28  13  15  1   
 29  13  38  1   
 30  13  39  1   
 31  14  15  1   
 32  14  16  1   
 33  14  40  1   
 34  15  17  1   
 35  15  41  1   
 36  16  18  1   
 37  17  19  1   
 38  17  42  1   
 39  17  43  1   
 40  18  44  1   
 41  18  45  1   
 42  18  46  1   
 43  19  20  1   
 44  19  21  2   
 45  20  22  1   
 46  21  23  1   
 47  21  47  1   
 48  22  23  2   
 49  23  24  1   
 50  24  48  1   
 51  24  49  1   
 52  24  50  1   
@<TRIPOS>SUBSTRUCTURE
  1 ****   7 GROUP 4 **** **** 0

# MOE 2024.06 (io_trps.svl 2023.06)
