@<TRIPOS>MOLECULE
NONAME
52 55 1 0 0 
SMALL
USER_CHARGES


@<TRIPOS>ATOM
  1 O        0.2510    -0.9830    -0.9460 O.3   1 <1>  -0.6800 
  2 C       -0.1240    -1.9720    -0.0620 C.3   1 <1>   0.2000 
  3 C        1.0950    -2.8470     0.2300 C.3   1 <1>  -0.1600 
  4 C       -1.2550    -2.7750    -0.7030 C.3   1 <1>  -0.1600 
  5 C        0.6890    -4.0430     1.0920 C.3   1 <1>   0.2090 
  6 C       -1.6220    -3.9850     0.1560 C.3   1 <1>   0.2090 
  7 N       -0.3940    -4.8020     0.4050 N.pl3 1 <1>  -0.8380 
  8 C       -0.3250    -6.1200     0.0800 C.ar  1 <1>   0.4100 
  9 N       -1.4440    -6.8200     0.1010 N.ar  1 <1>  -0.6200 
 10 C        0.9010    -6.7160    -0.2740 C.ar  1 <1>  -0.1500 
 11 C       -1.3860    -8.1100    -0.1900 C.ar  1 <1>   0.7710 
 12 C        0.9330    -8.0350    -0.5750 C.ar  1 <1>   0.2110 
 13 N       -0.2340    -8.7190    -0.5210 N.ar  1 <1>  -0.1790 
 14 N       -2.5230    -8.8440    -0.1560 N.pl3 1 <1>  -0.8380 
 15 C       -3.8540    -8.2360     0.1520 C.3   1 <1>   0.2090 
 16 C       -2.6880   -10.3050    -0.3880 C.3   1 <1>   0.2090 
 17 C       -4.8680    -9.3750     0.0180 C.3   1 <1>   0.2000 
 18 C       -4.0610   -10.6600     0.1780 C.3   1 <1>  -0.0800 
 19 O       -5.8560    -9.3100     0.9880 O.3   1 <1>  -0.6800 
 20 C       -4.7130   -11.8720    -0.5100 C.3   1 <1>  -0.0170 
 21 C       -3.8960   -13.1440    -0.3280 C.ar  1 <1>   0.1670 
 22 N       -2.7680   -13.2350    -1.0230 N.ar  1 <1>  -0.6200 
 23 C       -4.3600   -14.1310     0.5290 C.ar  1 <1>  -0.1500 
 24 C       -2.0940   -14.3660    -0.8700 C.ar  1 <1>   0.1600 
 25 C       -3.6390   -15.2950     0.6870 C.ar  1 <1>  -0.1500 
 26 C       -2.4750   -15.4060    -0.0410 C.ar  1 <1>  -0.1500 
 27 H        0.9610    -0.4330    -0.5670 H     1 <1>   0.4000 
 28 H       -0.4740    -1.4990     0.8410 H     1 <1>   0.0800 
 29 H        1.5160    -3.2100    -0.6910 H     1 <1>   0.0800 
 30 H        1.8400    -2.2750     0.7520 H     1 <1>   0.0800 
 31 H       -2.1200    -2.1480    -0.8210 H     1 <1>   0.0800 
 32 H       -0.9510    -3.1220    -1.6750 H     1 <1>   0.0800 
 33 H        0.3190    -3.6950     2.0430 H     1 <1>   0.0800 
 34 H        1.5420    -4.6680     1.2880 H     1 <1>   0.0800 
 35 H       -2.3730    -4.5620    -0.3540 H     1 <1>   0.0800 
 36 H       -2.0310    -3.6620     1.0990 H     1 <1>   0.0800 
 37 H        1.7860    -6.1100    -0.3170 H     1 <1>   0.1500 
 38 H        1.8370    -8.5520    -0.8570 H     1 <1>   0.1500 
 39 H       -0.3100    -9.7060    -0.7390 H     1 <1>   0.4570 
 40 H       -3.8460    -7.8450     1.1560 H     1 <1>   0.0800 
 41 H       -4.0790    -7.4450    -0.5430 H     1 <1>   0.0800 
 42 H       -2.6660   -10.5040    -1.4480 H     1 <1>   0.0800 
 43 H       -1.9230   -10.8820     0.1060 H     1 <1>   0.0800 
 44 H       -5.3420    -9.3270    -0.9480 H     1 <1>   0.0800 
 45 H       -3.9320   -10.8750     1.2250 H     1 <1>   0.0800 
 46 H       -5.4740    -9.3620     1.8860 H     1 <1>   0.4000 
 47 H       -4.8260   -11.6830    -1.5630 H     1 <1>   0.0800 
 48 H       -5.6990   -12.0150    -0.1050 H     1 <1>   0.0800 
 49 H       -5.2800   -13.9980     1.0690 H     1 <1>   0.1500 
 50 H       -1.1850   -14.4740    -1.4370 H     1 <1>   0.1500 
 51 H       -3.9710   -16.0810     1.3430 H     1 <1>   0.1500 
 52 H       -1.8710   -16.2930     0.0290 H     1 <1>   0.1500 
@<TRIPOS>BOND
  1   1   2  1   
  2   1  27  1   
  3   2   3  1   
  4   2   4  1   
  5   2  28  1   
  6   3   5  1   
  7   3  29  1   
  8   3  30  1   
  9   4   6  1   
 10   4  31  1   
 11   4  32  1   
 12   5   7  1   
 13   5  33  1   
 14   5  34  1   
 15   6   7  1   
 16   6  35  1   
 17   6  36  1   
 18   7   8  1   
 19   8   9  ar  
 20   8  10  ar  
 21   9  11  ar  
 22  10  12  ar  
 23  10  37  1   
 24  11  13  ar  
 25  11  14  1   
 26  12  13  ar  
 27  12  38  1   
 28  13  39  1   
 29  14  15  1   
 30  14  16  1   
 31  15  17  1   
 32  15  40  1   
 33  15  41  1   
 34  16  18  1   
 35  16  42  1   
 36  16  43  1   
 37  17  18  1   
 38  17  19  1   
 39  17  44  1   
 40  18  20  1   
 41  18  45  1   
 42  19  46  1   
 43  20  21  1   
 44  20  47  1   
 45  20  48  1   
 46  21  22  ar  
 47  21  23  ar  
 48  22  24  ar  
 49  23  25  ar  
 50  23  49  1   
 51  24  26  ar  
 52  24  50  1   
 53  25  26  ar  
 54  25  51  1   
 55  26  52  1   
@<TRIPOS>SUBSTRUCTURE
  1 ****  11 GROUP 4 **** **** 0

# MOE 2024.06 (io_trps.svl 2023.06)
