@<TRIPOS>MOLECULE
NONAME
51 54 1 0 0 
SMALL
USER_CHARGES


@<TRIPOS>ATOM
  1 O       -1.3800    -1.0880    -0.1270 O.3   1 <1>  -0.6800 
  2 C       -1.8410    -1.6530     1.0680 C.3   1 <1>   0.1200 
  3 C       -2.7010    -0.6320     1.8450 C.3   1 <1>   0.3430 
  4 N       -3.2810     0.3980     0.9230 N.4   1 <1>  -0.9590 
  5 C       -3.3140     1.7490     1.5660 C.3   1 <1>   0.3430 
  6 C       -4.6090     0.0330     0.3300 C.3   1 <1>   0.3430 
  7 C       -2.7710     2.8590     0.6390 C.3   1 <1>   0.0000 
  8 C       -4.4850    -0.9180    -0.8660 C.3   1 <1>   0.0960 
  9 C       -2.8630     4.2030     1.4020 C.3   1 <1>  -0.1600 
 10 C       -3.5840     2.9920    -0.6750 C.3   1 <1>  -0.1600 
 11 C       -1.2840     2.6070     0.2790 C.3   1 <1>  -0.1600 
 12 N       -5.7950    -1.0090    -1.5260 N.pl3 1 <1>   0.0480 
 13 C       -2.3160     5.3600     0.5480 C.3   1 <1>  -0.0800 
 14 C       -3.0370     4.1430    -1.5380 C.3   1 <1>  -0.0800 
 15 C       -0.7320     3.7570    -0.5830 C.3   1 <1>  -0.0800 
 16 C       -6.8010    -1.8500    -1.2770 C.2   1 <1>   0.0360 
 17 C       -6.2980    -0.2240    -2.4800 C.2   1 <1>   0.0360 
 18 C       -3.1360     5.4610    -0.7500 C.3   1 <1>  -0.1600 
 19 C       -0.8440     5.0780     0.1990 C.3   1 <1>  -0.1600 
 20 C       -1.5610     3.8650    -1.8770 C.3   1 <1>  -0.1600 
 21 N       -7.8280    -1.5900    -2.0050 N.2   1 <1>  -0.3380 
 22 N       -7.5070    -0.5500    -2.7750 N.2   1 <1>  -0.3380 
 23 H       -0.6860    -1.6550    -0.5360 H     1 <1>   0.4000 
 24 H       -0.9920    -1.9480     1.6620 H     1 <1>   0.0800 
 25 H       -2.4140    -2.5320     0.8290 H     1 <1>   0.0800 
 26 H       -2.0540    -0.1450     2.5560 H     1 <1>   0.0800 
 27 H       -3.4730    -1.1350     2.4040 H     1 <1>   0.0800 
 28 H       -2.5730     0.4470     0.1630 H     1 <1>   0.4500 
 29 H       -2.7060     1.7400     2.4550 H     1 <1>   0.0800 
 30 H       -4.3210     1.9920     1.8630 H     1 <1>   0.0800 
 31 H       -5.0920     0.9330    -0.0170 H     1 <1>   0.0800 
 32 H       -5.2390    -0.4090     1.0850 H     1 <1>   0.0800 
 33 H       -4.1890    -1.9010    -0.5490 H     1 <1>   0.0800 
 34 H       -3.7710    -0.5400    -1.5760 H     1 <1>   0.0800 
 35 H       -2.2990     4.1510     2.3180 H     1 <1>   0.0800 
 36 H       -3.8860     4.4150     1.6620 H     1 <1>   0.0800 
 37 H       -4.6200     3.1820    -0.4530 H     1 <1>   0.0800 
 38 H       -3.5250     2.0880    -1.2530 H     1 <1>   0.0800 
 39 H       -1.1690     1.6900    -0.2690 H     1 <1>   0.0800 
 40 H       -0.6940     2.5280     1.1760 H     1 <1>   0.0800 
 41 H       -2.3870     6.2860     1.0950 H     1 <1>   0.0800 
 42 H       -3.6080     4.2250    -2.4480 H     1 <1>   0.0800 
 43 H        0.3000     3.5700    -0.8290 H     1 <1>   0.0800 
 44 H       -6.7570    -2.6440    -0.5530 H     1 <1>   0.1500 
 45 H       -5.7590     0.5840    -2.9420 H     1 <1>   0.1500 
 46 H       -2.7630     6.2730    -1.3510 H     1 <1>   0.0800 
 47 H       -4.1650     5.6770    -0.5190 H     1 <1>   0.0800 
 48 H       -0.2570     5.0230     1.0990 H     1 <1>   0.0800 
 49 H       -0.4500     5.8860    -0.3940 H     1 <1>   0.0800 
 50 H       -1.1740     4.6630    -2.4880 H     1 <1>   0.0800 
 51 H       -1.4770     2.9550    -2.4450 H     1 <1>   0.0800 
@<TRIPOS>BOND
  1   1   2  1   
  2   1  23  1   
  3   2   3  1   
  4   2  24  1   
  5   2  25  1   
  6   3   4  1   
  7   3  26  1   
  8   3  27  1   
  9   4   5  1   
 10   4   6  1   
 11   4  28  1   
 12   5   7  1   
 13   5  29  1   
 14   5  30  1   
 15   6   8  1   
 16   6  31  1   
 17   6  32  1   
 18   7   9  1   
 19   7  10  1   
 20   7  11  1   
 21   8  12  1   
 22   8  33  1   
 23   8  34  1   
 24   9  13  1   
 25   9  35  1   
 26   9  36  1   
 27  10  14  1   
 28  10  37  1   
 29  10  38  1   
 30  11  15  1   
 31  11  39  1   
 32  11  40  1   
 33  12  16  1   
 34  12  17  1   
 35  13  18  1   
 36  13  19  1   
 37  13  41  1   
 38  14  18  1   
 39  14  20  1   
 40  14  42  1   
 41  15  19  1   
 42  15  20  1   
 43  15  43  1   
 44  16  21  2   
 45  16  44  1   
 46  17  22  2   
 47  17  45  1   
 48  18  46  1   
 49  18  47  1   
 50  19  48  1   
 51  19  49  1   
 52  20  50  1   
 53  20  51  1   
 54  21  22  1   
@<TRIPOS>SUBSTRUCTURE
  1 ****  10 GROUP 4 **** **** 0

# MOE 2024.06 (io_trps.svl 2023.06)
