@<TRIPOS>MOLECULE
NONAME
33 33 1 0 0 
SMALL
USER_CHARGES


@<TRIPOS>ATOM
  1 O        7.8520     2.4670    -1.1790 O.2   1 <1>  -0.5700 
  2 C        8.0880     1.3740    -0.7260 C.2   1 <1>   0.6590 
  3 O        7.1610     0.6660    -0.0850 O.3   1 <1>  -0.4300 
  4 C        9.4900     0.7400    -0.8210 C.3   1 <1>   0.2510 
  5 C        5.8430     1.1410     0.0580 C.3   1 <1>   0.1200 
  6 N        9.5030    -0.6700    -1.2730 N.3   1 <1>  -0.9900 
  7 C       10.2030     0.8470     0.5360 C.3   1 <1>  -0.0170 
  8 C        5.0480     0.1010     0.8410 C.3   1 <1>  -0.2400 
  9 C       11.6060     0.2550     0.5030 C.ar  1 <1>  -0.1430 
 10 C       11.8630    -0.9780     1.0860 C.ar  1 <1>  -0.1500 
 11 C       12.6410     0.9420    -0.1130 C.ar  1 <1>  -0.1500 
 12 C       13.1370    -1.5150     1.0490 C.ar  1 <1>  -0.1500 
 13 C       13.9170     0.4060    -0.1510 C.ar  1 <1>  -0.1500 
 14 C       14.1720    -0.8310     0.4320 C.ar  1 <1>   0.0830 
 15 O       15.3900    -1.4280     0.4410 O.3   1 <1>  -0.3620 
 16 C       16.5130    -0.8110    -0.1480 C.3   1 <1>   0.0400 
 17 H       10.0490     1.3170    -1.5370 H     1 <1>   0.0800 
 18 H        5.4260     1.2880    -0.9250 H     1 <1>   0.0800 
 19 H        5.8730     2.0820     0.5820 H     1 <1>   0.0800 
 20 H        8.8890    -1.2160    -0.6570 H     1 <1>   0.3600 
 21 H       10.4590    -1.0280    -1.1390 H     1 <1>   0.3600 
 22 H        9.6120     0.3580     1.2900 H     1 <1>   0.0800 
 23 H       10.2700     1.8850     0.8120 H     1 <1>   0.0800 
 24 H        5.0360    -0.8330     0.3090 H     1 <1>   0.0800 
 25 H        4.0340     0.4380     0.9630 H     1 <1>   0.0800 
 26 H        5.4810    -0.0420     1.8140 H     1 <1>   0.0800 
 27 H       11.0750    -1.5260     1.5710 H     1 <1>   0.1500 
 28 H       12.4590     1.9000    -0.5680 H     1 <1>   0.1500 
 29 H       13.3390    -2.4700     1.4990 H     1 <1>   0.1500 
 30 H       14.6950     0.9630    -0.6370 H     1 <1>   0.1500 
 31 H       17.3580    -1.4620    -0.0160 H     1 <1>   0.0800 
 32 H       16.6950     0.1270     0.3450 H     1 <1>   0.0800 
 33 H       16.3230    -0.6670    -1.1970 H     1 <1>   0.0800 
@<TRIPOS>BOND
  1   1   2  2   
  2   2   3  1   
  3   2   4  1   
  4   3   5  1   
  5   4   6  1   
  6   4   7  1   
  7   4  17  1   
  8   5   8  1   
  9   5  18  1   
 10   5  19  1   
 11   6  20  1   
 12   6  21  1   
 13   7   9  1   
 14   7  22  1   
 15   7  23  1   
 16   8  24  1   
 17   8  25  1   
 18   8  26  1   
 19   9  10  ar  
 20   9  11  ar  
 21  10  12  ar  
 22  10  27  1   
 23  11  13  ar  
 24  11  28  1   
 25  12  14  ar  
 26  12  29  1   
 27  13  14  ar  
 28  13  30  1   
 29  14  15  1   
 30  15  16  1   
 31  16  31  1   
 32  16  32  1   
 33  16  33  1   
@<TRIPOS>SUBSTRUCTURE
  1 ****   9 GROUP 4 **** **** 0

# MOE 2024.06 (io_trps.svl 2023.06)
