@<TRIPOS>MOLECULE
NONAME
53 55 1 0 0 
SMALL
USER_CHARGES


@<TRIPOS>ATOM
  1 CL       2.1090     1.8110    -1.1530 Cl    1 <1>  -0.1770 
  2 C        1.6180     3.3040    -0.3880 C.ar  1 <1>   0.1770 
  3 C        2.2250     3.7590     0.7800 C.ar  1 <1>  -0.1440 
  4 C        0.5900     4.0070    -0.9880 C.ar  1 <1>  -0.1500 
  5 C        1.7490     4.9370     1.3450 C.ar  1 <1>  -0.1500 
  6 C        3.3750     3.0310     1.4730 C.3   1 <1>   0.3640 
  7 C        0.1370     5.1830    -0.4180 C.ar  1 <1>  -0.1500 
  8 C        0.7160     5.6430     0.7520 C.ar  1 <1>  -0.1500 
  9 N        2.9000     1.7320     1.9960 N.am  1 <1>  -0.7300 
 10 C        4.6580     2.8570     0.6200 C.3   1 <1>   0.2610 
 11 C        3.6870     0.6340     2.0610 C.2   1 <1>   0.5690 
 12 O        5.5790     2.0280     1.3140 O.3   1 <1>  -0.5600 
 13 C        5.2880     4.2160     0.3040 C.2   1 <1>   0.5690 
 14 O        3.2750    -0.3900     2.5430 O.2   1 <1>  -0.5700 
 15 C        5.1150     0.7020     1.5010 C.3   1 <1>   0.1810 
 16 O        4.8230     4.8870    -0.5850 O.2   1 <1>  -0.5700 
 17 N        6.3640     4.6300     1.0330 N.am  1 <1>  -0.7300 
 18 C        7.3190     5.7790     0.8760 C.3   1 <1>   0.1400 
 19 C        7.0880     6.7600    -0.3020 C.3   1 <1>   0.3430 
 20 N        5.7450     7.4170    -0.3080 N.4   1 <1>  -0.9590 
 21 C        5.5220     8.1930    -1.5500 C.3   1 <1>   0.3430 
 22 C        5.4330     8.2280     0.8960 C.3   1 <1>   0.3430 
 23 C        4.1560     7.8570    -2.1500 C.3   1 <1>  -0.1600 
 24 C        3.9270     8.2530     1.1640 C.3   1 <1>  -0.1600 
 25 C        2.9760     7.7600    -1.1660 C.3   1 <1>  -0.1600 
 26 C        3.0380     8.7480     0.0080 C.3   1 <1>  -0.1600 
 27 H        0.1450     3.6310    -1.8920 H     1 <1>   0.1500 
 28 H        2.1730     5.3170     2.2590 H     1 <1>   0.1500 
 29 H        3.6600     3.6190     2.3280 H     1 <1>   0.0800 
 30 H       -0.6660     5.7330    -0.8790 H     1 <1>   0.1500 
 31 H        0.3550     6.5530     1.2020 H     1 <1>   0.1500 
 32 H        1.9380     1.6690     2.3360 H     1 <1>   0.3700 
 33 H        4.4370     2.3810    -0.3150 H     1 <1>   0.0800 
 34 H        5.1470     0.1940     0.5540 H     1 <1>   0.0800 
 35 H        5.7870     0.2100     2.1800 H     1 <1>   0.0800 
 36 H        6.6950     3.9150     1.6980 H     1 <1>   0.3700 
 37 H        7.3400     6.3340     1.7970 H     1 <1>   0.0800 
 38 H        8.3040     5.3620     0.7510 H     1 <1>   0.0800 
 39 H        7.2090     6.2050    -1.2190 H     1 <1>   0.0800 
 40 H        7.8540     7.5170    -0.2780 H     1 <1>   0.0800 
 41 H        5.0690     6.6250    -0.3480 H     1 <1>   0.4500 
 42 H        5.5690     9.2480    -1.3320 H     1 <1>   0.0800 
 43 H        6.2850     7.9670    -2.2770 H     1 <1>   0.0800 
 44 H        5.9200     7.8070     1.7590 H     1 <1>   0.0800 
 45 H        5.7990     9.2330     0.7650 H     1 <1>   0.0800 
 46 H        3.9320     8.6170    -2.8790 H     1 <1>   0.0800 
 47 H        4.2310     6.9280    -2.6890 H     1 <1>   0.0800 
 48 H        3.6110     7.2690     1.4640 H     1 <1>   0.0800 
 49 H        3.7630     8.8990     2.0100 H     1 <1>   0.0800 
 50 H        2.0690     7.9370    -1.7200 H     1 <1>   0.0800 
 51 H        2.9050     6.7550    -0.7860 H     1 <1>   0.0800 
 52 H        2.0380     8.8580     0.3930 H     1 <1>   0.0800 
 53 H        3.3500     9.7220    -0.3290 H     1 <1>   0.0800 
@<TRIPOS>BOND
  1   1   2  1   
  2   2   3  ar  
  3   2   4  ar  
  4   3   5  ar  
  5   3   6  1   
  6   4   7  ar  
  7   4  27  1   
  8   5   8  ar  
  9   5  28  1   
 10   6   9  1   
 11   6  10  1   
 12   6  29  1   
 13   7   8  ar  
 14   7  30  1   
 15   8  31  1   
 16   9  11  am  
 17   9  32  1   
 18  10  12  1   
 19  10  13  1   
 20  10  33  1   
 21  11  14  2   
 22  11  15  1   
 23  12  15  1   
 24  13  16  2   
 25  13  17  am  
 26  15  34  1   
 27  15  35  1   
 28  17  18  1   
 29  17  36  1   
 30  18  19  1   
 31  18  37  1   
 32  18  38  1   
 33  19  20  1   
 34  19  39  1   
 35  19  40  1   
 36  20  21  1   
 37  20  22  1   
 38  20  41  1   
 39  21  23  1   
 40  21  42  1   
 41  21  43  1   
 42  22  24  1   
 43  22  44  1   
 44  22  45  1   
 45  23  25  1   
 46  23  46  1   
 47  23  47  1   
 48  24  26  1   
 49  24  48  1   
 50  24  49  1   
 51  25  26  1   
 52  25  50  1   
 53  25  51  1   
 54  26  52  1   
 55  26  53  1   
@<TRIPOS>SUBSTRUCTURE
  1 ****  16 GROUP 4 **** **** 0

# MOE 2024.06 (io_trps.svl 2023.06)
