@<TRIPOS>MOLECULE
NONAME
57 60 1 0 0 
SMALL
USER_CHARGES


@<TRIPOS>ATOM
  1 O       -0.3580     0.1810    -1.0710 O.2   1 <1>  -0.5700 
  2 C       -1.3260     0.8590    -0.7700 C.2   1 <1>   0.7150 
  3 N       -2.5080     0.2060    -0.4880 N.am  1 <1>  -0.6600 
  4 C       -1.1640     2.3000    -0.7290 C.2   1 <1>   0.0550 
  5 C       -3.8200     0.8390    -0.2050 C.3   1 <1>   0.1400 
  6 C       -2.6410    -1.2710    -0.5310 C.3   1 <1>   0.1400 
  7 O       -2.0700     3.1310    -0.2240 O.3   1 <1>  -0.2800 
  8 C       -0.1120     3.0460    -1.1570 C.2   1 <1>  -0.1500 
  9 C       -4.8160    -0.3180    -0.1360 C.3   1 <1>   0.2000 
 10 C       -3.9820    -1.5670     0.1430 C.3   1 <1>  -0.0800 
 11 C       -1.6410     4.3690    -0.3100 C.2   1 <1>  -0.0400 
 12 C       -0.4100     4.3830    -0.8790 C.2   1 <1>  -0.1810 
 13 O       -5.7440    -0.1340     0.8770 O.3   1 <1>  -0.6800 
 14 C       -4.6650    -2.8550    -0.3460 C.3   1 <1>  -0.0170 
 15 C       -2.5900     5.4320     0.2310 C.3   1 <1>   0.0200 
 16 C        0.5310     5.5260    -1.1850 C.3   1 <1>   0.5240 
 17 C       -3.8360    -4.0880    -0.0260 C.ar  1 <1>   0.1660 
 18 C       -2.1140     6.8780     0.0610 C.3   1 <1>  -0.2400 
 19 N        1.4050     5.7190     0.0000 N.4   1 <1>  -0.9590 
 20 N       -2.8800    -4.3980    -0.8860 N.ar  1 <1>  -0.6200 
 21 C       -4.1000    -4.8240     1.1290 C.ar  1 <1>   0.1600 
 22 C        2.2270     6.9480    -0.0480 C.3   1 <1>   0.3430 
 23 C        2.3430     4.5970     0.2420 C.3   1 <1>   0.3430 
 24 C       -2.2100    -5.4780    -0.5180 C.ar  1 <1>   0.1600 
 25 N       -3.4320    -5.9030     1.4990 N.ar  1 <1>  -0.6200 
 26 C        3.3210     6.7050     0.9830 C.3   1 <1>  -0.1600 
 27 C        3.4020     5.1860     1.1640 C.3   1 <1>  -0.1600 
 28 C       -2.4770    -6.2060     0.6350 C.ar  1 <1>   0.1600 
 29 H       -3.7680     1.3590     0.7360 H     1 <1>   0.0800 
 30 H       -4.0850     1.5220    -0.9940 H     1 <1>   0.0800 
 31 H       -2.6470    -1.5940    -1.5590 H     1 <1>   0.0800 
 32 H       -1.8250    -1.7500    -0.0160 H     1 <1>   0.0800 
 33 H        0.7790     2.6610    -1.6250 H     1 <1>   0.1500 
 34 H       -5.3450    -0.4000    -1.0710 H     1 <1>   0.0800 
 35 H       -3.7940    -1.6420     1.2000 H     1 <1>   0.0800 
 36 H       -5.2960    -0.0510     1.7400 H     1 <1>   0.4000 
 37 H       -4.8240    -2.8070    -1.4100 H     1 <1>   0.0800 
 38 H       -5.6310    -2.9420     0.1200 H     1 <1>   0.0800 
 39 H       -3.5360     5.3210    -0.2700 H     1 <1>   0.0800 
 40 H       -2.7590     5.2370     1.2760 H     1 <1>   0.0800 
 41 H       -0.0350     6.4210    -1.3760 H     1 <1>   0.0800 
 42 H        1.1190     5.3000    -2.0590 H     1 <1>   0.0800 
 43 H       -1.9930     7.1140    -0.9810 H     1 <1>   0.0800 
 44 H       -1.1950     7.0450     0.5900 H     1 <1>   0.0800 
 45 H       -2.8560     7.5450     0.4660 H     1 <1>   0.0800 
 46 H        0.7870     5.7660     0.8200 H     1 <1>   0.4500 
 47 H       -4.8980    -4.5040     1.7750 H     1 <1>   0.1500 
 48 H        2.6720     7.0550    -1.0240 H     1 <1>   0.0800 
 49 H        1.6480     7.8290     0.1830 H     1 <1>   0.0800 
 50 H        1.8450     3.7500     0.6910 H     1 <1>   0.0800 
 51 H        2.8010     4.2920    -0.6850 H     1 <1>   0.0800 
 52 H       -1.4110    -5.8030    -1.1610 H     1 <1>   0.1500 
 53 H        4.2560     7.1180     0.6440 H     1 <1>   0.0800 
 54 H        3.0580     7.1800     1.9130 H     1 <1>   0.0800 
 55 H        3.1870     4.9160     2.1840 H     1 <1>   0.0800 
 56 H        4.3750     4.8020     0.9090 H     1 <1>   0.0800 
 57 H       -1.8770    -7.0720     0.8500 H     1 <1>   0.1500 
@<TRIPOS>BOND
  1   1   2  2   
  2   2   3  am  
  3   2   4  1   
  4   3   5  1   
  5   3   6  1   
  6   4   7  1   
  7   4   8  2   
  8   5   9  1   
  9   5  29  1   
 10   5  30  1   
 11   6  10  1   
 12   6  31  1   
 13   6  32  1   
 14   7  11  1   
 15   8  12  1   
 16   8  33  1   
 17   9  10  1   
 18   9  13  1   
 19   9  34  1   
 20  10  14  1   
 21  10  35  1   
 22  11  12  2   
 23  11  15  1   
 24  12  16  1   
 25  13  36  1   
 26  14  17  1   
 27  14  37  1   
 28  14  38  1   
 29  15  18  1   
 30  15  39  1   
 31  15  40  1   
 32  16  19  1   
 33  16  41  1   
 34  16  42  1   
 35  17  20  ar  
 36  17  21  ar  
 37  18  43  1   
 38  18  44  1   
 39  18  45  1   
 40  19  22  1   
 41  19  23  1   
 42  19  46  1   
 43  20  24  ar  
 44  21  25  ar  
 45  21  47  1   
 46  22  26  1   
 47  22  48  1   
 48  22  49  1   
 49  23  27  1   
 50  23  50  1   
 51  23  51  1   
 52  24  28  ar  
 53  24  52  1   
 54  25  28  ar  
 55  26  27  1   
 56  26  53  1   
 57  26  54  1   
 58  27  55  1   
 59  27  56  1   
 60  28  57  1   
@<TRIPOS>SUBSTRUCTURE
  1 ****   2 GROUP 4 **** **** 0

# MOE 2024.06 (io_trps.svl 2023.06)
