@<TRIPOS>MOLECULE
NONAME
51 53 1 0 0 
SMALL
USER_CHARGES


@<TRIPOS>ATOM
  1 O       -0.1360    -3.5130     1.4690 O.co2 1 <1>  -0.9000 
  2 C        0.9530    -4.0440     1.1940 C.2   1 <1>   1.0330 
  3 O        1.3290    -4.9850     1.9130 O.co2 1 <1>  -0.9000 
  4 C        1.5640    -3.8160    -0.0680 C.2   1 <1>  -0.2330 
  5 C        1.7160    -4.8610    -0.9680 C.2   1 <1>   0.3720 
  6 C        2.0070    -2.7300    -0.7540 C.2   1 <1>   0.0870 
  7 N        2.1650    -4.4570    -2.0970 N.2   1 <1>  -0.4100 
  8 N        1.3490    -6.1690    -0.6770 N.pl3 1 <1>  -0.8520 
  9 O        2.3520    -3.1690    -1.9470 O.3   1 <1>  -0.0190 
 10 C        2.1360    -1.3260    -0.4350 C.ar  1 <1>   0.0530 
 11 C        0.0250    -6.5560    -1.2410 C.3   1 <1>   0.2090 
 12 C        2.7820    -0.4470    -1.3090 C.ar  1 <1>  -0.1500 
 13 C        1.6310    -0.7780     0.7470 C.ar  1 <1>  -0.1500 
 14 C       -1.1540    -5.6770    -0.7240 C.3   1 <1>   0.4230 
 15 C        2.9150     0.8980    -1.0220 C.ar  1 <1>  -0.1500 
 16 C        1.7580     0.5660     1.0430 C.ar  1 <1>  -0.1500 
 17 N       -1.8700    -6.2030     0.4950 N.4   1 <1>  -0.9590 
 18 C       -2.1990    -5.4710    -1.8310 C.3   1 <1>  -0.1600 
 19 C        2.4050     1.4200     0.1550 C.ar  1 <1>   0.0830 
 20 C       -2.7860    -5.1390     0.9960 C.3   1 <1>   0.3430 
 21 C       -0.9650    -6.5790     1.6140 C.3   1 <1>   0.3430 
 22 C       -3.2880    -4.4800    -1.3960 C.3   1 <1>  -0.1600 
 23 O        2.5720     2.7470     0.3660 O.3   1 <1>  -0.3630 
 24 C       -3.8820    -4.8840    -0.0410 C.3   1 <1>  -0.1600 
 25 C       -1.6410    -7.6530     2.4570 C.3   1 <1>  -0.2400 
 26 C        2.0790     3.3720     1.5290 C.3   1 <1>   0.0400 
 27 H        1.3830    -6.2440     0.3580 H     1 <1>   0.4000 
 28 H       -0.1670    -7.5940    -1.0410 H     1 <1>   0.0800 
 29 H        0.1000    -6.4460    -2.3100 H     1 <1>   0.0800 
 30 H        3.1910    -0.8230    -2.2300 H     1 <1>   0.1500 
 31 H        1.1230    -1.4070     1.4530 H     1 <1>   0.1500 
 32 H       -0.7550    -4.7040    -0.4930 H     1 <1>   0.0800 
 33 H        3.4160     1.5560    -1.7090 H     1 <1>   0.1500 
 34 H        1.3480     0.9270     1.9660 H     1 <1>   0.1500 
 35 H       -2.4190    -7.0210     0.2280 H     1 <1>   0.4500 
 36 H       -2.6390    -6.4150    -2.1000 H     1 <1>   0.0800 
 37 H       -1.7120    -5.0750    -2.7060 H     1 <1>   0.0800 
 38 H       -2.2280    -4.2310     1.1700 H     1 <1>   0.0800 
 39 H       -3.2330    -5.4390     1.9290 H     1 <1>   0.0800 
 40 H       -0.7490    -5.7130     2.2230 H     1 <1>   0.0800 
 41 H       -0.0300    -6.9610     1.2420 H     1 <1>   0.0800 
 42 H       -4.0640    -4.4280    -2.1410 H     1 <1>   0.0800 
 43 H       -2.8510    -3.4980    -1.3070 H     1 <1>   0.0800 
 44 H       -4.5210    -4.0950     0.3160 H     1 <1>   0.0800 
 45 H       -4.4860    -5.7680    -0.1480 H     1 <1>   0.0800 
 46 H       -2.5530    -7.2890     2.8920 H     1 <1>   0.0800 
 47 H       -0.9780    -7.9240     3.2590 H     1 <1>   0.0800 
 48 H       -1.8340    -8.5330     1.8710 H     1 <1>   0.0800 
 49 H        2.3220     4.4180     1.4750 H     1 <1>   0.0800 
 50 H        2.5500     2.9300     2.3890 H     1 <1>   0.0800 
 51 H        1.0110     3.2460     1.5660 H     1 <1>   0.0800 
@<TRIPOS>BOND
  1   1   2  ar  
  2   2   3  ar  
  3   2   4  1   
  4   4   5  1   
  5   4   6  2   
  6   5   7  2   
  7   5   8  1   
  8   6   9  1   
  9   6  10  1   
 10   7   9  1   
 11   8  11  1   
 12   8  27  1   
 13  10  12  ar  
 14  10  13  ar  
 15  11  14  1   
 16  11  28  1   
 17  11  29  1   
 18  12  15  ar  
 19  12  30  1   
 20  13  16  ar  
 21  13  31  1   
 22  14  17  1   
 23  14  18  1   
 24  14  32  1   
 25  15  19  ar  
 26  15  33  1   
 27  16  19  ar  
 28  16  34  1   
 29  17  20  1   
 30  17  21  1   
 31  17  35  1   
 32  18  22  1   
 33  18  36  1   
 34  18  37  1   
 35  19  23  1   
 36  20  24  1   
 37  20  38  1   
 38  20  39  1   
 39  21  25  1   
 40  21  40  1   
 41  21  41  1   
 42  22  24  1   
 43  22  42  1   
 44  22  43  1   
 45  23  26  1   
 46  24  44  1   
 47  24  45  1   
 48  25  46  1   
 49  25  47  1   
 50  25  48  1   
 51  26  49  1   
 52  26  50  1   
 53  26  51  1   
@<TRIPOS>SUBSTRUCTURE
  1 ****   4 GROUP 4 **** **** 0

# MOE 2024.06 (io_trps.svl 2023.06)
