@<TRIPOS>MOLECULE
NONAME
48 49 1 0 0 
SMALL
USER_CHARGES


@<TRIPOS>ATOM
  1 O       -0.3100     0.1780    -0.0770 O.2   1 <1>  -0.5700 
  2 C       -1.3740     0.7500    -0.0670 C.2   1 <1>   0.5690 
  3 N       -2.5510     0.0550    -0.0630 N.am  1 <1>  -0.6600 
  4 C       -1.4110     2.2750    -0.0690 C.3   1 <1>  -0.0990 
  5 C       -3.9200     0.6250    -0.1240 C.3   1 <1>   0.1400 
  6 C       -2.5980    -1.4260    -0.0420 C.3   1 <1>   0.1400 
  7 C       -0.0360     2.9450     0.1160 C.3   1 <1>  -0.1600 
  8 C       -4.8300    -0.5770    -0.3700 C.3   1 <1>   0.2000 
  9 C       -4.0690    -1.7790     0.1830 C.3   1 <1>  -0.0800 
 10 C       -0.1550     4.4780     0.1170 C.3   1 <1>  -0.1600 
 11 O       -6.0470    -0.4370     0.2770 O.3   1 <1>  -0.6800 
 12 C       -4.4880    -3.1110    -0.4570 C.3   1 <1>   0.0210 
 13 C        1.1750     5.1920     0.4210 C.3   1 <1>  -0.0800 
 14 C       -3.6350    -4.2520     0.0610 C.2   1 <1>   0.1080 
 15 C        0.9330     6.6990     0.5610 C.3   1 <1>  -0.2400 
 16 C        2.2290     4.9450    -0.6680 C.3   1 <1>  -0.2400 
 17 N       -3.6180    -4.6050     1.3090 N.2   1 <1>  -0.7070 
 18 C       -2.7810    -5.0270    -0.7160 C.2   1 <1>  -0.1500 
 19 N       -2.7440    -5.6270     1.3610 N.pl3 1 <1>   0.3000 
 20 C       -2.2220    -5.9010     0.1460 C.2   1 <1>  -0.3320 
 21 C       -1.2050    -6.9950    -0.1180 C.3   1 <1>  -0.0600 
 22 H       -1.8330     2.5960    -1.0030 H     1 <1>   0.0800 
 23 H       -2.0600     2.5950     0.7250 H     1 <1>   0.0800 
 24 H       -4.1500     1.0910     0.8180 H     1 <1>   0.0800 
 25 H       -4.0020     1.3360    -0.9280 H     1 <1>   0.0800 
 26 H       -2.2480    -1.8000    -0.9890 H     1 <1>   0.0800 
 27 H       -1.9750    -1.8200     0.7450 H     1 <1>   0.0800 
 28 H        0.3940     2.6140     1.0460 H     1 <1>   0.0800 
 29 H        0.6120     2.6240    -0.6810 H     1 <1>   0.0800 
 30 H       -5.0160    -0.6800    -1.4260 H     1 <1>   0.0800 
 31 H       -4.2160    -1.8410     1.2480 H     1 <1>   0.0800 
 32 H       -0.8740     4.7640     0.8650 H     1 <1>   0.0800 
 33 H       -0.5290     4.8080    -0.8370 H     1 <1>   0.0800 
 34 H       -5.9300    -0.5440     1.2410 H     1 <1>   0.4000 
 35 H       -4.3960    -3.0540    -1.5260 H     1 <1>   0.0800 
 36 H       -5.5160    -3.3150    -0.2190 H     1 <1>   0.0800 
 37 H        1.5590     4.8250     1.3590 H     1 <1>   0.0800 
 38 H        0.5500     7.1080    -0.3580 H     1 <1>   0.0800 
 39 H        1.8510     7.2030     0.8050 H     1 <1>   0.0800 
 40 H        0.2240     6.8930     1.3460 H     1 <1>   0.0800 
 41 H        1.8550     5.2410    -1.6320 H     1 <1>   0.0800 
 42 H        2.5020     3.9060    -0.7070 H     1 <1>   0.0800 
 43 H        3.1200     5.5090    -0.4580 H     1 <1>   0.0800 
 44 H       -2.6190    -4.9280    -1.7750 H     1 <1>   0.1500 
 45 H       -2.5240    -6.1140     2.2380 H     1 <1>   0.2700 
 46 H       -0.9450    -7.0140    -1.1620 H     1 <1>   0.0800 
 47 H       -1.6110    -7.9540     0.1510 H     1 <1>   0.0800 
 48 H       -0.3110    -6.8180     0.4530 H     1 <1>   0.0800 
@<TRIPOS>BOND
  1   1   2  2   
  2   2   3  am  
  3   2   4  1   
  4   3   5  1   
  5   3   6  1   
  6   4   7  1   
  7   4  22  1   
  8   4  23  1   
  9   5   8  1   
 10   5  24  1   
 11   5  25  1   
 12   6   9  1   
 13   6  26  1   
 14   6  27  1   
 15   7  10  1   
 16   7  28  1   
 17   7  29  1   
 18   8   9  1   
 19   8  11  1   
 20   8  30  1   
 21   9  12  1   
 22   9  31  1   
 23  10  13  1   
 24  10  32  1   
 25  10  33  1   
 26  11  34  1   
 27  12  14  1   
 28  12  35  1   
 29  12  36  1   
 30  13  15  1   
 31  13  16  1   
 32  13  37  1   
 33  14  17  2   
 34  14  18  1   
 35  15  38  1   
 36  15  39  1   
 37  15  40  1   
 38  16  41  1   
 39  16  42  1   
 40  16  43  1   
 41  17  19  1   
 42  18  20  2   
 43  18  44  1   
 44  19  20  1   
 45  19  45  1   
 46  20  21  1   
 47  21  46  1   
 48  21  47  1   
 49  21  48  1   
@<TRIPOS>SUBSTRUCTURE
  1 ****   3 GROUP 4 **** **** 0

# MOE 2024.06 (io_trps.svl 2023.06)
