@<TRIPOS>MOLECULE
NONAME
51 53 1 0 0 
SMALL
USER_CHARGES


@<TRIPOS>ATOM
  1 O        0.5960    -2.0600     1.8390 O.3   1 <1>  -0.5600 
  2 C        0.5020    -1.5010     0.5570 C.3   1 <1>   0.2000 
  3 C       -0.4910    -1.7990     2.6730 C.3   1 <1>   0.0400 
  4 C        1.9170    -1.4250    -0.0490 C.3   1 <1>   0.0000 
  5 C       -0.2670    -2.4680    -0.3530 C.3   1 <1>  -0.1600 
  6 C        2.9620    -0.9780     0.9950 C.3   1 <1>   0.2090 
  7 C        1.9490    -0.4190    -1.2310 C.3   1 <1>  -0.1600 
  8 C        2.1440    -2.8680    -0.5410 C.3   1 <1>  -0.1600 
  9 C        0.7800    -3.3660    -1.0260 C.3   1 <1>  -0.1600 
 10 N        4.3220    -0.9330     0.3700 N.pl3 1 <1>  -0.8380 
 11 C        3.3720    -0.1910    -1.7820 C.3   1 <1>  -0.1600 
 12 C        5.3510    -1.7850     0.6190 C.ar  1 <1>   0.7710 
 13 C        4.3940     0.1270    -0.6840 C.3   1 <1>   0.2090 
 14 N        6.5330    -1.5720     0.0650 N.ar  1 <1>  -0.6200 
 15 N        5.1330    -2.8390     1.4210 N.ar  1 <1>  -0.1790 
 16 C        7.5120    -2.4230     0.3070 C.ar  1 <1>   0.4100 
 17 C        6.1140    -3.7180     1.7270 C.ar  1 <1>   0.2110 
 18 N        8.6900    -2.1790    -0.3240 N.pl3 1 <1>  -0.8380 
 19 C        7.3400    -3.5280     1.1810 C.ar  1 <1>  -0.1440 
 20 C        9.3400    -3.1700    -1.2260 C.3   1 <1>   0.1290 
 21 C        9.2090    -0.7900    -0.4790 C.3   1 <1>   0.1290 
 22 C        8.4940    -4.4620     1.5400 C.3   1 <1>  -0.0970 
 23 H        0.0380    -0.5310     0.6240 H     1 <1>   0.0800 
 24 H       -0.3190    -2.2900     3.6150 H     1 <1>   0.0800 
 25 H       -1.3930    -2.1830     2.2290 H     1 <1>   0.0800 
 26 H       -0.5740    -0.7370     2.8300 H     1 <1>   0.0800 
 27 H       -0.9950    -3.0460     0.1860 H     1 <1>   0.0800 
 28 H       -0.7780    -1.9020    -1.1120 H     1 <1>   0.0800 
 29 H        2.9450    -1.6260     1.8510 H     1 <1>   0.0800 
 30 H        2.7050     0.0070     1.3480 H     1 <1>   0.0800 
 31 H        1.3110    -0.7500    -2.0310 H     1 <1>   0.0800 
 32 H        1.5690     0.5290    -0.8900 H     1 <1>   0.0800 
 33 H        2.8920    -2.9460    -1.3100 H     1 <1>   0.0800 
 34 H        2.4390    -3.4860     0.2880 H     1 <1>   0.0800 
 35 H        0.6340    -4.3990    -0.7580 H     1 <1>   0.0800 
 36 H        0.7080    -3.2730    -2.0960 H     1 <1>   0.0800 
 37 H        3.3540     0.6220    -2.4860 H     1 <1>   0.0800 
 38 H        3.7060    -1.0610    -2.3190 H     1 <1>   0.0800 
 39 H        4.1690     1.0820    -0.2410 H     1 <1>   0.0800 
 40 H        5.3760     0.1960    -1.1220 H     1 <1>   0.0800 
 41 H        4.1830    -2.9270     1.7640 H     1 <1>   0.4570 
 42 H        5.8910    -4.5320     2.3970 H     1 <1>   0.1500 
 43 H        9.4850    -2.7380    -2.2010 H     1 <1>   0.0800 
 44 H        8.7220    -4.0430    -1.3340 H     1 <1>   0.0800 
 45 H       10.2960    -3.4570    -0.8240 H     1 <1>   0.0800 
 46 H       10.2750    -0.7780    -0.3360 H     1 <1>   0.0800 
 47 H        8.7580    -0.1390     0.2500 H     1 <1>   0.0800 
 48 H        8.9770    -0.4210    -1.4630 H     1 <1>   0.0800 
 49 H        8.2680    -5.0460     2.4140 H     1 <1>   0.0800 
 50 H        9.3820    -3.8880     1.7450 H     1 <1>   0.0800 
 51 H        8.7000    -5.1360     0.7280 H     1 <1>   0.0800 
@<TRIPOS>BOND
  1   1   2  1   
  2   1   3  1   
  3   2   4  1   
  4   2   5  1   
  5   2  23  1   
  6   3  24  1   
  7   3  25  1   
  8   3  26  1   
  9   4   6  1   
 10   4   7  1   
 11   4   8  1   
 12   5   9  1   
 13   5  27  1   
 14   5  28  1   
 15   6  10  1   
 16   6  29  1   
 17   6  30  1   
 18   7  11  1   
 19   7  31  1   
 20   7  32  1   
 21   8   9  1   
 22   8  33  1   
 23   8  34  1   
 24   9  35  1   
 25   9  36  1   
 26  10  12  1   
 27  10  13  1   
 28  11  13  1   
 29  11  37  1   
 30  11  38  1   
 31  12  14  ar  
 32  12  15  ar  
 33  13  39  1   
 34  13  40  1   
 35  14  16  ar  
 36  15  17  ar  
 37  15  41  1   
 38  16  18  1   
 39  16  19  ar  
 40  17  19  ar  
 41  17  42  1   
 42  18  20  1   
 43  18  21  1   
 44  19  22  1   
 45  20  43  1   
 46  20  44  1   
 47  20  45  1   
 48  21  46  1   
 49  21  47  1   
 50  21  48  1   
 51  22  49  1   
 52  22  50  1   
 53  22  51  1   
@<TRIPOS>SUBSTRUCTURE
  1 ****  12 GROUP 4 **** **** 0

# MOE 2024.06 (io_trps.svl 2023.06)
