@<TRIPOS>MOLECULE
NONAME
43 45 1 0 0 
SMALL
USER_CHARGES


@<TRIPOS>ATOM
  1 O       -2.1310     0.6100     2.9630 O.2   1 <1>  -0.5700 
  2 C       -2.2490     1.1230     1.8750 C.2   1 <1>   0.5690 
  3 N       -2.6120     0.3820     0.7830 N.am  1 <1>  -0.6600 
  4 C       -1.9880     2.6190     1.7580 C.3   1 <1>   0.0440 
  5 C       -2.6470     0.8450    -0.6290 C.3   1 <1>   0.1400 
  6 C       -2.8410    -1.0820     0.8500 C.3   1 <1>   0.1400 
  7 C       -0.8150     2.9500     0.8400 C.ar  1 <1>  -0.1440 
  8 C       -3.3300    -0.2920    -1.3840 C.3   1 <1>   0.2000 
  9 C       -2.9050    -1.5460    -0.6110 C.3   1 <1>  -0.0800 
 10 C        0.4190     2.3530     1.0500 C.ar  1 <1>  -0.1500 
 11 C       -0.9710     3.8410    -0.2140 C.ar  1 <1>  -0.1500 
 12 O       -4.7020    -0.1200    -1.2710 O.3   1 <1>  -0.6800 
 13 C       -3.7980    -2.7810    -0.8380 C.3   1 <1>   0.0200 
 14 C        1.4780     2.6400     0.2040 C.ar  1 <1>   0.0830 
 15 C        0.0920     4.1240    -1.0570 C.ar  1 <1>  -0.1500 
 16 C       -3.2670    -4.0360    -0.1670 C.2   1 <1>  -0.0400 
 17 O        2.6730     2.0650     0.4030 O.3   1 <1>  -0.5320 
 18 C        1.3190     3.5210    -0.8490 C.ar  1 <1>  -0.1500 
 19 O       -4.0110    -5.1100    -0.1730 O.3   1 <1>  -0.0190 
 20 C       -2.1270    -4.3350     0.4790 C.2   1 <1>  -0.1500 
 21 N       -3.4360    -6.1070     0.4350 N.2   1 <1>  -0.4100 
 22 C       -2.2980    -5.6690     0.8390 C.2   1 <1>   0.1080 
 23 C       -1.2900    -6.4990     1.6010 C.3   1 <1>  -0.0590 
 24 H       -2.8860     3.0920     1.4080 H     1 <1>   0.0800 
 25 H       -1.7790     3.0100     2.7370 H     1 <1>   0.0800 
 26 H       -3.1800     1.7740    -0.7390 H     1 <1>   0.0800 
 27 H       -1.6370     0.9640    -0.9840 H     1 <1>   0.0800 
 28 H       -2.0440    -1.5650     1.3890 H     1 <1>   0.0800 
 29 H       -3.7730    -1.2680     1.3560 H     1 <1>   0.0800 
 30 H       -3.0730    -0.3220    -2.4290 H     1 <1>   0.0800 
 31 H       -1.9030    -1.7890    -0.9210 H     1 <1>   0.0800 
 32 H        0.5520     1.6660     1.8660 H     1 <1>   0.1500 
 33 H       -1.9180     4.3220    -0.3870 H     1 <1>   0.1500 
 34 H       -4.9230     0.0470    -0.3330 H     1 <1>   0.4000 
 35 H       -3.8830    -2.9700    -1.8930 H     1 <1>   0.0800 
 36 H       -4.7890    -2.5910    -0.4630 H     1 <1>   0.0800 
 37 H       -0.0350     4.8160    -1.8720 H     1 <1>   0.1500 
 38 H        2.6990     1.5050     1.1990 H     1 <1>   0.4500 
 39 H        2.1530     3.7310    -1.4940 H     1 <1>   0.1500 
 40 H       -1.2650    -3.7320     0.6900 H     1 <1>   0.1500 
 41 H       -1.0850    -6.0420     2.5520 H     1 <1>   0.0800 
 42 H       -0.3790    -6.5740     1.0380 H     1 <1>   0.0800 
 43 H       -1.6800    -7.4870     1.7670 H     1 <1>   0.0800 
@<TRIPOS>BOND
  1   1   2  2   
  2   2   3  am  
  3   2   4  1   
  4   3   5  1   
  5   3   6  1   
  6   4   7  1   
  7   4  24  1   
  8   4  25  1   
  9   5   8  1   
 10   5  26  1   
 11   5  27  1   
 12   6   9  1   
 13   6  28  1   
 14   6  29  1   
 15   7  10  ar  
 16   7  11  ar  
 17   8   9  1   
 18   8  12  1   
 19   8  30  1   
 20   9  13  1   
 21   9  31  1   
 22  10  14  ar  
 23  10  32  1   
 24  11  15  ar  
 25  11  33  1   
 26  12  34  1   
 27  13  16  1   
 28  13  35  1   
 29  13  36  1   
 30  14  17  1   
 31  14  18  ar  
 32  15  18  ar  
 33  15  37  1   
 34  16  19  1   
 35  16  20  2   
 36  17  38  1   
 37  18  39  1   
 38  19  21  1   
 39  20  22  1   
 40  20  40  1   
 41  21  22  2   
 42  22  23  1   
 43  23  41  1   
 44  23  42  1   
 45  23  43  1   
@<TRIPOS>SUBSTRUCTURE
  1 ****   3 GROUP 4 **** **** 0

# MOE 2024.06 (io_trps.svl 2023.06)
