@<TRIPOS>MOLECULE
NONAME
53 55 1 0 0 
SMALL
USER_CHARGES


@<TRIPOS>ATOM
  1 O        3.4130    -1.0820     2.0730 O.2   1 <1>  -0.5700 
  2 C        2.2620    -1.1230     1.7080 C.2   1 <1>   0.5690 
  3 N        1.5670    -0.0070     1.3720 N.am  1 <1>  -0.7300 
  4 C        1.5520    -2.4770     1.6050 C.3   1 <1>   0.1710 
  5 C        2.0810     1.3800     1.3910 C.3   1 <1>   0.1400 
  6 N        0.4770    -2.5320     0.5710 N.3   1 <1>  -0.8100 
  7 C        2.4520     1.8140    -0.0260 C.3   1 <1>  -0.0170 
  8 C        1.0120    -2.4530    -0.7950 C.3   1 <1>   0.1100 
  9 C       -0.2640    -3.8010     0.6180 C.3   1 <1>   0.1100 
 10 C        2.9290     3.2580    -0.0270 C.ar  1 <1>  -0.1430 
 11 C       -0.1280    -2.9690    -1.6630 C.3   1 <1>   0.2000 
 12 C       -0.7290    -4.0970    -0.8210 C.3   1 <1>  -0.0800 
 13 C        4.2390     3.5560     0.3160 C.ar  1 <1>  -0.1500 
 14 C        2.0640     4.2870    -0.3650 C.ar  1 <1>  -0.1500 
 15 O       -1.0720    -1.9650    -1.7520 O.3   1 <1>  -0.6800 
 16 C       -0.2550    -5.4760    -1.3170 C.3   1 <1>  -0.0170 
 17 C        4.6770     4.8680     0.3210 C.ar  1 <1>  -0.1500 
 18 C        2.4990     5.6010    -0.3610 C.ar  1 <1>  -0.1500 
 19 C       -0.8300    -6.6060    -0.4780 C.ar  1 <1>   0.1670 
 20 C        3.8150     5.8990    -0.0160 C.ar  1 <1>   0.0830 
 21 N       -0.0430    -7.1130     0.4580 N.ar  1 <1>  -0.6200 
 22 C       -2.1300    -7.0500    -0.7140 C.ar  1 <1>   0.1600 
 23 O        4.3230     7.1570     0.0130 O.3   1 <1>  -0.3630 
 24 C       -0.6350    -8.0850     1.1320 C.ar  1 <1>   0.1600 
 25 N       -2.7250    -8.0180    -0.0380 N.ar  1 <1>  -0.6200 
 26 C        3.5310     8.2740    -0.3220 C.3   1 <1>   0.0400 
 27 C       -1.9320    -8.5220     0.8920 C.ar  1 <1>   0.1600 
 28 H        0.6220    -0.1610     1.0070 H     1 <1>   0.3700 
 29 H        1.1210    -2.6840     2.5680 H     1 <1>   0.0800 
 30 H        2.2910    -3.2340     1.4080 H     1 <1>   0.0800 
 31 H        1.3280     2.0350     1.7940 H     1 <1>   0.0800 
 32 H        2.9510     1.4350     2.0250 H     1 <1>   0.0800 
 33 H        3.2350     1.1790    -0.3990 H     1 <1>   0.0800 
 34 H        1.5980     1.7140    -0.6720 H     1 <1>   0.0800 
 35 H        1.2960    -1.4490    -1.0610 H     1 <1>   0.0800 
 36 H        1.8640    -3.1050    -0.8980 H     1 <1>   0.0800 
 37 H        0.3800    -4.5880     0.9750 H     1 <1>   0.0800 
 38 H       -1.1040    -3.7130     1.2870 H     1 <1>   0.0800 
 39 H        0.1720    -3.2550    -2.6560 H     1 <1>   0.0800 
 40 H       -1.8040    -4.0710    -0.8710 H     1 <1>   0.0800 
 41 H        4.9230     2.7680     0.5810 H     1 <1>   0.1500 
 42 H        1.0450     4.0700    -0.6330 H     1 <1>   0.1500 
 43 H       -1.2150    -1.6380    -0.8390 H     1 <1>   0.4000 
 44 H        0.8200    -5.5280    -1.2930 H     1 <1>   0.0800 
 45 H       -0.5620    -5.6120    -2.3390 H     1 <1>   0.0800 
 46 H        5.6920     5.1020     0.5860 H     1 <1>   0.1500 
 47 H        1.8050     6.3740    -0.6280 H     1 <1>   0.1500 
 48 H       -2.7030    -6.5820    -1.4950 H     1 <1>   0.1500 
 49 H       -0.0670    -8.5590     1.9120 H     1 <1>   0.1500 
 50 H        4.1410     9.1540    -0.2330 H     1 <1>   0.0800 
 51 H        2.7020     8.3320     0.3610 H     1 <1>   0.0800 
 52 H        3.1890     8.1670    -1.3370 H     1 <1>   0.0800 
 53 H       -2.3280    -9.3210     1.4950 H     1 <1>   0.1500 
@<TRIPOS>BOND
  1   1   2  2   
  2   2   3  am  
  3   2   4  1   
  4   3   5  1   
  5   3  28  1   
  6   4   6  1   
  7   4  29  1   
  8   4  30  1   
  9   5   7  1   
 10   5  31  1   
 11   5  32  1   
 12   6   8  1   
 13   6   9  1   
 14   7  10  1   
 15   7  33  1   
 16   7  34  1   
 17   8  11  1   
 18   8  35  1   
 19   8  36  1   
 20   9  12  1   
 21   9  37  1   
 22   9  38  1   
 23  10  13  ar  
 24  10  14  ar  
 25  11  12  1   
 26  11  15  1   
 27  11  39  1   
 28  12  16  1   
 29  12  40  1   
 30  13  17  ar  
 31  13  41  1   
 32  14  18  ar  
 33  14  42  1   
 34  15  43  1   
 35  16  19  1   
 36  16  44  1   
 37  16  45  1   
 38  17  20  ar  
 39  17  46  1   
 40  18  20  ar  
 41  18  47  1   
 42  19  21  ar  
 43  19  22  ar  
 44  20  23  1   
 45  21  24  ar  
 46  22  25  ar  
 47  22  48  1   
 48  23  26  1   
 49  24  27  ar  
 50  24  49  1   
 51  25  27  ar  
 52  26  50  1   
 53  26  51  1   
 54  26  52  1   
 55  27  53  1   
@<TRIPOS>SUBSTRUCTURE
  1 ****   3 GROUP 4 **** **** 0

# MOE 2024.06 (io_trps.svl 2023.06)
