@<TRIPOS>MOLECULE
NONAME
63 67 1 0 0 
SMALL
USER_CHARGES


@<TRIPOS>ATOM
  1 O        0.8280    -0.5920    -1.3640 O.2   1 <1>  -0.5700 
  2 C        1.4530     0.0630    -0.5500 C.2   1 <1>   0.5440 
  3 N        1.7760    -0.5090     0.6560 N.am  1 <1>  -0.7300 
  4 C        1.8420     1.4270    -0.8530 C.ar  1 <1>   0.0860 
  5 C        1.6220    -1.8970     1.2000 C.3   1 <1>   0.2200 
  6 C        1.8370     2.4500     0.1040 C.ar  1 <1>   0.0820 
  7 C        2.2340     1.7690    -2.1480 C.ar  1 <1>  -0.1500 
  8 C        1.2400    -2.9550     0.1550 C.3   1 <1>   0.3430 
  9 C        0.4160    -1.9210     2.1360 C.3   1 <1>  -0.1600 
 10 O        1.4340     2.2000     1.3680 O.3   1 <1>  -0.3630 
 11 C        2.2440     3.7370    -0.2200 C.ar  1 <1>  -0.1500 
 12 C        2.6250     3.0540    -2.4730 C.ar  1 <1>  -0.1500 
 13 N       -0.2060    -2.7200    -0.0450 N.4   1 <1>  -0.9590 
 14 C       -0.7830    -2.3100     1.2680 C.3   1 <1>   0.3430 
 15 C        0.2160     2.7700     1.8000 C.3   1 <1>   0.1200 
 16 C        2.6380     4.0470    -1.5090 C.ar  1 <1>  -0.1440 
 17 C       -0.9750    -3.7150    -0.8290 C.3   1 <1>   0.4860 
 18 C       -0.9370     1.8950     1.2970 C.3   1 <1>  -0.1600 
 19 C        3.0820     5.4520    -1.8770 C.3   1 <1>  -0.0970 
 20 C       -2.3940    -3.1960    -0.9030 C.ar  1 <1>  -0.1440 
 21 C       -2.2850     2.3640     1.8570 C.3   1 <1>   0.0960 
 22 C       -3.3960    -3.8230    -0.1770 C.ar  1 <1>  -0.1500 
 23 C       -2.6780    -2.0460    -1.6300 C.ar  1 <1>  -0.1500 
 24 N       -3.3430     1.3870     1.5370 N.pl3 1 <1>   0.3140 
 25 C       -4.6560    -3.2600    -0.1170 C.ar  1 <1>  -0.1500 
 26 C       -3.9400    -1.4850    -1.5700 C.ar  1 <1>  -0.1500 
 27 N       -3.5490     0.2880     2.2670 N.2   1 <1>  -0.4180 
 28 C       -4.2260     1.4310     0.5390 C.2   1 <1>  -0.3020 
 29 C       -4.9140    -2.0710    -0.7740 C.ar  1 <1>   0.0820 
 30 N       -4.5540    -0.3470     1.7700 N.2   1 <1>  -0.2270 
 31 C       -4.9840     0.3340     0.6970 C.2   1 <1>   0.0460 
 32 O       -6.1100    -1.4850    -0.5560 O.3   1 <1>  -0.3630 
 33 C       -6.1620    -0.1150    -0.1760 C.3   1 <1>   0.3010 
 34 H        2.1720     0.1570     1.3330 H     1 <1>   0.3700 
 35 H        2.5290    -2.1760     1.7100 H     1 <1>   0.0800 
 36 H        2.2340     1.0120    -2.9130 H     1 <1>   0.1500 
 37 H        1.4040    -3.9410     0.5540 H     1 <1>   0.0800 
 38 H        1.8010    -2.8240    -0.7570 H     1 <1>   0.0800 
 39 H        0.2590    -0.9870     2.6440 H     1 <1>   0.0800 
 40 H        0.5520    -2.6850     2.8800 H     1 <1>   0.0800 
 41 H        2.2540     4.4950     0.5430 H     1 <1>   0.1500 
 42 H        2.9250     3.2830    -3.4830 H     1 <1>   0.1500 
 43 H       -0.2120    -1.8500    -0.6170 H     1 <1>   0.4500 
 44 H       -1.4560    -1.4760     1.1340 H     1 <1>   0.0800 
 45 H       -1.3270    -3.1230     1.7210 H     1 <1>   0.0800 
 46 H        0.1400     3.7780     1.4290 H     1 <1>   0.0800 
 47 H        0.2360     2.7900     2.8760 H     1 <1>   0.0800 
 48 H       -0.9560    -4.6750    -0.3420 H     1 <1>   0.0800 
 49 H       -0.5640    -3.8110    -1.8210 H     1 <1>   0.0800 
 50 H       -0.7640     0.8850     1.6180 H     1 <1>   0.0800 
 51 H       -0.9730     1.9250     0.2220 H     1 <1>   0.0800 
 52 H        3.0940     6.0930    -1.0130 H     1 <1>   0.0800 
 53 H        2.4110     5.8700    -2.6050 H     1 <1>   0.0800 
 54 H        4.0730     5.4250    -2.2940 H     1 <1>   0.0800 
 55 H       -2.5560     3.3200     1.4460 H     1 <1>   0.0800 
 56 H       -2.2330     2.4520     2.9280 H     1 <1>   0.0800 
 57 H       -3.2070    -4.7320     0.3670 H     1 <1>   0.1500 
 58 H       -1.9200    -1.5660    -2.2260 H     1 <1>   0.1500 
 59 H       -5.4380    -3.7180     0.4640 H     1 <1>   0.1500 
 60 H       -4.1590    -0.5870    -2.1180 H     1 <1>   0.1500 
 61 H       -4.2620     2.2130    -0.1950 H     1 <1>   0.1500 
 62 H       -6.1990     0.4710    -1.0760 H     1 <1>   0.0800 
 63 H       -7.0800     0.0260     0.3650 H     1 <1>   0.0800 
@<TRIPOS>BOND
  1   1   2  2   
  2   2   3  am  
  3   2   4  1   
  4   3   5  1   
  5   3  34  1   
  6   4   6  ar  
  7   4   7  ar  
  8   5   8  1   
  9   5   9  1   
 10   5  35  1   
 11   6  10  1   
 12   6  11  ar  
 13   7  12  ar  
 14   7  36  1   
 15   8  13  1   
 16   8  37  1   
 17   8  38  1   
 18   9  14  1   
 19   9  39  1   
 20   9  40  1   
 21  10  15  1   
 22  11  16  ar  
 23  11  41  1   
 24  12  16  ar  
 25  12  42  1   
 26  13  14  1   
 27  13  17  1   
 28  13  43  1   
 29  14  44  1   
 30  14  45  1   
 31  15  18  1   
 32  15  46  1   
 33  15  47  1   
 34  16  19  1   
 35  17  20  1   
 36  17  48  1   
 37  17  49  1   
 38  18  21  1   
 39  18  50  1   
 40  18  51  1   
 41  19  52  1   
 42  19  53  1   
 43  19  54  1   
 44  20  22  ar  
 45  20  23  ar  
 46  21  24  1   
 47  21  55  1   
 48  21  56  1   
 49  22  25  ar  
 50  22  57  1   
 51  23  26  ar  
 52  23  58  1   
 53  24  27  1   
 54  24  28  1   
 55  25  29  ar  
 56  25  59  1   
 57  26  29  ar  
 58  26  60  1   
 59  27  30  2   
 60  28  31  2   
 61  28  61  1   
 62  29  32  1   
 63  30  31  1   
 64  31  33  1   
 65  32  33  1   
 66  33  62  1   
 67  33  63  1   
@<TRIPOS>SUBSTRUCTURE
  1 ****  18 GROUP 4 **** **** 0

# MOE 2024.06 (io_trps.svl 2023.06)
