@<TRIPOS>MOLECULE
NONAME
44 46 1 0 0 
SMALL
USER_CHARGES


@<TRIPOS>ATOM
  1 O       -1.8660     0.9200    -2.3460 O.2   1 <1>  -0.5700 
  2 C       -2.2340     0.8560    -1.1990 C.2   1 <1>   0.5690 
  3 N       -2.5910    -0.3270    -0.6440 N.am  1 <1>  -0.7300 
  4 C       -2.3110     2.1120    -0.3310 C.3   1 <1>  -0.0190 
  5 C       -2.6580    -1.6110    -1.3880 C.3   1 <1>   0.3200 
  6 C       -2.3460     3.4180    -1.1530 C.3   1 <1>  -0.1600 
  7 C       -1.1570     2.1470     0.6990 C.3   1 <1>  -0.1600 
  8 C       -3.9210    -2.3770    -1.0250 C.2   1 <1>   0.2980 
  9 C       -2.5820     4.6600    -0.2680 C.3   1 <1>   0.2000 
 10 C       -0.8900     3.5480     1.2850 C.3   1 <1>  -0.1600 
 11 O       -5.0640    -1.9370    -1.4760 O.3   1 <1>  -0.0190 
 12 N       -3.9840    -3.4170    -0.2990 N.2   1 <1>  -0.5650 
 13 O       -1.8690     5.7410    -0.8150 O.3   1 <1>  -0.5600 
 14 C       -2.1280     4.4450     1.2000 C.3   1 <1>   0.2000 
 15 N       -5.9340    -2.7660    -0.9950 N.2   1 <1>  -0.4100 
 16 C       -5.3080    -3.6520    -0.2960 C.2   1 <1>   0.4620 
 17 C       -2.4550     6.3360    -1.9320 C.3   1 <1>   0.0400 
 18 O       -1.8120     5.6640     1.7620 O.3   1 <1>  -0.6800 
 19 C       -5.9100    -4.7770     0.4240 C.ar  1 <1>   0.3640 
 20 N       -7.2470    -4.8590     0.5140 N.ar  1 <1>  -0.6200 
 21 C       -5.0920    -5.7490     1.0100 C.ar  1 <1>  -0.1500 
 22 C       -7.7520    -5.8870     1.1710 C.ar  1 <1>   0.1600 
 23 C       -5.6280    -6.8170     1.6940 C.ar  1 <1>  -0.1500 
 24 C       -7.0010    -6.8800     1.7720 C.ar  1 <1>  -0.1500 
 25 H       -2.8850    -0.3740     0.3330 H     1 <1>   0.3700 
 26 H       -3.2410     2.0550     0.2070 H     1 <1>   0.0800 
 27 H       -2.6450    -1.4310    -2.4490 H     1 <1>   0.0800 
 28 H       -1.7990    -2.2070    -1.1350 H     1 <1>   0.0800 
 29 H       -3.1240     3.3560    -1.8930 H     1 <1>   0.0800 
 30 H       -1.4040     3.5160    -1.6660 H     1 <1>   0.0800 
 31 H       -1.3870     1.4650     1.4990 H     1 <1>   0.0800 
 32 H       -0.2500     1.8010     0.2320 H     1 <1>   0.0800 
 33 H       -3.6300     4.9110    -0.2530 H     1 <1>   0.0800 
 34 H       -0.0960     4.0130     0.7240 H     1 <1>   0.0800 
 35 H       -0.5710     3.4590     2.3090 H     1 <1>   0.0800 
 36 H       -2.9240     4.0120     1.7800 H     1 <1>   0.0800 
 37 H       -1.8310     7.1570    -2.2380 H     1 <1>   0.0800 
 38 H       -3.4310     6.7030    -1.6690 H     1 <1>   0.0800 
 39 H       -2.5200     5.6190    -2.7320 H     1 <1>   0.0800 
 40 H       -1.4680     6.2170     1.0230 H     1 <1>   0.4000 
 41 H       -4.0240    -5.6650     0.9270 H     1 <1>   0.1500 
 42 H       -8.8250    -5.9420     1.2350 H     1 <1>   0.1500 
 43 H       -5.0040    -7.5690     2.1470 H     1 <1>   0.1500 
 44 H       -7.4860    -7.6870     2.2900 H     1 <1>   0.1500 
@<TRIPOS>BOND
  1   1   2  2   
  2   2   3  am  
  3   2   4  1   
  4   3   5  1   
  5   3  25  1   
  6   4   6  1   
  7   4   7  1   
  8   4  26  1   
  9   5   8  1   
 10   5  27  1   
 11   5  28  1   
 12   6   9  1   
 13   6  29  1   
 14   6  30  1   
 15   7  10  1   
 16   7  31  1   
 17   7  32  1   
 18   8  11  1   
 19   8  12  2   
 20   9  13  1   
 21   9  14  1   
 22   9  33  1   
 23  10  14  1   
 24  10  34  1   
 25  10  35  1   
 26  11  15  1   
 27  12  16  1   
 28  13  17  1   
 29  14  18  1   
 30  14  36  1   
 31  15  16  2   
 32  16  19  1   
 33  17  37  1   
 34  17  38  1   
 35  17  39  1   
 36  18  40  1   
 37  19  20  ar  
 38  19  21  ar  
 39  20  22  ar  
 40  21  23  ar  
 41  21  41  1   
 42  22  24  ar  
 43  22  42  1   
 44  23  24  ar  
 45  23  43  1   
 46  24  44  1   
@<TRIPOS>SUBSTRUCTURE
  1 ****   3 GROUP 4 **** **** 0

# MOE 2024.06 (io_trps.svl 2023.06)
