@<TRIPOS>MOLECULE
NONAME
55 57 1 0 0 
SMALL
USER_CHARGES


@<TRIPOS>ATOM
  1 S        0.4250    -0.1380    -0.4100 S.o2  1 <1>   1.3330 
  2 O        0.4110    -0.7760    -1.7050 O.2   1 <1>  -0.6500 
  3 O        0.2420    -0.9100     0.7970 O.2   1 <1>  -0.6500 
  4 N       -0.6460     1.1780    -0.4080 N.am  1 <1>  -0.8490 
  5 C        2.0120     0.6820    -0.2810 C.3   1 <1>  -0.0550 
  6 C       -1.6940     1.0590    -1.4300 C.3   1 <1>   0.1160 
  7 C       -1.2580     1.4340     0.9020 C.3   1 <1>   0.1160 
  8 C        3.1940    -0.3110    -0.3480 C.3   1 <1>  -0.0800 
  9 C        4.5920     0.2890    -0.4900 C.3   1 <1>   0.4230 
 10 C        3.3250    -1.2200     0.8880 C.3   1 <1>   0.1200 
 11 N        4.7340     1.4680     0.4110 N.4   1 <1>  -0.9060 
 12 C        5.4140    -0.8530     0.0970 C.3   1 <1>   0.1200 
 13 O        4.6810    -1.1930     1.2260 O.3   1 <1>  -0.5600 
 14 C        6.0050     2.2140     0.2980 C.3   1 <1>   0.4230 
 15 C        6.1110     3.1400     1.5120 C.3   1 <1>  -0.1600 
 16 C        6.0370     2.9800    -1.0300 C.3   1 <1>  -0.1600 
 17 C        7.3360     4.0420     1.3940 C.3   1 <1>   0.2090 
 18 C        7.2610     3.8890    -1.0950 C.3   1 <1>   0.2090 
 19 N        7.2380     4.7530     0.1030 N.pl3 1 <1>  -0.8380 
 20 C        7.9210     5.9600     0.0130 C.ar  1 <1>   0.1000 
 21 C        7.2060     7.1520     0.0530 C.ar  1 <1>  -0.1500 
 22 C        9.3110     5.9950    -0.1160 C.ar  1 <1>  -0.1500 
 23 C        7.8870     8.3500    -0.0360 C.ar  1 <1>   0.1900 
 24 C        9.9930     7.1990    -0.2050 C.ar  1 <1>  -0.1500 
 25 F        7.2070     9.4680     0.0030 F     1 <1>  -0.1900 
 26 C        9.2660     8.3750    -0.1640 C.ar  1 <1>   0.1900 
 27 F        9.9060     9.5160    -0.2480 F     1 <1>  -0.1900 
 28 H        2.0890     1.3760    -1.0960 H     1 <1>   0.0800 
 29 H        2.0380     1.2350     0.6370 H     1 <1>   0.0800 
 30 H       -2.3360     1.9240    -1.4100 H     1 <1>   0.0800 
 31 H       -2.2870     0.1750    -1.2580 H     1 <1>   0.0800 
 32 H       -1.2530     0.9930    -2.4100 H     1 <1>   0.0800 
 33 H       -1.8600     2.3260     0.8640 H     1 <1>   0.0800 
 34 H       -0.4950     1.5700     1.6490 H     1 <1>   0.0800 
 35 H       -1.8810     0.6040     1.1940 H     1 <1>   0.0800 
 36 H        3.0340    -0.9550    -1.1980 H     1 <1>   0.0800 
 37 H        4.8470     0.5200    -1.5110 H     1 <1>   0.0800 
 38 H        3.0410    -2.2370     0.6670 H     1 <1>   0.0800 
 39 H        2.7590    -0.8690     1.7360 H     1 <1>   0.0800 
 40 H        3.9600     2.1250     0.2910 H     1 <1>   0.4500 
 41 H        4.6690     1.0740     1.3630 H     1 <1>   0.4500 
 42 H        6.4140    -0.5780     0.3800 H     1 <1>   0.0800 
 43 H        5.4420    -1.7050    -0.5630 H     1 <1>   0.0800 
 44 H        6.8380     1.5290     0.3250 H     1 <1>   0.0800 
 45 H        5.2440     3.7720     1.5850 H     1 <1>   0.0800 
 46 H        6.1970     2.5640     2.4160 H     1 <1>   0.0800 
 47 H        6.0780     2.3030    -1.8620 H     1 <1>   0.0800 
 48 H        5.1630     3.6000    -1.1290 H     1 <1>   0.0800 
 49 H        8.2480     3.4670     1.4270 H     1 <1>   0.0800 
 50 H        7.3530     4.7560     2.2020 H     1 <1>   0.0800 
 51 H        7.2260     4.4990    -1.9830 H     1 <1>   0.0800 
 52 H        8.1720     3.3120    -1.1120 H     1 <1>   0.0800 
 53 H        6.1380     7.1380     0.1520 H     1 <1>   0.1500 
 54 H        9.8600     5.0720    -0.1440 H     1 <1>   0.1500 
 55 H       11.0630     7.2310    -0.3040 H     1 <1>   0.1500 
@<TRIPOS>BOND
  1   1   2  2   
  2   1   3  2   
  3   1   4  am  
  4   1   5  1   
  5   4   6  1   
  6   4   7  1   
  7   5   8  1   
  8   5  28  1   
  9   5  29  1   
 10   6  30  1   
 11   6  31  1   
 12   6  32  1   
 13   7  33  1   
 14   7  34  1   
 15   7  35  1   
 16   8   9  1   
 17   8  10  1   
 18   8  36  1   
 19   9  11  1   
 20   9  12  1   
 21   9  37  1   
 22  10  13  1   
 23  10  38  1   
 24  10  39  1   
 25  11  14  1   
 26  11  40  1   
 27  11  41  1   
 28  12  13  1   
 29  12  42  1   
 30  12  43  1   
 31  14  15  1   
 32  14  16  1   
 33  14  44  1   
 34  15  17  1   
 35  15  45  1   
 36  15  46  1   
 37  16  18  1   
 38  16  47  1   
 39  16  48  1   
 40  17  19  1   
 41  17  49  1   
 42  17  50  1   
 43  18  19  1   
 44  18  51  1   
 45  18  52  1   
 46  19  20  1   
 47  20  21  ar  
 48  20  22  ar  
 49  21  23  ar  
 50  21  53  1   
 51  22  24  ar  
 52  22  54  1   
 53  23  25  1   
 54  23  26  ar  
 55  24  26  ar  
 56  24  55  1   
 57  26  27  1   
@<TRIPOS>SUBSTRUCTURE
  1 ****  14 GROUP 4 **** **** 0

# MOE 2024.06 (io_trps.svl 2023.06)
