@<TRIPOS>MOLECULE
NONAME
44 45 1 0 0 
SMALL
USER_CHARGES


@<TRIPOS>ATOM
  1 N        0.8190     0.4600    -0.9290 N.ar  1 <1>  -0.6200 
  2 C        1.7030    -0.2910    -0.2960 C.ar  1 <1>   0.4100 
  3 C        1.1010     1.7460    -0.9730 C.ar  1 <1>   0.4700 
  4 N        1.4760    -1.6520    -0.2320 N.pl3 1 <1>  -0.8380 
  5 C        2.8240     0.2620     0.2720 C.ar  1 <1>  -0.1500 
  6 N        2.1420     2.3810    -0.4680 N.ar  1 <1>  -0.6200 
  7 C        0.0820    -2.1580    -0.1340 C.3   1 <1>   0.2090 
  8 C        2.4390    -2.5540    -0.9210 C.3   1 <1>   0.1290 
  9 C        3.0110     1.6180     0.1670 C.ar  1 <1>   0.4100 
 10 C        0.0190    -3.2760     0.9020 C.3   1 <1>  -0.2400 
 11 N        4.1160     2.2190     0.7240 N.pl3 1 <1>  -0.8690 
 12 C        4.2180     3.6930     0.9110 C.3   1 <1>   0.2090 
 13 C        4.6520     4.3780    -0.3920 C.3   1 <1>   0.2090 
 14 N        4.9080     5.8350    -0.1700 N.pl3 1 <1>  -0.8690 
 15 C        6.0900     6.4870    -0.0300 C.ar  1 <1>   0.1000 
 16 C        6.1350     7.8930     0.0010 C.ar  1 <1>  -0.1430 
 17 C        7.3090     5.8040     0.0900 C.ar  1 <1>  -0.1500 
 18 C        7.3400     8.5380     0.1340 C.ar  1 <1>   0.2110 
 19 C        4.8460     8.7020    -0.1170 C.3   1 <1>  -0.0970 
 20 C        8.4890     6.4850     0.2210 C.ar  1 <1>   0.2110 
 21 N        8.4980     7.8390     0.2400 N.ar  1 <1>  -0.1790 
 22 H        0.3850     2.3600    -1.4910 H     1 <1>   0.1500 
 23 H        3.5270    -0.3580     0.7850 H     1 <1>   0.1500 
 24 H       -0.2480    -2.5110    -1.0960 H     1 <1>   0.0800 
 25 H       -0.5750    -1.3610     0.1740 H     1 <1>   0.0800 
 26 H        3.2950    -2.0000    -1.2640 H     1 <1>   0.0800 
 27 H        1.9670    -3.0150    -1.7720 H     1 <1>   0.0800 
 28 H        2.7690    -3.3190    -0.2410 H     1 <1>   0.0800 
 29 H        0.6050    -4.1180     0.5880 H     1 <1>   0.0800 
 30 H       -1.0000    -3.5960     1.0230 H     1 <1>   0.0800 
 31 H        0.3800    -2.9170     1.8480 H     1 <1>   0.0800 
 32 H        4.5850     1.6720     1.4490 H     1 <1>   0.4000 
 33 H        4.9420     3.8980     1.6780 H     1 <1>   0.0800 
 34 H        3.2640     4.0830     1.2230 H     1 <1>   0.0800 
 35 H        3.8730     4.2700    -1.1270 H     1 <1>   0.0800 
 36 H        5.5320     3.8960    -0.7740 H     1 <1>   0.0800 
 37 H        4.0380     6.3810    -0.2060 H     1 <1>   0.4000 
 38 H        7.3140     4.7300     0.0830 H     1 <1>   0.1500 
 39 H        7.3910     9.6150     0.1570 H     1 <1>   0.1500 
 40 H        4.1800     8.4570     0.6920 H     1 <1>   0.0800 
 41 H        4.3540     8.4790    -1.0480 H     1 <1>   0.0800 
 42 H        5.0370     9.7600    -0.0860 H     1 <1>   0.0800 
 43 H        9.4260     5.9570     0.3100 H     1 <1>   0.1500 
 44 H        9.3870     8.3420     0.3370 H     1 <1>   0.4570 
@<TRIPOS>BOND
  1   1   2  ar  
  2   1   3  ar  
  3   2   4  1   
  4   2   5  ar  
  5   3   6  ar  
  6   3  22  1   
  7   4   7  1   
  8   4   8  1   
  9   5   9  ar  
 10   5  23  1   
 11   6   9  ar  
 12   7  10  1   
 13   7  24  1   
 14   7  25  1   
 15   8  26  1   
 16   8  27  1   
 17   8  28  1   
 18   9  11  1   
 19  10  29  1   
 20  10  30  1   
 21  10  31  1   
 22  11  12  1   
 23  11  32  1   
 24  12  13  1   
 25  12  33  1   
 26  12  34  1   
 27  13  14  1   
 28  13  35  1   
 29  13  36  1   
 30  14  15  1   
 31  14  37  1   
 32  15  16  ar  
 33  15  17  ar  
 34  16  18  ar  
 35  16  19  1   
 36  17  20  ar  
 37  17  38  1   
 38  18  21  ar  
 39  18  39  1   
 40  19  40  1   
 41  19  41  1   
 42  19  42  1   
 43  20  21  ar  
 44  20  43  1   
 45  21  44  1   
@<TRIPOS>SUBSTRUCTURE
  1 ****  11 GROUP 4 **** **** 0

# MOE 2024.06 (io_trps.svl 2023.06)
