@<TRIPOS>MOLECULE
NONAME
50 52 1 0 0 
SMALL
USER_CHARGES


@<TRIPOS>ATOM
  1 O        0.0960    -0.5840    -0.0130 O.2   1 <1>  -0.5700 
  2 C        0.8970    -1.4650     0.1550 C.2   1 <1>   0.5690 
  3 N        0.5660    -2.6120     0.7830 N.am  1 <1>  -0.7300 
  4 C        2.3230    -1.3200    -0.3270 C.3   1 <1>  -0.0990 
  5 C        1.5280    -3.6930     1.0710 C.3   1 <1>   0.1400 
  6 C        2.8060    -2.6350    -0.9680 C.3   1 <1>  -0.0800 
  7 C        2.4750    -3.8990    -0.1340 C.3   1 <1>  -0.0800 
  8 C        4.3210    -2.6550    -1.2240 C.3   1 <1>  -0.1600 
  9 C        3.8310    -4.4970     0.2610 C.3   1 <1>  -0.1600 
 10 C        4.7570    -4.0750    -0.8770 C.3   1 <1>   0.4230 
 11 N        6.2240    -4.2070    -0.6160 N.4   1 <1>  -0.9590 
 12 C        6.7270    -3.8920     0.7590 C.3   1 <1>   0.4860 
 13 C        6.6950    -5.5630    -1.0270 C.3   1 <1>   0.2630 
 14 C        6.8030    -2.3910     0.9480 C.ar  1 <1>  -0.1440 
 15 C        7.6980    -1.6440     0.1970 C.ar  1 <1>  -0.1500 
 16 C        5.9850    -1.7480     1.8670 C.ar  1 <1>  -0.1500 
 17 C        7.7690    -0.2690     0.3420 C.ar  1 <1>   0.0820 
 18 C        6.0520    -0.3740     2.0170 C.ar  1 <1>  -0.1500 
 19 O        8.6710     0.3710    -0.4400 O.3   1 <1>  -0.3620 
 20 C        6.9370     0.3690     1.2570 C.ar  1 <1>  -0.1500 
 21 C        8.9480     1.7430    -0.2680 C.3   1 <1>   0.2580 
 22 C       10.0500     2.1260    -1.2360 C.2   1 <1>  -0.2880 
 23 C       11.2270     2.6630    -0.8990 C.2   1 <1>  -0.3000 
 24 H       -0.3900    -2.6900     1.1400 H     1 <1>   0.3700 
 25 H        2.3770    -0.5160    -1.0390 H     1 <1>   0.0800 
 26 H        2.9300    -1.0610     0.5210 H     1 <1>   0.0800 
 27 H        2.0850    -3.4150     1.9490 H     1 <1>   0.0800 
 28 H        0.9960    -4.6050     1.2830 H     1 <1>   0.0800 
 29 H        2.2940    -2.7330    -1.9130 H     1 <1>   0.0800 
 30 H        1.9890    -4.5970    -0.7970 H     1 <1>   0.0800 
 31 H        4.7990    -1.9310    -0.5940 H     1 <1>   0.0800 
 32 H        4.5370    -2.4210    -2.2510 H     1 <1>   0.0800 
 33 H        3.7730    -5.5660     0.3590 H     1 <1>   0.0800 
 34 H        4.1330    -4.0560     1.1910 H     1 <1>   0.0800 
 35 H        4.5050    -4.6830    -1.7330 H     1 <1>   0.0800 
 36 H        6.6750    -3.5100    -1.2250 H     1 <1>   0.4500 
 37 H        6.1010    -4.3390     1.5120 H     1 <1>   0.0800 
 38 H        7.7210    -4.2900     0.8810 H     1 <1>   0.0800 
 39 H        6.2450    -6.3210    -0.4070 H     1 <1>   0.0800 
 40 H        7.7680    -5.6330    -0.9360 H     1 <1>   0.0800 
 41 H        6.4290    -5.7570    -2.0540 H     1 <1>   0.0800 
 42 H        8.3640    -2.1050    -0.5100 H     1 <1>   0.1500 
 43 H        5.2900    -2.3010     2.4770 H     1 <1>   0.1500 
 44 H        5.4140     0.1230     2.7290 H     1 <1>   0.1500 
 45 H        6.9650     1.4340     1.3930 H     1 <1>   0.1500 
 46 H        8.0530     2.3020    -0.4790 H     1 <1>   0.0800 
 47 H        9.2580     1.9050     0.7500 H     1 <1>   0.0800 
 48 H        9.7820     1.9130    -2.2570 H     1 <1>   0.1500 
 49 H       11.9930     2.9230    -1.6100 H     1 <1>   0.1500 
 50 H       11.5290     2.8850     0.1110 H     1 <1>   0.1500 
@<TRIPOS>BOND
  1   1   2  2   
  2   2   3  am  
  3   2   4  1   
  4   3   5  1   
  5   3  24  1   
  6   4   6  1   
  7   4  25  1   
  8   4  26  1   
  9   5   7  1   
 10   5  27  1   
 11   5  28  1   
 12   6   7  1   
 13   6   8  1   
 14   6  29  1   
 15   7   9  1   
 16   7  30  1   
 17   8  10  1   
 18   8  31  1   
 19   8  32  1   
 20   9  10  1   
 21   9  33  1   
 22   9  34  1   
 23  10  11  1   
 24  10  35  1   
 25  11  12  1   
 26  11  13  1   
 27  11  36  1   
 28  12  14  1   
 29  12  37  1   
 30  12  38  1   
 31  13  39  1   
 32  13  40  1   
 33  13  41  1   
 34  14  15  ar  
 35  14  16  ar  
 36  15  17  ar  
 37  15  42  1   
 38  16  18  ar  
 39  16  43  1   
 40  17  19  1   
 41  17  20  ar  
 42  18  20  ar  
 43  18  44  1   
 44  19  21  1   
 45  20  45  1   
 46  21  22  1   
 47  21  46  1   
 48  21  47  1   
 49  22  23  2   
 50  22  48  1   
 51  23  49  1   
 52  23  50  1   
@<TRIPOS>SUBSTRUCTURE
  1 ****  14 GROUP 4 **** **** 0

# MOE 2024.06 (io_trps.svl 2023.06)
