@<TRIPOS>MOLECULE
NONAME
37 40 1 0 0 
SMALL
USER_CHARGES


@<TRIPOS>ATOM
  1 O        0.0620    -0.2140     0.2320 O.2   1 <1>  -0.5700 
  2 C        1.1590    -0.7380     0.2070 C.2   1 <1>   0.5440 
  3 N        2.2850     0.0380     0.2160 N.am  1 <1>  -0.4930 
  4 C        1.2580    -2.1750     0.1510 C.ar  1 <1>   0.0860 
  5 C        2.4050     1.4430     0.3820 C.2   1 <1>   0.0630 
  6 C        0.2840    -2.9470    -0.4540 C.ar  1 <1>   0.1600 
  7 C        2.3150    -2.8850     0.6910 C.ar  1 <1>   0.1600 
  8 C        3.5400     2.1540     0.1740 C.2   1 <1>  -0.0680 
  9 C        1.4640     2.3820     0.8150 C.2   1 <1>   0.1390 
 10 N        0.3530    -4.2580    -0.5420 N.ar  1 <1>  -0.6200 
 11 N        2.4180    -4.1940     0.6200 N.ar  1 <1>  -0.6200 
 12 N        3.2430     3.4360     0.5120 N.pl3 1 <1>   0.3140 
 13 N        4.8100     1.7350    -0.2930 N.pl3 1 <1>  -0.8530 
 14 N        1.9540     3.5850     0.8980 N.2   1 <1>  -0.7070 
 15 C        1.4220    -4.8150     0.0050 C.ar  1 <1>   0.5880 
 16 C        4.2150     4.5370     0.4410 C.3   1 <1>   0.0960 
 17 C        5.7940     2.8160    -0.5850 C.3   1 <1>   0.2090 
 18 C        1.5230    -6.3310    -0.0910 C.3   1 <1>  -0.0680 
 19 C        5.6480     3.9720     0.4180 C.3   1 <1>  -0.1600 
 20 C        0.4200    -7.2170     0.4150 C.3   1 <1>  -0.2000 
 21 C        1.7320    -7.1780     1.1330 C.3   1 <1>  -0.2000 
 22 H        3.1930    -0.4100     0.0970 H     1 <1>   0.3700 
 23 H       -0.5770    -2.4580    -0.8810 H     1 <1>   0.1500 
 24 H        3.1020    -2.3600     1.2050 H     1 <1>   0.1500 
 25 H        0.4440     2.1390     1.0590 H     1 <1>   0.1500 
 26 H        4.7410     1.0890    -1.0900 H     1 <1>   0.4000 
 27 H        4.0720     5.1800     1.2900 H     1 <1>   0.0800 
 28 H        4.0160     5.0930    -0.4560 H     1 <1>   0.0800 
 29 H        5.6340     3.1780    -1.5870 H     1 <1>   0.0800 
 30 H        6.7900     2.4110    -0.5250 H     1 <1>   0.0800 
 31 H        2.0230    -6.6330    -0.9920 H     1 <1>   0.1000 
 32 H        5.9030     3.6140     1.3990 H     1 <1>   0.0800 
 33 H        6.3380     4.7570     0.1680 H     1 <1>   0.0800 
 34 H        0.1610    -8.0890    -0.1590 H     1 <1>   0.1000 
 35 H       -0.4380    -6.7540     0.8720 H     1 <1>   0.1000 
 36 H        1.7850    -6.6900     2.0910 H     1 <1>   0.1000 
 37 H        2.3930    -8.0240     1.0630 H     1 <1>   0.1000 
@<TRIPOS>BOND
  1   1   2  2   
  2   2   3  am  
  3   2   4  1   
  4   3   5  1   
  5   3  22  1   
  6   4   6  ar  
  7   4   7  ar  
  8   5   8  2   
  9   5   9  1   
 10   6  10  ar  
 11   6  23  1   
 12   7  11  ar  
 13   7  24  1   
 14   8  12  1   
 15   8  13  1   
 16   9  14  2   
 17   9  25  1   
 18  10  15  ar  
 19  11  15  ar  
 20  12  14  1   
 21  12  16  1   
 22  13  17  1   
 23  13  26  1   
 24  15  18  1   
 25  16  19  1   
 26  16  27  1   
 27  16  28  1   
 28  17  19  1   
 29  17  29  1   
 30  17  30  1   
 31  18  20  1   
 32  18  21  1   
 33  18  31  1   
 34  19  32  1   
 35  19  33  1   
 36  20  21  1   
 37  20  34  1   
 38  20  35  1   
 39  21  36  1   
 40  21  37  1   
@<TRIPOS>SUBSTRUCTURE
  1 ****   3 GROUP 4 **** **** 0

# MOE 2024.06 (io_trps.svl 2023.06)
