@<TRIPOS>MOLECULE
NONAME
51 53 1 0 0 
SMALL
USER_CHARGES


@<TRIPOS>ATOM
  1 S        0.6330     0.1680     0.4180 S.o2  1 <1>   1.3330 
  2 O       -0.4990    -0.3310     1.1650 O.2   1 <1>  -0.6500 
  3 O        1.8750     0.4580     1.1010 O.2   1 <1>  -0.6500 
  4 N        0.9740    -0.9310    -0.8300 N.am  1 <1>  -0.8490 
  5 C        0.1050     1.6260    -0.4850 C.3   1 <1>  -0.0550 
  6 C        0.7240    -2.3210    -0.4340 C.3   1 <1>   0.1160 
  7 C        2.3320    -0.8040    -1.3700 C.3   1 <1>   0.1160 
  8 C       -0.4510     2.7530     0.4080 C.3   1 <1>  -0.0800 
  9 C       -0.9490     3.9190    -0.4460 C.3   1 <1>   0.2000 
 10 C        0.6260     3.3760     1.3190 C.3   1 <1>   0.1100 
 11 O       -1.9930     4.5200     0.2270 O.3   1 <1>  -0.6800 
 12 C        0.2240     4.8900    -0.4300 C.3   1 <1>   0.1100 
 13 N        0.7390     4.7910     0.9410 N.3   1 <1>  -0.8100 
 14 C        2.1080     5.3140     1.0940 C.3   1 <1>   0.2480 
 15 C        2.1840     6.8200     0.8430 C.2   1 <1>  -0.0380 
 16 N        3.3410     7.3160     0.2850 N.pl3 1 <1>  -0.6000 
 17 C        1.1800     7.6800     1.1550 C.2   1 <1>  -0.1360 
 18 C        3.5150     8.6690     0.0140 C.ar  1 <1>   0.1000 
 19 C        1.2780     9.0740     0.9160 C.2   1 <1>   0.4690 
 20 C        2.4900     9.5770     0.3220 C.ar  1 <1>   0.0860 
 21 C        4.6980     9.1290    -0.5610 C.ar  1 <1>  -0.1500 
 22 O        0.3490     9.8150     1.2120 O.2   1 <1>  -0.5700 
 23 C        2.6960    10.9320     0.0370 C.ar  1 <1>  -0.1500 
 24 C        4.8740    10.4670    -0.8310 C.ar  1 <1>  -0.1500 
 25 C        3.8700    11.3800    -0.5330 C.ar  1 <1>  -0.1440 
 26 C        4.0800    12.8530    -0.8370 C.3   1 <1>  -0.0970 
 27 H        0.9240     2.0000    -1.0660 H     1 <1>   0.0800 
 28 H       -0.6690     1.3290    -1.1670 H     1 <1>   0.0800 
 29 H        0.9360    -2.9880    -1.2520 H     1 <1>   0.0800 
 30 H       -0.3100    -2.4460    -0.1600 H     1 <1>   0.0800 
 31 H        1.3390    -2.5860     0.4100 H     1 <1>   0.0800 
 32 H        2.4580    -1.4600    -2.2150 H     1 <1>   0.0800 
 33 H        3.0620    -1.0570    -0.6180 H     1 <1>   0.0800 
 34 H        2.5090     0.2070    -1.6960 H     1 <1>   0.0800 
 35 H       -1.2560     2.3480     1.0000 H     1 <1>   0.0800 
 36 H       -1.2840     3.6480    -1.4320 H     1 <1>   0.0800 
 37 H        1.5750     2.8840     1.1900 H     1 <1>   0.0800 
 38 H        0.3390     3.3010     2.3550 H     1 <1>   0.0800 
 39 H       -1.6050     4.9400     1.0250 H     1 <1>   0.4000 
 40 H       -0.0840     5.8930    -0.6720 H     1 <1>   0.0800 
 41 H        0.9730     4.5670    -1.1330 H     1 <1>   0.0800 
 42 H        2.4530     5.1190     2.0950 H     1 <1>   0.0800 
 43 H        2.7610     4.8010     0.4090 H     1 <1>   0.0800 
 44 H        4.1140     6.6840     0.0570 H     1 <1>   0.4000 
 45 H        0.2640     7.3380     1.5980 H     1 <1>   0.1500 
 46 H        5.4800     8.4290    -0.7940 H     1 <1>   0.1500 
 47 H        1.9070    11.6250     0.2740 H     1 <1>   0.1500 
 48 H        5.7930    10.8110    -1.2760 H     1 <1>   0.1500 
 49 H        4.9320    13.2210    -0.2950 H     1 <1>   0.0800 
 50 H        3.2190    13.4310    -0.5540 H     1 <1>   0.0800 
 51 H        4.2520    12.9880    -1.8900 H     1 <1>   0.0800 
@<TRIPOS>BOND
  1   1   2  2   
  2   1   3  2   
  3   1   4  am  
  4   1   5  1   
  5   4   6  1   
  6   4   7  1   
  7   5   8  1   
  8   5  27  1   
  9   5  28  1   
 10   6  29  1   
 11   6  30  1   
 12   6  31  1   
 13   7  32  1   
 14   7  33  1   
 15   7  34  1   
 16   8   9  1   
 17   8  10  1   
 18   8  35  1   
 19   9  11  1   
 20   9  12  1   
 21   9  36  1   
 22  10  13  1   
 23  10  37  1   
 24  10  38  1   
 25  11  39  1   
 26  12  13  1   
 27  12  40  1   
 28  12  41  1   
 29  13  14  1   
 30  14  15  1   
 31  14  42  1   
 32  14  43  1   
 33  15  16  1   
 34  15  17  2   
 35  16  18  1   
 36  16  44  1   
 37  17  19  1   
 38  17  45  1   
 39  18  20  ar  
 40  18  21  ar  
 41  19  20  1   
 42  19  22  2   
 43  20  23  ar  
 44  21  24  ar  
 45  21  46  1   
 46  23  25  ar  
 47  23  47  1   
 48  24  25  ar  
 49  24  48  1   
 50  25  26  1   
 51  26  49  1   
 52  26  50  1   
 53  26  51  1   
@<TRIPOS>SUBSTRUCTURE
  1 ****  14 GROUP 4 **** **** 0

# MOE 2024.06 (io_trps.svl 2023.06)
