@<TRIPOS>MOLECULE
NONAME
53 56 1 0 0 
SMALL
USER_CHARGES


@<TRIPOS>ATOM
  1 O        0.5370    -0.6160     0.0400 O.3   1 <1>  -0.3630 
  2 C        0.0230    -1.7320    -0.4990 C.ar  1 <1>   0.0820 
  3 C        1.6910    -0.9370     0.8040 C.3   1 <1>   0.1200 
  4 C        0.7160    -2.8610    -0.1570 C.ar  1 <1>  -0.1440 
  5 C       -1.0830    -1.7840    -1.3230 C.ar  1 <1>  -0.1500 
  6 C        1.8630    -2.4650     0.7270 C.3   1 <1>  -0.0160 
  7 C        0.3180    -4.0990    -0.6240 C.ar  1 <1>  -0.1500 
  8 C       -1.4930    -3.0190    -1.7990 C.ar  1 <1>  -0.1500 
  9 C       -0.8040    -4.1780    -1.4450 C.ar  1 <1>  -0.1440 
 10 C       -1.2820    -5.5240    -1.9460 C.3   1 <1>   0.4870 
 11 N       -1.9640    -6.2170    -0.8130 N.4   1 <1>  -0.9590 
 12 C       -2.2020    -7.6750    -1.1190 C.3   1 <1>   0.3430 
 13 C       -3.2290    -5.4990    -0.4630 C.3   1 <1>   0.3430 
 14 C       -2.9760    -8.4380     0.0050 C.3   1 <1>   0.4230 
 15 C       -3.9130    -6.1970     0.7160 C.3   1 <1>  -0.1600 
 16 N       -3.2000    -9.9300    -0.2440 N.4   1 <1>  -0.9590 
 17 C       -4.2640    -7.6870     0.4560 C.3   1 <1>   0.0000 
 18 C       -4.2290   -10.5480     0.6630 C.3   1 <1>   0.3430 
 19 C       -3.5280   -10.2970    -1.6640 C.3   1 <1>   0.2630 
 20 C       -4.7510    -8.3110     1.7950 C.3   1 <1>  -0.1600 
 21 C       -5.4320    -7.7680    -0.5700 C.3   1 <1>   0.1200 
 22 C       -4.3350    -9.7850     1.9840 C.3   1 <1>  -0.1600 
 23 O       -5.0080    -7.4650    -1.8570 O.3   1 <1>  -0.6800 
 24 H        2.5310    -0.4220     0.3720 H     1 <1>   0.0800 
 25 H        1.5290    -0.6030     1.8140 H     1 <1>   0.0800 
 26 H       -1.5980    -0.8750    -1.5790 H     1 <1>   0.1500 
 27 H        2.8090    -2.7210     0.2850 H     1 <1>   0.0800 
 28 H        1.7810    -2.9080     1.7030 H     1 <1>   0.0800 
 29 H        0.8870    -4.9690    -0.3490 H     1 <1>   0.1500 
 30 H       -2.3520    -3.0570    -2.4480 H     1 <1>   0.1500 
 31 H       -0.4320    -6.0960    -2.2820 H     1 <1>   0.0800 
 32 H       -1.9590    -5.3950    -2.7750 H     1 <1>   0.0800 
 33 H       -1.3260    -6.1000    -0.0130 H     1 <1>   0.4500 
 34 H       -2.7670    -7.7440    -2.0330 H     1 <1>   0.0800 
 35 H       -1.2530    -8.1600    -1.2760 H     1 <1>   0.0800 
 36 H       -3.0100    -4.4770    -0.1930 H     1 <1>   0.0800 
 37 H       -3.8920    -5.4820    -1.3130 H     1 <1>   0.0800 
 38 H       -2.3240    -8.3860     0.8610 H     1 <1>   0.0800 
 39 H       -3.2640    -6.1040     1.5710 H     1 <1>   0.0800 
 40 H       -4.8110    -5.6520     0.9550 H     1 <1>   0.0800 
 41 H       -2.3160   -10.4090    -0.0080 H     1 <1>   0.4500 
 42 H       -5.1940   -10.5350     0.1840 H     1 <1>   0.0800 
 43 H       -3.9760   -11.5790     0.8580 H     1 <1>   0.0800 
 44 H       -4.4460    -9.8250    -1.9750 H     1 <1>   0.0800 
 45 H       -3.6500   -11.3650    -1.7550 H     1 <1>   0.0800 
 46 H       -2.7400    -9.9920    -2.3320 H     1 <1>   0.0800 
 47 H       -4.3660    -7.7640     2.6400 H     1 <1>   0.0800 
 48 H       -5.8250    -8.2350     1.8630 H     1 <1>   0.0800 
 49 H       -6.2120    -7.0730    -0.3050 H     1 <1>   0.0800 
 50 H       -5.8670    -8.7520    -0.5960 H     1 <1>   0.0800 
 51 H       -5.0570   -10.2750     2.6160 H     1 <1>   0.0800 
 52 H       -3.3900    -9.8410     2.4970 H     1 <1>   0.0800 
 53 H       -5.7870    -7.3640    -2.4540 H     1 <1>   0.4000 
@<TRIPOS>BOND
  1   1   2  1   
  2   1   3  1   
  3   2   4  ar  
  4   2   5  ar  
  5   3   6  1   
  6   3  24  1   
  7   3  25  1   
  8   4   6  1   
  9   4   7  ar  
 10   5   8  ar  
 11   5  26  1   
 12   6  27  1   
 13   6  28  1   
 14   7   9  ar  
 15   7  29  1   
 16   8   9  ar  
 17   8  30  1   
 18   9  10  1   
 19  10  11  1   
 20  10  31  1   
 21  10  32  1   
 22  11  12  1   
 23  11  13  1   
 24  11  33  1   
 25  12  14  1   
 26  12  34  1   
 27  12  35  1   
 28  13  15  1   
 29  13  36  1   
 30  13  37  1   
 31  14  16  1   
 32  14  17  1   
 33  14  38  1   
 34  15  17  1   
 35  15  39  1   
 36  15  40  1   
 37  16  18  1   
 38  16  19  1   
 39  16  41  1   
 40  17  20  1   
 41  17  21  1   
 42  18  22  1   
 43  18  42  1   
 44  18  43  1   
 45  19  44  1   
 46  19  45  1   
 47  19  46  1   
 48  20  22  1   
 49  20  47  1   
 50  20  48  1   
 51  21  23  1   
 52  21  49  1   
 53  21  50  1   
 54  22  51  1   
 55  22  52  1   
 56  23  53  1   
@<TRIPOS>SUBSTRUCTURE
  1 ****  11 GROUP 4 **** **** 0

# MOE 2024.06 (io_trps.svl 2023.06)
