@<TRIPOS>MOLECULE
NONAME
45 47 1 0 0 
SMALL
USER_CHARGES


@<TRIPOS>ATOM
  1 CL      -3.7770     2.8850     1.9590 Cl    1 <1>  -0.1770 
  2 C       -2.2070     2.9570     1.1880 C.ar  1 <1>   0.1770 
  3 C       -1.1300     3.4680     1.8910 C.ar  1 <1>   0.1770 
  4 C       -2.0560     2.5050    -0.1210 C.ar  1 <1>   0.0860 
  5 CL      -1.3270     4.0470     3.5280 Cl    1 <1>  -0.1770 
  6 C        0.1250     3.5380     1.3140 C.ar  1 <1>  -0.1500 
  7 C       -3.1670     1.9770    -0.8770 C.2   1 <1>   0.5440 
  8 C       -0.7820     2.5750    -0.6860 C.ar  1 <1>  -0.1500 
  9 C        0.2970     3.0860     0.0170 C.ar  1 <1>  -0.1500 
 10 O       -3.2740     0.7720    -0.9930 O.2   1 <1>  -0.5700 
 11 N       -4.0860     2.7950    -1.4990 N.am  1 <1>  -0.6600 
 12 C       -5.2300     2.2070    -2.2570 C.3   1 <1>   0.1400 
 13 C       -4.0440     4.2810    -1.4720 C.3   1 <1>   0.1400 
 14 C       -6.3820     3.2110    -2.4090 C.3   1 <1>  -0.1600 
 15 C       -5.3020     4.8130    -0.7760 C.3   1 <1>  -0.1600 
 16 C       -6.6030     4.0380    -1.1320 C.3   1 <1>   0.2800 
 17 O       -7.5820     4.9670    -1.4840 O.3   1 <1>  -0.5600 
 18 C       -7.1130     3.1120     0.0110 C.3   1 <1>  -0.1600 
 19 C       -8.1600     5.8110    -0.5120 C.3   1 <1>   0.1200 
 20 C       -8.2940     3.6570     0.8350 C.3   1 <1>   0.2800 
 21 C       -8.2550     5.1990     0.8990 C.3   1 <1>   0.2000 
 22 O       -9.4650     3.2860     0.2010 O.3   1 <1>  -0.6800 
 23 C       -8.3590     2.9990     2.2180 C.3   1 <1>  -0.2400 
 24 O       -7.1700     5.6400     1.6610 O.3   1 <1>  -0.6800 
 25 H        0.9520     3.9380     1.8750 H     1 <1>   0.1500 
 26 H       -0.6430     2.2170    -1.6930 H     1 <1>   0.1500 
 27 H        1.2710     3.1280    -0.4440 H     1 <1>   0.1500 
 28 H       -4.8880     1.8890    -3.2270 H     1 <1>   0.0800 
 29 H       -5.5840     1.3360    -1.7310 H     1 <1>   0.0800 
 30 H       -3.1640     4.6440    -0.9710 H     1 <1>   0.0800 
 31 H       -4.0120     4.6410    -2.4870 H     1 <1>   0.0800 
 32 H       -7.2820     2.6810    -2.6670 H     1 <1>   0.0800 
 33 H       -6.1580     3.8720    -3.2270 H     1 <1>   0.0800 
 34 H       -5.4040     5.8480    -1.0500 H     1 <1>   0.0800 
 35 H       -5.1180     4.7800     0.2790 H     1 <1>   0.0800 
 36 H       -7.3860     2.1480    -0.3780 H     1 <1>   0.0800 
 37 H       -6.2890     2.9160     0.6690 H     1 <1>   0.0800 
 38 H       -7.6150     6.7380    -0.4910 H     1 <1>   0.0800 
 39 H       -9.1560     6.0170    -0.8600 H     1 <1>   0.0800 
 40 H       -9.1380     5.5660     1.3930 H     1 <1>   0.0800 
 41 H       -9.4920     2.3180     0.1010 H     1 <1>   0.4000 
 42 H       -7.4790     3.2390     2.7870 H     1 <1>   0.0800 
 43 H       -8.4190     1.9290     2.1320 H     1 <1>   0.0800 
 44 H       -9.2130     3.3630     2.7610 H     1 <1>   0.0800 
 45 H       -6.3460     5.2810     1.2850 H     1 <1>   0.4000 
@<TRIPOS>BOND
  1   1   2  1   
  2   2   3  ar  
  3   2   4  ar  
  4   3   5  1   
  5   3   6  ar  
  6   4   7  1   
  7   4   8  ar  
  8   6   9  ar  
  9   6  25  1   
 10   7  10  2   
 11   7  11  am  
 12   8   9  ar  
 13   8  26  1   
 14   9  27  1   
 15  11  12  1   
 16  11  13  1   
 17  12  14  1   
 18  12  28  1   
 19  12  29  1   
 20  13  15  1   
 21  13  30  1   
 22  13  31  1   
 23  14  16  1   
 24  14  32  1   
 25  14  33  1   
 26  15  16  1   
 27  15  34  1   
 28  15  35  1   
 29  16  17  1   
 30  16  18  1   
 31  17  19  1   
 32  18  20  1   
 33  18  36  1   
 34  18  37  1   
 35  19  21  1   
 36  19  38  1   
 37  19  39  1   
 38  20  21  1   
 39  20  22  1   
 40  20  23  1   
 41  21  24  1   
 42  21  40  1   
 43  22  41  1   
 44  23  42  1   
 45  23  43  1   
 46  23  44  1   
 47  24  45  1   
@<TRIPOS>SUBSTRUCTURE
  1 ****  15 GROUP 4 **** **** 0

# MOE 2024.06 (io_trps.svl 2023.06)
