@<TRIPOS>MOLECULE
NONAME
45 47 1 0 0 
SMALL
USER_CHARGES


@<TRIPOS>ATOM
  1 F       -0.1030    -0.9360    -1.0160 F     1 <1>  -0.1900 
  2 C       -0.7950    -1.9610    -0.5880 C.ar  1 <1>   0.1900 
  3 C       -0.2780    -3.2240    -0.7410 C.ar  1 <1>  -0.1500 
  4 C       -2.0360    -1.7080     0.0060 C.ar  1 <1>  -0.1500 
  5 C       -1.0430    -4.2900    -0.2750 C.ar  1 <1>   0.2270 
  6 C       -2.7900    -2.7660     0.4660 C.ar  1 <1>  -0.1500 
  7 N       -0.7730    -5.6250    -0.3030 N.2   1 <1>  -0.5650 
  8 C       -2.2740    -4.0580     0.3160 C.ar  1 <1>  -0.1520 
  9 C       -1.7970    -6.1710     0.2510 C.2   1 <1>   0.0060 
 10 N       -2.7460    -5.2850     0.6500 N.pl3 1 <1>   0.0330 
 11 C       -1.9570    -7.6640     0.4380 C.3   1 <1>   0.0200 
 12 C       -2.6020    -8.2700    -0.8080 C.3   1 <1>   0.1400 
 13 N       -2.9510    -9.6900    -0.5670 N.am  1 <1>  -0.7300 
 14 C       -4.1150   -10.1170    -0.0030 C.2   1 <1>   0.5690 
 15 O       -4.9440    -9.2990     0.3960 O.2   1 <1>  -0.5700 
 16 C       -4.3320   -11.6490     0.1420 C.3   1 <1>   0.2810 
 17 N       -3.2020   -12.2850     0.8390 N.am  1 <1>  -0.7300 
 18 C       -5.6460   -12.0230     0.8560 C.3   1 <1>   0.0200 
 19 C       -2.7000   -13.4970     0.6460 C.2   1 <1>   0.5690 
 20 C       -6.8840   -11.7710     0.0240 C.2   1 <1>  -0.3320 
 21 O       -1.7670   -13.8570     1.3390 O.2   1 <1>  -0.5700 
 22 C       -3.2660   -14.4140    -0.4260 C.3   1 <1>  -0.1790 
 23 N       -7.3930   -10.5370    -0.3210 N.pl3 1 <1>   0.0330 
 24 C       -7.6850   -12.7170    -0.5590 C.2   1 <1>   0.0770 
 25 C       -8.4740   -10.7400    -1.0910 C.2   1 <1>   0.0360 
 26 N       -8.6890   -12.0530    -1.2640 N.2   1 <1>  -0.5650 
 27 H        0.6750    -3.4050    -1.1980 H     1 <1>   0.1500 
 28 H       -2.3790    -0.6930     0.0930 H     1 <1>   0.1500 
 29 H       -3.7490    -2.6090     0.9290 H     1 <1>   0.1500 
 30 H       -3.6380    -5.4950     1.1070 H     1 <1>   0.2700 
 31 H       -0.9890    -8.1050     0.5930 H     1 <1>   0.0800 
 32 H       -2.5690    -7.8540     1.3020 H     1 <1>   0.0800 
 33 H       -1.9250    -8.1940    -1.6430 H     1 <1>   0.0800 
 34 H       -3.4970    -7.7220    -1.0520 H     1 <1>   0.0800 
 35 H       -2.2260   -10.3750    -0.8010 H     1 <1>   0.3700 
 36 H       -4.3880   -12.0430    -0.8730 H     1 <1>   0.0800 
 37 H       -2.7530   -11.7690     1.5790 H     1 <1>   0.3700 
 38 H       -5.7200   -11.4630     1.7890 H     1 <1>   0.0800 
 39 H       -5.6240   -13.0810     1.1160 H     1 <1>   0.0800 
 40 H       -4.3220   -14.5950    -0.2400 H     1 <1>   0.0800 
 41 H       -2.7310   -15.3630    -0.3970 H     1 <1>   0.0800 
 42 H       -3.1320   -13.9580    -1.4050 H     1 <1>   0.0800 
 43 H       -6.9950    -9.6410    -0.0620 H     1 <1>   0.2700 
 44 H       -7.5680   -13.7910    -0.4930 H     1 <1>   0.1500 
 45 H       -9.0860    -9.9580    -1.5180 H     1 <1>   0.1500 
@<TRIPOS>BOND
  1   1   2  1   
  2   2   3  ar  
  3   2   4  ar  
  4   3   5  ar  
  5   3  27  1   
  6   4   6  ar  
  7   4  28  1   
  8   5   7  1   
  9   5   8  ar  
 10   6   8  ar  
 11   6  29  1   
 12   7   9  2   
 13   8  10  1   
 14   9  10  1   
 15   9  11  1   
 16  10  30  1   
 17  11  12  1   
 18  11  31  1   
 19  11  32  1   
 20  12  13  1   
 21  12  33  1   
 22  12  34  1   
 23  13  14  am  
 24  13  35  1   
 25  14  15  2   
 26  14  16  1   
 27  16  17  1   
 28  16  18  1   
 29  16  36  1   
 30  17  19  am  
 31  17  37  1   
 32  18  20  1   
 33  18  38  1   
 34  18  39  1   
 35  19  21  2   
 36  19  22  1   
 37  20  23  1   
 38  20  24  2   
 39  22  40  1   
 40  22  41  1   
 41  22  42  1   
 42  23  25  1   
 43  23  43  1   
 44  24  26  1   
 45  24  44  1   
 46  25  26  2   
 47  25  45  1   
@<TRIPOS>SUBSTRUCTURE
  1 ****  12 GROUP 4 **** **** 0

# MOE 2024.06 (io_trps.svl 2023.06)
