@<TRIPOS>MOLECULE
NONAME
53 55 1 0 0 
SMALL
USER_CHARGES


@<TRIPOS>ATOM
  1 O       -1.0690     0.2170     2.0770 O.2   1 <1>  -0.5700 
  2 C       -1.6560     0.8210     1.2090 C.2   1 <1>   0.5690 
  3 N       -2.4830     0.1510     0.3400 N.am  1 <1>  -0.6600 
  4 C       -1.4870     2.3500     1.1380 C.3   1 <1>   0.1710 
  5 C       -3.3800     0.7310    -0.6920 C.3   1 <1>   0.1400 
  6 C       -2.6350    -1.3240     0.3820 C.3   1 <1>   0.1400 
  7 N       -0.3460     2.8590     0.3190 N.3   1 <1>  -0.8100 
  8 C       -4.4130    -0.3650    -0.9460 C.3   1 <1>   0.2000 
  9 C       -3.6190    -1.6630    -0.7480 C.3   1 <1>  -0.0800 
 10 C       -0.2350     4.3260     0.4410 C.3   1 <1>   0.1100 
 11 C       -0.4180     2.4280    -1.0840 C.3   1 <1>   0.0300 
 12 O       -5.3920    -0.2610     0.0310 O.3   1 <1>  -0.6800 
 13 C       -4.4850    -2.9120    -0.4800 C.3   1 <1>  -0.0170 
 14 C        1.1810     4.8090     0.1220 C.3   1 <1>   0.1200 
 15 C       -3.7540    -4.2590    -0.4230 C.ar  1 <1>  -0.1440 
 16 O        1.2140     6.1950     0.2650 O.3   1 <1>  -0.5600 
 17 C       -4.4540    -5.4180    -0.0030 C.ar  1 <1>   0.0000 
 18 C       -2.4410    -4.4240    -0.7690 C.ar  1 <1>  -0.1500 
 19 C        2.4720     6.7490     0.0550 C.3   1 <1>   0.0400 
 20 C       -3.7440    -6.6430     0.0520 C.ar  1 <1>   0.3100 
 21 C       -5.8220    -5.4370     0.3610 C.ar  1 <1>  -0.1500 
 22 C       -1.8340    -5.6820    -0.6820 C.ar  1 <1>   0.1600 
 23 N       -2.4370    -6.7570    -0.2890 N.ar  1 <1>  -0.6200 
 24 C       -4.4130    -7.8030     0.4740 C.ar  1 <1>  -0.1500 
 25 C       -6.4460    -6.5860     0.7660 C.ar  1 <1>  -0.1500 
 26 C       -5.7350    -7.7860     0.8260 C.ar  1 <1>  -0.1500 
 27 H       -1.3420     2.6820     2.1510 H     1 <1>   0.0800 
 28 H       -2.4000     2.7940     0.7900 H     1 <1>   0.0800 
 29 H       -3.8480     1.6440    -0.3670 H     1 <1>   0.0800 
 30 H       -2.8150     0.9090    -1.5900 H     1 <1>   0.0800 
 31 H       -1.6800    -1.8010     0.2450 H     1 <1>   0.0800 
 32 H       -3.0340    -1.6090     1.3410 H     1 <1>   0.0800 
 33 H       -4.8820    -0.2910    -1.9120 H     1 <1>   0.0800 
 34 H       -3.0540    -1.8200    -1.6490 H     1 <1>   0.0800 
 35 H       -0.9410     4.8080    -0.2140 H     1 <1>   0.0800 
 36 H       -0.4510     4.6190     1.4540 H     1 <1>   0.0800 
 37 H        0.4450     2.7730    -1.6250 H     1 <1>   0.0800 
 38 H       -1.3040     2.8190    -1.5530 H     1 <1>   0.0800 
 39 H       -0.4270     1.3530    -1.1380 H     1 <1>   0.0800 
 40 H       -4.9580    -0.2110     0.9070 H     1 <1>   0.4000 
 41 H       -5.2370    -2.9730    -1.2470 H     1 <1>   0.0800 
 42 H       -4.9930    -2.7690     0.4580 H     1 <1>   0.0800 
 43 H        1.4520     4.5670    -0.8890 H     1 <1>   0.0800 
 44 H        1.8800     4.3700     0.8140 H     1 <1>   0.0800 
 45 H       -1.8240    -3.6200    -1.1180 H     1 <1>   0.1500 
 46 H        2.3940     7.8140     0.1850 H     1 <1>   0.0800 
 47 H        2.7950     6.5270    -0.9470 H     1 <1>   0.0800 
 48 H        3.1620     6.3450     0.7750 H     1 <1>   0.0800 
 49 H       -6.3960    -4.5300     0.3190 H     1 <1>   0.1500 
 50 H       -0.7970    -5.7590    -0.9610 H     1 <1>   0.1500 
 51 H       -3.8450    -8.7150     0.5090 H     1 <1>   0.1500 
 52 H       -7.4870    -6.5810     1.0400 H     1 <1>   0.1500 
 53 H       -6.2350    -8.6830     1.1460 H     1 <1>   0.1500 
@<TRIPOS>BOND
  1   1   2  2   
  2   2   3  am  
  3   2   4  1   
  4   3   5  1   
  5   3   6  1   
  6   4   7  1   
  7   4  27  1   
  8   4  28  1   
  9   5   8  1   
 10   5  29  1   
 11   5  30  1   
 12   6   9  1   
 13   6  31  1   
 14   6  32  1   
 15   7  10  1   
 16   7  11  1   
 17   8   9  1   
 18   8  12  1   
 19   8  33  1   
 20   9  13  1   
 21   9  34  1   
 22  10  14  1   
 23  10  35  1   
 24  10  36  1   
 25  11  37  1   
 26  11  38  1   
 27  11  39  1   
 28  12  40  1   
 29  13  15  1   
 30  13  41  1   
 31  13  42  1   
 32  14  16  1   
 33  14  43  1   
 34  14  44  1   
 35  15  17  ar  
 36  15  18  ar  
 37  16  19  1   
 38  17  20  ar  
 39  17  21  ar  
 40  18  22  ar  
 41  18  45  1   
 42  19  46  1   
 43  19  47  1   
 44  19  48  1   
 45  20  23  ar  
 46  20  24  ar  
 47  21  25  ar  
 48  21  49  1   
 49  22  23  ar  
 50  22  50  1   
 51  24  26  ar  
 52  24  51  1   
 53  25  26  ar  
 54  25  52  1   
 55  26  53  1   
@<TRIPOS>SUBSTRUCTURE
  1 ****   6 GROUP 4 **** **** 0

# MOE 2024.06 (io_trps.svl 2023.06)
