@<TRIPOS>MOLECULE
NONAME
53 55 1 0 0 
SMALL
USER_CHARGES


@<TRIPOS>ATOM
  1 O        0.5450     0.8770    -0.0870 O.3   1 <1>  -0.6800 
  2 C        1.6520     1.6640     0.1870 C.3   1 <1>   0.2000 
  3 C        1.5220     3.0170    -0.5370 C.3   1 <1>   0.2090 
  4 C        2.8930     0.9020    -0.2850 C.3   1 <1>  -0.1600 
  5 N        2.7700     3.8330    -0.3590 N.pl3 1 <1>  -0.8380 
  6 C        4.1480     1.7830    -0.1620 C.3   1 <1>  -0.1600 
  7 C        2.8020     5.1210     0.0750 C.ar  1 <1>   0.4100 
  8 C        3.9850     3.1290    -0.8790 C.3   1 <1>   0.2090 
  9 N        3.7630     5.9020    -0.3850 N.ar  1 <1>  -0.6200 
 10 C        1.8450     5.6090     0.9880 C.ar  1 <1>  -0.1500 
 11 C        3.7840     7.1590     0.0030 C.ar  1 <1>   0.7710 
 12 C        1.8970     6.9060     1.3740 C.ar  1 <1>   0.2110 
 13 N        2.8860     7.6770     0.8590 N.ar  1 <1>  -0.1790 
 14 N        4.7700     7.9040    -0.5110 N.pl3 1 <1>  -0.8690 
 15 C        5.1480     9.3330    -0.4160 C.3   1 <1>   0.2090 
 16 C        5.5890     9.8000    -1.8070 C.3   1 <1>  -0.1600 
 17 C        6.0600    11.2570    -1.8480 C.3   1 <1>   0.2090 
 18 N        7.2720    11.4180    -1.0040 N.pl3 1 <1>  -0.8690 
 19 C        7.8700    12.5340    -0.5290 C.ar  1 <1>   0.4610 
 20 N        7.3860    13.7580    -0.8090 N.ar  1 <1>  -0.1790 
 21 C        9.0230    12.4530     0.2680 C.ar  1 <1>  -0.1500 
 22 C        7.9670    14.9010    -0.3430 C.ar  1 <1>   0.2110 
 23 C        9.6290    13.5830     0.7520 C.ar  1 <1>  -0.1500 
 24 C        9.0890    14.8390     0.4410 C.ar  1 <1>  -0.1440 
 25 C        9.7730    16.0840     0.9860 C.3   1 <1>  -0.0960 
 26 H       -0.2410     1.1880     0.4020 H     1 <1>   0.4000 
 27 H        1.6960     1.8190     1.2510 H     1 <1>   0.0800 
 28 H        0.6580     3.5430    -0.1780 H     1 <1>   0.0800 
 29 H        1.3850     2.8330    -1.5890 H     1 <1>   0.0800 
 30 H        2.7650     0.6170    -1.3160 H     1 <1>   0.0800 
 31 H        3.0160     0.0110     0.3040 H     1 <1>   0.0800 
 32 H        4.9920     1.2620    -0.5780 H     1 <1>   0.0800 
 33 H        4.3610     1.9690     0.8770 H     1 <1>   0.0800 
 34 H        4.8720     3.7170    -0.7200 H     1 <1>   0.0800 
 35 H        3.8760     2.9700    -1.9390 H     1 <1>   0.0800 
 36 H        1.0980     4.9430     1.3740 H     1 <1>   0.1500 
 37 H        1.1960     7.3380     2.0710 H     1 <1>   0.1500 
 38 H        3.0030     8.6520     1.1060 H     1 <1>   0.4570 
 39 H        5.3900     7.3530    -1.1180 H     1 <1>   0.4000 
 40 H        5.9610     9.4370     0.2850 H     1 <1>   0.0800 
 41 H        4.3170     9.9280    -0.0750 H     1 <1>   0.0800 
 42 H        4.7570     9.7000    -2.4820 H     1 <1>   0.0800 
 43 H        6.3820     9.1710    -2.1730 H     1 <1>   0.0800 
 44 H        5.2720    11.9050    -1.5020 H     1 <1>   0.0800 
 45 H        6.3000    11.5170    -2.8670 H     1 <1>   0.0800 
 46 H        7.7710    10.5290    -0.8610 H     1 <1>   0.4000 
 47 H        6.5640    13.8080    -1.4050 H     1 <1>   0.4570 
 48 H        9.4280    11.4830     0.4960 H     1 <1>   0.1500 
 49 H        7.5220    15.8470    -0.6100 H     1 <1>   0.1500 
 50 H       10.5150    13.5180     1.3670 H     1 <1>   0.1500 
 51 H        9.2630    16.9800     0.6770 H     1 <1>   0.0800 
 52 H       10.7880    16.1330     0.6320 H     1 <1>   0.0800 
 53 H        9.7880    16.0570     2.0620 H     1 <1>   0.0800 
@<TRIPOS>BOND
  1   1   2  1   
  2   1  26  1   
  3   2   3  1   
  4   2   4  1   
  5   2  27  1   
  6   3   5  1   
  7   3  28  1   
  8   3  29  1   
  9   4   6  1   
 10   4  30  1   
 11   4  31  1   
 12   5   7  1   
 13   5   8  1   
 14   6   8  1   
 15   6  32  1   
 16   6  33  1   
 17   7   9  ar  
 18   7  10  ar  
 19   8  34  1   
 20   8  35  1   
 21   9  11  ar  
 22  10  12  ar  
 23  10  36  1   
 24  11  13  ar  
 25  11  14  1   
 26  12  13  ar  
 27  12  37  1   
 28  13  38  1   
 29  14  15  1   
 30  14  39  1   
 31  15  16  1   
 32  15  40  1   
 33  15  41  1   
 34  16  17  1   
 35  16  42  1   
 36  16  43  1   
 37  17  18  1   
 38  17  44  1   
 39  17  45  1   
 40  18  19  1   
 41  18  46  1   
 42  19  20  ar  
 43  19  21  ar  
 44  20  22  ar  
 45  20  47  1   
 46  21  23  ar  
 47  21  48  1   
 48  22  24  ar  
 49  22  49  1   
 50  23  24  ar  
 51  23  50  1   
 52  24  25  1   
 53  25  51  1   
 54  25  52  1   
 55  25  53  1   
@<TRIPOS>SUBSTRUCTURE
  1 ****  14 GROUP 4 **** **** 0

# MOE 2024.06 (io_trps.svl 2023.06)
