@<TRIPOS>MOLECULE
NONAME
53 55 1 0 0 
SMALL
USER_CHARGES


@<TRIPOS>ATOM
  1 F        0.0160    -0.5950     0.9150 F     1 <1>  -0.1900 
  2 C       -0.6290    -1.7300     0.8100 C.ar  1 <1>   0.1900 
  3 C       -0.0030    -2.9010     0.3690 C.ar  1 <1>   0.0830 
  4 C       -1.9640    -1.7130     1.1630 C.ar  1 <1>  -0.1500 
  5 O        1.3020    -3.0440    -0.0060 O.3   1 <1>  -0.3630 
  6 C       -0.7730    -4.0510     0.2960 C.ar  1 <1>  -0.1500 
  7 C       -2.7000    -2.8790     1.0800 C.ar  1 <1>  -0.1500 
  8 C        2.2100    -1.9670    -0.0520 C.3   1 <1>   0.0400 
  9 C       -2.1270    -4.0760     0.6430 C.ar  1 <1>   0.0530 
 10 C       -2.8880    -5.3000     0.5500 C.2   1 <1>   0.0870 
 11 O       -2.2750    -6.4610     0.5860 O.3   1 <1>  -0.0190 
 12 C       -4.2130    -5.5670     0.4200 C.2   1 <1>  -0.2330 
 13 N       -3.0950    -7.4750     0.4910 N.2   1 <1>  -0.4100 
 14 C       -4.2700    -6.9580     0.3860 C.2   1 <1>   0.3720 
 15 C       -5.3330    -4.6870     0.3370 C.2   1 <1>   1.0330 
 16 N       -5.4370    -7.7150     0.2630 N.pl3 1 <1>  -0.8210 
 17 O       -5.8130    -4.1730     1.3620 O.co2 1 <1>  -0.9000 
 18 O       -5.8070    -4.3650    -0.7690 O.co2 1 <1>  -0.9000 
 19 C       -6.1350    -7.6300    -1.0470 C.3   1 <1>   0.2090 
 20 C       -5.4330    -9.1050     0.7740 C.3   1 <1>   0.2090 
 21 C       -7.5820    -8.1250    -0.8880 C.3   1 <1>   0.1100 
 22 C       -6.8870    -9.5990     0.9210 C.3   1 <1>   0.1100 
 23 N       -7.6670    -9.5160    -0.3500 N.3   1 <1>  -0.8100 
 24 C       -9.0710    -9.8930    -0.1670 C.3   1 <1>   0.1100 
 25 C       -9.2010   -11.4200    -0.0460 C.3   1 <1>   0.3430 
 26 N      -10.6300   -11.8840    -0.0730 N.4   1 <1>  -0.9590 
 27 C      -11.3990   -11.4270     1.1280 C.3   1 <1>   0.2630 
 28 C      -10.6850   -13.3730    -0.1940 C.3   1 <1>   0.2630 
 29 H       -2.4240    -0.8020     1.4990 H     1 <1>   0.1500 
 30 H       -0.3040    -4.9560    -0.0450 H     1 <1>   0.1500 
 31 H       -3.7380    -2.8570     1.3640 H     1 <1>   0.1500 
 32 H        3.1540    -2.3400    -0.4080 H     1 <1>   0.0800 
 33 H        2.3280    -1.5660     0.9390 H     1 <1>   0.0800 
 34 H        1.8340    -1.2200    -0.7290 H     1 <1>   0.0800 
 35 H       -5.6190    -8.2340    -1.7720 H     1 <1>   0.0800 
 36 H       -6.1430    -6.6190    -1.4070 H     1 <1>   0.0800 
 37 H       -4.9410    -9.1290     1.7310 H     1 <1>   0.0800 
 38 H       -4.8900    -9.7400     0.0960 H     1 <1>   0.0800 
 39 H       -8.0600    -8.0780    -1.8500 H     1 <1>   0.0800 
 40 H       -8.0900    -7.4400    -0.2290 H     1 <1>   0.0800 
 41 H       -7.3590    -8.9930     1.6770 H     1 <1>   0.0800 
 42 H       -6.8610   -10.6150     1.2700 H     1 <1>   0.0800 
 43 H       -9.6270    -9.5730    -1.0310 H     1 <1>   0.0800 
 44 H       -9.4670    -9.3990     0.7040 H     1 <1>   0.0800 
 45 H       -8.7280   -11.7430     0.8660 H     1 <1>   0.0800 
 46 H       -8.6690   -11.8570    -0.8750 H     1 <1>   0.0800 
 47 H      -11.0690   -11.4830    -0.9170 H     1 <1>   0.4500 
 48 H      -10.9560   -11.8200     2.0290 H     1 <1>   0.0800 
 49 H      -12.4200   -11.7670     1.0700 H     1 <1>   0.0800 
 50 H      -11.4020   -10.3500     1.1870 H     1 <1>   0.0800 
 51 H      -10.2270   -13.8370     0.6640 H     1 <1>   0.0800 
 52 H      -10.1620   -13.6970    -1.0800 H     1 <1>   0.0800 
 53 H      -11.7080   -13.7060    -0.2610 H     1 <1>   0.0800 
@<TRIPOS>BOND
  1   1   2  1   
  2   2   3  ar  
  3   2   4  ar  
  4   3   5  1   
  5   3   6  ar  
  6   4   7  ar  
  7   4  29  1   
  8   5   8  1   
  9   6   9  ar  
 10   6  30  1   
 11   7   9  ar  
 12   7  31  1   
 13   8  32  1   
 14   8  33  1   
 15   8  34  1   
 16   9  10  1   
 17  10  11  1   
 18  10  12  2   
 19  11  13  1   
 20  12  14  1   
 21  12  15  1   
 22  13  14  2   
 23  14  16  1   
 24  15  17  ar  
 25  15  18  ar  
 26  16  19  1   
 27  16  20  1   
 28  19  21  1   
 29  19  35  1   
 30  19  36  1   
 31  20  22  1   
 32  20  37  1   
 33  20  38  1   
 34  21  23  1   
 35  21  39  1   
 36  21  40  1   
 37  22  23  1   
 38  22  41  1   
 39  22  42  1   
 40  23  24  1   
 41  24  25  1   
 42  24  43  1   
 43  24  44  1   
 44  25  26  1   
 45  25  45  1   
 46  25  46  1   
 47  26  27  1   
 48  26  28  1   
 49  26  47  1   
 50  27  48  1   
 51  27  49  1   
 52  27  50  1   
 53  28  51  1   
 54  28  52  1   
 55  28  53  1   
@<TRIPOS>SUBSTRUCTURE
  1 ****  14 GROUP 4 **** **** 0

# MOE 2024.06 (io_trps.svl 2023.06)
