@<TRIPOS>MOLECULE
NONAME
54 56 1 0 0 
SMALL
USER_CHARGES


@<TRIPOS>ATOM
  1 S       -0.1160     0.0250     1.2720 S.o2  1 <1>   1.2040 
  2 O       -1.3130     0.8250     1.1520 O.2   1 <1>  -0.6500 
  3 O        0.5120    -0.1590     2.5610 O.2   1 <1>  -0.6500 
  4 C       -0.4210    -1.6020     0.5340 C.ar  1 <1>  -0.0090 
  5 C        1.1060     0.7210     0.1780 C.3   1 <1>  -0.1350 
  6 C       -1.4060    -1.7820    -0.4280 C.ar  1 <1>  -0.1500 
  7 C        0.3360    -2.7090     0.8960 C.ar  1 <1>  -0.1500 
  8 C       -1.6380    -3.0200    -1.0010 C.ar  1 <1>  -0.1500 
  9 C        0.1140    -3.9530     0.3300 C.ar  1 <1>  -0.1500 
 10 C       -0.8850    -4.1190    -0.6170 C.ar  1 <1>  -0.1430 
 11 C       -1.1590    -5.4850    -1.2200 C.3   1 <1>   0.4860 
 12 N       -1.8600    -6.3230    -0.2000 N.4   1 <1>  -0.9590 
 13 C       -1.9650    -7.7600    -0.6550 C.3   1 <1>   0.3430 
 14 C       -3.1990    -5.7330     0.1170 C.3   1 <1>   0.3430 
 15 C       -2.7650    -8.6820     0.3230 C.3   1 <1>   0.4230 
 16 C       -3.9120    -6.5910     1.1660 C.3   1 <1>  -0.1600 
 17 N       -2.8620   -10.1520    -0.0870 N.4   1 <1>  -0.9590 
 18 C       -4.1350    -8.0660     0.7340 C.3   1 <1>   0.0000 
 19 C       -3.9100   -10.9250     0.6660 C.3   1 <1>   0.3430 
 20 C       -3.0520   -10.3920    -1.5590 C.3   1 <1>   0.2630 
 21 C       -4.6780    -8.8530     1.9610 C.3   1 <1>  -0.1600 
 22 C       -5.2110    -8.1150    -0.3900 C.3   1 <1>   0.1200 
 23 C       -4.1730   -10.3090     2.0410 C.3   1 <1>  -0.1600 
 24 O       -4.7120    -7.6520    -1.6000 O.3   1 <1>  -0.6800 
 25 H        0.7170     0.7970    -0.8190 H     1 <1>   0.0800 
 26 H        1.9880     0.1120     0.1630 H     1 <1>   0.0800 
 27 H        1.3760     1.7040     0.5120 H     1 <1>   0.0800 
 28 H       -2.0060    -0.9360    -0.7290 H     1 <1>   0.1500 
 29 H        1.1110    -2.5940     1.6390 H     1 <1>   0.1500 
 30 H       -2.4130    -3.1070    -1.7450 H     1 <1>   0.1500 
 31 H        0.7350    -4.7770     0.6410 H     1 <1>   0.1500 
 32 H       -0.2230    -5.9390    -1.5010 H     1 <1>   0.0800 
 33 H       -1.7680    -5.3810    -2.1040 H     1 <1>   0.0800 
 34 H       -1.2910    -6.2450     0.6540 H     1 <1>   0.4500 
 35 H       -2.4500    -7.7780    -1.6160 H     1 <1>   0.0800 
 36 H       -0.9740    -8.1630    -0.7750 H     1 <1>   0.0800 
 37 H       -3.0790    -4.7310     0.5010 H     1 <1>   0.0800 
 38 H       -3.7990    -5.6740    -0.7770 H     1 <1>   0.0800 
 39 H       -2.1870    -8.6760     1.2310 H     1 <1>   0.0800 
 40 H       -3.3350    -6.5440     2.0740 H     1 <1>   0.0800 
 41 H       -4.8630    -6.1330     1.3850 H     1 <1>   0.0800 
 42 H       -1.9670   -10.5950     0.1740 H     1 <1>   0.4500 
 43 H       -4.8340   -10.9240     0.1110 H     1 <1>   0.0800 
 44 H       -3.5990   -11.9520     0.7800 H     1 <1>   0.0800 
 45 H       -3.9740    -9.9490    -1.8990 H     1 <1>   0.0800 
 46 H       -3.0910   -11.4510    -1.7630 H     1 <1>   0.0800 
 47 H       -2.2380    -9.9720    -2.1260 H     1 <1>   0.0800 
 48 H       -4.4000    -8.3710     2.8840 H     1 <1>   0.0800 
 49 H       -5.7570    -8.8530     1.9450 H     1 <1>   0.0800 
 50 H       -6.0580    -7.5030    -0.1240 H     1 <1>   0.0800 
 51 H       -5.5690    -9.1170    -0.5500 H     1 <1>   0.0800 
 52 H       -4.9040   -10.9060     2.5590 H     1 <1>   0.0800 
 53 H       -3.2680   -10.3560     2.6230 H     1 <1>   0.0800 
 54 H       -5.4480    -7.5380    -2.2470 H     1 <1>   0.4000 
@<TRIPOS>BOND
  1   1   2  2   
  2   1   3  2   
  3   1   4  1   
  4   1   5  1   
  5   4   6  ar  
  6   4   7  ar  
  7   5  25  1   
  8   5  26  1   
  9   5  27  1   
 10   6   8  ar  
 11   6  28  1   
 12   7   9  ar  
 13   7  29  1   
 14   8  10  ar  
 15   8  30  1   
 16   9  10  ar  
 17   9  31  1   
 18  10  11  1   
 19  11  12  1   
 20  11  32  1   
 21  11  33  1   
 22  12  13  1   
 23  12  14  1   
 24  12  34  1   
 25  13  15  1   
 26  13  35  1   
 27  13  36  1   
 28  14  16  1   
 29  14  37  1   
 30  14  38  1   
 31  15  17  1   
 32  15  18  1   
 33  15  39  1   
 34  16  18  1   
 35  16  40  1   
 36  16  41  1   
 37  17  19  1   
 38  17  20  1   
 39  17  42  1   
 40  18  21  1   
 41  18  22  1   
 42  19  23  1   
 43  19  43  1   
 44  19  44  1   
 45  20  45  1   
 46  20  46  1   
 47  20  47  1   
 48  21  23  1   
 49  21  48  1   
 50  21  49  1   
 51  22  24  1   
 52  22  50  1   
 53  22  51  1   
 54  23  52  1   
 55  23  53  1   
 56  24  54  1   
@<TRIPOS>SUBSTRUCTURE
  1 ****  12 GROUP 4 **** **** 0

# MOE 2024.06 (io_trps.svl 2023.06)
