@<TRIPOS>MOLECULE
NONAME
40 41 1 0 0 
SMALL
USER_CHARGES


@<TRIPOS>ATOM
  1 F       -0.8480     2.2080    -2.6460 F     1 <1>  -0.1900 
  2 C       -1.6120     2.3610    -1.5970 C.ar  1 <1>   0.1900 
  3 C       -1.0350     2.6580    -0.3710 C.ar  1 <1>  -0.1440 
  4 C       -2.9780     2.2250    -1.7620 C.ar  1 <1>  -0.1500 
  5 C       -1.8760     2.8270     0.7190 C.ar  1 <1>  -0.1500 
  6 C        0.4660     2.8070    -0.2080 C.3   1 <1>   0.2840 
  7 C       -3.8020     2.3930    -0.6620 C.ar  1 <1>  -0.1500 
  8 C       -3.2490     2.6940     0.5740 C.ar  1 <1>  -0.1500 
  9 N        0.7960     4.2400    -0.3100 N.am  1 <1>  -0.7300 
 10 C        1.2620     5.0040     0.7070 C.2   1 <1>   0.5690 
 11 O        1.5410     4.5330     1.7820 O.2   1 <1>  -0.5700 
 12 C        1.4130     6.5080     0.4950 C.3   1 <1>  -0.0190 
 13 C        0.0740     7.1690     0.1110 C.3   1 <1>  -0.1600 
 14 C        2.5220     6.8420    -0.5320 C.3   1 <1>  -0.1600 
 15 C        0.1810     8.7070     0.0530 C.3   1 <1>   0.2000 
 16 C        2.3680     8.2320    -1.1810 C.3   1 <1>  -0.1600 
 17 O       -0.6970     9.1670    -0.9450 O.3   1 <1>  -0.5600 
 18 C        1.6180     9.2020    -0.2640 C.3   1 <1>   0.2000 
 19 C       -2.0340     9.2610    -0.5600 C.3   1 <1>   0.0400 
 20 O        1.5460    10.4230    -0.9020 O.3   1 <1>  -0.6800 
 21 H       -3.3840     1.9930    -2.7300 H     1 <1>   0.1500 
 22 H       -1.4610     3.0670     1.6850 H     1 <1>   0.1500 
 23 H        0.9940     2.2610    -0.9690 H     1 <1>   0.0800 
 24 H        0.7700     2.4220     0.7510 H     1 <1>   0.0800 
 25 H       -4.8680     2.2910    -0.7650 H     1 <1>   0.1500 
 26 H       -3.8910     2.8260     1.4290 H     1 <1>   0.1500 
 27 H        0.5100     4.6800    -1.1850 H     1 <1>   0.3700 
 28 H        1.7110     6.9220     1.4430 H     1 <1>   0.0800 
 29 H       -0.6780     6.8940     0.8300 H     1 <1>   0.0800 
 30 H       -0.2290     6.8000    -0.8530 H     1 <1>   0.0800 
 31 H        3.4730     6.7870    -0.0280 H     1 <1>   0.0800 
 32 H        2.5400     6.1060    -1.3180 H     1 <1>   0.0800 
 33 H       -0.1100     9.1360     0.9980 H     1 <1>   0.0800 
 34 H        1.8110     8.1310    -2.0960 H     1 <1>   0.0800 
 35 H        3.3390     8.6300    -1.4190 H     1 <1>   0.0800 
 36 H        2.1770     9.3370     0.6460 H     1 <1>   0.0800 
 37 H       -2.5970     9.6300    -1.3990 H     1 <1>   0.0800 
 38 H       -2.1200     9.9490     0.2630 H     1 <1>   0.0800 
 39 H       -2.4000     8.2880    -0.2820 H     1 <1>   0.0800 
 40 H        0.6960    10.4130    -1.3990 H     1 <1>   0.4000 
@<TRIPOS>BOND
  1   1   2  1   
  2   2   3  ar  
  3   2   4  ar  
  4   3   5  ar  
  5   3   6  1   
  6   4   7  ar  
  7   4  21  1   
  8   5   8  ar  
  9   5  22  1   
 10   6   9  1   
 11   6  23  1   
 12   6  24  1   
 13   7   8  ar  
 14   7  25  1   
 15   8  26  1   
 16   9  10  am  
 17   9  27  1   
 18  10  11  2   
 19  10  12  1   
 20  12  13  1   
 21  12  14  1   
 22  12  28  1   
 23  13  15  1   
 24  13  29  1   
 25  13  30  1   
 26  14  16  1   
 27  14  31  1   
 28  14  32  1   
 29  15  17  1   
 30  15  18  1   
 31  15  33  1   
 32  16  18  1   
 33  16  34  1   
 34  16  35  1   
 35  17  19  1   
 36  18  20  1   
 37  18  36  1   
 38  19  37  1   
 39  19  38  1   
 40  19  39  1   
 41  20  40  1   
@<TRIPOS>SUBSTRUCTURE
  1 ****   9 GROUP 4 **** **** 0

# MOE 2024.06 (io_trps.svl 2023.06)
