@<TRIPOS>MOLECULE
NONAME
25 26 1 0 0 
SMALL
USER_CHARGES


@<TRIPOS>ATOM
  1 F       -1.1650     7.8140     1.7370 F     1 <1>  -0.1900 
  2 C       -0.6380     8.0120     0.5580 C.ar  1 <1>   0.1900 
  3 C       -0.2640     6.9080    -0.1970 C.ar  1 <1>  -0.1440 
  4 C       -0.4710     9.3180     0.1280 C.ar  1 <1>  -0.1500 
  5 C        0.3080     7.1390    -1.4440 C.ar  1 <1>  -0.1500 
  6 C       -0.4850     5.5150     0.3670 C.3   1 <1>   0.5660 
  7 C        0.0990     9.5400    -1.1150 C.ar  1 <1>  -0.1500 
  8 C        0.4770     8.4460    -1.8730 C.ar  1 <1>   0.1900 
  9 N        0.8370     4.9430     0.6770 N.4   1 <1>  -0.9060 
 10 C       -1.1420     4.5370    -0.6100 C.3   1 <1>  -0.1600 
 11 F        1.0180     8.6480    -3.0430 F     1 <1>  -0.1900 
 12 C        0.8430     3.5150     0.2910 C.3   1 <1>   0.3430 
 13 C       -0.0970     3.4580    -0.9000 C.3   1 <1>  -0.1600 
 14 H       -0.7800    10.1400     0.7510 H     1 <1>   0.1500 
 15 H        0.6200     6.3410    -2.0960 H     1 <1>   0.1500 
 16 H       -1.0830     5.5670     1.2640 H     1 <1>   0.0800 
 17 H        0.2490    10.5380    -1.4920 H     1 <1>   0.1500 
 18 H        1.5210     5.4630     0.1170 H     1 <1>   0.4500 
 19 H        1.0700     5.0890     1.6660 H     1 <1>   0.4500 
 20 H       -1.9980     4.0990    -0.1260 H     1 <1>   0.0800 
 21 H       -1.4860     5.0180    -1.5100 H     1 <1>   0.0800 
 22 H        1.8330     3.1670     0.0410 H     1 <1>   0.0800 
 23 H        0.4430     2.9160     1.0950 H     1 <1>   0.0800 
 24 H        0.4480     3.6950    -1.7980 H     1 <1>   0.0800 
 25 H       -0.5380     2.4820    -1.0120 H     1 <1>   0.0800 
@<TRIPOS>BOND
  1   1   2  1   
  2   2   3  ar  
  3   2   4  ar  
  4   3   5  ar  
  5   3   6  1   
  6   4   7  ar  
  7   4  14  1   
  8   5   8  ar  
  9   5  15  1   
 10   6   9  1   
 11   6  10  1   
 12   6  16  1   
 13   7   8  ar  
 14   7  17  1   
 15   8  11  1   
 16   9  12  1   
 17   9  18  1   
 18   9  19  1   
 19  10  13  1   
 20  10  20  1   
 21  10  21  1   
 22  12  13  1   
 23  12  22  1   
 24  12  23  1   
 25  13  24  1   
 26  13  25  1   
@<TRIPOS>SUBSTRUCTURE
  1 ****   3 GROUP 4 **** **** 0

# MOE 2024.06 (io_trps.svl 2023.06)
