@<TRIPOS>MOLECULE
NONAME
52 55 1 0 0 
SMALL
USER_CHARGES


@<TRIPOS>ATOM
  1 O       -1.8590     0.3720     0.9420 O.co2 1 <1>  -0.9000 
  2 C       -2.0350     0.0620    -0.2400 C.2   1 <1>   0.9060 
  3 O       -1.1390     0.0500    -1.0870 O.co2 1 <1>  -0.9000 
  4 C       -3.3820    -0.5610    -0.6090 C.3   1 <1>   0.2370 
  5 N       -3.4300    -2.0680    -0.4120 N.4   1 <1>  -0.9590 
  6 C       -3.0940    -2.4400     1.0160 C.3   1 <1>   0.4230 
  7 C       -2.6080    -2.7530    -1.4430 C.3   1 <1>   0.3430 
  8 C       -1.6040    -2.7690     1.2900 C.3   1 <1>   0.1200 
  9 C       -4.0150    -3.6250     1.4110 C.3   1 <1>   0.2090 
 10 C       -2.3850    -4.2470    -1.1580 C.3   1 <1>  -0.0800 
 11 O       -1.3080    -4.1120     1.0190 O.3   1 <1>  -0.5600 
 12 N       -4.6040    -4.3040     0.1950 N.pl3 1 <1>  -0.8380 
 13 C       -1.1150    -4.4440    -0.3130 C.3   1 <1>   0.1200 
 14 C       -3.6100    -5.0560    -0.6530 C.3   1 <1>   0.2090 
 15 C       -5.8960    -4.7970     0.2830 C.ar  1 <1>   0.4100 
 16 N       -6.0840    -6.0580     0.0250 N.ar  1 <1>  -0.6200 
 17 C       -6.9480    -3.9290     0.6380 C.ar  1 <1>  -0.1500 
 18 C       -7.3440    -6.5440     0.1300 C.ar  1 <1>   0.3100 
 19 C       -8.2270    -4.3800     0.7500 C.ar  1 <1>  -0.1440 
 20 C       -8.4580    -5.7500     0.4920 C.ar  1 <1>   0.0000 
 21 C       -7.5450    -7.9050    -0.1340 C.ar  1 <1>  -0.1500 
 22 C       -9.3590    -3.4390     1.1340 C.3   1 <1>  -0.0970 
 23 C       -9.7240    -6.3680     0.5710 C.ar  1 <1>  -0.1500 
 24 C       -8.7810    -8.4880    -0.0530 C.ar  1 <1>   0.0820 
 25 C       -9.8880    -7.7020     0.3060 C.ar  1 <1>  -0.1500 
 26 O       -8.8700    -9.8120    -0.3290 O.3   1 <1>  -0.3620 
 27 C      -10.0960   -10.5040    -0.2680 C.3   1 <1>   0.0400 
 28 H       -3.5820    -0.3170    -1.6360 H     1 <1>   0.0800 
 29 H       -4.1250    -0.0890     0.0070 H     1 <1>   0.0800 
 30 H       -4.3770    -2.4700    -0.5280 H     1 <1>   0.4500 
 31 H       -3.3390    -1.6010     1.6470 H     1 <1>   0.0800 
 32 H       -3.1020    -2.6510    -2.3950 H     1 <1>   0.0800 
 33 H       -1.6500    -2.2620    -1.5230 H     1 <1>   0.0800 
 34 H       -1.4130    -2.6210     2.3370 H     1 <1>   0.0800 
 35 H       -0.9330    -2.1260     0.7460 H     1 <1>   0.0800 
 36 H       -4.8040    -3.2430     2.0340 H     1 <1>   0.0800 
 37 H       -3.4860    -4.3480     2.0080 H     1 <1>   0.0800 
 38 H       -2.1280    -4.6780    -2.1080 H     1 <1>   0.0800 
 39 H       -0.2950    -3.8570    -0.6940 H     1 <1>   0.0800 
 40 H       -0.8220    -5.4800    -0.3350 H     1 <1>   0.0800 
 41 H       -3.2710    -5.9190    -0.1040 H     1 <1>   0.0800 
 42 H       -4.1340    -5.4280    -1.5190 H     1 <1>   0.0800 
 43 H       -6.7110    -2.8980     0.8100 H     1 <1>   0.1500 
 44 H       -6.6920    -8.4960    -0.4060 H     1 <1>   0.1500 
 45 H       -8.9960    -2.4380     1.2820 H     1 <1>   0.0800 
 46 H       -9.8190    -3.7700     2.0490 H     1 <1>   0.0800 
 47 H      -10.1010    -3.4170     0.3560 H     1 <1>   0.0800 
 48 H      -10.5790    -5.7790     0.8440 H     1 <1>   0.1500 
 49 H      -10.8670    -8.1360     0.3770 H     1 <1>   0.1500 
 50 H       -9.9110   -11.5320    -0.5230 H     1 <1>   0.0800 
 51 H      -10.7780   -10.0690    -0.9760 H     1 <1>   0.0800 
 52 H      -10.4830   -10.4410     0.7340 H     1 <1>   0.0800 
@<TRIPOS>BOND
  1   1   2  ar  
  2   2   3  ar  
  3   2   4  1   
  4   4   5  1   
  5   4  28  1   
  6   4  29  1   
  7   5   6  1   
  8   5   7  1   
  9   5  30  1   
 10   6   8  1   
 11   6   9  1   
 12   6  31  1   
 13   7  10  1   
 14   7  32  1   
 15   7  33  1   
 16   8  11  1   
 17   8  34  1   
 18   8  35  1   
 19   9  12  1   
 20   9  36  1   
 21   9  37  1   
 22  10  13  1   
 23  10  14  1   
 24  10  38  1   
 25  11  13  1   
 26  12  14  1   
 27  12  15  1   
 28  13  39  1   
 29  13  40  1   
 30  14  41  1   
 31  14  42  1   
 32  15  16  ar  
 33  15  17  ar  
 34  16  18  ar  
 35  17  19  ar  
 36  17  43  1   
 37  18  20  ar  
 38  18  21  ar  
 39  19  20  ar  
 40  19  22  1   
 41  20  23  ar  
 42  21  24  ar  
 43  21  44  1   
 44  22  45  1   
 45  22  46  1   
 46  22  47  1   
 47  23  25  ar  
 48  23  48  1   
 49  24  25  ar  
 50  24  26  1   
 51  25  49  1   
 52  26  27  1   
 53  27  50  1   
 54  27  51  1   
 55  27  52  1   
@<TRIPOS>SUBSTRUCTURE
  1 ****  15 GROUP 4 **** **** 0

# MOE 2024.06 (io_trps.svl 2023.06)
