@<TRIPOS>MOLECULE
NONAME
54 57 1 0 0 
SMALL
USER_CHARGES


@<TRIPOS>ATOM
  1 O       -1.1010     0.2890     2.0060 O.2   1 <1>  -0.5700 
  2 C       -1.7330     0.7650     1.0920 C.2   1 <1>   0.5690 
  3 N       -2.7000     0.0190     0.4640 N.am  1 <1>  -0.6600 
  4 C       -1.4010     2.2140     0.7050 C.3   1 <1>  -0.0190 
  5 C       -3.6860     0.4430    -0.5600 C.3   1 <1>   0.1400 
  6 C       -2.9670    -1.3910     0.8570 C.3   1 <1>   0.1400 
  7 C       -2.4270     3.1940     1.3150 C.3   1 <1>  -0.1600 
  8 C       -1.1290     2.3900    -0.8080 C.3   1 <1>  -0.1600 
  9 C       -4.8620    -0.5110    -0.3660 C.3   1 <1>   0.2000 
 10 C       -4.2140    -1.8270     0.0670 C.3   1 <1>  -0.0800 
 11 C       -2.1570     4.6840     1.0490 C.3   1 <1>  -0.1600 
 12 C       -0.3420     3.6690    -1.1320 C.3   1 <1>  -0.1600 
 13 O       -5.6280    -0.0450     0.6890 O.3   1 <1>  -0.6800 
 14 C       -3.8510    -2.6880    -1.1590 C.3   1 <1>  -0.0170 
 15 C       -2.4200     5.0790    -0.4100 C.3   1 <1>  -0.1600 
 16 C       -1.2120     4.9180    -1.3450 C.3   1 <1>  -0.1600 
 17 C       -3.2980    -4.0450    -0.7560 C.ar  1 <1>   0.1670 
 18 N       -2.0130    -4.2090    -0.8080 N.ar  1 <1>  -0.6200 
 19 C       -4.1940    -5.0470    -0.3500 C.ar  1 <1>  -0.1500 
 20 C       -1.5130    -5.4180    -0.4420 C.ar  1 <1>   0.3100 
 21 C       -3.7220    -6.2700     0.0180 C.ar  1 <1>  -0.1500 
 22 C       -2.3350    -6.4860    -0.0200 C.ar  1 <1>   0.0000 
 23 C       -0.1240    -5.6190    -0.4820 C.ar  1 <1>  -0.1500 
 24 C       -1.7360    -7.7100     0.3400 C.ar  1 <1>  -0.1500 
 25 C        0.4380    -6.8160    -0.1270 C.ar  1 <1>  -0.1500 
 26 C       -0.3780    -7.8730     0.2880 C.ar  1 <1>  -0.1500 
 27 H       -0.4680     2.4210     1.2000 H     1 <1>   0.0800 
 28 H       -3.9930     1.4660    -0.4490 H     1 <1>   0.0800 
 29 H       -3.2580     0.2990    -1.5360 H     1 <1>   0.0800 
 30 H       -2.1070    -2.0030     0.6430 H     1 <1>   0.0800 
 31 H       -3.1610    -1.4300     1.9150 H     1 <1>   0.0800 
 32 H       -3.4180     2.9540     0.9780 H     1 <1>   0.0800 
 33 H       -2.4220     3.0430     2.3810 H     1 <1>   0.0800 
 34 H       -0.5340     1.5520    -1.1280 H     1 <1>   0.0800 
 35 H       -2.0380     2.3750    -1.3780 H     1 <1>   0.0800 
 36 H       -5.4930    -0.5940    -1.2340 H     1 <1>   0.0800 
 37 H       -4.8810    -2.3920     0.6940 H     1 <1>   0.0800 
 38 H       -2.8300     5.2490     1.6710 H     1 <1>   0.0800 
 39 H       -1.1560     4.9500     1.3430 H     1 <1>   0.0800 
 40 H        0.3760     3.8610    -0.3530 H     1 <1>   0.0800 
 41 H        0.2230     3.5070    -2.0340 H     1 <1>   0.0800 
 42 H       -5.0350     0.1310     1.4480 H     1 <1>   0.4000 
 43 H       -3.1230    -2.1790    -1.7670 H     1 <1>   0.0800 
 44 H       -4.7260    -2.8440    -1.7640 H     1 <1>   0.0800 
 45 H       -3.2500     4.5090    -0.7930 H     1 <1>   0.0800 
 46 H       -2.7190     6.1130    -0.4380 H     1 <1>   0.0800 
 47 H       -0.5780     5.7820    -1.2420 H     1 <1>   0.0800 
 48 H       -1.5750     4.9190    -2.3580 H     1 <1>   0.0800 
 49 H       -5.2480    -4.8360    -0.3350 H     1 <1>   0.1500 
 50 H       -4.3770    -7.0620     0.3340 H     1 <1>   0.1500 
 51 H        0.4850    -4.7940    -0.8030 H     1 <1>   0.1500 
 52 H       -2.3690    -8.5180     0.6590 H     1 <1>   0.1500 
 53 H        1.5050    -6.9570    -0.1630 H     1 <1>   0.1500 
 54 H        0.0770    -8.8090     0.5640 H     1 <1>   0.1500 
@<TRIPOS>BOND
  1   1   2  2   
  2   2   3  am  
  3   2   4  1   
  4   3   5  1   
  5   3   6  1   
  6   4   7  1   
  7   4   8  1   
  8   4  27  1   
  9   5   9  1   
 10   5  28  1   
 11   5  29  1   
 12   6  10  1   
 13   6  30  1   
 14   6  31  1   
 15   7  11  1   
 16   7  32  1   
 17   7  33  1   
 18   8  12  1   
 19   8  34  1   
 20   8  35  1   
 21   9  10  1   
 22   9  13  1   
 23   9  36  1   
 24  10  14  1   
 25  10  37  1   
 26  11  15  1   
 27  11  38  1   
 28  11  39  1   
 29  12  16  1   
 30  12  40  1   
 31  12  41  1   
 32  13  42  1   
 33  14  17  1   
 34  14  43  1   
 35  14  44  1   
 36  15  16  1   
 37  15  45  1   
 38  15  46  1   
 39  16  47  1   
 40  16  48  1   
 41  17  18  ar  
 42  17  19  ar  
 43  18  20  ar  
 44  19  21  ar  
 45  19  49  1   
 46  20  22  ar  
 47  20  23  ar  
 48  21  22  ar  
 49  21  50  1   
 50  22  24  ar  
 51  23  25  ar  
 52  23  51  1   
 53  24  26  ar  
 54  24  52  1   
 55  25  26  ar  
 56  25  53  1   
 57  26  54  1   
@<TRIPOS>SUBSTRUCTURE
  1 ****   6 GROUP 4 **** **** 0

# MOE 2024.06 (io_trps.svl 2023.06)
