@<TRIPOS>MOLECULE
NONAME
51 54 1 0 0 
SMALL
USER_CHARGES


@<TRIPOS>ATOM
  1 O       -0.9470    -0.8390    -0.7760 O.2   1 <1>  -0.5700 
  2 C       -0.8510    -1.9390    -0.2550 C.2   1 <1>   0.5440 
  3 N       -1.7840    -2.9100    -0.5280 N.am  1 <1>  -0.4200 
  4 C        0.2140    -2.2590     0.6530 C.ar  1 <1>   0.0860 
  5 C       -1.6720    -4.1460     0.0650 C.2   1 <1>   0.4500 
  6 C       -2.9300    -2.6550    -1.4560 C.3   1 <1>   0.2010 
  7 C        0.2290    -3.5490     1.1980 C.ar  1 <1>   0.1790 
  8 C        1.2230    -1.3610     1.0170 C.ar  1 <1>  -0.1500 
  9 N       -0.7410    -4.4780     0.8760 N.2   1 <1>  -0.6290 
 10 C       -4.2820    -2.9110    -0.7960 C.2   1 <1>   0.5690 
 11 C        1.2380    -3.9060     2.0850 C.ar  1 <1>  -0.1500 
 12 C        2.2180    -1.7290     1.8980 C.ar  1 <1>  -0.1500 
 13 O       -4.8340    -3.9460    -1.0910 O.2   1 <1>  -0.5700 
 14 N       -4.8370    -2.0200     0.0920 N.am  1 <1>  -0.6600 
 15 C        2.2260    -3.0080     2.4350 C.ar  1 <1>  -0.1500 
 16 C       -6.1510    -2.2960     0.7530 C.3   1 <1>   0.1400 
 17 C       -4.2470    -0.7110     0.4910 C.3   1 <1>   0.1400 
 18 C       -7.1860    -1.1960     0.4030 C.3   1 <1>   0.0000 
 19 C       -5.2230     0.4190     0.1460 C.3   1 <1>  -0.1600 
 20 C       -8.5320    -1.4510     1.1050 C.3   1 <1>   0.2000 
 21 C       -6.6090     0.1880     0.7730 C.3   1 <1>  -0.1600 
 22 C       -7.5870    -1.2880    -1.0800 C.3   1 <1>  -0.1600 
 23 O       -8.3490    -1.8990     2.4150 O.3   1 <1>  -0.5600 
 24 C       -9.2540    -2.4980     0.2510 C.3   1 <1>  -0.1600 
 25 C       -8.6410    -2.3980    -1.1530 C.3   1 <1>  -0.1600 
 26 C       -9.4900    -1.8630     3.2130 C.3   1 <1>   0.0400 
 27 H       -2.4300    -4.8690    -0.1860 H     1 <1>   0.0600 
 28 H       -2.9100    -1.6490    -1.8330 H     1 <1>   0.0800 
 29 H       -2.8350    -3.3120    -2.3010 H     1 <1>   0.0800 
 30 H        1.2140    -0.3700     0.5970 H     1 <1>   0.1500 
 31 H        1.2340    -4.9000     2.4940 H     1 <1>   0.1500 
 32 H        2.9890    -1.0290     2.1700 H     1 <1>   0.1500 
 33 H        3.0020    -3.2970     3.1230 H     1 <1>   0.1500 
 34 H       -6.5270    -3.2620     0.4650 H     1 <1>   0.0800 
 35 H       -5.9940    -2.3190     1.8170 H     1 <1>   0.0800 
 36 H       -4.0650    -0.7220     1.5520 H     1 <1>   0.0800 
 37 H       -3.3120    -0.5300    -0.0020 H     1 <1>   0.0800 
 38 H       -4.8210     1.3510     0.5010 H     1 <1>   0.0800 
 39 H       -5.3110     0.4910    -0.9240 H     1 <1>   0.0800 
 40 H       -9.1000    -0.5360     1.1220 H     1 <1>   0.0800 
 41 H       -7.2810     0.9680     0.4610 H     1 <1>   0.0800 
 42 H       -6.5180     0.2460     1.8440 H     1 <1>   0.0800 
 43 H       -8.0380    -0.3620    -1.3900 H     1 <1>   0.0800 
 44 H       -6.7530    -1.4940    -1.7270 H     1 <1>   0.0800 
 45 H       -9.0820    -3.4840     0.6460 H     1 <1>   0.0800 
 46 H      -10.3100    -2.2980     0.2220 H     1 <1>   0.0800 
 47 H       -8.1660    -3.3310    -1.4050 H     1 <1>   0.0800 
 48 H       -9.3850    -2.1750    -1.8980 H     1 <1>   0.0800 
 49 H       -9.2200    -2.2100     4.1950 H     1 <1>   0.0800 
 50 H      -10.2410    -2.5110     2.7960 H     1 <1>   0.0800 
 51 H       -9.8510    -0.8510     3.2720 H     1 <1>   0.0800 
@<TRIPOS>BOND
  1   1   2  2   
  2   2   3  am  
  3   2   4  1   
  4   3   5  1   
  5   3   6  1   
  6   4   7  ar  
  7   4   8  ar  
  8   5   9  2   
  9   5  27  1   
 10   6  10  1   
 11   6  28  1   
 12   6  29  1   
 13   7   9  1   
 14   7  11  ar  
 15   8  12  ar  
 16   8  30  1   
 17  10  13  2   
 18  10  14  am  
 19  11  15  ar  
 20  11  31  1   
 21  12  15  ar  
 22  12  32  1   
 23  14  16  1   
 24  14  17  1   
 25  15  33  1   
 26  16  18  1   
 27  16  34  1   
 28  16  35  1   
 29  17  19  1   
 30  17  36  1   
 31  17  37  1   
 32  18  20  1   
 33  18  21  1   
 34  18  22  1   
 35  19  21  1   
 36  19  38  1   
 37  19  39  1   
 38  20  23  1   
 39  20  24  1   
 40  20  40  1   
 41  21  41  1   
 42  21  42  1   
 43  22  25  1   
 44  22  43  1   
 45  22  44  1   
 46  23  26  1   
 47  24  25  1   
 48  24  45  1   
 49  24  46  1   
 50  25  47  1   
 51  25  48  1   
 52  26  49  1   
 53  26  50  1   
 54  26  51  1   
@<TRIPOS>SUBSTRUCTURE
  1 ****  14 GROUP 4 **** **** 0

# MOE 2024.06 (io_trps.svl 2023.06)
