@<TRIPOS>MOLECULE
NONAME
56 58 1 0 0 
SMALL
USER_CHARGES


@<TRIPOS>ATOM
  1 O       -0.6090     0.4380     1.2000 O.2   1 <1>  -0.5700 
  2 C       -1.2440     1.1820     0.4740 C.2   1 <1>   0.7150 
  3 N       -2.3320     0.6690    -0.2040 N.am  1 <1>  -0.6600 
  4 C       -0.8340     2.5540     0.3360 C.2   1 <1>  -0.2370 
  5 C       -2.7440    -0.7580    -0.0400 C.3   1 <1>   0.1400 
  6 C       -3.0820     1.4140    -1.2530 C.3   1 <1>   0.1400 
  7 N        0.4430     2.9240    -0.0040 N.pl3 1 <1>   0.0480 
  8 C       -1.5610     3.7050     0.5120 C.2   1 <1>  -0.1500 
  9 C       -3.9550    -0.8940     0.8950 C.3   1 <1>   0.1400 
 10 C       -4.4130     1.9880    -0.7390 C.3   1 <1>  -0.1600 
 11 C        0.4920     4.2770    -0.0560 C.2   1 <1>  -0.3020 
 12 C        1.5810     2.0200    -0.2530 C.3   1 <1>   0.0160 
 13 C       -0.7270     4.7890     0.2570 C.2   1 <1>  -0.1500 
 14 N       -5.1410    -0.1140     0.4060 N.am  1 <1>  -0.6600 
 15 C       -4.9820     1.3640     0.5420 C.3   1 <1>   0.1400 
 16 C       -6.3040    -0.6410    -0.0980 C.2   1 <1>   0.5690 
 17 O       -7.1980     0.0630    -0.5150 O.2   1 <1>  -0.5700 
 18 C       -6.5600    -2.1590    -0.1560 C.3   1 <1>   0.4040 
 19 N       -8.0300    -2.5050    -0.2430 N.4   1 <1>  -0.9590 
 20 C       -8.7160    -2.2410     1.0550 C.3   1 <1>   0.3430 
 21 C       -8.2510    -3.8590    -0.8160 C.3   1 <1>   0.3430 
 22 C      -10.1650    -1.8310     0.7970 C.3   1 <1>  -0.1600 
 23 C       -9.7190    -4.1080    -1.1680 C.3   1 <1>  -0.1600 
 24 C      -11.1610    -2.9940     0.6580 C.3   1 <1>  -0.1600 
 25 C      -10.6140    -4.2990     0.0650 C.3   1 <1>  -0.1600 
 26 H       -1.9290    -1.3340     0.3640 H     1 <1>   0.0800 
 27 H       -2.9770    -1.1800    -1.0010 H     1 <1>   0.0800 
 28 H       -3.2860     0.7440    -2.0700 H     1 <1>   0.0800 
 29 H       -2.4750     2.2100    -1.6500 H     1 <1>   0.0800 
 30 H       -2.5910     3.7840     0.8080 H     1 <1>   0.1500 
 31 H       -3.6730    -0.5390     1.8720 H     1 <1>   0.0800 
 32 H       -4.1960    -1.9350     0.9940 H     1 <1>   0.0800 
 33 H       -5.1480     1.9120    -1.5200 H     1 <1>   0.0800 
 34 H       -4.2800     3.0390    -0.5620 H     1 <1>   0.0800 
 35 H        1.3890     4.8150    -0.3060 H     1 <1>   0.1500 
 36 H        1.3090     1.3030    -1.0060 H     1 <1>   0.0800 
 37 H        1.8280     1.5050     0.6580 H     1 <1>   0.0800 
 38 H        2.4300     2.5880    -0.5860 H     1 <1>   0.0800 
 39 H       -1.0110     5.8260     0.3100 H     1 <1>   0.1500 
 40 H       -5.9380     1.8130     0.7570 H     1 <1>   0.0800 
 41 H       -4.3320     1.5860     1.3720 H     1 <1>   0.0800 
 42 H       -6.1300    -2.6230     0.7140 H     1 <1>   0.0800 
 43 H       -6.0520    -2.5350    -1.0260 H     1 <1>   0.0800 
 44 H       -8.4150    -1.8010    -0.8960 H     1 <1>   0.4500 
 45 H       -8.2260    -1.4180     1.5520 H     1 <1>   0.0800 
 46 H       -8.6720    -3.1030     1.7010 H     1 <1>   0.0800 
 47 H       -7.9180    -4.6120    -0.1200 H     1 <1>   0.0800 
 48 H       -7.6680    -3.9600    -1.7170 H     1 <1>   0.0800 
 49 H      -10.2110    -1.1990    -0.0730 H     1 <1>   0.0800 
 50 H      -10.4900    -1.2250     1.6260 H     1 <1>   0.0800 
 51 H       -9.7520    -5.0230    -1.7350 H     1 <1>   0.0800 
 52 H      -10.1000    -3.3310    -1.8090 H     1 <1>   0.0800 
 53 H      -11.9880    -2.6560     0.0550 H     1 <1>   0.0800 
 54 H      -11.5670    -3.2220     1.6300 H     1 <1>   0.0800 
 55 H      -10.0810    -4.8510     0.8210 H     1 <1>   0.0800 
 56 H      -11.4600    -4.9050    -0.2170 H     1 <1>   0.0800 
@<TRIPOS>BOND
  1   1   2  2   
  2   2   3  am  
  3   2   4  1   
  4   3   5  1   
  5   3   6  1   
  6   4   7  1   
  7   4   8  2   
  8   5   9  1   
  9   5  26  1   
 10   5  27  1   
 11   6  10  1   
 12   6  28  1   
 13   6  29  1   
 14   7  11  1   
 15   7  12  1   
 16   8  13  1   
 17   8  30  1   
 18   9  14  1   
 19   9  31  1   
 20   9  32  1   
 21  10  15  1   
 22  10  33  1   
 23  10  34  1   
 24  11  13  2   
 25  11  35  1   
 26  12  36  1   
 27  12  37  1   
 28  12  38  1   
 29  13  39  1   
 30  14  15  1   
 31  14  16  am  
 32  15  40  1   
 33  15  41  1   
 34  16  17  2   
 35  16  18  1   
 36  18  19  1   
 37  18  42  1   
 38  18  43  1   
 39  19  20  1   
 40  19  21  1   
 41  19  44  1   
 42  20  22  1   
 43  20  45  1   
 44  20  46  1   
 45  21  23  1   
 46  21  47  1   
 47  21  48  1   
 48  22  24  1   
 49  22  49  1   
 50  22  50  1   
 51  23  25  1   
 52  23  51  1   
 53  23  52  1   
 54  24  25  1   
 55  24  53  1   
 56  24  54  1   
 57  25  55  1   
 58  25  56  1   
@<TRIPOS>SUBSTRUCTURE
  1 ****  14 GROUP 4 **** **** 0

# MOE 2024.06 (io_trps.svl 2023.06)
