@<TRIPOS>MOLECULE
NONAME
49 52 1 0 0 
SMALL
USER_CHARGES


@<TRIPOS>ATOM
  1 S       -0.4180    -0.4870    -1.8800 S.o2  1 <1>   1.5010 
  2 O       -1.1460    -1.7320    -2.0000 O.2   1 <1>  -0.6500 
  3 O       -0.3920     0.4350    -2.9940 O.2   1 <1>  -0.6500 
  4 N       -1.0630     0.3390    -0.5480 N.am  1 <1>  -0.8490 
  5 C        1.2850    -0.8260    -1.3660 C.2   1 <1>  -0.0630 
  6 C       -2.3060     1.0490    -0.9040 C.3   1 <1>   0.1960 
  7 C       -1.3020    -0.5490     0.5950 C.3   1 <1>   0.1960 
  8 C        2.0160    -1.9020    -1.7210 C.2   1 <1>  -0.1100 
  9 C        2.0240     0.0720    -0.5300 C.2   1 <1>  -0.1500 
 10 C       -2.7730     1.9670     0.2430 C.3   1 <1>   0.1440 
 11 C       -1.7130     0.2710     1.8230 C.3   1 <1>  -0.1600 
 12 S        3.6190    -1.8450    -1.0240 S.3   1 <1>  -0.0800 
 13 C        3.2930    -0.3040    -0.2300 C.2   1 <1>  -0.0450 
 14 C       -4.0790     2.6470    -0.1180 C.ar  1 <1>   0.1670 
 15 C       -2.9480     1.1430     1.5370 C.3   1 <1>  -0.1600 
 16 C       -1.8140     3.1710     0.4500 C.3   1 <1>  -0.1600 
 17 C        4.3110     0.3240     0.5740 C.2   1 <1>   0.7150 
 18 N       -5.1460     2.0410    -0.5910 N.ar  1 <1>  -0.6200 
 19 C       -4.0290     3.9900     0.1060 C.ar  1 <1>  -0.1440 
 20 C       -2.6920     4.4190     0.6540 C.3   1 <1>  -0.0170 
 21 O        4.0700     1.3570     1.1680 O.2   1 <1>  -0.5700 
 22 N        5.5550    -0.2320     0.6830 N.am  1 <1>  -0.7300 
 23 C       -6.1700     2.8460    -0.8340 C.ar  1 <1>   0.4770 
 24 C       -5.1490     4.7290    -0.1810 C.ar  1 <1>   0.1600 
 25 C        6.6910     0.3110     1.4710 C.3   1 <1>   0.0600 
 26 N       -6.2370     4.1590    -0.6580 N.ar  1 <1>  -0.6200 
 27 C       -7.4100     2.1820    -1.3830 C.3   1 <1>  -0.0970 
 28 H       -3.0790     0.3330    -1.1340 H     1 <1>   0.0800 
 29 H       -2.1530     1.6530    -1.7830 H     1 <1>   0.0800 
 30 H       -0.4050    -1.0990     0.8260 H     1 <1>   0.0800 
 31 H       -2.0780    -1.2590     0.3540 H     1 <1>   0.0800 
 32 H        1.7690    -2.7490    -2.3390 H     1 <1>   0.1500 
 33 H        1.5730     0.9850    -0.1750 H     1 <1>   0.1500 
 34 H       -0.8820     0.8840     2.1230 H     1 <1>   0.0800 
 35 H       -1.9300    -0.3980     2.6370 H     1 <1>   0.0800 
 36 H       -3.8030     0.4990     1.4190 H     1 <1>   0.0800 
 37 H       -3.1460     1.7950     2.3700 H     1 <1>   0.0800 
 38 H       -1.2260     3.3150    -0.4410 H     1 <1>   0.0800 
 39 H       -1.1370     3.0290     1.2720 H     1 <1>   0.0800 
 40 H       -2.2980     5.2700     0.1250 H     1 <1>   0.0800 
 41 H       -2.7870     4.6500     1.7010 H     1 <1>   0.0800 
 42 H        5.7300    -1.0970     0.1690 H     1 <1>   0.3700 
 43 H       -5.1590     5.7940    -0.0210 H     1 <1>   0.1500 
 44 H        6.4050     1.2230     1.9680 H     1 <1>   0.0800 
 45 H        7.5210     0.5200     0.8180 H     1 <1>   0.0800 
 46 H        6.9950    -0.4060     2.2130 H     1 <1>   0.0800 
 47 H       -7.5960     1.2660    -0.8540 H     1 <1>   0.0800 
 48 H       -7.2640     1.9670    -2.4240 H     1 <1>   0.0800 
 49 H       -8.2610     2.8280    -1.2720 H     1 <1>   0.0800 
@<TRIPOS>BOND
  1   1   2  2   
  2   1   3  2   
  3   1   4  am  
  4   1   5  1   
  5   4   6  1   
  6   4   7  1   
  7   5   8  2   
  8   5   9  1   
  9   6  10  1   
 10   6  28  1   
 11   6  29  1   
 12   7  11  1   
 13   7  30  1   
 14   7  31  1   
 15   8  12  1   
 16   8  32  1   
 17   9  13  2   
 18   9  33  1   
 19  10  14  1   
 20  10  15  1   
 21  10  16  1   
 22  11  15  1   
 23  11  34  1   
 24  11  35  1   
 25  12  13  1   
 26  13  17  1   
 27  14  18  ar  
 28  14  19  ar  
 29  15  36  1   
 30  15  37  1   
 31  16  20  1   
 32  16  38  1   
 33  16  39  1   
 34  17  21  2   
 35  17  22  am  
 36  18  23  ar  
 37  19  20  1   
 38  19  24  ar  
 39  20  40  1   
 40  20  41  1   
 41  22  25  1   
 42  22  42  1   
 43  23  26  ar  
 44  23  27  1   
 45  24  26  ar  
 46  24  43  1   
 47  25  44  1   
 48  25  45  1   
 49  25  46  1   
 50  27  47  1   
 51  27  48  1   
 52  27  49  1   
@<TRIPOS>SUBSTRUCTURE
  1 ****   4 GROUP 4 **** **** 0

# MOE 2024.06 (io_trps.svl 2023.06)
