@<TRIPOS>MOLECULE
NONAME
35 35 1 0 0 
SMALL
USER_CHARGES


@<TRIPOS>ATOM
  1 S        1.2500     0.3250     0.6930 S.o2  1 <1>   1.3330 
  2 O        2.1740     0.6290     1.7580 O.2   1 <1>  -0.6500 
  3 O        1.2050    -0.9740     0.0730 O.2   1 <1>  -0.6500 
  4 N        1.5440     1.4110    -0.5530 N.am  1 <1>  -0.9140 
  5 C       -0.3980     0.7280     1.2370 C.3   1 <1>  -0.1350 
  6 C        1.5330     2.8180    -0.1930 C.3   1 <1>   0.1960 
  7 C        2.1220     3.6230    -1.3440 C.3   1 <1>  -0.0990 
  8 C        2.1790     5.0780    -0.9470 C.2   1 <1>   0.5690 
  9 O        1.1340     5.6690    -0.8570 O.2   1 <1>  -0.5700 
 10 N        3.4010     5.6270    -0.6920 N.am  1 <1>  -0.4940 
 11 C        3.7190     6.9240    -0.2710 C.2   1 <1>   0.2040 
 12 O        2.8020     7.8340    -0.0420 O.3   1 <1>  -0.0190 
 13 C        4.9190     7.4820    -0.0170 C.2   1 <1>  -0.1810 
 14 N        3.3270     8.9660     0.3520 N.2   1 <1>  -0.4100 
 15 C        4.5970     8.7800     0.3760 C.2   1 <1>   0.1080 
 16 C        6.3060     6.8700    -0.1220 C.3   1 <1>   0.0210 
 17 C        5.5830     9.8560     0.7800 C.3   1 <1>  -0.0590 
 18 C        6.7540     6.3170     1.2320 C.3   1 <1>  -0.2400 
 19 H        0.9090     1.1890    -1.3160 H     1 <1>   0.4200 
 20 H       -0.7010     0.0440     2.0050 H     1 <1>   0.0800 
 21 H       -1.0910     0.6520     0.4220 H     1 <1>   0.0800 
 22 H       -0.4320     1.7210     1.6380 H     1 <1>   0.0800 
 23 H        2.1340     2.9710     0.6890 H     1 <1>   0.0800 
 24 H        0.5280     3.1500     0.0130 H     1 <1>   0.0800 
 25 H        1.4980     3.5310    -2.2140 H     1 <1>   0.0800 
 26 H        3.1060     3.2610    -1.5780 H     1 <1>   0.0800 
 27 H        4.2010     5.0090    -0.7950 H     1 <1>   0.3700 
 28 H        7.0050     7.6130    -0.4640 H     1 <1>   0.0800 
 29 H        6.2960     6.0750    -0.8470 H     1 <1>   0.0800 
 30 H        6.1520     9.5320     1.6310 H     1 <1>   0.0800 
 31 H        5.0550    10.7560     1.0400 H     1 <1>   0.0800 
 32 H        6.2480    10.0700    -0.0360 H     1 <1>   0.0800 
 33 H        6.7860     7.1020     1.9650 H     1 <1>   0.0800 
 34 H        7.7350     5.8830     1.1500 H     1 <1>   0.0800 
 35 H        6.0680     5.5600     1.5720 H     1 <1>   0.0800 
@<TRIPOS>BOND
  1   1   2  2   
  2   1   3  2   
  3   1   4  am  
  4   1   5  1   
  5   4   6  1   
  6   4  19  1   
  7   5  20  1   
  8   5  21  1   
  9   5  22  1   
 10   6   7  1   
 11   6  23  1   
 12   6  24  1   
 13   7   8  1   
 14   7  25  1   
 15   7  26  1   
 16   8   9  2   
 17   8  10  am  
 18  10  11  1   
 19  10  27  1   
 20  11  12  1   
 21  11  13  2   
 22  12  14  1   
 23  13  15  1   
 24  13  16  1   
 25  14  15  2   
 26  15  17  1   
 27  16  18  1   
 28  16  28  1   
 29  16  29  1   
 30  17  30  1   
 31  17  31  1   
 32  17  32  1   
 33  18  33  1   
 34  18  34  1   
 35  18  35  1   
@<TRIPOS>SUBSTRUCTURE
  1 ****  10 GROUP 4 **** **** 0

# MOE 2024.06 (io_trps.svl 2023.06)
