@<TRIPOS>MOLECULE
NONAME
34 35 1 0 0 
SMALL
USER_CHARGES


@<TRIPOS>ATOM
  1 F       -1.3920    -0.7830     0.4940 F     1 <1>  -0.3400 
  2 C       -1.0000    -2.0430     0.6790 C.3   1 <1>   1.2010 
  3 F        0.2580    -2.0950     0.2430 F     1 <1>  -0.3400 
  4 F       -0.9360    -2.2100     1.9980 F     1 <1>  -0.3400 
  5 C       -1.9220    -3.0890    -0.0200 C.2   1 <1>   0.3350 
  6 N       -2.9630    -2.8110    -0.7160 N.2   1 <1>  -0.4100 
  7 N       -1.7030    -4.4110     0.0440 N.2   1 <1>  -0.5650 
  8 O       -3.4750    -3.9280    -1.1330 O.3   1 <1>  -0.0190 
  9 C       -2.6860    -4.8480    -0.6400 C.2   1 <1>   0.2980 
 10 C       -2.9890    -6.3150    -0.9470 C.3   1 <1>   0.2900 
 11 N       -4.0420    -6.9210    -0.0850 N.3   1 <1>  -0.8100 
 12 C       -4.1020    -8.3810    -0.2780 C.3   1 <1>   0.1100 
 13 C       -5.3570    -6.2870    -0.2900 C.3   1 <1>   0.0300 
 14 C       -4.6800    -9.0690     0.9630 C.3   1 <1>   0.0960 
 15 N       -4.7180   -10.5270     0.7440 N.pl3 1 <1>   0.0480 
 16 C       -5.7090   -11.2830     0.2100 C.2   1 <1>   0.0060 
 17 C       -3.7300   -11.3990     1.0130 C.2   1 <1>  -0.3020 
 18 N       -5.4160   -12.5390     0.1250 N.2   1 <1>  -0.5650 
 19 C       -7.0400   -10.7230    -0.2520 C.3   1 <1>  -0.0600 
 20 C       -4.1730   -12.6160     0.6320 C.2   1 <1>   0.0770 
 21 H       -2.0720    -6.8590    -0.8040 H     1 <1>   0.0800 
 22 H       -3.2680    -6.4060    -1.9820 H     1 <1>   0.0800 
 23 H       -3.1080    -8.7670    -0.4280 H     1 <1>   0.0800 
 24 H       -4.6930    -8.6160    -1.1470 H     1 <1>   0.0800 
 25 H       -5.3190    -5.2500    -0.0030 H     1 <1>   0.0800 
 26 H       -6.1060    -6.7600     0.3200 H     1 <1>   0.0800 
 27 H       -5.6550    -6.3550    -1.3230 H     1 <1>   0.0800 
 28 H       -5.6750    -8.7230     1.1650 H     1 <1>   0.0800 
 29 H       -4.0580    -8.8620     1.8140 H     1 <1>   0.0800 
 30 H       -2.7900   -11.1180     1.4500 H     1 <1>   0.1500 
 31 H       -6.8880    -9.9900    -1.0220 H     1 <1>   0.0800 
 32 H       -7.5590   -10.2760     0.5760 H     1 <1>   0.0800 
 33 H       -7.6480   -11.5170    -0.6480 H     1 <1>   0.0800 
 34 H       -3.6550   -13.5590     0.6950 H     1 <1>   0.1500 
@<TRIPOS>BOND
  1   1   2  1   
  2   2   3  1   
  3   2   4  1   
  4   2   5  1   
  5   5   6  2   
  6   5   7  1   
  7   6   8  1   
  8   7   9  2   
  9   8   9  1   
 10   9  10  1   
 11  10  11  1   
 12  10  21  1   
 13  10  22  1   
 14  11  12  1   
 15  11  13  1   
 16  12  14  1   
 17  12  23  1   
 18  12  24  1   
 19  13  25  1   
 20  13  26  1   
 21  13  27  1   
 22  14  15  1   
 23  14  28  1   
 24  14  29  1   
 25  15  16  1   
 26  15  17  1   
 27  16  18  2   
 28  16  19  1   
 29  17  20  2   
 30  17  30  1   
 31  18  20  1   
 32  19  31  1   
 33  19  32  1   
 34  19  33  1   
 35  20  34  1   
@<TRIPOS>SUBSTRUCTURE
  1 ****  11 GROUP 4 **** **** 0

# MOE 2024.06 (io_trps.svl 2023.06)
