@<TRIPOS>MOLECULE
NONAME
37 39 1 0 0 
SMALL
USER_CHARGES


@<TRIPOS>ATOM
  1 F        5.9500     8.2580    -1.0750 F     1 <1>  -0.1900 
  2 C        4.7260     8.1440    -0.6350 C.ar  1 <1>   0.1900 
  3 C        3.6880     8.5950    -1.4270 C.ar  1 <1>  -0.1500 
  4 C        4.5130     7.5780     0.6060 C.ar  1 <1>  -0.1500 
  5 C        2.3910     8.4730    -0.9550 C.ar  1 <1>  -0.1500 
  6 C        3.2120     7.4600     1.0680 C.ar  1 <1>  -0.1500 
  7 C        2.1480     7.9080     0.2920 C.ar  1 <1>  -0.1430 
  8 C        0.7200     7.7760     0.8050 C.3   1 <1>   0.1640 
  9 C        0.1030     6.4540     0.3800 C.2   1 <1>  -0.0400 
 10 O       -1.1220     6.1630     0.7290 O.3   1 <1>  -0.2800 
 11 C        0.5740     5.4220    -0.3380 C.2   1 <1>   0.0770 
 12 C       -1.3630     4.9790     0.2180 C.2   1 <1>   0.2980 
 13 N       -0.3800     4.4690    -0.4380 N.2   1 <1>  -0.5650 
 14 C       -2.7270     4.3160     0.4350 C.3   1 <1>   0.6030 
 15 N       -2.7080     2.9400    -0.1420 N.4   1 <1>  -0.9060 
 16 C       -3.8560     5.1190    -0.2270 C.3   1 <1>  -0.1600 
 17 C       -3.9790     2.1880     0.0030 C.3   1 <1>   0.3430 
 18 C       -5.2140     4.4070    -0.1230 C.3   1 <1>  -0.1600 
 19 C       -5.1130     2.9720    -0.6610 C.3   1 <1>  -0.1600 
 20 H        3.8950     9.0300    -2.3880 H     1 <1>   0.1500 
 21 H        5.3470     7.2390     1.1930 H     1 <1>   0.1500 
 22 H        1.5750     8.8200    -1.5650 H     1 <1>   0.1500 
 23 H        3.0350     7.0190     2.0340 H     1 <1>   0.1500 
 24 H        0.1220     8.5840     0.4240 H     1 <1>   0.0800 
 25 H        0.7120     7.8410     1.8780 H     1 <1>   0.0800 
 26 H        1.5460     5.3090    -0.7910 H     1 <1>   0.1500 
 27 H       -2.9110     4.2570     1.4950 H     1 <1>   0.0800 
 28 H       -1.9090     2.4460     0.2720 H     1 <1>   0.4500 
 29 H       -2.4580     3.0540    -1.1310 H     1 <1>   0.4500 
 30 H       -3.6120     5.2910    -1.2610 H     1 <1>   0.0800 
 31 H       -3.9250     6.0840     0.2470 H     1 <1>   0.0800 
 32 H       -4.2040     2.0470     1.0490 H     1 <1>   0.0800 
 33 H       -3.8910     1.2160    -0.4580 H     1 <1>   0.0800 
 34 H       -5.9560     4.9540    -0.6810 H     1 <1>   0.0800 
 35 H       -5.5340     4.3850     0.9060 H     1 <1>   0.0800 
 36 H       -6.0440     2.4600    -0.4840 H     1 <1>   0.0800 
 37 H       -4.9590     2.9910    -1.7270 H     1 <1>   0.0800 
@<TRIPOS>BOND
  1   1   2  1   
  2   2   3  ar  
  3   2   4  ar  
  4   3   5  ar  
  5   3  20  1   
  6   4   6  ar  
  7   4  21  1   
  8   5   7  ar  
  9   5  22  1   
 10   6   7  ar  
 11   6  23  1   
 12   7   8  1   
 13   8   9  1   
 14   8  24  1   
 15   8  25  1   
 16   9  10  1   
 17   9  11  2   
 18  10  12  1   
 19  11  13  1   
 20  11  26  1   
 21  12  13  2   
 22  12  14  1   
 23  14  15  1   
 24  14  16  1   
 25  14  27  1   
 26  15  17  1   
 27  15  28  1   
 28  15  29  1   
 29  16  18  1   
 30  16  30  1   
 31  16  31  1   
 32  17  19  1   
 33  17  32  1   
 34  17  33  1   
 35  18  19  1   
 36  18  34  1   
 37  18  35  1   
 38  19  36  1   
 39  19  37  1   
@<TRIPOS>SUBSTRUCTURE
  1 ****   9 GROUP 4 **** **** 0

# MOE 2024.06 (io_trps.svl 2023.06)
