@<TRIPOS>MOLECULE
NONAME
55 58 1 0 0 
SMALL
USER_CHARGES


@<TRIPOS>ATOM
  1 O        0.7900     0.9690     1.1200 O.3   1 <1>  -0.2800 
  2 C        1.6850     0.3630     0.3600 C.2   1 <1>  -0.0400 
  3 C       -0.3650     0.3590     0.9430 C.2   1 <1>  -0.0100 
  4 C        1.1100    -0.6510    -0.3240 C.2   1 <1>  -0.1500 
  5 C        3.1190     0.8590     0.3620 C.3   1 <1>   0.5230 
  6 C       -0.2360    -0.6530     0.0600 C.2   1 <1>  -0.1500 
  7 N        3.1450     2.2750    -0.1030 N.4   1 <1>  -0.9590 
  8 C        4.4180     2.6260    -0.8130 C.3   1 <1>   0.3430 
  9 C        2.8190     3.2240     0.9980 C.3   1 <1>   0.3430 
 10 C        4.6510     4.1460    -0.8940 C.3   1 <1>  -0.0800 
 11 C        2.5070     4.5980     0.3950 C.3   1 <1>  -0.1600 
 12 C        3.3200     4.9270    -0.8720 C.3   1 <1>  -0.1600 
 13 C        5.5160     4.4860    -2.1210 C.3   1 <1>   0.2090 
 14 N        5.8730     5.9150    -2.0910 N.pl3 1 <1>  -0.8190 
 15 C        6.7190     6.5460    -1.2550 C.2   1 <1>   0.4860 
 16 N        6.4700     7.8310    -1.1100 N.2   1 <1>  -0.6210 
 17 C        7.7570     5.8860    -0.5720 C.2   1 <1>  -0.1360 
 18 C        7.2270     8.5320    -0.2590 C.2   1 <1>   0.2710 
 19 C        8.5190     6.5920     0.2960 C.2   1 <1>  -0.0380 
 20 N        8.2190     7.8990     0.4320 N.pl3 1 <1>  -0.6000 
 21 C        7.0000     9.9330    -0.0760 C.2   1 <1>   0.0140 
 22 C        9.6700     6.0330     1.1040 C.3   1 <1>  -0.1020 
 23 C        7.7520    10.7400     0.8320 C.2   1 <1>   0.5410 
 24 C        5.9930    10.5970    -0.8080 C.2   1 <1>  -0.1500 
 25 O        8.6770    10.2970     1.5510 O.2   1 <1>  -0.5700 
 26 C        7.4620    12.1160     0.9500 C.2   1 <1>  -0.1360 
 27 C        5.7300    11.9380    -0.6740 C.2   1 <1>  -0.1500 
 28 C        6.4740    12.7110     0.2180 C.2   1 <1>  -0.1500 
 29 H       -1.2300     0.7040     1.4850 H     1 <1>   0.1500 
 30 H        1.5450    -1.3440    -1.0250 H     1 <1>   0.1500 
 31 H        3.6960     0.2400    -0.3040 H     1 <1>   0.0800 
 32 H        3.5350     0.7800     1.3530 H     1 <1>   0.0800 
 33 H       -0.9900    -1.3370    -0.2930 H     1 <1>   0.1500 
 34 H        2.3640     2.3580    -0.7680 H     1 <1>   0.4500 
 35 H        4.3800     2.2190    -1.8100 H     1 <1>   0.0800 
 36 H        5.2580     2.1790    -0.3050 H     1 <1>   0.0800 
 37 H        3.6630     3.3060     1.6650 H     1 <1>   0.0800 
 38 H        1.9700     2.8820     1.5680 H     1 <1>   0.0800 
 39 H        5.2170     4.4260    -0.0210 H     1 <1>   0.0800 
 40 H        2.7090     5.3400     1.1490 H     1 <1>   0.0800 
 41 H        1.4560     4.6610     0.1730 H     1 <1>   0.0800 
 42 H        2.7430     4.6740    -1.7460 H     1 <1>   0.0800 
 43 H        3.5010     5.9890    -0.9020 H     1 <1>   0.0800 
 44 H        4.9790     4.2790    -3.0320 H     1 <1>   0.0800 
 45 H        6.4170     3.8980    -2.1240 H     1 <1>   0.0800 
 46 H        5.2350     6.5540    -2.5720 H     1 <1>   0.4000 
 47 H        7.9340     4.8480    -0.7520 H     1 <1>   0.1500 
 48 H        8.7590     8.4990     1.0780 H     1 <1>   0.4000 
 49 H       10.5770     6.5510     0.8490 H     1 <1>   0.0800 
 50 H        9.8030     4.9860     0.9040 H     1 <1>   0.0800 
 51 H        9.4790     6.1650     2.1540 H     1 <1>   0.0800 
 52 H        5.4020    10.0300    -1.5060 H     1 <1>   0.1500 
 53 H        8.0550    12.6790     1.6460 H     1 <1>   0.1500 
 54 H        4.9500    12.4040    -1.2530 H     1 <1>   0.1500 
 55 H        6.2590    13.7620     0.3160 H     1 <1>   0.1500 
@<TRIPOS>BOND
  1   1   2  1   
  2   1   3  1   
  3   2   4  2   
  4   2   5  1   
  5   3   6  2   
  6   3  29  1   
  7   4   6  1   
  8   4  30  1   
  9   5   7  1   
 10   5  31  1   
 11   5  32  1   
 12   6  33  1   
 13   7   8  1   
 14   7   9  1   
 15   7  34  1   
 16   8  10  1   
 17   8  35  1   
 18   8  36  1   
 19   9  11  1   
 20   9  37  1   
 21   9  38  1   
 22  10  12  1   
 23  10  13  1   
 24  10  39  1   
 25  11  12  1   
 26  11  40  1   
 27  11  41  1   
 28  12  42  1   
 29  12  43  1   
 30  13  14  1   
 31  13  44  1   
 32  13  45  1   
 33  14  15  1   
 34  14  46  1   
 35  15  16  2   
 36  15  17  1   
 37  16  18  1   
 38  17  19  2   
 39  17  47  1   
 40  18  20  1   
 41  18  21  2   
 42  19  20  1   
 43  19  22  1   
 44  20  48  1   
 45  21  23  1   
 46  21  24  1   
 47  22  49  1   
 48  22  50  1   
 49  22  51  1   
 50  23  25  2   
 51  23  26  1   
 52  24  27  2   
 53  24  52  1   
 54  26  28  2   
 55  26  53  1   
 56  27  28  1   
 57  27  54  1   
 58  28  55  1   
@<TRIPOS>SUBSTRUCTURE
  1 ****  10 GROUP 4 **** **** 0

# MOE 2024.06 (io_trps.svl 2023.06)
