@<TRIPOS>MOLECULE
NONAME
49 51 1 0 0 
SMALL
USER_CHARGES


@<TRIPOS>ATOM
  1 O        0.6480     0.1300     3.0600 O.2   1 <1>  -0.5700 
  2 C        1.2160    -0.3970     2.1300 C.2   1 <1>   0.5690 
  3 N        1.8490     0.3500     1.1600 N.am  1 <1>  -0.6600 
  4 C        1.2360    -1.9310     2.1300 C.3   1 <1>   0.1810 
  5 C        2.5080    -0.2320    -0.0500 C.3   1 <1>   0.1400 
  6 C        1.8330     1.8390     1.2290 C.3   1 <1>   0.1400 
  7 O        0.5800    -2.4860     1.0180 O.3   1 <1>  -0.5600 
  8 C        4.0100    -0.4600     0.1830 C.3   1 <1>   0.1100 
  9 C        3.1450     2.4910     0.7730 C.3   1 <1>  -0.1600 
 10 C        0.3290    -3.8530     1.1200 C.3   1 <1>   0.2640 
 11 N        4.8190     0.7800     0.1810 N.3   1 <1>  -0.8100 
 12 C        4.4080     1.7480     1.2160 C.3   1 <1>   0.1100 
 13 C       -0.2160    -4.3640    -0.2050 C.ar  1 <1>  -0.1440 
 14 C        6.2700     0.4570     0.2590 C.3   1 <1>   0.2900 
 15 C        0.2760    -5.5360    -0.7610 C.ar  1 <1>  -0.1500 
 16 C       -1.2190    -3.6720    -0.8680 C.ar  1 <1>  -0.1500 
 17 C        7.1920     1.5290    -0.3230 C.2   1 <1>   0.2980 
 18 C       -0.2280    -6.0090    -1.9610 C.ar  1 <1>  -0.1500 
 19 C       -1.7240    -4.1430    -2.0670 C.ar  1 <1>  -0.1500 
 20 O        7.3830     2.6390     0.3480 O.3   1 <1>  -0.0190 
 21 N        7.8430     1.4370    -1.4160 N.2   1 <1>  -0.5650 
 22 C       -1.2290    -5.3130    -2.6150 C.ar  1 <1>  -0.1500 
 23 N        8.2150     3.3140    -0.3850 N.2   1 <1>  -0.4100 
 24 C        8.4680     2.6030    -1.4080 C.2   1 <1>   0.3350 
 25 C        9.3880     2.9990    -2.5380 C.3   1 <1>  -0.0590 
 26 H        0.7430    -2.2740     3.0220 H     1 <1>   0.0800 
 27 H        2.2530    -2.2760     2.1320 H     1 <1>   0.0800 
 28 H        2.3680     0.4170    -0.8970 H     1 <1>   0.0800 
 29 H        2.0500    -1.1690    -0.3030 H     1 <1>   0.0800 
 30 H        1.6460     2.1430     2.2450 H     1 <1>   0.0800 
 31 H        1.0190     2.2070     0.6280 H     1 <1>   0.0800 
 32 H        4.3600    -1.0890    -0.6170 H     1 <1>   0.0800 
 33 H        4.1510    -0.9920     1.1070 H     1 <1>   0.0800 
 34 H        3.1690     3.4800     1.1920 H     1 <1>   0.0800 
 35 H        3.1500     2.6110    -0.2960 H     1 <1>   0.0800 
 36 H       -0.3940    -4.0120     1.9020 H     1 <1>   0.0800 
 37 H        1.2490    -4.3560     1.3670 H     1 <1>   0.0800 
 38 H        4.2560     1.2570     2.1630 H     1 <1>   0.0800 
 39 H        5.1780     2.4850     1.3480 H     1 <1>   0.0800 
 40 H        6.4590    -0.4410    -0.3020 H     1 <1>   0.0800 
 41 H        6.5480     0.2660     1.2810 H     1 <1>   0.0800 
 42 H        1.0540    -6.0890    -0.2640 H     1 <1>   0.1500 
 43 H       -1.6050    -2.7580    -0.4470 H     1 <1>   0.1500 
 44 H        0.1580    -6.9190    -2.3860 H     1 <1>   0.1500 
 45 H       -2.5010    -3.5970    -2.5730 H     1 <1>   0.1500 
 46 H       -1.6210    -5.6800    -3.5470 H     1 <1>   0.1500 
 47 H       10.1880     2.2870    -2.6160 H     1 <1>   0.0800 
 48 H        9.7990     3.9750    -2.3540 H     1 <1>   0.0800 
 49 H        8.8370     3.0160    -3.4590 H     1 <1>   0.0800 
@<TRIPOS>BOND
  1   1   2  2   
  2   2   3  am  
  3   2   4  1   
  4   3   5  1   
  5   3   6  1   
  6   4   7  1   
  7   4  26  1   
  8   4  27  1   
  9   5   8  1   
 10   5  28  1   
 11   5  29  1   
 12   6   9  1   
 13   6  30  1   
 14   6  31  1   
 15   7  10  1   
 16   8  11  1   
 17   8  32  1   
 18   8  33  1   
 19   9  12  1   
 20   9  34  1   
 21   9  35  1   
 22  10  13  1   
 23  10  36  1   
 24  10  37  1   
 25  11  12  1   
 26  11  14  1   
 27  12  38  1   
 28  12  39  1   
 29  13  15  ar  
 30  13  16  ar  
 31  14  17  1   
 32  14  40  1   
 33  14  41  1   
 34  15  18  ar  
 35  15  42  1   
 36  16  19  ar  
 37  16  43  1   
 38  17  20  1   
 39  17  21  2   
 40  18  22  ar  
 41  18  44  1   
 42  19  22  ar  
 43  19  45  1   
 44  20  23  1   
 45  21  24  1   
 46  22  46  1   
 47  23  24  2   
 48  24  25  1   
 49  25  47  1   
 50  25  48  1   
 51  25  49  1   
@<TRIPOS>SUBSTRUCTURE
  1 ****   5 GROUP 4 **** **** 0

# MOE 2024.06 (io_trps.svl 2023.06)
