@<TRIPOS>MOLECULE
NONAME
47 49 1 0 0 
SMALL
USER_CHARGES


@<TRIPOS>ATOM
  1 S        0.4510     0.2680     0.4460 S.o2  1 <1>   1.3330 
  2 O        0.5950    -0.9500     1.2130 O.2   1 <1>  -0.6500 
  3 O        0.1840     1.5110     1.1350 O.2   1 <1>  -0.6500 
  4 N       -0.7850     0.0130    -0.6900 N.am  1 <1>  -0.8490 
  5 C        1.9020     0.5090    -0.5780 C.3   1 <1>  -0.0550 
  6 C       -2.0960     0.4360    -0.1900 C.3   1 <1>   0.1160 
  7 C       -0.8560    -1.3700    -1.1750 C.3   1 <1>   0.1160 
  8 C        3.1830     0.7740     0.2330 C.3   1 <1>  -0.0800 
  9 C        4.3300     1.2000    -0.6760 C.3   1 <1>   0.2200 
 10 C        3.7260    -0.4690     0.9510 C.3   1 <1>   0.1200 
 11 N        4.5840     2.6520    -0.5580 N.am  1 <1>  -0.7300 
 12 C        5.5040     0.3610    -0.1910 C.3   1 <1>   0.1200 
 13 O        4.9240    -0.7920     0.3230 O.3   1 <1>  -0.5600 
 14 C        4.0570     3.6240    -1.3570 C.2   1 <1>   0.6160 
 15 O        3.3560     3.2580    -2.2840 O.2   1 <1>  -0.5700 
 16 C        4.2870     5.0310    -1.1480 C.2   1 <1>   0.0290 
 17 C        5.0540     5.5140    -0.0360 C.2   1 <1>   0.7670 
 18 C        3.7830     5.9750    -1.9990 C.2   1 <1>  -0.0500 
 19 O        5.5580     4.7680     0.7920 O.2   1 <1>  -0.5700 
 20 N        5.2660     6.8560     0.1580 N.2   1 <1>  -0.6610 
 21 N        4.0290     7.2910    -1.7550 N.pl3 1 <1>  -0.5500 
 22 C        4.7630     7.6830    -0.6760 C.2   1 <1>   0.5000 
 23 C        4.9620     9.1790    -0.5070 C.3   1 <1>  -0.1000 
 24 C        4.8180     9.8320     0.8360 C.3   1 <1>  -0.2000 
 25 C        3.7930    10.0800    -0.2280 C.3   1 <1>  -0.2000 
 26 H        2.0510    -0.3480    -1.2040 H     1 <1>   0.0800 
 27 H        1.7230     1.3530    -1.2170 H     1 <1>   0.0800 
 28 H       -2.8510     0.2760    -0.9400 H     1 <1>   0.0800 
 29 H       -2.0770     1.4870     0.0480 H     1 <1>   0.0800 
 30 H       -2.3540    -0.1160     0.6980 H     1 <1>   0.0800 
 31 H       -1.5920    -1.4490    -1.9560 H     1 <1>   0.0800 
 32 H       -1.1230    -2.0370    -0.3720 H     1 <1>   0.0800 
 33 H        0.0960    -1.6730    -1.5750 H     1 <1>   0.0800 
 34 H        2.9830     1.5330     0.9710 H     1 <1>   0.0800 
 35 H        4.1260     0.9420    -1.7020 H     1 <1>   0.0800 
 36 H        3.0720    -1.3210     0.8890 H     1 <1>   0.0800 
 37 H        3.9400    -0.2540     1.9840 H     1 <1>   0.0800 
 38 H        5.1160     2.9620     0.2690 H     1 <1>   0.3700 
 39 H        6.0380     0.8480     0.6070 H     1 <1>   0.0800 
 40 H        6.1720     0.0920    -0.9900 H     1 <1>   0.0800 
 41 H        3.1910     5.7090    -2.8630 H     1 <1>   0.1500 
 42 H        3.6600     8.0300    -2.3620 H     1 <1>   0.4000 
 43 H        5.7470     9.5510    -1.1400 H     1 <1>   0.1000 
 44 H        4.5600     9.2140     1.6800 H     1 <1>   0.1000 
 45 H        5.5040    10.6190     1.0990 H     1 <1>   0.1000 
 46 H        3.7600    11.0510    -0.6900 H     1 <1>   0.1000 
 47 H        2.8140     9.6540    -0.0890 H     1 <1>   0.1000 
@<TRIPOS>BOND
  1   1   2  2   
  2   1   3  2   
  3   1   4  am  
  4   1   5  1   
  5   4   6  1   
  6   4   7  1   
  7   5   8  1   
  8   5  26  1   
  9   5  27  1   
 10   6  28  1   
 11   6  29  1   
 12   6  30  1   
 13   7  31  1   
 14   7  32  1   
 15   7  33  1   
 16   8   9  1   
 17   8  10  1   
 18   8  34  1   
 19   9  11  1   
 20   9  12  1   
 21   9  35  1   
 22  10  13  1   
 23  10  36  1   
 24  10  37  1   
 25  11  14  am  
 26  11  38  1   
 27  12  13  1   
 28  12  39  1   
 29  12  40  1   
 30  14  15  2   
 31  14  16  1   
 32  16  17  1   
 33  16  18  2   
 34  17  19  2   
 35  17  20  1   
 36  18  21  1   
 37  18  41  1   
 38  20  22  2   
 39  21  22  1   
 40  21  42  1   
 41  22  23  1   
 42  23  24  1   
 43  23  25  1   
 44  23  43  1   
 45  24  25  1   
 46  24  44  1   
 47  24  45  1   
 48  25  46  1   
 49  25  47  1   
@<TRIPOS>SUBSTRUCTURE
  1 ****  14 GROUP 4 **** **** 0

# MOE 2024.06 (io_trps.svl 2023.06)
