@<TRIPOS>MOLECULE
NONAME
52 55 1 0 0 
SMALL
USER_CHARGES


@<TRIPOS>ATOM
  1 O       -0.7030     0.6000    -0.1620 O.3   1 <1>  -0.6800 
  2 C        0.5080    -0.0020    -0.4750 C.3   1 <1>   0.2000 
  3 C        0.7760    -1.0800     0.5830 C.3   1 <1>  -0.0800 
  4 C        1.6100     1.0520    -0.2930 C.3   1 <1>   0.3430 
  5 C        1.5290    -0.3080     1.6660 C.3   1 <1>   0.3430 
  6 C        1.5530    -2.3100     0.0410 C.3   1 <1>  -0.0170 
  7 N        2.3750     0.6470     0.9200 N.4   1 <1>  -0.9590 
  8 C        3.0500    -2.1260    -0.2030 C.ar  1 <1>   0.1670 
  9 C        2.9580     1.7620     1.6820 C.3   1 <1>   0.5240 
 10 N        3.4230    -1.2190    -1.0540 N.ar  1 <1>  -0.6200 
 11 C        3.9560    -2.9450     0.4930 C.ar  1 <1>  -0.1500 
 12 C        4.3050     2.0130     1.0420 C.2   1 <1>  -0.1810 
 13 C        4.7540    -1.0800    -1.3040 C.ar  1 <1>   0.3100 
 14 C        5.2940    -2.8170     0.2770 C.ar  1 <1>  -0.1500 
 15 C        5.5000     1.4420     1.3590 C.2   1 <1>  -0.3320 
 16 C        4.5390     2.8750    -0.0310 C.2   1 <1>  -0.1500 
 17 C        5.7330    -1.8610    -0.6540 C.ar  1 <1>   0.0000 
 18 C        5.1770    -0.1250    -2.2430 C.ar  1 <1>  -0.1500 
 19 N        6.4620     1.9230     0.5210 N.pl3 1 <1>   0.0480 
 20 C        5.7990     0.4250     2.4510 C.3   1 <1>  -0.0600 
 21 C        5.8650     2.8020    -0.3400 C.2   1 <1>  -0.1320 
 22 C        7.0910    -1.6630    -0.9710 C.ar  1 <1>  -0.1500 
 23 C        6.5030     0.0540    -2.5360 C.ar  1 <1>  -0.1500 
 24 C        7.9040     1.5840     0.5620 C.3   1 <1>   0.0160 
 25 C        6.5700     3.4880    -1.3800 C.1   1 <1>   0.5370 
 26 C        7.4700    -0.7260    -1.8940 C.ar  1 <1>  -0.1500 
 27 N        7.1510     4.0000    -2.2160 N.1   1 <1>  -0.5570 
 28 H       -1.4600     0.0530    -0.4610 H     1 <1>   0.4000 
 29 H        0.4620    -0.3730    -1.4860 H     1 <1>   0.0800 
 30 H       -0.1540    -1.4460     0.9830 H     1 <1>   0.0800 
 31 H        1.1630     2.0240    -0.1680 H     1 <1>   0.0800 
 32 H        2.2660     1.0610    -1.1480 H     1 <1>   0.0800 
 33 H        2.1180    -0.9600     2.2910 H     1 <1>   0.0800 
 34 H        0.8200     0.2340     2.2710 H     1 <1>   0.0800 
 35 H        1.1020    -2.6340    -0.8810 H     1 <1>   0.0800 
 36 H        1.4180    -3.1170     0.7390 H     1 <1>   0.0800 
 37 H        3.1830     0.1150     0.5390 H     1 <1>   0.4500 
 38 H        2.3320     2.6370     1.6360 H     1 <1>   0.0800 
 39 H        3.1010     1.4790     2.7110 H     1 <1>   0.0800 
 40 H        3.5890    -3.6810     1.1870 H     1 <1>   0.1500 
 41 H        6.0140    -3.4330     0.7870 H     1 <1>   0.1500 
 42 H        3.8020     3.4850    -0.5260 H     1 <1>   0.1500 
 43 H        4.4270     0.4640    -2.7360 H     1 <1>   0.1500 
 44 H        4.9160     0.1820     3.0120 H     1 <1>   0.0800 
 45 H        6.5320     0.8200     3.1330 H     1 <1>   0.0800 
 46 H        6.1850    -0.4810     2.0190 H     1 <1>   0.0800 
 47 H        7.8300    -2.2710    -0.4790 H     1 <1>   0.1500 
 48 H        6.8160     0.7880    -3.2610 H     1 <1>   0.1500 
 49 H        8.0280     0.5580     0.8550 H     1 <1>   0.0800 
 50 H        8.3980     2.2230     1.2710 H     1 <1>   0.0800 
 51 H        8.3450     1.7200    -0.4080 H     1 <1>   0.0800 
 52 H        8.5080    -0.5810    -2.1440 H     1 <1>   0.1500 
@<TRIPOS>BOND
  1   1   2  1   
  2   1  28  1   
  3   2   3  1   
  4   2   4  1   
  5   2  29  1   
  6   3   5  1   
  7   3   6  1   
  8   3  30  1   
  9   4   7  1   
 10   4  31  1   
 11   4  32  1   
 12   5   7  1   
 13   5  33  1   
 14   5  34  1   
 15   6   8  1   
 16   6  35  1   
 17   6  36  1   
 18   7   9  1   
 19   7  37  1   
 20   8  10  ar  
 21   8  11  ar  
 22   9  12  1   
 23   9  38  1   
 24   9  39  1   
 25  10  13  ar  
 26  11  14  ar  
 27  11  40  1   
 28  12  15  2   
 29  12  16  1   
 30  13  17  ar  
 31  13  18  ar  
 32  14  17  ar  
 33  14  41  1   
 34  15  19  1   
 35  15  20  1   
 36  16  21  2   
 37  16  42  1   
 38  17  22  ar  
 39  18  23  ar  
 40  18  43  1   
 41  19  21  1   
 42  19  24  1   
 43  20  44  1   
 44  20  45  1   
 45  20  46  1   
 46  21  25  1   
 47  22  26  ar  
 48  22  47  1   
 49  23  26  ar  
 50  23  48  1   
 51  24  49  1   
 52  24  50  1   
 53  24  51  1   
 54  25  27  3   
 55  26  52  1   
@<TRIPOS>SUBSTRUCTURE
  1 ****  13 GROUP 4 **** **** 0

# MOE 2024.06 (io_trps.svl 2023.06)
