@<TRIPOS>MOLECULE
NONAME
40 42 1 0 0 
SMALL
USER_CHARGES


@<TRIPOS>ATOM
  1 O       -1.5360     0.4960    -1.3820 O.2   1 <1>  -0.5700 
  2 C       -1.6700     0.6440    -0.1820 C.2   1 <1>   0.7030 
  3 N       -2.1500    -0.4150     0.5380 N.am  1 <1>  -0.7300 
  4 C       -1.3240     1.9130     0.4570 C.2   1 <1>   0.2770 
  5 C       -2.4220    -1.7720     0.0030 C.3   1 <1>   0.2200 
  6 N       -0.8870     3.0950    -0.1570 N.pl3 1 <1>  -0.7640 
  7 C       -1.3550     2.1950     1.7860 C.2   1 <1>   0.2000 
  8 C       -3.9220    -2.0360     0.0550 C.3   1 <1>  -0.0800 
  9 C       -1.9070    -2.7900     1.0100 C.3   1 <1>   0.1200 
 10 C       -0.6810     4.0040     0.7850 C.cat 1 <1>   0.6500 
 11 C       -0.6900     3.2660    -1.6270 C.3   1 <1>   0.2740 
 12 N       -0.9560     3.4890     1.9730 N.pl3 1 <1>  -0.7000 
 13 C       -4.1270    -2.5850     1.4780 C.3   1 <1>   0.1200 
 14 C       -4.3540    -3.0450    -1.0270 C.3   1 <1>  -0.0170 
 15 O       -2.8530    -2.7590     2.0290 O.3   1 <1>  -0.5600 
 16 C       -5.8470    -3.3300    -0.9620 C.ar  1 <1>  -0.1440 
 17 C       -6.3480    -4.5130    -0.4540 C.ar  1 <1>  -0.1500 
 18 C       -6.7810    -2.4200    -1.4150 C.ar  1 <1>  -0.1500 
 19 C       -7.7170    -4.7180    -0.4160 C.ar  1 <1>   0.1600 
 20 C       -8.1310    -2.7240    -1.3330 C.ar  1 <1>   0.1600 
 21 N       -8.6210    -3.8500    -0.8410 N.ar  1 <1>  -0.6200 
 22 H       -2.3220    -0.3740     1.5450 H     1 <1>   0.3700 
 23 H       -1.9920    -1.9040    -0.9770 H     1 <1>   0.0800 
 24 H       -1.6350     1.5460     2.6010 H     1 <1>   0.1500 
 25 H       -4.4810    -1.1280    -0.0850 H     1 <1>   0.0800 
 26 H       -0.9360    -2.5430     1.4030 H     1 <1>   0.0800 
 27 H       -1.8920    -3.7820     0.5930 H     1 <1>   0.0800 
 28 H       -0.3370     5.0160     0.6120 H     1 <1>   0.1500 
 29 H        0.0470     2.5660    -1.9830 H     1 <1>   0.0800 
 30 H       -0.3580     4.2650    -1.8530 H     1 <1>   0.0800 
 31 H       -1.6160     3.0830    -2.1460 H     1 <1>   0.0800 
 32 H       -0.8800     3.9770     2.8720 H     1 <1>   0.4500 
 33 H       -4.6290    -3.5360     1.4870 H     1 <1>   0.0800 
 34 H       -4.6680    -1.8910     2.0970 H     1 <1>   0.0800 
 35 H       -3.8080    -3.9660    -0.9180 H     1 <1>   0.0800 
 36 H       -4.1230    -2.6460    -2.0000 H     1 <1>   0.0800 
 37 H       -5.6900    -5.2790    -0.0860 H     1 <1>   0.1500 
 38 H       -6.4750    -1.4790    -1.8320 H     1 <1>   0.1500 
 39 H       -8.0890    -5.6450    -0.0150 H     1 <1>   0.1500 
 40 H       -8.8450    -2.0020    -1.6910 H     1 <1>   0.1500 
@<TRIPOS>BOND
  1   1   2  2   
  2   2   3  am  
  3   2   4  1   
  4   3   5  1   
  5   3  22  1   
  6   4   6  1   
  7   4   7  2   
  8   5   8  1   
  9   5   9  1   
 10   5  23  1   
 11   6  10  ar  
 12   6  11  1   
 13   7  12  1   
 14   7  24  1   
 15   8  13  1   
 16   8  14  1   
 17   8  25  1   
 18   9  15  1   
 19   9  26  1   
 20   9  27  1   
 21  10  12  ar  
 22  10  28  1   
 23  11  29  1   
 24  11  30  1   
 25  11  31  1   
 26  12  32  1   
 27  13  15  1   
 28  13  33  1   
 29  13  34  1   
 30  14  16  1   
 31  14  35  1   
 32  14  36  1   
 33  16  17  ar  
 34  16  18  ar  
 35  17  19  ar  
 36  17  37  1   
 37  18  20  ar  
 38  18  38  1   
 39  19  21  ar  
 40  19  39  1   
 41  20  21  ar  
 42  20  40  1   
@<TRIPOS>SUBSTRUCTURE
  1 ****   8 GROUP 4 **** **** 0

# MOE 2024.06 (io_trps.svl 2023.06)
