@<TRIPOS>MOLECULE
NONAME
49 52 1 0 0 
SMALL
USER_CHARGES


@<TRIPOS>ATOM
  1 O        0.4980     0.2390     0.2370 O.3   1 <1>  -0.0190 
  2 N        1.4010     1.1570     0.2320 N.2   1 <1>  -0.4100 
  3 C        1.0570    -0.9400     0.2140 C.2   1 <1>   0.4250 
  4 C        2.4990     0.4950     0.2070 C.2   1 <1>   0.5990 
  5 N        2.3360    -0.8340     0.1910 N.2   1 <1>  -0.5650 
  6 C        0.2560    -2.1460     0.2150 C.ar  1 <1>   0.0530 
  7 N        3.7760     1.0670     0.2000 N.pl3 1 <1>  -0.8210 
  8 C       -1.1410    -2.1050     0.2140 C.ar  1 <1>  -0.1500 
  9 C        0.8570    -3.4070     0.2160 C.ar  1 <1>  -0.1500 
 10 C        3.8570     2.5040    -0.2110 C.3   1 <1>   0.2090 
 11 C        4.8990     0.2250    -0.3040 C.3   1 <1>   0.2090 
 12 C       -1.8980    -3.2630     0.2130 C.ar  1 <1>  -0.1500 
 13 C        0.1060    -4.5680     0.2150 C.ar  1 <1>  -0.1500 
 14 C        5.1990     3.1250     0.2010 C.3   1 <1>   0.1000 
 15 C        6.2430     0.8260     0.1240 C.3   1 <1>  -0.1600 
 16 C       -1.2750    -4.4970     0.2130 C.ar  1 <1>  -0.1500 
 17 C        5.2780     4.5600    -0.2920 C.2   1 <1>   0.2980 
 18 C        6.3830     2.2900    -0.3180 C.3   1 <1>  -0.1600 
 19 O        5.2080     4.7940    -1.5810 O.3   1 <1>  -0.0190 
 20 N        5.4080     5.5900     0.4430 N.2   1 <1>  -0.5650 
 21 N        5.3020     6.0840    -1.6710 N.2   1 <1>  -0.4100 
 22 C        5.4220     6.5350    -0.4860 C.2   1 <1>   0.3350 
 23 C        5.5630     8.0030    -0.1270 C.3   1 <1>   0.0210 
 24 C        7.0050     8.5260    -0.2880 C.3   1 <1>  -0.0800 
 25 C        7.9820     7.8210     0.6650 C.3   1 <1>  -0.2400 
 26 C        7.0540    10.0400    -0.0450 C.3   1 <1>  -0.2400 
 27 H       -1.6470    -1.1550     0.2130 H     1 <1>   0.1500 
 28 H        1.9310    -3.4760     0.2180 H     1 <1>   0.1500 
 29 H        3.0650     3.0660     0.2550 H     1 <1>   0.0800 
 30 H        3.7320     2.5700    -1.2780 H     1 <1>   0.0800 
 31 H        4.8440     0.1640    -1.3780 H     1 <1>   0.0800 
 32 H        4.8270    -0.7720     0.0970 H     1 <1>   0.0800 
 33 H       -2.9730    -3.2040     0.2120 H     1 <1>   0.1500 
 34 H        0.5950    -5.5260     0.2160 H     1 <1>   0.1500 
 35 H        5.2330     3.1440     1.2760 H     1 <1>   0.0800 
 36 H        7.0410     0.2420    -0.2990 H     1 <1>   0.0800 
 37 H        6.3210     0.7600     1.1950 H     1 <1>   0.0800 
 38 H       -1.8630    -5.4000     0.2130 H     1 <1>   0.1500 
 39 H        7.3050     2.6990     0.0590 H     1 <1>   0.0800 
 40 H        6.4140     2.3340    -1.3940 H     1 <1>   0.0800 
 41 H        5.2290     8.1490     0.8850 H     1 <1>   0.0800 
 42 H        4.9100     8.5630    -0.7710 H     1 <1>   0.0800 
 43 H        7.3210     8.3360    -1.3010 H     1 <1>   0.0800 
 44 H        7.6790     7.9560     1.6880 H     1 <1>   0.0800 
 45 H        8.9740     8.2180     0.5440 H     1 <1>   0.0800 
 46 H        8.0200     6.7670     0.4560 H     1 <1>   0.0800 
 47 H        6.7480    10.2750     0.9590 H     1 <1>   0.0800 
 48 H        6.4040    10.5520    -0.7330 H     1 <1>   0.0800 
 49 H        8.0540    10.4090    -0.1930 H     1 <1>   0.0800 
@<TRIPOS>BOND
  1   1   2  1   
  2   1   3  1   
  3   2   4  2   
  4   3   5  2   
  5   3   6  1   
  6   4   5  1   
  7   4   7  1   
  8   6   8  ar  
  9   6   9  ar  
 10   7  10  1   
 11   7  11  1   
 12   8  12  ar  
 13   8  27  1   
 14   9  13  ar  
 15   9  28  1   
 16  10  14  1   
 17  10  29  1   
 18  10  30  1   
 19  11  15  1   
 20  11  31  1   
 21  11  32  1   
 22  12  16  ar  
 23  12  33  1   
 24  13  16  ar  
 25  13  34  1   
 26  14  17  1   
 27  14  18  1   
 28  14  35  1   
 29  15  18  1   
 30  15  36  1   
 31  15  37  1   
 32  16  38  1   
 33  17  19  1   
 34  17  20  2   
 35  18  39  1   
 36  18  40  1   
 37  19  21  1   
 38  20  22  1   
 39  21  22  2   
 40  22  23  1   
 41  23  24  1   
 42  23  41  1   
 43  23  42  1   
 44  24  25  1   
 45  24  26  1   
 46  24  43  1   
 47  25  44  1   
 48  25  45  1   
 49  25  46  1   
 50  26  47  1   
 51  26  48  1   
 52  26  49  1   
@<TRIPOS>SUBSTRUCTURE
  1 ****  10 GROUP 4 **** **** 0

# MOE 2024.06 (io_trps.svl 2023.06)
