@<TRIPOS>MOLECULE
NONAME
50 53 1 0 0 
SMALL
USER_CHARGES


@<TRIPOS>ATOM
  1 O       -1.1830     0.1840     0.1410 O.2   1 <1>  -0.5700 
  2 C       -1.8610     1.0610    -0.3680 C.2   1 <1>   0.5440 
  3 N       -3.0330     0.6670    -0.9800 N.am  1 <1>  -0.6600 
  4 C       -1.4590     2.4530    -0.2820 C.ar  1 <1>   0.0860 
  5 C       -3.1920    -0.7540    -1.3810 C.3   1 <1>   0.1400 
  6 C       -4.3170     1.3410    -0.6500 C.3   1 <1>   0.1400 
  7 C       -0.7270     2.9240     0.7980 C.ar  1 <1>  -0.1500 
  8 C       -1.7990     3.3750    -1.2980 C.ar  1 <1>  -0.1500 
  9 C       -3.8050    -1.5340    -0.1970 C.3   1 <1>   0.4230 
 10 C       -4.9680     0.5880     0.5200 C.3   1 <1>  -0.1600 
 11 C       -0.3640     4.2680     0.8750 C.ar  1 <1>  -0.1520 
 12 C       -1.4460     4.7010    -1.2290 C.ar  1 <1>  -0.1500 
 13 N       -3.8200    -3.0440    -0.3910 N.4   1 <1>  -0.9590 
 14 C       -5.1720    -0.9330     0.2520 C.3   1 <1>   0.0000 
 15 N        0.3440     4.9540     1.8310 N.pl3 1 <1>   0.0330 
 16 C       -0.7210     5.1630    -0.1270 C.ar  1 <1>   0.0000 
 17 C       -4.7580    -3.7690     0.5260 C.3   1 <1>   0.3430 
 18 C       -4.0110    -3.5140    -1.8020 C.3   1 <1>   0.2630 
 19 C       -5.6220    -1.6170     1.5780 C.3   1 <1>  -0.1600 
 20 C       -6.2410    -1.1460    -0.8580 C.3   1 <1>   0.1200 
 21 C        0.4270     6.2600     1.4410 C.2   1 <1>  -0.3020 
 22 C       -0.2100     6.4190     0.2560 C.2   1 <1>  -0.1500 
 23 C       -4.9680    -2.9900     1.8230 C.3   1 <1>  -0.1600 
 24 O       -7.4100    -0.4550    -0.5860 O.3   1 <1>  -0.6800 
 25 H       -3.8120    -0.8000    -2.2570 H     1 <1>   0.0800 
 26 H       -2.2260    -1.1610    -1.6260 H     1 <1>   0.0800 
 27 H       -4.1450     2.3660    -0.3640 H     1 <1>   0.0800 
 28 H       -4.9640     1.3420    -1.5110 H     1 <1>   0.0800 
 29 H       -0.4340     2.2490     1.5830 H     1 <1>   0.1500 
 30 H       -2.3470     3.0180    -2.1520 H     1 <1>   0.1500 
 31 H       -3.1340    -1.3460     0.6260 H     1 <1>   0.0800 
 32 H       -4.3290     0.7240     1.3770 H     1 <1>   0.0800 
 33 H       -5.9030     1.0630     0.7590 H     1 <1>   0.0800 
 34 H       -1.7100     5.3950    -2.0060 H     1 <1>   0.1500 
 35 H       -2.8700    -3.3330    -0.1090 H     1 <1>   0.4500 
 36 H        0.7430     4.5450     2.6820 H     1 <1>   0.2700 
 37 H       -5.7140    -3.8930     0.0450 H     1 <1>   0.0800 
 38 H       -4.3680    -4.7500     0.7470 H     1 <1>   0.0800 
 39 H       -4.9710    -3.2000    -2.1780 H     1 <1>   0.0800 
 40 H       -3.9620    -4.5900    -1.8460 H     1 <1>   0.0800 
 41 H       -3.2410    -3.1160    -2.4420 H     1 <1>   0.0800 
 42 H       -5.3850    -0.9950     2.4250 H     1 <1>   0.0800 
 43 H       -6.6920    -1.7350     1.5890 H     1 <1>   0.0800 
 44 H       -6.5000    -2.1840    -0.9630 H     1 <1>   0.0800 
 45 H       -5.8960    -0.7850    -1.8100 H     1 <1>   0.0800 
 46 H        0.9370     7.0010     2.0320 H     1 <1>   0.1500 
 47 H       -0.3270     7.3200    -0.3210 H     1 <1>   0.1500 
 48 H       -5.5930    -3.5650     2.4850 H     1 <1>   0.0800 
 49 H       -4.0190    -2.8660     2.3170 H     1 <1>   0.0800 
 50 H       -7.8340    -0.7550     0.2420 H     1 <1>   0.4000 
@<TRIPOS>BOND
  1   1   2  2   
  2   2   3  am  
  3   2   4  1   
  4   3   5  1   
  5   3   6  1   
  6   4   7  ar  
  7   4   8  ar  
  8   5   9  1   
  9   5  25  1   
 10   5  26  1   
 11   6  10  1   
 12   6  27  1   
 13   6  28  1   
 14   7  11  ar  
 15   7  29  1   
 16   8  12  ar  
 17   8  30  1   
 18   9  13  1   
 19   9  14  1   
 20   9  31  1   
 21  10  14  1   
 22  10  32  1   
 23  10  33  1   
 24  11  15  1   
 25  11  16  ar  
 26  12  16  ar  
 27  12  34  1   
 28  13  17  1   
 29  13  18  1   
 30  13  35  1   
 31  14  19  1   
 32  14  20  1   
 33  15  21  1   
 34  15  36  1   
 35  16  22  1   
 36  17  23  1   
 37  17  37  1   
 38  17  38  1   
 39  18  39  1   
 40  18  40  1   
 41  18  41  1   
 42  19  23  1   
 43  19  42  1   
 44  19  43  1   
 45  20  24  1   
 46  20  44  1   
 47  20  45  1   
 48  21  22  2   
 49  21  46  1   
 50  22  47  1   
 51  23  48  1   
 52  23  49  1   
 53  24  50  1   
@<TRIPOS>SUBSTRUCTURE
  1 ****   3 GROUP 4 **** **** 0

# MOE 2024.06 (io_trps.svl 2023.06)
