@<TRIPOS>MOLECULE
NONAME
40 42 1 0 0 
SMALL
USER_CHARGES


@<TRIPOS>ATOM
  1 F        2.5870     1.2640     1.6380 F     1 <1>  -0.1900 
  2 C        2.2280     2.2890     0.9080 C.ar  1 <1>   0.1900 
  3 C        2.9410     3.4590     1.0060 C.ar  1 <1>  -0.1500 
  4 C        1.1260     2.1320     0.0610 C.ar  1 <1>  -0.1500 
  5 C        2.5290     4.5280     0.2150 C.ar  1 <1>   0.2270 
  6 C        0.7230     3.1930    -0.7210 C.ar  1 <1>  -0.1500 
  7 N        3.0490     5.7840     0.1200 N.2   1 <1>  -0.5650 
  8 C        1.4400     4.3910    -0.6310 C.ar  1 <1>  -0.1520 
  9 C        2.3050     6.3730    -0.7480 C.2   1 <1>   0.0060 
 10 N        1.3110     5.5930    -1.2450 N.pl3 1 <1>   0.0330 
 11 C        2.5050     7.8130    -1.1740 C.3   1 <1>   0.0200 
 12 C        1.8650     8.7550    -0.1510 C.3   1 <1>  -0.0990 
 13 C        2.1480    10.1950    -0.5100 C.2   1 <1>   0.5690 
 14 O        1.4480    10.7140    -1.3410 O.2   1 <1>  -0.5700 
 15 N        3.1930    10.8100     0.1140 N.am  1 <1>  -0.4940 
 16 C        3.6790    12.1140    -0.0400 C.2   1 <1>   0.2040 
 17 O        3.1260    12.9770    -0.8600 O.3   1 <1>  -0.0190 
 18 C        4.7210    12.7270     0.5550 C.2   1 <1>  -0.1810 
 19 N        3.7440    14.1300    -0.8430 N.2   1 <1>  -0.4100 
 20 C        4.7070    14.0070    -0.0010 C.2   1 <1>   0.1080 
 21 C        5.7020    12.1950     1.5870 C.3   1 <1>  -0.0590 
 22 C        5.6780    15.1310     0.3170 C.3   1 <1>   0.0210 
 23 C        6.9390    15.0370    -0.5480 C.3   1 <1>  -0.2400 
 24 H        3.7840     3.5650     1.6600 H     1 <1>   0.1500 
 25 H        0.6150     1.1870     0.0350 H     1 <1>   0.1500 
 26 H       -0.1200     3.1090    -1.3850 H     1 <1>   0.1500 
 27 H        0.6060     5.8530    -1.9400 H     1 <1>   0.2700 
 28 H        2.0800     7.9800    -2.1490 H     1 <1>   0.0800 
 29 H        3.5620     8.0080    -1.2350 H     1 <1>   0.0800 
 30 H        2.2450     8.5390     0.8310 H     1 <1>   0.0800 
 31 H        0.8010     8.6040    -0.1350 H     1 <1>   0.0800 
 32 H        3.7040    10.2410     0.7830 H     1 <1>   0.3700 
 33 H        5.4870    11.1700     1.8260 H     1 <1>   0.0800 
 34 H        5.6390    12.7790     2.4880 H     1 <1>   0.0800 
 35 H        6.7050    12.2540     1.2040 H     1 <1>   0.0800 
 36 H        5.9430    15.0960     1.3580 H     1 <1>   0.0800 
 37 H        5.1900    16.0720     0.1330 H     1 <1>   0.0800 
 38 H        7.4500    14.1080    -0.3710 H     1 <1>   0.0800 
 39 H        7.6060    15.8500    -0.3220 H     1 <1>   0.0800 
 40 H        6.6720    15.0890    -1.5890 H     1 <1>   0.0800 
@<TRIPOS>BOND
  1   1   2  1   
  2   2   3  ar  
  3   2   4  ar  
  4   3   5  ar  
  5   3  24  1   
  6   4   6  ar  
  7   4  25  1   
  8   5   7  1   
  9   5   8  ar  
 10   6   8  ar  
 11   6  26  1   
 12   7   9  2   
 13   8  10  1   
 14   9  10  1   
 15   9  11  1   
 16  10  27  1   
 17  11  12  1   
 18  11  28  1   
 19  11  29  1   
 20  12  13  1   
 21  12  30  1   
 22  12  31  1   
 23  13  14  2   
 24  13  15  am  
 25  15  16  1   
 26  15  32  1   
 27  16  17  1   
 28  16  18  2   
 29  17  19  1   
 30  18  20  1   
 31  18  21  1   
 32  19  20  2   
 33  20  22  1   
 34  21  33  1   
 35  21  34  1   
 36  21  35  1   
 37  22  23  1   
 38  22  36  1   
 39  22  37  1   
 40  23  38  1   
 41  23  39  1   
 42  23  40  1   
@<TRIPOS>SUBSTRUCTURE
  1 ****  12 GROUP 4 **** **** 0

# MOE 2024.06 (io_trps.svl 2023.06)
