@<TRIPOS>MOLECULE
NONAME
36 37 1 0 0 
SMALL
USER_CHARGES


@<TRIPOS>ATOM
  1 S       -0.3840    -0.2840    -0.4850 S.o2  1 <1>   1.5620 
  2 F       -0.1080    -0.0880    -1.9670 F     1 <1>  -0.1990 
  3 O       -1.7780    -0.6860    -0.2310 O.2   1 <1>  -0.6500 
  4 O        0.0940     0.8550     0.3200 O.2   1 <1>  -0.6500 
  5 C        0.6520    -1.6960    -0.0100 C.2   1 <1>  -0.0630 
  6 C        1.9500    -1.7790     0.3800 C.2   1 <1>  -0.3320 
  7 C        0.2190    -3.0160    -0.0120 C.2   1 <1>   0.1390 
  8 N        2.2250    -3.0820     0.5770 N.pl3 1 <1>   0.3140 
  9 C        2.9830    -0.6850     0.5940 C.3   1 <1>   0.3200 
 10 N        1.1520    -3.8500     0.3350 N.2   1 <1>  -0.7070 
 11 C        3.5380    -3.6340     0.9530 C.3   1 <1>   0.0960 
 12 N        4.3320    -1.3030     0.6500 N.am  1 <1>  -0.6600 
 13 C        4.4360    -2.5220     1.5050 C.3   1 <1>   0.1400 
 14 C        5.3640    -0.8080    -0.1000 C.2   1 <1>   0.7800 
 15 O        5.2420     0.1910    -0.7790 O.2   1 <1>  -0.5700 
 16 O        6.5170    -1.4800    -0.0600 O.3   1 <1>  -0.4300 
 17 C        7.7090    -1.1770    -0.7540 C.3   1 <1>   0.2800 
 18 C        8.2490     0.1880    -0.3110 C.3   1 <1>  -0.2400 
 19 C        7.4740    -1.2510    -2.2670 C.3   1 <1>  -0.2400 
 20 C        8.6980    -2.2680    -0.3440 C.3   1 <1>  -0.2400 
 21 H       -0.7820    -3.3250    -0.2700 H     1 <1>   0.1500 
 22 H        2.7910    -0.1790     1.5250 H     1 <1>   0.0800 
 23 H        2.9210     0.0400    -0.2000 H     1 <1>   0.0800 
 24 H        3.9850    -4.0640     0.0770 H     1 <1>   0.0800 
 25 H        3.3960    -4.4060     1.6860 H     1 <1>   0.0800 
 26 H        5.4510    -2.8750     1.5610 H     1 <1>   0.0800 
 27 H        4.1230    -2.2740     2.5050 H     1 <1>   0.0800 
 28 H        7.6140     0.9860    -0.6470 H     1 <1>   0.0800 
 29 H        9.2230     0.3510    -0.7340 H     1 <1>   0.0800 
 30 H        8.3320     0.2280     0.7600 H     1 <1>   0.0800 
 31 H        6.8380    -0.4530    -2.6020 H     1 <1>   0.0800 
 32 H        7.0290    -2.1930    -2.5320 H     1 <1>   0.0800 
 33 H        8.4090    -1.1580    -2.7880 H     1 <1>   0.0800 
 34 H        8.8550    -2.2480     0.7200 H     1 <1>   0.0800 
 35 H        9.6440    -2.1160    -0.8290 H     1 <1>   0.0800 
 36 H        8.3240    -3.2360    -0.6260 H     1 <1>   0.0800 
@<TRIPOS>BOND
  1   1   2  1   
  2   1   3  2   
  3   1   4  2   
  4   1   5  1   
  5   5   6  2   
  6   5   7  1   
  7   6   8  1   
  8   6   9  1   
  9   7  10  2   
 10   7  21  1   
 11   8  10  1   
 12   8  11  1   
 13   9  12  1   
 14   9  22  1   
 15   9  23  1   
 16  11  13  1   
 17  11  24  1   
 18  11  25  1   
 19  12  13  1   
 20  12  14  am  
 21  13  26  1   
 22  13  27  1   
 23  14  15  2   
 24  14  16  1   
 25  16  17  1   
 26  17  18  1   
 27  17  19  1   
 28  17  20  1   
 29  18  28  1   
 30  18  29  1   
 31  18  30  1   
 32  19  31  1   
 33  19  32  1   
 34  19  33  1   
 35  20  34  1   
 36  20  35  1   
 37  20  36  1   
@<TRIPOS>SUBSTRUCTURE
  1 ****   9 GROUP 4 **** **** 0

# MOE 2024.06 (io_trps.svl 2023.06)
