@<TRIPOS>MOLECULE
NONAME
32 35 1 0 0 
SMALL
USER_CHARGES


@<TRIPOS>ATOM
  1 O        0.4560     0.4960     0.1400 O.2   1 <1>  -0.5700 
  2 C        1.1720     1.4600     0.2370 C.2   1 <1>   0.7060 
  3 O        2.2370     1.6160    -0.5500 O.3   1 <1>  -0.4300 
  4 C        1.0730     2.5480     1.1470 C.2   1 <1>  -0.1360 
  5 C        2.9480     2.7700    -0.1510 C.3   1 <1>   0.4180 
  6 C        2.1000     3.3820     0.9440 C.2   1 <1>  -0.1380 
  7 C        4.3740     2.5310     0.4020 C.3   1 <1>   0.4230 
  8 C        3.1420     3.8400    -1.2160 C.3   1 <1>  -0.1600 
  9 C        2.5920     4.6400     1.4390 C.2   1 <1>  -0.1500 
 10 N        5.1870     3.6460    -0.1560 N.4   1 <1>  -0.9590 
 11 C        5.1520     1.2480     0.1280 C.3   1 <1>  -0.1600 
 12 C        4.2010     4.6910    -0.5040 C.3   1 <1>   0.5610 
 13 C        3.5980     5.2620     0.7870 C.2   1 <1>  -0.2880 
 14 C        6.3510     3.9170     0.7120 C.3   1 <1>   0.3430 
 15 C        6.5070     1.3330     0.8660 C.3   1 <1>  -0.1600 
 16 C        7.2490     2.6700     0.6190 C.3   1 <1>  -0.1600 
 17 H        0.2580     2.6190     1.8430 H     1 <1>   0.1500 
 18 H        4.3130     2.6550     1.4720 H     1 <1>   0.0800 
 19 H        3.5250     3.4290    -2.1320 H     1 <1>   0.0800 
 20 H        2.2440     4.4010    -1.4080 H     1 <1>   0.0800 
 21 H        2.1270     5.0430     2.3270 H     1 <1>   0.1500 
 22 H        5.5670     3.3000    -1.0440 H     1 <1>   0.4500 
 23 H        4.5960     0.4020     0.4950 H     1 <1>   0.0800 
 24 H        5.2960     1.1110    -0.9300 H     1 <1>   0.0800 
 25 H        4.6080     5.4580    -1.1450 H     1 <1>   0.0800 
 26 H        4.0360     6.1930     1.1080 H     1 <1>   0.1500 
 27 H        6.8880     4.7880     0.3720 H     1 <1>   0.0800 
 28 H        6.0290     4.0780     1.7290 H     1 <1>   0.0800 
 29 H        6.3280     1.2320     1.9250 H     1 <1>   0.0800 
 30 H        7.1350     0.5070     0.5730 H     1 <1>   0.0800 
 31 H        7.7020     2.6460    -0.3570 H     1 <1>   0.0800 
 32 H        8.0530     2.7650     1.3300 H     1 <1>   0.0800 
@<TRIPOS>BOND
  1   1   2  2   
  2   2   3  1   
  3   2   4  1   
  4   3   5  1   
  5   4   6  2   
  6   4  17  1   
  7   5   6  1   
  8   5   7  1   
  9   5   8  1   
 10   6   9  1   
 11   7  10  1   
 12   7  11  1   
 13   7  18  1   
 14   8  12  1   
 15   8  19  1   
 16   8  20  1   
 17   9  13  2   
 18   9  21  1   
 19  10  12  1   
 20  10  14  1   
 21  10  22  1   
 22  11  15  1   
 23  11  23  1   
 24  11  24  1   
 25  12  13  1   
 26  12  25  1   
 27  13  26  1   
 28  14  16  1   
 29  14  27  1   
 30  14  28  1   
 31  15  16  1   
 32  15  29  1   
 33  15  30  1   
 34  16  31  1   
 35  16  32  1   
@<TRIPOS>SUBSTRUCTURE
  1 ****   7 GROUP 4 **** **** 0

# MOE 2024.06 (io_trps.svl 2023.06)
