@<TRIPOS>MOLECULE
NONAME
42 44 1 0 0 
SMALL
USER_CHARGES


@<TRIPOS>ATOM
  1 O        1.3370     0.4520     0.4200 O.3   1 <1>  -0.6800 
  2 C        1.9510    -0.1800    -0.6590 C.3   1 <1>   0.2000 
  3 C        2.6780    -1.4180    -0.1370 C.3   1 <1>  -0.0800 
  4 C        3.0880     0.7090    -1.1670 C.3   1 <1>   0.3430 
  5 C        4.0420    -0.8910     0.3470 C.3   1 <1>   0.3430 
  6 C        2.8490    -2.4850    -1.2360 C.3   1 <1>   0.0210 
  7 N        4.2100     0.4790    -0.2160 N.4   1 <1>  -0.9590 
  8 C        3.4610    -3.7570    -0.6800 C.2   1 <1>   0.1080 
  9 C        4.2250     1.5330     0.8320 C.3   1 <1>   0.5230 
 10 N        4.6270    -3.7910    -0.1120 N.2   1 <1>  -0.7070 
 11 C        2.8570    -5.0080    -0.7140 C.2   1 <1>  -0.1500 
 12 C        4.8390     2.7870     0.2240 C.2   1 <1>   0.0060 
 13 N        4.8030    -5.0850     0.2260 N.pl3 1 <1>   0.3000 
 14 C        3.7410    -5.8390    -0.1250 C.2   1 <1>  -0.3320 
 15 N        4.6770     4.0210     0.7550 N.pl3 1 <1>   0.0330 
 16 N        5.5680     2.7780    -0.8510 N.2   1 <1>  -0.5650 
 17 C        3.6370    -7.3320     0.1240 C.3   1 <1>  -0.0600 
 18 C        5.3610     4.8460    -0.0580 C.2   1 <1>  -0.3320 
 19 C        5.8980     4.0720    -1.0280 C.2   1 <1>   0.0770 
 20 C        5.4600     6.3460     0.1530 C.3   1 <1>  -0.0600 
 21 H        0.5200    -0.0230     0.6850 H     1 <1>   0.4000 
 22 H        1.2080    -0.3800    -1.4140 H     1 <1>   0.0800 
 23 H        2.1430    -1.8690     0.6810 H     1 <1>   0.0800 
 24 H        2.7960     1.7460    -1.2140 H     1 <1>   0.0800 
 25 H        3.3830     0.3830    -2.1500 H     1 <1>   0.0800 
 26 H        4.8420    -1.5280     0.0090 H     1 <1>   0.0800 
 27 H        4.0600    -0.8620     1.4240 H     1 <1>   0.0800 
 28 H        3.4790    -2.1220    -2.0290 H     1 <1>   0.0800 
 29 H        1.8900    -2.7270    -1.6580 H     1 <1>   0.0800 
 30 H        5.1050     0.6170    -0.7180 H     1 <1>   0.4500 
 31 H        3.2250     1.7290     1.1820 H     1 <1>   0.0800 
 32 H        4.8330     1.2160     1.6630 H     1 <1>   0.0800 
 33 H        1.8920    -5.2440    -1.1290 H     1 <1>   0.1500 
 34 H        5.6550    -5.4260     0.6900 H     1 <1>   0.2700 
 35 H        4.1540     4.2960     1.5930 H     1 <1>   0.2700 
 36 H        2.6990    -7.7050    -0.2470 H     1 <1>   0.0800 
 37 H        3.6940    -7.5400     1.1780 H     1 <1>   0.0800 
 38 H        4.4330    -7.8510    -0.3800 H     1 <1>   0.0800 
 39 H        6.5140     4.3860    -1.8550 H     1 <1>   0.1500 
 40 H        6.0580     6.7910    -0.6230 H     1 <1>   0.0800 
 41 H        5.9190     6.5620     1.1010 H     1 <1>   0.0800 
 42 H        4.4820     6.7930     0.1270 H     1 <1>   0.0800 
@<TRIPOS>BOND
  1   1   2  1   
  2   1  21  1   
  3   2   3  1   
  4   2   4  1   
  5   2  22  1   
  6   3   5  1   
  7   3   6  1   
  8   3  23  1   
  9   4   7  1   
 10   4  24  1   
 11   4  25  1   
 12   5   7  1   
 13   5  26  1   
 14   5  27  1   
 15   6   8  1   
 16   6  28  1   
 17   6  29  1   
 18   7   9  1   
 19   7  30  1   
 20   8  10  2   
 21   8  11  1   
 22   9  12  1   
 23   9  31  1   
 24   9  32  1   
 25  10  13  1   
 26  11  14  2   
 27  11  33  1   
 28  12  15  1   
 29  12  16  2   
 30  13  14  1   
 31  13  34  1   
 32  14  17  1   
 33  15  18  1   
 34  15  35  1   
 35  16  19  1   
 36  17  36  1   
 37  17  37  1   
 38  17  38  1   
 39  18  19  2   
 40  18  20  1   
 41  19  39  1   
 42  20  40  1   
 43  20  41  1   
 44  20  42  1   
@<TRIPOS>SUBSTRUCTURE
  1 ****   5 GROUP 4 **** **** 0

# MOE 2024.06 (io_trps.svl 2023.06)
