@<TRIPOS>MOLECULE
NONAME
41 44 1 0 0 
SMALL
USER_CHARGES


@<TRIPOS>ATOM
  1 O        0.8020    -1.6960    -2.0900 O.2   1 <1>  -0.5700 
  2 C        0.6510    -2.5570    -1.2380 C.2   1 <1>   0.5440 
  3 N        0.0340    -2.1680    -0.0610 N.am  1 <1>  -0.6600 
  4 C        1.0970    -3.9240    -1.5270 C.ar  1 <1>   0.3960 
  5 C       -0.3840    -3.0540     1.0490 C.3   1 <1>   0.1400 
  6 C       -0.3770    -0.7710     0.2010 C.3   1 <1>   0.1400 
  7 N        1.4080    -4.7830    -0.5400 N.ar  1 <1>  -0.6200 
  8 C        1.1820    -4.3140    -2.8700 C.ar  1 <1>   0.1600 
  9 C       -1.3380    -2.2110     1.8850 C.3   1 <1>  -0.1600 
 10 C       -0.8940    -0.7730     1.6360 C.3   1 <1>  -0.1600 
 11 C        1.7700    -5.9730    -0.9600 C.ar  1 <1>   0.4100 
 12 N        1.5510    -5.5120    -3.3100 N.ar  1 <1>  -0.6200 
 13 N        2.0170    -6.8540     0.0520 N.pl3 1 <1>  -0.8690 
 14 C        1.8550    -6.3180    -2.3160 C.ar  1 <1>   0.1600 
 15 C        1.0160    -7.9100     0.3290 C.3   1 <1>   0.3890 
 16 C       -0.1610    -7.3210     1.0820 C.2   1 <1>   0.0070 
 17 N       -0.2810    -7.3380     2.3700 N.2   1 <1>  -0.3380 
 18 N       -1.1920    -6.7100     0.4870 N.pl3 1 <1>   0.3340 
 19 N       -1.4150    -6.7210     2.6720 N.2   1 <1>  -0.3380 
 20 C       -1.9580    -6.3440     1.5440 C.2   1 <1>   0.1420 
 21 C       -1.5740    -6.4030    -0.8190 C.2   1 <1>  -0.1810 
 22 C       -3.1650    -5.6350     1.3150 C.2   1 <1>  -0.1050 
 23 C       -2.7260    -5.7180    -1.0490 C.2   1 <1>  -0.1500 
 24 C       -3.5420    -5.3240     0.0440 C.2   1 <1>  -0.1500 
 25 H        0.4810    -3.3300     1.6290 H     1 <1>   0.0800 
 26 H       -0.8690    -3.9360     0.6760 H     1 <1>   0.0800 
 27 H       -1.1610    -0.5020    -0.4860 H     1 <1>   0.0800 
 28 H        0.4560    -0.0990     0.0780 H     1 <1>   0.0800 
 29 H        0.9270    -3.5870    -3.6230 H     1 <1>   0.1500 
 30 H       -1.2990    -2.4820     2.9260 H     1 <1>   0.0800 
 31 H       -2.3400    -2.3550     1.5220 H     1 <1>   0.0800 
 32 H       -1.6920    -0.0650     1.7740 H     1 <1>   0.0800 
 33 H       -0.0830    -0.5210     2.2980 H     1 <1>   0.0800 
 34 H        2.1800    -6.3330     0.9220 H     1 <1>   0.4000 
 35 H        2.1890    -7.3110    -2.5580 H     1 <1>   0.1500 
 36 H        1.4750    -8.6740     0.9350 H     1 <1>   0.0800 
 37 H        0.6860    -8.3640    -0.5890 H     1 <1>   0.0800 
 38 H       -0.9210    -6.7250    -1.6090 H     1 <1>   0.1500 
 39 H       -3.7510    -5.3610     2.1750 H     1 <1>   0.1500 
 40 H       -3.0460    -5.4610    -2.0460 H     1 <1>   0.1500 
 41 H       -4.4520    -4.7840    -0.1600 H     1 <1>   0.1500 
@<TRIPOS>BOND
  1   1   2  2   
  2   2   3  am  
  3   2   4  1   
  4   3   5  1   
  5   3   6  1   
  6   4   7  ar  
  7   4   8  ar  
  8   5   9  1   
  9   5  25  1   
 10   5  26  1   
 11   6  10  1   
 12   6  27  1   
 13   6  28  1   
 14   7  11  ar  
 15   8  12  ar  
 16   8  29  1   
 17   9  10  1   
 18   9  30  1   
 19   9  31  1   
 20  10  32  1   
 21  10  33  1   
 22  11  13  1   
 23  11  14  ar  
 24  12  14  ar  
 25  13  15  1   
 26  13  34  1   
 27  14  35  1   
 28  15  16  1   
 29  15  36  1   
 30  15  37  1   
 31  16  17  2   
 32  16  18  1   
 33  17  19  1   
 34  18  20  1   
 35  18  21  1   
 36  19  20  2   
 37  20  22  1   
 38  21  23  2   
 39  21  38  1   
 40  22  24  2   
 41  22  39  1   
 42  23  24  1   
 43  23  40  1   
 44  24  41  1   
@<TRIPOS>SUBSTRUCTURE
  1 ****   7 GROUP 4 **** **** 0

# MOE 2024.06 (io_trps.svl 2023.06)
