@<TRIPOS>MOLECULE
NONAME
49 51 1 0 0 
SMALL
USER_CHARGES


@<TRIPOS>ATOM
  1 S        0.7920     0.8200     0.1660 S.o2  1 <1>   1.3330 
  2 O       -0.3870     1.4740     0.6860 O.2   1 <1>  -0.6500 
  3 O        0.6520    -0.3640    -0.6530 O.2   1 <1>  -0.6500 
  4 N        1.7670     0.4160     1.4980 N.am  1 <1>  -0.8490 
  5 C        1.7780     2.0100    -0.7440 C.3   1 <1>  -0.0550 
  6 C        1.4290    -0.9010     2.0460 C.3   1 <1>   0.1160 
  7 C        1.7310     1.4200     2.5680 C.3   1 <1>   0.1160 
  8 C        3.0240     1.4110    -1.4330 C.3   1 <1>  -0.0800 
  9 C        3.7900     2.3850    -2.3140 C.3   1 <1>   0.2200 
 10 C        4.1100     0.8930    -0.4820 C.3   1 <1>   0.1200 
 11 N        3.9230     3.6910    -1.6370 N.am  1 <1>  -0.7300 
 12 C        5.1560     1.7150    -2.3510 C.3   1 <1>   0.1200 
 13 O        5.3430     1.1970    -1.0690 O.3   1 <1>  -0.5600 
 14 C        3.2230     4.8230    -1.9000 C.2   1 <1>   0.5690 
 15 O        2.3680     4.8460    -2.7530 O.2   1 <1>  -0.5700 
 16 C        3.4800     6.0730    -1.0640 C.3   1 <1>   0.2010 
 17 N        4.7160     5.9590    -0.2220 N.am  1 <1>  -0.2980 
 18 N        4.5780     5.3200     0.9910 N.2   1 <1>  -0.5120 
 19 C        5.9240     6.4440    -0.7120 C.2   1 <1>   0.5440 
 20 C        5.6350     5.2020     1.7140 C.2   1 <1>   0.3040 
 21 O        5.9790     6.9600    -1.8180 O.2   1 <1>  -0.5700 
 22 C        7.0910     6.3080     0.1170 C.ar  1 <1>   0.0860 
 23 C        6.9370     5.6730     1.3570 C.ar  1 <1>   0.0860 
 24 C        8.3570     6.7730    -0.2520 C.ar  1 <1>  -0.1500 
 25 C        8.0510     5.5230     2.1900 C.ar  1 <1>  -0.1500 
 26 C        9.4450     6.6170     0.5800 C.ar  1 <1>  -0.1500 
 27 C        9.2900     5.9880     1.8080 C.ar  1 <1>  -0.1500 
 28 H        1.1590     2.4460    -1.5050 H     1 <1>   0.0800 
 29 H        2.0700     2.8010    -0.0830 H     1 <1>   0.0800 
 30 H        2.0700    -1.1360     2.8780 H     1 <1>   0.0800 
 31 H        1.5660    -1.6590     1.2920 H     1 <1>   0.0800 
 32 H        0.4020    -0.9190     2.3710 H     1 <1>   0.0800 
 33 H        2.4250     1.1550     3.3470 H     1 <1>   0.0800 
 34 H        0.7410     1.4870     2.9900 H     1 <1>   0.0800 
 35 H        2.0080     2.3860     2.1840 H     1 <1>   0.0800 
 36 H        2.7090     0.5850    -2.0490 H     1 <1>   0.0800 
 37 H        3.3560     2.5050    -3.2930 H     1 <1>   0.0800 
 38 H        4.0410    -0.1720    -0.3360 H     1 <1>   0.0800 
 39 H        4.0760     1.3930     0.4700 H     1 <1>   0.0800 
 40 H        4.5850     3.7070    -0.8530 H     1 <1>   0.3700 
 41 H        5.9500     2.4010    -2.5880 H     1 <1>   0.0800 
 42 H        5.1590     0.8920    -3.0450 H     1 <1>   0.0800 
 43 H        2.6360     6.2300    -0.4200 H     1 <1>   0.0800 
 44 H        3.5550     6.9200    -1.7210 H     1 <1>   0.0800 
 45 H        5.5510     4.7110     2.6670 H     1 <1>   0.0600 
 46 H        8.4750     7.2600    -1.2060 H     1 <1>   0.1500 
 47 H        7.9380     5.0360     3.1430 H     1 <1>   0.1500 
 48 H       10.4140     6.9800     0.2830 H     1 <1>   0.1500 
 49 H       10.1430     5.8690     2.4560 H     1 <1>   0.1500 
@<TRIPOS>BOND
  1   1   2  2   
  2   1   3  2   
  3   1   4  am  
  4   1   5  1   
  5   4   6  1   
  6   4   7  1   
  7   5   8  1   
  8   5  28  1   
  9   5  29  1   
 10   6  30  1   
 11   6  31  1   
 12   6  32  1   
 13   7  33  1   
 14   7  34  1   
 15   7  35  1   
 16   8   9  1   
 17   8  10  1   
 18   8  36  1   
 19   9  11  1   
 20   9  12  1   
 21   9  37  1   
 22  10  13  1   
 23  10  38  1   
 24  10  39  1   
 25  11  14  am  
 26  11  40  1   
 27  12  13  1   
 28  12  41  1   
 29  12  42  1   
 30  14  15  2   
 31  14  16  1   
 32  16  17  1   
 33  16  43  1   
 34  16  44  1   
 35  17  18  1   
 36  17  19  am  
 37  18  20  2   
 38  19  21  2   
 39  19  22  1   
 40  20  23  1   
 41  20  45  1   
 42  22  23  ar  
 43  22  24  ar  
 44  23  25  ar  
 45  24  26  ar  
 46  24  46  1   
 47  25  27  ar  
 48  25  47  1   
 49  26  27  ar  
 50  26  48  1   
 51  27  49  1   
@<TRIPOS>SUBSTRUCTURE
  1 ****  11 GROUP 4 **** **** 0

# MOE 2024.06 (io_trps.svl 2023.06)
