@<TRIPOS>MOLECULE
NONAME
56 58 1 0 0 
SMALL
USER_CHARGES


@<TRIPOS>ATOM
  1 O        0.3180     0.7320     0.7440 O.2   1 <1>  -0.5700 
  2 C        0.2960     1.9350     0.8050 C.2   1 <1>   0.5690 
  3 N       -0.8410     2.5870     1.1340 N.am  1 <1>  -0.7300 
  4 C        1.5540     2.7430     0.4690 C.3   1 <1>   0.1810 
  5 C       -0.9400     4.0640     1.2350 C.3   1 <1>   0.3640 
  6 O        1.4990     4.0780     0.9230 O.3   1 <1>  -0.5600 
  7 C       -2.2150     4.5250     0.5300 C.ar  1 <1>  -0.1440 
  8 C        0.2950     4.7640     0.6140 C.3   1 <1>   0.2610 
  9 C       -3.0010     5.5110     1.1090 C.ar  1 <1>  -0.1500 
 10 C       -2.5990     3.9950    -0.6960 C.ar  1 <1>  -0.1500 
 11 C        0.3800     6.2420     1.0360 C.2   1 <1>   0.5690 
 12 C       -4.1480     5.9600     0.4790 C.ar  1 <1>  -0.1500 
 13 C       -3.7470     4.4420    -1.3280 C.ar  1 <1>  -0.1500 
 14 O       -0.1460     6.5700     2.0780 O.2   1 <1>  -0.5700 
 15 N        1.0120     7.1720     0.2400 N.am  1 <1>  -0.6600 
 16 C       -4.5220     5.4260    -0.7410 C.ar  1 <1>  -0.1500 
 17 C        1.9190     6.8240    -0.8940 C.3   1 <1>   0.2840 
 18 C        0.9150     8.6320     0.5490 C.3   1 <1>   0.1400 
 19 C        3.3520     7.2240    -0.5820 C.ar  1 <1>  -0.1430 
 20 C       -0.0460     9.3540    -0.4160 C.3   1 <1>  -0.0800 
 21 C        4.0090     8.1650    -1.3610 C.ar  1 <1>  -0.1500 
 22 C        4.0180     6.6470     0.4880 C.ar  1 <1>  -0.1500 
 23 C       -0.0920    10.8490    -0.0800 C.3   1 <1>  -0.2400 
 24 C       -1.4690     8.7730    -0.3630 C.3   1 <1>  -0.2400 
 25 C        5.3160     8.5210    -1.0730 C.ar  1 <1>  -0.1500 
 26 C        5.3240     7.0040     0.7740 C.ar  1 <1>  -0.1500 
 27 C        5.9810     7.9410    -0.0050 C.ar  1 <1>  -0.1430 
 28 C        7.4120     8.3340     0.3120 C.3   1 <1>  -0.0970 
 29 H       -1.6770     2.0470     1.3590 H     1 <1>   0.3700 
 30 H        1.6970     2.7530    -0.5960 H     1 <1>   0.0800 
 31 H        2.4070     2.2770     0.9280 H     1 <1>   0.0800 
 32 H       -1.0020     4.3130     2.2810 H     1 <1>   0.0800 
 33 H        0.1740     4.7350    -0.4520 H     1 <1>   0.0800 
 34 H       -2.7210     5.9440     2.0560 H     1 <1>   0.1500 
 35 H       -2.0110     3.2280    -1.1700 H     1 <1>   0.1500 
 36 H       -4.7480     6.7270     0.9380 H     1 <1>   0.1500 
 37 H       -4.0390     4.0240    -2.2760 H     1 <1>   0.1500 
 38 H       -5.4140     5.7750    -1.2310 H     1 <1>   0.1500 
 39 H        1.9080     5.7710    -1.0970 H     1 <1>   0.0800 
 40 H        1.5800     7.3270    -1.7830 H     1 <1>   0.0800 
 41 H        0.5690     8.7740     1.5580 H     1 <1>   0.0800 
 42 H        1.8930     9.0790     0.4910 H     1 <1>   0.0800 
 43 H        0.3320     9.2560    -1.4190 H     1 <1>   0.0800 
 44 H        3.5100     8.6280    -2.1940 H     1 <1>   0.1500 
 45 H        3.5180     5.9200     1.1050 H     1 <1>   0.1500 
 46 H       -0.4730    11.0010     0.9150 H     1 <1>   0.0800 
 47 H       -0.7290    11.3700    -0.7740 H     1 <1>   0.0800 
 48 H        0.8930    11.2770    -0.1390 H     1 <1>   0.0800 
 49 H       -1.8500     8.8040     0.6420 H     1 <1>   0.0800 
 50 H       -1.4760     7.7500    -0.6950 H     1 <1>   0.0800 
 51 H       -2.1290     9.3330    -1.0010 H     1 <1>   0.0800 
 52 H        5.8130     9.2530    -1.6840 H     1 <1>   0.1500 
 53 H        5.8250     6.5490     1.6110 H     1 <1>   0.1500 
 54 H        7.9310     8.6220    -0.5840 H     1 <1>   0.0800 
 55 H        7.9380     7.5080     0.7570 H     1 <1>   0.0800 
 56 H        7.4180     9.1600     0.9990 H     1 <1>   0.0800 
@<TRIPOS>BOND
  1   1   2  2   
  2   2   3  am  
  3   2   4  1   
  4   3   5  1   
  5   3  29  1   
  6   4   6  1   
  7   4  30  1   
  8   4  31  1   
  9   5   7  1   
 10   5   8  1   
 11   5  32  1   
 12   6   8  1   
 13   7   9  ar  
 14   7  10  ar  
 15   8  11  1   
 16   8  33  1   
 17   9  12  ar  
 18   9  34  1   
 19  10  13  ar  
 20  10  35  1   
 21  11  14  2   
 22  11  15  am  
 23  12  16  ar  
 24  12  36  1   
 25  13  16  ar  
 26  13  37  1   
 27  15  17  1   
 28  15  18  1   
 29  16  38  1   
 30  17  19  1   
 31  17  39  1   
 32  17  40  1   
 33  18  20  1   
 34  18  41  1   
 35  18  42  1   
 36  19  21  ar  
 37  19  22  ar  
 38  20  23  1   
 39  20  24  1   
 40  20  43  1   
 41  21  25  ar  
 42  21  44  1   
 43  22  26  ar  
 44  22  45  1   
 45  23  46  1   
 46  23  47  1   
 47  23  48  1   
 48  24  49  1   
 49  24  50  1   
 50  24  51  1   
 51  25  27  ar  
 52  25  52  1   
 53  26  27  ar  
 54  26  53  1   
 55  27  28  1   
 56  28  54  1   
 57  28  55  1   
 58  28  56  1   
@<TRIPOS>SUBSTRUCTURE
  1 ****  11 GROUP 4 **** **** 0

# MOE 2024.06 (io_trps.svl 2023.06)
