@<TRIPOS>MOLECULE
NONAME
51 54 1 0 0 
SMALL
USER_CHARGES


@<TRIPOS>ATOM
  1 S        0.1300     0.1910     1.7420 S.o2  1 <1>   1.5010 
  2 O       -0.4710    -0.8010     2.6080 O.2   1 <1>  -0.6500 
  3 O        0.3700     1.5230     2.2550 O.2   1 <1>  -0.6500 
  4 N       -0.8970     0.3590     0.4050 N.am  1 <1>  -0.8490 
  5 C        1.6330    -0.5240     1.0140 C.2   1 <1>  -0.0630 
  6 C       -2.2860     0.5990     0.8320 C.3   1 <1>   0.1960 
  7 C       -0.4570     1.4180    -0.5090 C.3   1 <1>   0.1960 
  8 C        2.7570     0.1130     0.6110 C.2   1 <1>  -0.1400 
  9 C        1.7040    -1.9360     0.7750 C.2   1 <1>  -0.1500 
 10 C       -3.2700     0.5740    -0.3650 C.3   1 <1>   0.0000 
 11 C       -1.3360     1.4380    -1.7640 C.3   1 <1>  -0.1600 
 12 S        3.9150    -1.0200    -0.0600 S.3   1 <1>  -0.0800 
 13 C        3.2040     1.5650     0.6230 C.3   1 <1>  -0.0600 
 14 C        2.8480    -2.3900     0.2100 C.2   1 <1>   0.0400 
 15 C       -4.7290     0.8120     0.0730 C.3   1 <1>   0.2000 
 16 C       -2.8200     1.6170    -1.4090 C.3   1 <1>  -0.1600 
 17 C       -3.3520    -0.8440    -0.9580 C.3   1 <1>  -0.1600 
 18 C        3.2990    -3.6980    -0.1730 C.2   1 <1>  -0.1520 
 19 O       -4.8460     1.7320     1.1010 O.3   1 <1>  -0.6800 
 20 C       -5.2900    -0.5430     0.5080 C.3   1 <1>  -0.1600 
 21 C       -4.3420    -1.6020    -0.0700 C.3   1 <1>  -0.1600 
 22 N        2.5920    -4.8360     0.0230 N.pl3 1 <1>   0.3000 
 23 C        4.4500    -4.1000    -0.7750 C.2   1 <1>  -0.1500 
 24 N        3.2330    -5.9310    -0.4240 N.2   1 <1>  -0.7070 
 25 C        4.3700    -5.4840    -0.9120 C.2   1 <1>   0.1080 
 26 C        5.4930    -6.3470    -1.5590 C.3   1 <1>   1.2010 
 27 F        5.0820    -7.0170    -2.6320 F     1 <1>  -0.3400 
 28 F        6.5260    -5.6120    -1.9660 F     1 <1>  -0.3400 
 29 F        6.0000    -7.2500    -0.7250 F     1 <1>  -0.3400 
 30 H       -2.5820    -0.1560     1.5400 H     1 <1>   0.0800 
 31 H       -2.3370     1.5540     1.3290 H     1 <1>   0.0800 
 32 H       -0.5070     2.3760    -0.0150 H     1 <1>   0.0800 
 33 H        0.5630     1.2440    -0.8060 H     1 <1>   0.0800 
 34 H        0.8700    -2.5590     1.0480 H     1 <1>   0.1500 
 35 H       -1.0220     2.2430    -2.4030 H     1 <1>   0.0800 
 36 H       -1.1930     0.5180    -2.3030 H     1 <1>   0.0800 
 37 H        2.4440     2.2100     1.0210 H     1 <1>   0.0800 
 38 H        3.4340     1.8850    -0.3770 H     1 <1>   0.0800 
 39 H        4.0870     1.6670     1.2290 H     1 <1>   0.0800 
 40 H       -5.3000     1.1820    -0.7630 H     1 <1>   0.0800 
 41 H       -3.4200     1.5450    -2.2990 H     1 <1>   0.0800 
 42 H       -2.9630     2.6020    -0.9980 H     1 <1>   0.0800 
 43 H       -3.7530    -0.7960    -1.9570 H     1 <1>   0.0800 
 44 H       -2.3970    -1.3370    -1.0000 H     1 <1>   0.0800 
 45 H       -4.6090     1.3190     1.9530 H     1 <1>   0.4000 
 46 H       -5.3280    -0.6360     1.5800 H     1 <1>   0.0800 
 47 H       -6.2800    -0.6690     0.1070 H     1 <1>   0.0800 
 48 H       -3.8090    -2.0850     0.7320 H     1 <1>   0.0800 
 49 H       -4.8750    -2.3520    -0.6300 H     1 <1>   0.0800 
 50 H        1.6670    -4.8840     0.4660 H     1 <1>   0.2700 
 51 H        5.2700    -3.4760    -1.0890 H     1 <1>   0.1500 
@<TRIPOS>BOND
  1   1   2  2   
  2   1   3  2   
  3   1   4  am  
  4   1   5  1   
  5   4   6  1   
  6   4   7  1   
  7   5   8  2   
  8   5   9  1   
  9   6  10  1   
 10   6  30  1   
 11   6  31  1   
 12   7  11  1   
 13   7  32  1   
 14   7  33  1   
 15   8  12  1   
 16   8  13  1   
 17   9  14  2   
 18   9  34  1   
 19  10  15  1   
 20  10  16  1   
 21  10  17  1   
 22  11  16  1   
 23  11  35  1   
 24  11  36  1   
 25  12  14  1   
 26  13  37  1   
 27  13  38  1   
 28  13  39  1   
 29  14  18  1   
 30  15  19  1   
 31  15  20  1   
 32  15  40  1   
 33  16  41  1   
 34  16  42  1   
 35  17  21  1   
 36  17  43  1   
 37  17  44  1   
 38  18  22  1   
 39  18  23  2   
 40  19  45  1   
 41  20  21  1   
 42  20  46  1   
 43  20  47  1   
 44  21  48  1   
 45  21  49  1   
 46  22  24  1   
 47  22  50  1   
 48  23  25  1   
 49  23  51  1   
 50  24  25  2   
 51  25  26  1   
 52  26  27  1   
 53  26  28  1   
 54  26  29  1   
@<TRIPOS>SUBSTRUCTURE
  1 ****   9 GROUP 4 **** **** 0

# MOE 2024.06 (io_trps.svl 2023.06)
