@<TRIPOS>MOLECULE
NONAME
57 58 1 0 0 
SMALL
USER_CHARGES


@<TRIPOS>ATOM
  1 O        0.0500    -0.3730     0.2210 O.2   1 <1>  -0.5700 
  2 C        0.3590    -1.3460    -0.4300 C.2   1 <1>   0.6900 
  3 N       -0.5480    -2.2580    -0.8150 N.am  1 <1>  -0.7300 
  4 N        1.6320    -1.5250    -0.7840 N.am  1 <1>  -0.8000 
  5 C       -1.9590    -2.2760    -0.3350 C.3   1 <1>   0.2010 
  6 C       -2.5350    -3.6940    -0.2090 C.2   1 <1>   0.5690 
  7 O       -1.9380    -4.5980    -0.7540 O.2   1 <1>  -0.5700 
  8 N       -3.6960    -3.9330     0.4920 N.am  1 <1>  -0.6600 
  9 C       -4.1550    -5.3400     0.6920 C.3   1 <1>   0.1400 
 10 C       -4.5620    -2.8650     1.0760 C.3   1 <1>   0.1400 
 11 C       -5.0260    -5.8100    -0.4820 C.3   1 <1>   0.1400 
 12 C       -6.0570    -3.0560     0.7810 C.3   1 <1>  -0.1600 
 13 N       -6.3800    -5.1650    -0.4740 N.am  1 <1>  -0.6600 
 14 C       -6.3710    -3.6780    -0.5850 C.3   1 <1>   0.1400 
 15 C       -7.5720    -5.8360    -0.3500 C.2   1 <1>   0.5690 
 16 O       -8.6220    -5.2460    -0.2400 O.2   1 <1>  -0.5700 
 17 C       -7.6100    -7.3630    -0.3370 C.3   1 <1>  -0.0990 
 18 C       -9.0400    -7.9450    -0.3410 C.3   1 <1>  -0.1600 
 19 C       -9.1100    -9.4800    -0.4490 C.3   1 <1>  -0.0800 
 20 C      -10.5840    -9.8980    -0.6460 C.3   1 <1>   0.3430 
 21 C       -8.4600   -10.1790     0.7630 C.3   1 <1>  -0.1600 
 22 N      -10.9440   -11.1370     0.1160 N.4   1 <1>  -0.9590 
 23 C       -8.6110   -11.7100     0.6730 C.3   1 <1>  -0.1600 
 24 C       -9.8940   -12.1800    -0.0240 C.3   1 <1>   0.3430 
 25 C      -12.2900   -11.6450    -0.2840 C.3   1 <1>   0.2630 
 26 H       -0.2300    -3.1710    -1.1490 H     1 <1>   0.3700 
 27 H        2.2940    -0.7840    -0.5640 H     1 <1>   0.3700 
 28 H        1.9050    -2.2010    -1.4900 H     1 <1>   0.3700 
 29 H       -2.5630    -1.7180    -1.0270 H     1 <1>   0.0800 
 30 H       -2.0060    -1.7940     0.6250 H     1 <1>   0.0800 
 31 H       -4.6980    -5.4310     1.6160 H     1 <1>   0.0800 
 32 H       -3.2940    -5.9830     0.7600 H     1 <1>   0.0800 
 33 H       -4.2730    -1.9070     0.6810 H     1 <1>   0.0800 
 34 H       -4.4100    -2.8340     2.1420 H     1 <1>   0.0800 
 35 H       -5.1140    -6.8770    -0.4210 H     1 <1>   0.0800 
 36 H       -4.5250    -5.5840    -1.4080 H     1 <1>   0.0800 
 37 H       -6.5210    -2.0870     0.8260 H     1 <1>   0.0800 
 38 H       -6.5140    -3.6460     1.5560 H     1 <1>   0.0800 
 39 H       -5.6550    -3.3650    -1.3250 H     1 <1>   0.0800 
 40 H       -7.3400    -3.3370    -0.9110 H     1 <1>   0.0800 
 41 H       -7.0860    -7.6910     0.5410 H     1 <1>   0.0800 
 42 H       -7.0870    -7.7170    -1.2070 H     1 <1>   0.0800 
 43 H       -9.5650    -7.5150    -1.1790 H     1 <1>   0.0800 
 44 H       -9.5480    -7.6190     0.5530 H     1 <1>   0.0800 
 45 H       -8.5720    -9.7720    -1.3350 H     1 <1>   0.0800 
 46 H      -10.7620   -10.0490    -1.6980 H     1 <1>   0.0800 
 47 H      -11.2230    -9.0930    -0.3210 H     1 <1>   0.0800 
 48 H       -8.9290    -9.8270     1.6670 H     1 <1>   0.0800 
 49 H       -7.4130    -9.9380     0.8290 H     1 <1>   0.0800 
 50 H      -10.9670   -10.8790     1.1130 H     1 <1>   0.4500 
 51 H       -8.5720   -12.1280     1.6640 H     1 <1>   0.0800 
 52 H       -7.7760   -12.1200     0.1320 H     1 <1>   0.0800 
 53 H       -9.6950   -12.3460    -1.0710 H     1 <1>   0.0800 
 54 H      -10.2210   -13.1110     0.4110 H     1 <1>   0.0800 
 55 H      -12.2900   -11.9260    -1.3250 H     1 <1>   0.0800 
 56 H      -13.0370   -10.8820    -0.1330 H     1 <1>   0.0800 
 57 H      -12.5560   -12.5070     0.3070 H     1 <1>   0.0800 
@<TRIPOS>BOND
  1   1   2  2   
  2   2   3  am  
  3   2   4  am  
  4   3   5  1   
  5   3  26  1   
  6   4  27  1   
  7   4  28  1   
  8   5   6  1   
  9   5  29  1   
 10   5  30  1   
 11   6   7  2   
 12   6   8  am  
 13   8   9  1   
 14   8  10  1   
 15   9  11  1   
 16   9  31  1   
 17   9  32  1   
 18  10  12  1   
 19  10  33  1   
 20  10  34  1   
 21  11  13  1   
 22  11  35  1   
 23  11  36  1   
 24  12  14  1   
 25  12  37  1   
 26  12  38  1   
 27  13  14  1   
 28  13  15  am  
 29  14  39  1   
 30  14  40  1   
 31  15  16  2   
 32  15  17  1   
 33  17  18  1   
 34  17  41  1   
 35  17  42  1   
 36  18  19  1   
 37  18  43  1   
 38  18  44  1   
 39  19  20  1   
 40  19  21  1   
 41  19  45  1   
 42  20  22  1   
 43  20  46  1   
 44  20  47  1   
 45  21  23  1   
 46  21  48  1   
 47  21  49  1   
 48  22  24  1   
 49  22  25  1   
 50  22  50  1   
 51  23  24  1   
 52  23  51  1   
 53  23  52  1   
 54  24  53  1   
 55  24  54  1   
 56  25  55  1   
 57  25  56  1   
 58  25  57  1   
@<TRIPOS>SUBSTRUCTURE
  1 ****  11 GROUP 4 **** **** 0

# MOE 2024.06 (io_trps.svl 2023.06)
