@<TRIPOS>MOLECULE
NONAME
47 50 1 0 0 
SMALL
USER_CHARGES


@<TRIPOS>ATOM
  1 O       -1.4330     0.1420    -0.0540 O.2   1 <1>  -0.5700 
  2 C       -2.2240     1.0230     0.2400 C.2   1 <1>   0.5440 
  3 N       -3.4230     0.6390     0.7980 N.am  1 <1>  -0.6600 
  4 C       -1.9000     2.4140    -0.0240 C.ar  1 <1>   0.0860 
  5 C       -3.5720    -0.7290     1.3720 C.3   1 <1>   0.1400 
  6 C       -4.7220     1.2270     0.3590 C.3   1 <1>   0.1400 
  7 C       -2.3650     3.4420     0.7860 C.ar  1 <1>  -0.1500 
  8 C       -1.0830     2.7570    -1.1230 C.ar  1 <1>  -0.1500 
  9 C       -4.1170    -1.6530     0.2610 C.3   1 <1>   0.4230 
 10 C       -5.3590     0.3030    -0.6940 C.3   1 <1>  -0.1600 
 11 C       -2.0440     4.7630     0.5020 C.ar  1 <1>   0.2270 
 12 C       -0.7530     4.0610    -1.4140 C.ar  1 <1>  -0.1500 
 13 N       -4.1780    -3.1110     0.6170 N.4   1 <1>  -0.9590 
 14 C       -5.5130    -1.1650    -0.1960 C.3   1 <1>  -0.1060 
 15 N       -2.4050     5.9010     1.1600 N.2   1 <1>  -0.5650 
 16 C       -1.2470     5.0670    -0.5850 C.ar  1 <1>  -0.1520 
 17 C       -4.6380    -3.9900    -0.4990 C.3   1 <1>   0.3430 
 18 C       -2.9800    -3.6490     1.3150 C.3   1 <1>   0.2630 
 19 C       -6.4610    -1.2430     1.0150 C.2   1 <1>   0.9060 
 20 C       -6.0680    -2.0540    -1.3470 C.3   1 <1>  -0.1600 
 21 C       -1.8420     6.8460     0.4910 C.2   1 <1>   0.0360 
 22 N       -1.1250     6.4160    -0.5770 N.pl3 1 <1>   0.0330 
 23 C       -5.1160    -3.2000    -1.7250 C.3   1 <1>  -0.1600 
 24 O       -6.3590    -2.2150     1.7820 O.co2 1 <1>  -0.9000 
 25 O       -7.2870    -0.3540     1.2100 O.co2 1 <1>  -0.9000 
 26 H       -2.6110    -1.0680     1.7120 H     1 <1>   0.0800 
 27 H       -4.2380    -0.6930     2.2170 H     1 <1>   0.0800 
 28 H       -5.3750     1.3300     1.2110 H     1 <1>   0.0800 
 29 H       -4.5780     2.2050    -0.0650 H     1 <1>   0.0800 
 30 H       -2.9760     3.2410     1.6460 H     1 <1>   0.1500 
 31 H       -0.7100     1.9600    -1.7450 H     1 <1>   0.1500 
 32 H       -3.4390    -1.5480    -0.5680 H     1 <1>   0.0800 
 33 H       -6.3280     0.6990    -0.9490 H     1 <1>   0.0800 
 34 H       -4.7540     0.3320    -1.5830 H     1 <1>   0.0800 
 35 H       -0.1280     4.3050    -2.2560 H     1 <1>   0.1500 
 36 H       -4.9880    -3.0950     1.2950 H     1 <1>   0.4500 
 37 H       -3.8410    -4.6490    -0.7990 H     1 <1>   0.0800 
 38 H       -5.4540    -4.5970    -0.1390 H     1 <1>   0.0800 
 39 H       -2.1120    -3.5650     0.6820 H     1 <1>   0.0800 
 40 H       -3.1340    -4.6850     1.5680 H     1 <1>   0.0800 
 41 H       -2.8030    -3.1010     2.2250 H     1 <1>   0.0800 
 42 H       -7.0100    -2.4800    -1.0390 H     1 <1>   0.0800 
 43 H       -6.2750    -1.4630    -2.2230 H     1 <1>   0.0800 
 44 H       -1.9180     7.8910     0.7380 H     1 <1>   0.1500 
 45 H       -0.5960     6.9880    -1.2400 H     1 <1>   0.2700 
 46 H       -4.2600    -2.8060    -2.2460 H     1 <1>   0.0800 
 47 H       -5.6150    -3.8710    -2.4010 H     1 <1>   0.0800 
@<TRIPOS>BOND
  1   1   2  2   
  2   2   3  am  
  3   2   4  1   
  4   3   5  1   
  5   3   6  1   
  6   4   7  ar  
  7   4   8  ar  
  8   5   9  1   
  9   5  26  1   
 10   5  27  1   
 11   6  10  1   
 12   6  28  1   
 13   6  29  1   
 14   7  11  ar  
 15   7  30  1   
 16   8  12  ar  
 17   8  31  1   
 18   9  13  1   
 19   9  14  1   
 20   9  32  1   
 21  10  14  1   
 22  10  33  1   
 23  10  34  1   
 24  11  15  1   
 25  11  16  ar  
 26  12  16  ar  
 27  12  35  1   
 28  13  17  1   
 29  13  18  1   
 30  13  36  1   
 31  14  19  1   
 32  14  20  1   
 33  15  21  2   
 34  16  22  1   
 35  17  23  1   
 36  17  37  1   
 37  17  38  1   
 38  18  39  1   
 39  18  40  1   
 40  18  41  1   
 41  19  24  ar  
 42  19  25  ar  
 43  20  23  1   
 44  20  42  1   
 45  20  43  1   
 46  21  22  1   
 47  21  44  1   
 48  22  45  1   
 49  23  46  1   
 50  23  47  1   
@<TRIPOS>SUBSTRUCTURE
  1 ****   3 GROUP 4 **** **** 0

# MOE 2024.06 (io_trps.svl 2023.06)
