@<TRIPOS>MOLECULE
NONAME
40 41 1 0 0 
SMALL
USER_CHARGES


@<TRIPOS>ATOM
  1 O       -1.1600    -2.2470     0.0520 O.2   1 <1>  -0.5700 
  2 C       -1.8480    -1.2620    -0.0040 C.2   1 <1>   0.4230 
  3 C       -3.2820    -1.3370    -0.0140 C.ar  1 <1>   0.0860 
  4 C       -1.1280     0.0660    -0.1340 C.3   1 <1>  -0.1790 
  5 C       -4.1640    -0.5090     0.6820 C.ar  1 <1>   0.1660 
  6 C       -3.8910    -2.3250    -0.7740 C.ar  1 <1>   0.1600 
  7 N       -5.4650    -0.6230     0.5740 N.ar  1 <1>  -0.6200 
  8 C       -3.6920     0.5690     1.6440 C.3   1 <1>  -0.0960 
  9 N       -5.1910    -2.4610    -0.8920 N.ar  1 <1>  -0.6200 
 10 C       -5.9140    -1.5770    -0.2180 C.ar  1 <1>   0.7200 
 11 N       -7.2550    -1.6680    -0.2900 N.pl3 1 <1>  -0.8690 
 12 C       -8.0220    -2.3910    -1.3460 C.3   1 <1>   0.2090 
 13 C       -8.3300    -3.8600    -0.9680 C.3   1 <1>   0.3430 
 14 N       -7.1520    -4.5460    -0.3520 N.4   1 <1>  -0.9590 
 15 C       -6.8970    -5.9460    -0.8270 C.3   1 <1>   0.3430 
 16 C       -7.1090    -4.4530     1.1420 C.3   1 <1>   0.3430 
 17 C       -5.8250    -6.6590     0.0290 C.3   1 <1>   0.1200 
 18 C       -5.7560    -4.9730     1.6840 C.3   1 <1>   0.1200 
 19 O       -5.0500    -5.7290     0.7320 O.3   1 <1>  -0.5600 
 20 H       -1.7730     0.8150    -0.5520 H     1 <1>   0.0800 
 21 H       -0.2800    -0.0540    -0.7840 H     1 <1>   0.0800 
 22 H       -0.7730     0.3850     0.8280 H     1 <1>   0.0800 
 23 H       -3.2590    -3.0210    -1.3030 H     1 <1>   0.1500 
 24 H       -2.8120     0.2560     2.1740 H     1 <1>   0.0800 
 25 H       -4.4560     0.7730     2.3740 H     1 <1>   0.0800 
 26 H       -3.4890     1.4790     1.1090 H     1 <1>   0.0800 
 27 H       -7.7180    -0.8590     0.1350 H     1 <1>   0.4000 
 28 H       -7.4580    -2.3780    -2.2640 H     1 <1>   0.0800 
 29 H       -8.9460    -1.8710    -1.5350 H     1 <1>   0.0800 
 30 H       -8.6310    -4.3810    -1.8610 H     1 <1>   0.0800 
 31 H       -9.1600    -3.8820    -0.2820 H     1 <1>   0.0800 
 32 H       -6.3160    -3.9900    -0.6370 H     1 <1>   0.4500 
 33 H       -6.5620    -5.9190    -1.8500 H     1 <1>   0.0800 
 34 H       -7.8060    -6.5220    -0.7950 H     1 <1>   0.0800 
 35 H       -7.9070    -5.0370     1.5670 H     1 <1>   0.0800 
 36 H       -7.2440    -3.4320     1.4580 H     1 <1>   0.0800 
 37 H       -5.1670    -7.2330    -0.6010 H     1 <1>   0.0800 
 38 H       -6.2830    -7.3280     0.7370 H     1 <1>   0.0800 
 39 H       -5.9080    -5.5780     2.5600 H     1 <1>   0.0800 
 40 H       -5.1300    -4.1400     1.9560 H     1 <1>   0.0800 
@<TRIPOS>BOND
  1   1   2  2   
  2   2   3  1   
  3   2   4  1   
  4   3   5  ar  
  5   3   6  ar  
  6   4  20  1   
  7   4  21  1   
  8   4  22  1   
  9   5   7  ar  
 10   5   8  1   
 11   6   9  ar  
 12   6  23  1   
 13   7  10  ar  
 14   8  24  1   
 15   8  25  1   
 16   8  26  1   
 17   9  10  ar  
 18  10  11  1   
 19  11  12  1   
 20  11  27  1   
 21  12  13  1   
 22  12  28  1   
 23  12  29  1   
 24  13  14  1   
 25  13  30  1   
 26  13  31  1   
 27  14  15  1   
 28  14  16  1   
 29  14  32  1   
 30  15  17  1   
 31  15  33  1   
 32  15  34  1   
 33  16  18  1   
 34  16  35  1   
 35  16  36  1   
 36  17  19  1   
 37  17  37  1   
 38  17  38  1   
 39  18  19  1   
 40  18  39  1   
 41  18  40  1   
@<TRIPOS>SUBSTRUCTURE
  1 ****   9 GROUP 4 **** **** 0

# MOE 2024.06 (io_trps.svl 2023.06)
