@<TRIPOS>MOLECULE
NONAME
40 42 1 0 0 
SMALL
USER_CHARGES


@<TRIPOS>ATOM
  1 O       -0.0100    -0.2910    -1.5140 O.2   1 <1>  -0.5700 
  2 C        0.8650    -0.8320    -0.8780 C.2   1 <1>   0.5690 
  3 N        2.0410    -0.1830    -0.5350 N.am  1 <1>  -0.4770 
  4 C        0.6230    -2.2990    -0.4700 C.3   1 <1>   0.1710 
  5 C        2.2910     1.1980    -0.5400 C.ar  1 <1>   0.1170 
  6 C        3.2530    -0.8710    -0.0040 C.3   1 <1>   0.2200 
  7 N       -0.1810    -2.5040     0.7780 N.3   1 <1>  -0.8100 
  8 C        3.4690     1.5000     0.1090 C.ar  1 <1>  -0.1430 
  9 C        1.5390     2.2320    -1.0860 C.ar  1 <1>  -0.1500 
 10 C        4.1130     0.2420     0.6250 C.3   1 <1>  -0.0170 
 11 C        3.9920    -1.5510    -1.1620 C.3   1 <1>  -0.2400 
 12 C       -0.4070    -3.9390     1.0570 C.3   1 <1>   0.2910 
 13 C        0.3800    -1.8180     1.9490 C.3   1 <1>   0.0300 
 14 C        3.9240     2.7990     0.2320 C.ar  1 <1>  -0.1500 
 15 C        1.9810     3.5400    -0.9710 C.ar  1 <1>  -0.1500 
 16 C       -1.1700    -4.6370    -0.0620 C.2   1 <1>   0.1080 
 17 C        3.1690     3.8250    -0.3150 C.ar  1 <1>  -0.1500 
 18 N       -0.8460    -5.7810    -0.5580 N.2   1 <1>  -0.4100 
 19 C       -2.3040    -4.1310    -0.6930 C.2   1 <1>  -0.1500 
 20 O       -1.7270    -6.0370    -1.4830 O.3   1 <1>  -0.0190 
 21 C       -2.6070    -5.0780    -1.5910 C.2   1 <1>  -0.0100 
 22 H        1.5540    -2.8210    -0.3800 H     1 <1>   0.0800 
 23 H        0.0980    -2.7490    -1.2930 H     1 <1>   0.0800 
 24 H        2.9850    -1.5900     0.7490 H     1 <1>   0.0800 
 25 H        0.6180     2.0240    -1.5980 H     1 <1>   0.1500 
 26 H        5.1460     0.1780     0.3340 H     1 <1>   0.0800 
 27 H        4.0410     0.2070     1.6970 H     1 <1>   0.0800 
 28 H        4.2720    -0.8220    -1.9030 H     1 <1>   0.0800 
 29 H        3.3780    -2.2990    -1.6280 H     1 <1>   0.0800 
 30 H        4.8850    -2.0290    -0.7990 H     1 <1>   0.0800 
 31 H       -0.9830    -4.0380     1.9600 H     1 <1>   0.0800 
 32 H        0.5360    -4.4360     1.2040 H     1 <1>   0.0800 
 33 H        0.4660    -0.7620     1.7560 H     1 <1>   0.0800 
 34 H        1.3480    -2.2160     2.1970 H     1 <1>   0.0800 
 35 H       -0.2760    -1.9440     2.7930 H     1 <1>   0.0800 
 36 H        4.8460     3.0140     0.7420 H     1 <1>   0.1500 
 37 H        1.3970     4.3390    -1.3950 H     1 <1>   0.1500 
 38 H        3.5050     4.8440    -0.2310 H     1 <1>   0.1500 
 39 H       -2.7780    -3.1900    -0.4770 H     1 <1>   0.1500 
 40 H       -3.3930    -5.1550    -2.3200 H     1 <1>   0.1500 
@<TRIPOS>BOND
  1   1   2  2   
  2   2   3  am  
  3   2   4  1   
  4   3   5  1   
  5   3   6  1   
  6   4   7  1   
  7   4  22  1   
  8   4  23  1   
  9   5   8  ar  
 10   5   9  ar  
 11   6  10  1   
 12   6  11  1   
 13   6  24  1   
 14   7  12  1   
 15   7  13  1   
 16   8  10  1   
 17   8  14  ar  
 18   9  15  ar  
 19   9  25  1   
 20  10  26  1   
 21  10  27  1   
 22  11  28  1   
 23  11  29  1   
 24  11  30  1   
 25  12  16  1   
 26  12  31  1   
 27  12  32  1   
 28  13  33  1   
 29  13  34  1   
 30  13  35  1   
 31  14  17  ar  
 32  14  36  1   
 33  15  17  ar  
 34  15  37  1   
 35  16  18  2   
 36  16  19  1   
 37  17  38  1   
 38  18  20  1   
 39  19  21  2   
 40  19  39  1   
 41  20  21  1   
 42  21  40  1   
@<TRIPOS>SUBSTRUCTURE
  1 ****   2 GROUP 4 **** **** 0

# MOE 2024.06 (io_trps.svl 2023.06)
