@<TRIPOS>MOLECULE
NONAME
43 45 1 0 0 
SMALL
USER_CHARGES


@<TRIPOS>ATOM
  1 O       -0.5060     0.3120     0.6820 O.2   1 <1>  -0.5700 
  2 C       -1.5390     0.9060     0.4340 C.2   1 <1>   0.7160 
  3 N       -2.6860     0.1760     0.2200 N.am  1 <1>  -0.6600 
  4 C       -1.5420     2.3480     0.3530 C.2   1 <1>  -0.0860 
  5 C       -3.9040     0.6960    -0.4560 C.3   1 <1>   0.1400 
  6 C       -2.6900    -1.3120     0.1960 C.3   1 <1>   0.1400 
  7 C       -0.6890     3.1760    -0.3120 C.2   1 <1>  -0.0400 
  8 C       -2.4520     3.2280     0.9780 C.2   1 <1>  -0.1500 
  9 C       -4.8730    -0.4850    -0.4550 C.3   1 <1>   0.2000 
 10 C       -3.9510    -1.6990    -0.5850 C.3   1 <1>  -0.0800 
 11 O       -1.0250     4.4320    -0.1490 O.3   1 <1>  -0.2800 
 12 C        0.5220     2.8630    -1.1650 C.3   1 <1>  -0.0600 
 13 C       -2.0830     4.4760     0.6280 C.2   1 <1>  -0.0400 
 14 O       -5.5080    -0.5120     0.7780 O.3   1 <1>  -0.6800 
 15 C       -4.5590    -3.0470    -0.1570 C.3   1 <1>   0.0210 
 16 C       -2.6660     5.8250     0.9840 C.3   1 <1>  -0.0600 
 17 C       -3.5480    -4.1680    -0.3070 C.2   1 <1>   0.1080 
 18 N       -2.9760    -4.4540    -1.4350 N.2   1 <1>  -0.7070 
 19 C       -3.1170    -4.9940     0.7260 C.2   1 <1>  -0.1500 
 20 N       -2.1560    -5.4830    -1.1490 N.pl3 1 <1>   0.3000 
 21 C       -2.2220    -5.8270     0.1550 C.2   1 <1>  -0.3320 
 22 C       -1.4150    -6.9480     0.7830 C.3   1 <1>  -0.0600 
 23 H       -4.3240     1.5450     0.0520 H     1 <1>   0.0800 
 24 H       -3.6540     0.9660    -1.4670 H     1 <1>   0.0800 
 25 H       -1.8060    -1.6980    -0.2840 H     1 <1>   0.0800 
 26 H       -2.7320    -1.6800     1.2060 H     1 <1>   0.0800 
 27 H       -3.2650     2.9240     1.6120 H     1 <1>   0.1500 
 28 H       -5.6190    -0.4250    -1.2280 H     1 <1>   0.0800 
 29 H       -3.6670    -1.7810    -1.6200 H     1 <1>   0.0800 
 30 H        0.6830     1.8020    -1.2220 H     1 <1>   0.0800 
 31 H        1.3930     3.3220    -0.7340 H     1 <1>   0.0800 
 32 H        0.3780     3.2490    -2.1570 H     1 <1>   0.0800 
 33 H       -4.8280    -0.4310     1.4780 H     1 <1>   0.4000 
 34 H       -5.4120    -3.2680    -0.7730 H     1 <1>   0.0800 
 35 H       -4.8880    -3.0080     0.8660 H     1 <1>   0.0800 
 36 H       -3.5200     5.7050     1.6250 H     1 <1>   0.0800 
 37 H       -2.9670     6.3370     0.0880 H     1 <1>   0.0800 
 38 H       -1.9250     6.4150     1.4910 H     1 <1>   0.0800 
 39 H       -3.4430    -4.9540     1.7500 H     1 <1>   0.1500 
 40 H       -1.5660    -5.9260    -1.8630 H     1 <1>   0.2700 
 41 H       -1.6440    -7.0260     1.8310 H     1 <1>   0.0800 
 42 H       -0.3620    -6.7530     0.6760 H     1 <1>   0.0800 
 43 H       -1.6490    -7.8850     0.3110 H     1 <1>   0.0800 
@<TRIPOS>BOND
  1   1   2  2   
  2   2   3  am  
  3   2   4  1   
  4   3   5  1   
  5   3   6  1   
  6   4   7  2   
  7   4   8  1   
  8   5   9  1   
  9   5  23  1   
 10   5  24  1   
 11   6  10  1   
 12   6  25  1   
 13   6  26  1   
 14   7  11  1   
 15   7  12  1   
 16   8  13  2   
 17   8  27  1   
 18   9  10  1   
 19   9  14  1   
 20   9  28  1   
 21  10  15  1   
 22  10  29  1   
 23  11  13  1   
 24  12  30  1   
 25  12  31  1   
 26  12  32  1   
 27  13  16  1   
 28  14  33  1   
 29  15  17  1   
 30  15  34  1   
 31  15  35  1   
 32  16  36  1   
 33  16  37  1   
 34  16  38  1   
 35  17  18  2   
 36  17  19  1   
 37  18  20  1   
 38  19  21  2   
 39  19  39  1   
 40  20  21  1   
 41  20  40  1   
 42  21  22  1   
 43  22  41  1   
 44  22  42  1   
 45  22  43  1   
@<TRIPOS>SUBSTRUCTURE
  1 ****   3 GROUP 4 **** **** 0

# MOE 2024.06 (io_trps.svl 2023.06)
