@<TRIPOS>MOLECULE
NONAME
52 54 1 0 0 
SMALL
USER_CHARGES


@<TRIPOS>ATOM
  1 O       -0.0410    -0.5230    -0.3950 O.3   1 <1>  -0.5600 
  2 C        0.1120    -1.8250     0.0470 C.3   1 <1>   0.2000 
  3 C       -0.4650     0.3090     0.6420 C.3   1 <1>   0.1200 
  4 C        0.5760    -1.6820     1.4920 C.3   1 <1>  -0.1600 
  5 C        1.1180    -2.5280    -0.8800 C.3   1 <1>   0.3430 
  6 C       -0.1340    -0.4170     1.9430 C.3   1 <1>  -0.1600 
  7 N        1.4410    -3.9290    -0.4390 N.4   1 <1>  -0.9590 
  8 C        2.7240    -4.3760    -1.0460 C.3   1 <1>   0.4860 
  9 C        0.3060    -4.8650    -0.7030 C.3   1 <1>   0.3430 
 10 C        3.8340    -3.6520    -0.3140 C.ar  1 <1>  -0.1430 
 11 C        0.4470    -6.1720     0.0790 C.3   1 <1>  -0.0170 
 12 C        4.1840    -4.0410     0.9720 C.ar  1 <1>  -0.1500 
 13 C        4.4960    -2.5910    -0.9130 C.ar  1 <1>  -0.1500 
 14 C       -0.8160    -6.9840    -0.1250 C.ar  1 <1>  -0.1430 
 15 C        5.1770    -3.3670     1.6630 C.ar  1 <1>  -0.1430 
 16 C        5.4860    -1.9160    -0.2240 C.ar  1 <1>  -0.1500 
 17 C       -1.9150    -6.7720     0.6960 C.ar  1 <1>  -0.1500 
 18 C       -0.8880    -7.9310    -1.1380 C.ar  1 <1>  -0.1500 
 19 C        5.8230    -2.3010     1.0610 C.ar  1 <1>  -0.1500 
 20 C        5.5620    -3.7870     3.0710 C.3   1 <1>  -0.0970 
 21 C       -3.0800    -7.4920     0.4980 C.ar  1 <1>  -0.1500 
 22 C       -2.0510    -8.6530    -1.3370 C.ar  1 <1>  -0.1500 
 23 C       -3.1450    -8.4270    -0.5180 C.ar  1 <1>   0.0820 
 24 O       -4.2820    -9.1140    -0.6990 O.3   1 <1>  -0.5330 
 25 H       -0.8580    -2.2880    -0.0020 H     1 <1>   0.0800 
 26 H       -1.5240     0.4740     0.5380 H     1 <1>   0.0800 
 27 H        0.0610     1.2460     0.5590 H     1 <1>   0.0800 
 28 H        1.6420    -1.5310     1.5260 H     1 <1>   0.0800 
 29 H        0.3120    -2.5320     2.0960 H     1 <1>   0.0800 
 30 H        2.0170    -1.9350    -0.8770 H     1 <1>   0.0800 
 31 H        0.7230    -2.5380    -1.8820 H     1 <1>   0.0800 
 32 H       -1.0470    -0.6500     2.4640 H     1 <1>   0.0800 
 33 H        0.4850     0.1880     2.5840 H     1 <1>   0.0800 
 34 H        1.6240    -3.8770     0.5720 H     1 <1>   0.4500 
 35 H        2.7500    -4.1470    -2.0990 H     1 <1>   0.0800 
 36 H        2.8580    -5.4370    -0.9180 H     1 <1>   0.0800 
 37 H        0.2380    -5.0810    -1.7580 H     1 <1>   0.0800 
 38 H       -0.6200    -4.4010    -0.4060 H     1 <1>   0.0800 
 39 H        0.5690    -5.9690     1.1280 H     1 <1>   0.0800 
 40 H        1.2930    -6.7390    -0.2650 H     1 <1>   0.0800 
 41 H        3.6950    -4.8730     1.4480 H     1 <1>   0.1500 
 42 H        4.2550    -2.2740    -1.9140 H     1 <1>   0.1500 
 43 H        6.0010    -1.0890    -0.6840 H     1 <1>   0.1500 
 44 H       -1.8820    -6.0530     1.4950 H     1 <1>   0.1500 
 45 H       -0.0450    -8.1170    -1.7800 H     1 <1>   0.1500 
 46 H        6.5950    -1.7680     1.5890 H     1 <1>   0.1500 
 47 H        5.3340    -4.8240     3.2380 H     1 <1>   0.0800 
 48 H        5.0290    -3.1920     3.7900 H     1 <1>   0.0800 
 49 H        6.6180    -3.6470     3.2250 H     1 <1>   0.0800 
 50 H       -3.9390    -7.3380     1.1260 H     1 <1>   0.1500 
 51 H       -2.1030    -9.3860    -2.1230 H     1 <1>   0.1500 
 52 H       -4.2310    -9.7670    -1.4190 H     1 <1>   0.4500 
@<TRIPOS>BOND
  1   1   2  1   
  2   1   3  1   
  3   2   4  1   
  4   2   5  1   
  5   2  25  1   
  6   3   6  1   
  7   3  26  1   
  8   3  27  1   
  9   4   6  1   
 10   4  28  1   
 11   4  29  1   
 12   5   7  1   
 13   5  30  1   
 14   5  31  1   
 15   6  32  1   
 16   6  33  1   
 17   7   8  1   
 18   7   9  1   
 19   7  34  1   
 20   8  10  1   
 21   8  35  1   
 22   8  36  1   
 23   9  11  1   
 24   9  37  1   
 25   9  38  1   
 26  10  12  ar  
 27  10  13  ar  
 28  11  14  1   
 29  11  39  1   
 30  11  40  1   
 31  12  15  ar  
 32  12  41  1   
 33  13  16  ar  
 34  13  42  1   
 35  14  17  ar  
 36  14  18  ar  
 37  15  19  ar  
 38  15  20  1   
 39  16  19  ar  
 40  16  43  1   
 41  17  21  ar  
 42  17  44  1   
 43  18  22  ar  
 44  18  45  1   
 45  19  46  1   
 46  20  47  1   
 47  20  48  1   
 48  20  49  1   
 49  21  23  ar  
 50  21  50  1   
 51  22  23  ar  
 52  22  51  1   
 53  23  24  1   
 54  24  52  1   
@<TRIPOS>SUBSTRUCTURE
  1 ****   7 GROUP 4 **** **** 0

# MOE 2024.06 (io_trps.svl 2023.06)
