@<TRIPOS>MOLECULE
NONAME
49 52 1 0 0 
SMALL
USER_CHARGES


@<TRIPOS>ATOM
  1 O        0.5250     0.7420     2.2350 O.2   1 <1>  -0.5700 
  2 C        0.3780     1.6810     1.4690 C.2   1 <1>   0.5440 
  3 N       -0.7830     2.4210     1.5600 N.am  1 <1>  -0.6600 
  4 C        1.4650     2.0190     0.5750 C.ar  1 <1>   0.0860 
  5 C       -2.0270     1.7150     1.9780 C.3   1 <1>   0.1400 
  6 C       -0.9420     3.7950     1.0000 C.3   1 <1>   0.1400 
  7 C        1.3450     2.0630    -0.8280 C.ar  1 <1>   0.0410 
  8 C        2.7020     2.3190     1.1500 C.ar  1 <1>  -0.1500 
  9 C       -3.2080     2.6790     2.1100 C.3   1 <1>  -0.1600 
 10 C       -2.1690     3.8430     0.0930 C.3   1 <1>  -0.1600 
 11 C        0.1250     1.7530    -1.5390 C.2   1 <1>   0.6960 
 12 C        2.4700     2.4350    -1.5730 C.ar  1 <1>  -0.1500 
 13 C        3.7980     2.6770     0.3920 C.ar  1 <1>  -0.1500 
 14 C       -3.4800     3.4670     0.8110 C.3   1 <1>   0.2800 
 15 N       -0.7150     0.7990    -1.2480 N.2   1 <1>  -0.6190 
 16 N       -0.2590     2.4240    -2.5950 N.2   1 <1>  -0.6190 
 17 C        3.6790     2.7390    -0.9820 C.ar  1 <1>  -0.1500 
 18 O       -4.0430     4.6940     1.2400 O.3   1 <1>  -0.5600 
 19 C       -4.4720     2.6910    -0.1140 C.3   1 <1>   0.2000 
 20 N       -1.6110     0.8900    -2.1600 N.2   1 <1>  -0.2500 
 21 N       -1.3500     1.8590    -2.9770 N.2   1 <1>  -0.2500 
 22 C       -5.2360     5.1560     0.6600 C.3   1 <1>   0.1200 
 23 O       -4.0150     1.4320    -0.5360 O.3   1 <1>  -0.6800 
 24 C       -5.0220     3.5520    -1.2880 C.3   1 <1>   0.2800 
 25 C       -5.1740     5.0220    -0.8640 C.3   1 <1>  -0.1600 
 26 O       -6.2850     3.0680    -1.5660 O.3   1 <1>  -0.6800 
 27 C       -4.2600     3.4530    -2.6150 C.3   1 <1>  -0.2400 
 28 H       -2.2470     0.9550     1.2460 H     1 <1>   0.0800 
 29 H       -1.8560     1.2240     2.9200 H     1 <1>   0.0800 
 30 H       -1.0640     4.4930     1.8100 H     1 <1>   0.0800 
 31 H       -0.0710     4.0830     0.4390 H     1 <1>   0.0800 
 32 H        2.7930     2.2630     2.2220 H     1 <1>   0.1500 
 33 H       -2.9850     3.3600     2.9120 H     1 <1>   0.0800 
 34 H       -4.0810     2.1200     2.3920 H     1 <1>   0.0800 
 35 H       -1.9970     3.1530    -0.7010 H     1 <1>   0.0800 
 36 H       -2.2470     4.8160    -0.3540 H     1 <1>   0.0800 
 37 H        2.3790     2.4800    -2.6460 H     1 <1>   0.1500 
 38 H        4.7380     2.9040     0.8660 H     1 <1>   0.1500 
 39 H        4.5220     3.0190    -1.5890 H     1 <1>   0.1500 
 40 H       -5.3160     2.4650     0.5130 H     1 <1>   0.0800 
 41 H       -6.0560     4.5880     1.0650 H     1 <1>   0.0800 
 42 H       -5.3560     6.1860     0.9440 H     1 <1>   0.0800 
 43 H       -3.1440     1.4800    -1.0200 H     1 <1>   0.4000 
 44 H       -4.3320     5.5960    -1.2060 H     1 <1>   0.0800 
 45 H       -6.0540     5.4490    -1.3110 H     1 <1>   0.0800 
 46 H       -6.1800     2.1170    -1.7710 H     1 <1>   0.4000 
 47 H       -3.2620     3.8350    -2.5120 H     1 <1>   0.0800 
 48 H       -4.7560     4.0260    -3.3760 H     1 <1>   0.0800 
 49 H       -4.1830     2.4310    -2.9440 H     1 <1>   0.0800 
@<TRIPOS>BOND
  1   1   2  2   
  2   2   3  am  
  3   2   4  1   
  4   3   5  1   
  5   3   6  1   
  6   4   7  ar  
  7   4   8  ar  
  8   5   9  1   
  9   5  28  1   
 10   5  29  1   
 11   6  10  1   
 12   6  30  1   
 13   6  31  1   
 14   7  11  1   
 15   7  12  ar  
 16   8  13  ar  
 17   8  32  1   
 18   9  14  1   
 19   9  33  1   
 20   9  34  1   
 21  10  14  1   
 22  10  35  1   
 23  10  36  1   
 24  11  15  2   
 25  11  16  1   
 26  12  17  ar  
 27  12  37  1   
 28  13  17  ar  
 29  13  38  1   
 30  14  18  1   
 31  14  19  1   
 32  15  20  1   
 33  16  21  2   
 34  17  39  1   
 35  18  22  1   
 36  19  23  1   
 37  19  24  1   
 38  19  40  1   
 39  20  21  1   
 40  22  25  1   
 41  22  41  1   
 42  22  42  1   
 43  23  43  1   
 44  24  25  1   
 45  24  26  1   
 46  24  27  1   
 47  25  44  1   
 48  25  45  1   
 49  26  46  1   
 50  27  47  1   
 51  27  48  1   
 52  27  49  1   
@<TRIPOS>SUBSTRUCTURE
  1 ****  10 GROUP 4 **** **** 0

# MOE 2024.06 (io_trps.svl 2023.06)
