@<TRIPOS>MOLECULE
NONAME
50 53 1 0 0 
SMALL
USER_CHARGES


@<TRIPOS>ATOM
  1 O       -0.5490    -0.0890    -0.1420 O.2   1 <1>  -0.5700 
  2 C       -1.5880     0.5490    -0.1950 C.2   1 <1>   0.7160 
  3 N       -2.7420    -0.1550    -0.4910 N.am  1 <1>  -0.6600 
  4 C       -1.5510     1.9880     0.0480 C.2   1 <1>   0.2030 
  5 C       -4.0910     0.4210    -0.7240 C.3   1 <1>   0.1400 
  6 C       -2.7630    -1.6260    -0.6640 C.3   1 <1>   0.1400 
  7 N       -2.5450     2.8290     0.0890 N.2   1 <1>  -0.4100 
  8 C       -0.3860     2.7030     0.2870 C.2   1 <1>  -0.1500 
  9 C       -4.9550    -0.7580    -1.1740 C.3   1 <1>   0.2000 
 10 C       -4.2430    -2.0090    -0.6620 C.3   1 <1>  -0.0800 
 11 O       -2.1140     4.0410     0.3350 O.3   1 <1>  -0.0190 
 12 C       -0.8070     3.9600     0.4540 C.2   1 <1>  -0.0400 
 13 O       -6.2320    -0.6920    -0.6400 O.3   1 <1>  -0.6800 
 14 C       -4.5550    -3.2600    -1.4990 C.3   1 <1>  -0.0170 
 15 C       -0.0430     5.2410     0.7470 C.3   1 <1>   0.0200 
 16 C       -3.8320    -4.4840    -0.9450 C.ar  1 <1>  -0.1430 
 17 C        1.4710     5.0160     0.8630 C.3   1 <1>  -0.1600 
 18 C       -4.2850    -5.1750     0.2040 C.ar  1 <1>   0.0000 
 19 C       -2.7010    -4.9450    -1.5520 C.ar  1 <1>  -0.1500 
 20 C        2.2140     6.3240     1.1570 C.3   1 <1>  -0.2400 
 21 C       -3.5200    -6.2800     0.6510 C.ar  1 <1>   0.3100 
 22 C       -5.4490    -4.8370     0.9340 C.ar  1 <1>  -0.1500 
 23 C       -2.0230    -6.0540    -1.0320 C.ar  1 <1>   0.1600 
 24 N       -2.3950    -6.7050     0.0230 N.ar  1 <1>  -0.6200 
 25 C       -3.9360    -6.9750     1.7980 C.ar  1 <1>  -0.1500 
 26 C       -5.8290    -5.5380     2.0460 C.ar  1 <1>  -0.1500 
 27 C       -5.0630    -6.6190     2.4880 C.ar  1 <1>  -0.1500 
 28 H       -4.4610     0.8440     0.1940 H     1 <1>   0.0800 
 29 H       -4.0510     1.1770    -1.4900 H     1 <1>   0.0800 
 30 H       -2.3000    -1.8710    -1.6050 H     1 <1>   0.0800 
 31 H       -2.2290    -2.1170     0.1330 H     1 <1>   0.0800 
 32 H        0.6040     2.2850     0.3180 H     1 <1>   0.1500 
 33 H       -5.0360    -0.7630    -2.2480 H     1 <1>   0.0800 
 34 H       -4.5190    -2.1780     0.3640 H     1 <1>   0.0800 
 35 H       -6.1910    -0.6270     0.3340 H     1 <1>   0.4000 
 36 H       -4.2520    -3.0920    -2.5170 H     1 <1>   0.0800 
 37 H       -5.6160    -3.4380    -1.5170 H     1 <1>   0.0800 
 38 H       -0.2420     5.9450    -0.0420 H     1 <1>   0.0800 
 39 H       -0.4150     5.6590     1.6660 H     1 <1>   0.0800 
 40 H        1.6690     4.3120     1.6530 H     1 <1>   0.0800 
 41 H        1.8430     4.5990    -0.0580 H     1 <1>   0.0800 
 42 H       -2.2990    -4.4760    -2.4320 H     1 <1>   0.1500 
 43 H        1.8760     6.7490     2.0860 H     1 <1>   0.0800 
 44 H        2.0500     7.0370     0.3690 H     1 <1>   0.0800 
 45 H        3.2710     6.1370     1.2330 H     1 <1>   0.0800 
 46 H       -6.0560    -4.0130     0.6100 H     1 <1>   0.1500 
 47 H       -1.1340    -6.3850    -1.5420 H     1 <1>   0.1500 
 48 H       -3.3330    -7.8050     2.1170 H     1 <1>   0.1500 
 49 H       -6.7170    -5.2700     2.5930 H     1 <1>   0.1500 
 50 H       -5.3700    -7.1630     3.3650 H     1 <1>   0.1500 
@<TRIPOS>BOND
  1   1   2  2   
  2   2   3  am  
  3   2   4  1   
  4   3   5  1   
  5   3   6  1   
  6   4   7  2   
  7   4   8  1   
  8   5   9  1   
  9   5  28  1   
 10   5  29  1   
 11   6  10  1   
 12   6  30  1   
 13   6  31  1   
 14   7  11  1   
 15   8  12  2   
 16   8  32  1   
 17   9  10  1   
 18   9  13  1   
 19   9  33  1   
 20  10  14  1   
 21  10  34  1   
 22  11  12  1   
 23  12  15  1   
 24  13  35  1   
 25  14  16  1   
 26  14  36  1   
 27  14  37  1   
 28  15  17  1   
 29  15  38  1   
 30  15  39  1   
 31  16  18  ar  
 32  16  19  ar  
 33  17  20  1   
 34  17  40  1   
 35  17  41  1   
 36  18  21  ar  
 37  18  22  ar  
 38  19  23  ar  
 39  19  42  1   
 40  20  43  1   
 41  20  44  1   
 42  20  45  1   
 43  21  24  ar  
 44  21  25  ar  
 45  22  26  ar  
 46  22  46  1   
 47  23  24  ar  
 48  23  47  1   
 49  25  27  ar  
 50  25  48  1   
 51  26  27  ar  
 52  26  49  1   
 53  27  50  1   
@<TRIPOS>SUBSTRUCTURE
  1 ****   6 GROUP 4 **** **** 0

# MOE 2024.06 (io_trps.svl 2023.06)
