@<TRIPOS>MOLECULE
NONAME
25 25 1 0 0 
SMALL
USER_CHARGES


@<TRIPOS>ATOM
  1 CL       0.1440     0.0930    -1.9370 Cl    1 <1>  -0.1770 
  2 C        0.0310     1.7300    -1.3360 C.ar  1 <1>   0.1770 
  3 C       -0.8490     2.6400    -1.8900 C.ar  1 <1>   0.1900 
  4 C        0.8340     2.1240    -0.2840 C.ar  1 <1>  -0.1500 
  5 F       -1.6220     2.2840    -2.8820 F     1 <1>  -0.1900 
  6 C       -0.9420     3.9380    -1.4210 C.ar  1 <1>  -0.1500 
  7 C        0.7510     3.4240     0.1950 C.ar  1 <1>  -0.1500 
  8 C       -0.1260     4.3570    -0.3690 C.ar  1 <1>  -0.1440 
  9 C       -0.2020     5.7930     0.1790 C.3   1 <1>   0.6470 
 10 N        1.1480     6.2660     0.4620 N.4   1 <1>  -0.8530 
 11 C       -0.8240     6.8220    -0.8100 C.3   1 <1>   0.1200 
 12 C       -0.9610     5.8040     1.5040 C.3   1 <1>  -0.2400 
 13 O       -0.4100     8.1260    -0.4900 O.3   1 <1>  -0.6800 
 14 H        1.5140     1.4110     0.1530 H     1 <1>   0.1500 
 15 H       -1.6640     4.5780    -1.9000 H     1 <1>   0.1500 
 16 H        1.3850     3.6780     1.0270 H     1 <1>   0.1500 
 17 H        1.7970     5.9270    -0.2490 H     1 <1>   0.4500 
 18 H        1.4470     6.0090     1.4010 H     1 <1>   0.4500 
 19 H        1.0750     7.2950     0.3830 H     1 <1>   0.4500 
 20 H       -1.9000     6.7820    -0.7730 H     1 <1>   0.0800 
 21 H       -0.5050     6.6190    -1.8190 H     1 <1>   0.0800 
 22 H       -0.5110     5.1380     2.2190 H     1 <1>   0.0800 
 23 H       -1.9710     5.4690     1.3420 H     1 <1>   0.0800 
 24 H       -1.0070     6.7960     1.9190 H     1 <1>   0.0800 
 25 H       -0.8890     8.7950    -1.0330 H     1 <1>   0.4000 
@<TRIPOS>BOND
  1   1   2  1   
  2   2   3  ar  
  3   2   4  ar  
  4   3   5  1   
  5   3   6  ar  
  6   4   7  ar  
  7   4  14  1   
  8   6   8  ar  
  9   6  15  1   
 10   7   8  ar  
 11   7  16  1   
 12   8   9  1   
 13   9  10  1   
 14   9  11  1   
 15   9  12  1   
 16  10  17  1   
 17  10  18  1   
 18  10  19  1   
 19  11  13  1   
 20  11  20  1   
 21  11  21  1   
 22  12  22  1   
 23  12  23  1   
 24  12  24  1   
 25  13  25  1   
@<TRIPOS>SUBSTRUCTURE
  1 ****   8 GROUP 4 **** **** 0

# MOE 2024.06 (io_trps.svl 2023.06)
