@<TRIPOS>MOLECULE
NONAME
54 57 1 0 0 
SMALL
USER_CHARGES


@<TRIPOS>ATOM
  1 O       -0.8890    -0.5350    -1.1050 O.2   1 <1>  -0.5740 
  2 C       -2.0930    -0.4670    -1.0430 C.2   1 <1>   0.6860 
  3 N       -2.8910    -1.5910    -0.8810 N.am  1 <1>  -0.4410 
  4 N       -2.6810     0.7600    -1.1330 N.am  1 <1>  -0.4950 
  5 C       -4.2620    -1.3970    -0.7960 C.2   1 <1>   0.4210 
  6 C       -2.2820    -2.9510    -0.7990 C.3   1 <1>   0.0530 
  7 C       -4.0280     0.9650    -1.0610 C.2   1 <1>   0.6990 
  8 N       -5.2210    -2.3420    -0.6070 N.pl3 1 <1>  -0.7040 
  9 C       -4.8620    -0.1900    -0.8840 C.2   1 <1>   0.2710 
 10 O       -4.4540     2.0990    -1.1450 O.2   1 <1>  -0.5740 
 11 C       -6.4160    -1.7430    -0.5610 C.cat 1 <1>   1.0690 
 12 N       -6.2490    -0.4200    -0.7590 N.pl3 1 <1>  -0.7670 
 13 N       -7.5720    -2.4310    -0.3320 N.pl3 1 <1>  -0.5960 
 14 C       -7.2130     0.7070    -0.9640 C.3   1 <1>   0.2680 
 15 C       -7.6570    -3.9340    -0.4280 C.3   1 <1>   0.1610 
 16 C       -8.8750    -1.7430    -0.0350 C.3   1 <1>   0.1610 
 17 C       -8.7310    -4.4630     0.5480 C.3   1 <1>   0.4180 
 18 C       -9.8750    -2.5840     0.7900 C.3   1 <1>  -0.1670 
 19 N       -8.6060    -5.8800     1.0510 N.4   1 <1>  -0.9610 
 20 C      -10.1870    -3.9980     0.0800 C.3   1 <1>  -0.0080 
 21 C       -8.5590    -6.9040    -0.0030 C.3   1 <1>   0.3370 
 22 C       -7.5400    -6.0910     2.0760 C.3   1 <1>   0.2570 
 23 C      -10.5050    -5.3750    -0.7060 C.3   1 <1>  -0.1670 
 24 C      -11.6610    -3.4890    -0.2940 C.3   1 <1>   0.1130 
 25 C       -9.4620    -6.4420    -1.1240 C.3   1 <1>  -0.1670 
 26 O      -12.4380    -3.5930     0.8560 O.3   1 <1>  -0.6840 
 27 H       -2.0680     1.5660    -1.2510 H     1 <1>   0.3640 
 28 H       -2.7980    -3.6290    -1.4550 H     1 <1>   0.0730 
 29 H       -2.3340    -3.3130     0.2130 H     1 <1>   0.0730 
 30 H       -1.2470    -2.9240    -1.0960 H     1 <1>   0.0730 
 31 H       -5.0330    -3.3310    -0.5020 H     1 <1>   0.4450 
 32 H       -6.7960     1.4440    -1.6290 H     1 <1>   0.0730 
 33 H       -7.4320     1.1830    -0.0230 H     1 <1>   0.0730 
 34 H       -8.1250     0.3590    -1.4130 H     1 <1>   0.0730 
 35 H       -7.9110    -4.1930    -1.4400 H     1 <1>   0.0730 
 36 H       -6.7120    -4.3810    -0.1780 H     1 <1>   0.0730 
 37 H       -8.6880    -0.8370     0.5170 H     1 <1>   0.0730 
 38 H       -9.3440    -1.4780    -0.9690 H     1 <1>   0.0730 
 39 H       -8.4600    -3.9470     1.4470 H     1 <1>   0.0730 
 40 H       -9.5600    -2.6610     1.8190 H     1 <1>   0.0730 
 41 H      -10.6960    -1.9000     0.9480 H     1 <1>   0.0730 
 42 H       -9.5100    -6.0410     1.5260 H     1 <1>   0.4450 
 43 H       -7.5540    -7.0370    -0.3700 H     1 <1>   0.0730 
 44 H       -8.9110    -7.8450     0.3900 H     1 <1>   0.0730 
 45 H       -6.5650    -5.9470     1.6420 H     1 <1>   0.0730 
 46 H       -7.5970    -7.0940     2.4680 H     1 <1>   0.0730 
 47 H       -7.6670    -5.4000     2.8940 H     1 <1>   0.0730 
 48 H      -11.2720    -5.9040    -0.1580 H     1 <1>   0.0730 
 49 H      -10.8960    -5.1650    -1.6910 H     1 <1>   0.0730 
 50 H      -12.2430    -4.0040    -1.0410 H     1 <1>   0.0730 
 51 H      -11.6950    -2.4710    -0.6490 H     1 <1>   0.0730 
 52 H       -8.8570    -6.0730    -1.9330 H     1 <1>   0.0730 
 53 H       -9.9750    -7.3030    -1.5170 H     1 <1>   0.0730 
 54 H      -13.3650    -3.3230     0.6840 H     1 <1>   0.3950 
@<TRIPOS>BOND
  1   1   2  2   
  2   2   3  am  
  3   2   4  am  
  4   3   5  1   
  5   3   6  1   
  6   4   7  am  
  7   4  27  1   
  8   5   8  1   
  9   5   9  2   
 10   6  28  1   
 11   6  29  1   
 12   6  30  1   
 13   7   9  1   
 14   7  10  2   
 15   8  11  ar  
 16   8  31  1   
 17   9  12  1   
 18  11  12  ar  
 19  11  13  ar  
 20  12  14  1   
 21  13  15  1   
 22  13  16  1   
 23  14  32  1   
 24  14  33  1   
 25  14  34  1   
 26  15  17  1   
 27  15  35  1   
 28  15  36  1   
 29  16  18  1   
 30  16  37  1   
 31  16  38  1   
 32  17  19  1   
 33  17  20  1   
 34  17  39  1   
 35  18  20  1   
 36  18  40  1   
 37  18  41  1   
 38  19  21  1   
 39  19  22  1   
 40  19  42  1   
 41  20  23  1   
 42  20  24  1   
 43  21  25  1   
 44  21  43  1   
 45  21  44  1   
 46  22  45  1   
 47  22  46  1   
 48  22  47  1   
 49  23  25  1   
 50  23  48  1   
 51  23  49  1   
 52  24  26  1   
 53  24  50  1   
 54  24  51  1   
 55  25  52  1   
 56  25  53  1   
 57  26  54  1   
@<TRIPOS>SUBSTRUCTURE
  1 ****  11 GROUP 4 **** **** 0

# MOE 2024.06 (io_trps.svl 2023.06)
