@<TRIPOS>MOLECULE
NONAME
39 41 1 0 0 
SMALL
USER_CHARGES


@<TRIPOS>ATOM
  1 F       -3.1130    -0.6910    -2.1360 F     1 <1>  -0.3400 
  2 C       -4.1410    -0.5700    -1.3040 C.3   1 <1>   1.1640 
  3 F       -3.8790     0.4770    -0.5340 F     1 <1>  -0.3400 
  4 F       -5.1860    -0.2340    -2.0480 F     1 <1>  -0.3400 
  5 C       -4.4050    -1.8280    -0.4860 C.ar  1 <1>  -0.1440 
  6 C       -5.5130    -1.8550     0.3450 C.ar  1 <1>   0.1600 
  7 C       -3.5860    -2.9490    -0.5300 C.ar  1 <1>  -0.1500 
  8 N       -5.8700    -2.8740     1.1100 N.ar  1 <1>  -0.6200 
  9 C       -3.9430    -4.0130     0.2630 C.ar  1 <1>  -0.1500 
 10 C       -5.0830    -3.9310     1.0560 C.ar  1 <1>   0.4100 
 11 N       -5.4840    -4.9590     1.8500 N.pl3 1 <1>  -0.8690 
 12 C       -5.8710    -6.2430     1.2250 C.3   1 <1>   0.2890 
 13 C       -7.3750    -6.3370     1.0430 C.3   1 <1>  -0.0800 
 14 C       -5.5790    -7.4370     2.1190 C.3   1 <1>   0.1200 
 15 C       -7.6520    -7.8340     1.2010 C.3   1 <1>   0.1200 
 16 C       -7.8600    -5.7480    -0.2910 C.3   1 <1>  -0.0160 
 17 O       -6.5060    -8.4120     1.7510 O.3   1 <1>  -0.5600 
 18 C       -9.3680    -5.8850    -0.4320 C.ar  1 <1>  -0.1430 
 19 C       -9.9510    -6.8650    -1.2090 C.ar  1 <1>  -0.1500 
 20 C      -10.2320    -5.0280     0.2180 C.ar  1 <1>  -0.1500 
 21 C      -11.3310    -6.9430    -1.2900 C.ar  1 <1>   0.1600 
 22 C      -11.6000    -5.1920     0.0700 C.ar  1 <1>   0.1600 
 23 N      -12.1710    -6.1320    -0.6670 N.ar  1 <1>  -0.6200 
 24 H       -6.1520    -0.9860     0.3890 H     1 <1>   0.1500 
 25 H       -2.7060    -2.9930    -1.1500 H     1 <1>   0.1500 
 26 H       -3.3510    -4.9080     0.2900 H     1 <1>   0.1500 
 27 H       -6.2050    -4.6230     2.4920 H     1 <1>   0.4000 
 28 H       -5.3630    -6.3820     0.2860 H     1 <1>   0.0800 
 29 H       -7.8670    -5.8310     1.8550 H     1 <1>   0.0800 
 30 H       -5.7470    -7.1950     3.1540 H     1 <1>   0.0800 
 31 H       -4.5860    -7.8210     1.9750 H     1 <1>   0.0800 
 32 H       -7.8320    -8.3130     0.2540 H     1 <1>   0.0800 
 33 H       -8.4840    -8.0160     1.8600 H     1 <1>   0.0800 
 34 H       -7.3700    -6.2410    -1.1120 H     1 <1>   0.0800 
 35 H       -7.5980    -4.7040    -0.3370 H     1 <1>   0.0800 
 36 H       -9.3490    -7.5700    -1.7520 H     1 <1>   0.1500 
 37 H       -9.8550    -4.2350     0.8380 H     1 <1>   0.1500 
 38 H      -11.7690    -7.7150    -1.9000 H     1 <1>   0.1500 
 39 H      -12.2580    -4.5140     0.5850 H     1 <1>   0.1500 
@<TRIPOS>BOND
  1   1   2  1   
  2   2   3  1   
  3   2   4  1   
  4   2   5  1   
  5   5   6  ar  
  6   5   7  ar  
  7   6   8  ar  
  8   6  24  1   
  9   7   9  ar  
 10   7  25  1   
 11   8  10  ar  
 12   9  10  ar  
 13   9  26  1   
 14  10  11  1   
 15  11  12  1   
 16  11  27  1   
 17  12  13  1   
 18  12  14  1   
 19  12  28  1   
 20  13  15  1   
 21  13  16  1   
 22  13  29  1   
 23  14  17  1   
 24  14  30  1   
 25  14  31  1   
 26  15  17  1   
 27  15  32  1   
 28  15  33  1   
 29  16  18  1   
 30  16  34  1   
 31  16  35  1   
 32  18  19  ar  
 33  18  20  ar  
 34  19  21  ar  
 35  19  36  1   
 36  20  22  ar  
 37  20  37  1   
 38  21  23  ar  
 39  21  38  1   
 40  22  23  ar  
 41  22  39  1   
@<TRIPOS>SUBSTRUCTURE
  1 ****  16 GROUP 4 **** **** 0

# MOE 2024.06 (io_trps.svl 2023.06)
