@<TRIPOS>MOLECULE
NONAME
50 53 1 0 0 
SMALL
USER_CHARGES


@<TRIPOS>ATOM
  1 O       -0.7760     0.3000    -0.5970 O.2   1 <1>  -0.5700 
  2 C       -1.5240     0.8770     0.1700 C.2   1 <1>   0.7160 
  3 N       -2.6010     0.1880     0.6820 N.am  1 <1>  -0.6600 
  4 C       -1.2910     2.2610     0.5020 C.2   1 <1>  -0.0860 
  5 C       -2.6650    -1.3070     0.6260 C.3   1 <1>   0.1400 
  6 C       -3.9520     0.8140     0.8200 C.3   1 <1>   0.1400 
  7 C       -1.6380     2.9010     1.6930 C.2   1 <1>   0.1390 
  8 C       -0.6910     3.2520    -0.2130 C.2   1 <1>  -0.3020 
  9 C       -3.7100    -1.7780    -0.4010 C.3   1 <1>   0.3440 
 10 C       -4.9390     0.2230    -0.2090 C.3   1 <1>   0.2950 
 11 N       -1.3140     4.1540     1.7110 N.2   1 <1>  -0.7070 
 12 N       -0.7150     4.3750     0.5250 N.pl3 1 <1>   0.3140 
 13 O       -4.9490    -1.1730    -0.1330 O.3   1 <1>  -0.5600 
 14 C       -3.8580    -3.2960    -0.3550 C.ar  1 <1>  -0.1440 
 15 C       -6.3690     0.7080     0.0440 C.3   1 <1>  -0.1950 
 16 C       -0.1710     5.7120     0.1610 C.3   1 <1>   0.1760 
 17 C       -3.0520    -4.0840    -1.1650 C.ar  1 <1>  -0.1500 
 18 C       -4.7690    -3.9130     0.4910 C.ar  1 <1>  -0.1500 
 19 C       -7.3920     0.7040    -1.0470 C.3   1 <1>  -0.2000 
 20 C       -6.8550     2.0060    -0.5220 C.3   1 <1>  -0.2000 
 21 C       -0.8890     6.2750    -1.0730 C.3   1 <1>  -0.2400 
 22 C        1.3450     5.6370    -0.0720 C.3   1 <1>  -0.2400 
 23 C       -3.1550    -5.4640    -1.1310 C.ar  1 <1>  -0.1500 
 24 C       -4.8740    -5.2930     0.5270 C.ar  1 <1>  -0.1500 
 25 C       -4.0660    -6.0700    -0.2840 C.ar  1 <1>  -0.1500 
 26 H       -1.7050    -1.7190     0.3700 H     1 <1>   0.0800 
 27 H       -2.9320    -1.6880     1.5960 H     1 <1>   0.0800 
 28 H       -4.3250     0.6380     1.8130 H     1 <1>   0.0800 
 29 H       -3.9000     1.8770     0.6680 H     1 <1>   0.0800 
 30 H       -2.1250     2.4080     2.5180 H     1 <1>   0.1500 
 31 H       -0.2570     3.1940    -1.1940 H     1 <1>   0.1500 
 32 H       -3.4030    -1.4830    -1.3900 H     1 <1>   0.0800 
 33 H       -4.6360     0.5010    -1.2040 H     1 <1>   0.0800 
 34 H       -6.7110     0.4480     1.0310 H     1 <1>   0.1000 
 35 H       -0.3570     6.3660     0.9950 H     1 <1>   0.0800 
 36 H       -2.3380    -3.6280    -1.8290 H     1 <1>   0.1500 
 37 H       -5.4050    -3.3180     1.1240 H     1 <1>   0.1500 
 38 H       -7.0970     0.3710    -2.0280 H     1 <1>   0.1000 
 39 H       -8.3980     0.4130    -0.8010 H     1 <1>   0.1000 
 40 H       -7.5030     2.6240     0.0760 H     1 <1>   0.1000 
 41 H       -6.2130     2.5850    -1.1630 H     1 <1>   0.1000 
 42 H       -0.7150     5.6540    -1.9340 H     1 <1>   0.0800 
 43 H       -0.5290     7.2650    -1.2880 H     1 <1>   0.0800 
 44 H       -1.9470     6.3340    -0.8850 H     1 <1>   0.0800 
 45 H        1.5730     5.0010    -0.9090 H     1 <1>   0.0800 
 46 H        1.8310     5.2520     0.8070 H     1 <1>   0.0800 
 47 H        1.7360     6.6180    -0.2710 H     1 <1>   0.0800 
 48 H       -2.5270    -6.0670    -1.7630 H     1 <1>   0.1500 
 49 H       -5.5860    -5.7600     1.1850 H     1 <1>   0.1500 
 50 H       -4.1480    -7.1420    -0.2570 H     1 <1>   0.1500 
@<TRIPOS>BOND
  1   1   2  2   
  2   2   3  am  
  3   2   4  1   
  4   3   5  1   
  5   3   6  1   
  6   4   7  1   
  7   4   8  2   
  8   5   9  1   
  9   5  26  1   
 10   5  27  1   
 11   6  10  1   
 12   6  28  1   
 13   6  29  1   
 14   7  11  2   
 15   7  30  1   
 16   8  12  1   
 17   8  31  1   
 18   9  13  1   
 19   9  14  1   
 20   9  32  1   
 21  10  13  1   
 22  10  15  1   
 23  10  33  1   
 24  11  12  1   
 25  12  16  1   
 26  14  17  ar  
 27  14  18  ar  
 28  15  19  1   
 29  15  20  1   
 30  15  34  1   
 31  16  21  1   
 32  16  22  1   
 33  16  35  1   
 34  17  23  ar  
 35  17  36  1   
 36  18  24  ar  
 37  18  37  1   
 38  19  20  1   
 39  19  38  1   
 40  19  39  1   
 41  20  40  1   
 42  20  41  1   
 43  21  42  1   
 44  21  43  1   
 45  21  44  1   
 46  22  45  1   
 47  22  46  1   
 48  22  47  1   
 49  23  25  ar  
 50  23  48  1   
 51  24  25  ar  
 52  24  49  1   
 53  25  50  1   
@<TRIPOS>SUBSTRUCTURE
  1 ****   3 GROUP 4 **** **** 0

# MOE 2024.06 (io_trps.svl 2023.06)
