@<TRIPOS>MOLECULE
NONAME
51 52 1 0 0 
SMALL
USER_CHARGES


@<TRIPOS>ATOM
  1 CL       0.9480    -2.4030    -2.3760 Cl    1 <1>  -0.1770 
  2 C        0.0630    -3.5850    -1.4450 C.ar  1 <1>   0.1770 
  3 C        0.1530    -4.9220    -1.7870 C.ar  1 <1>  -0.1500 
  4 C       -0.7150    -3.1630    -0.3830 C.ar  1 <1>  -0.1500 
  5 C       -0.5480    -5.8720    -1.0600 C.ar  1 <1>  -0.1440 
  6 C       -1.4160    -4.1040     0.3500 C.ar  1 <1>  -0.1500 
  7 C       -1.3300    -5.4480     0.0150 C.ar  1 <1>   0.0830 
  8 C       -0.4320    -7.3370    -1.4640 C.3   1 <1>  -0.0960 
  9 O       -2.0520    -6.3230     0.7460 O.3   1 <1>  -0.3630 
 10 C       -1.3550    -7.1390     1.6800 C.3   1 <1>   0.2610 
 11 C       -1.7730    -8.6170     1.5290 C.2   1 <1>   0.5690 
 12 C       -1.6000    -6.5780     3.0860 C.3   1 <1>  -0.2400 
 13 O       -0.8840    -9.4170     1.3410 O.2   1 <1>  -0.5700 
 14 N       -3.0870    -9.0390     1.5580 N.am  1 <1>  -0.6600 
 15 C       -3.3850   -10.4990     1.5930 C.3   1 <1>   0.3200 
 16 C       -4.2580    -8.1650     1.2380 C.3   1 <1>   0.1400 
 17 C       -3.5060   -10.9560     0.1580 C.2   1 <1>  -0.3320 
 18 C       -4.3840    -7.9940    -0.2910 C.3   1 <1>   0.3430 
 19 N       -2.4410   -11.0060    -0.6630 N.pl3 1 <1>   0.0330 
 20 C       -4.5740   -11.3470    -0.5700 C.2   1 <1>   0.0770 
 21 N       -5.3560    -6.9300    -0.7070 N.4   1 <1>  -0.9590 
 22 C       -2.9400   -11.3880    -1.8570 C.2   1 <1>   0.0360 
 23 N       -4.2200   -11.5840    -1.8460 N.2   1 <1>  -0.5650 
 24 C       -5.6890    -7.1080    -2.1540 C.3   1 <1>   0.2630 
 25 C       -4.7930    -5.5610    -0.4730 C.3   1 <1>   0.2630 
 26 H        0.7740    -5.2020    -2.6200 H     1 <1>   0.1500 
 27 H       -0.7630    -2.1170    -0.1390 H     1 <1>   0.1500 
 28 H       -2.0210    -3.7950     1.1830 H     1 <1>   0.1500 
 29 H       -0.0840    -7.4250    -2.4780 H     1 <1>   0.0800 
 30 H       -1.3820    -7.8300    -1.3940 H     1 <1>   0.0800 
 31 H        0.2710    -7.8390    -0.8230 H     1 <1>   0.0800 
 32 H       -0.3020    -7.0720     1.4640 H     1 <1>   0.0800 
 33 H       -2.6420    -6.6130     3.3440 H     1 <1>   0.0800 
 34 H       -1.2470    -5.5640     3.1470 H     1 <1>   0.0800 
 35 H       -1.0550    -7.1650     3.8040 H     1 <1>   0.0800 
 36 H       -4.3010   -10.6790     2.1300 H     1 <1>   0.0800 
 37 H       -2.5960   -11.0370     2.0920 H     1 <1>   0.0800 
 38 H       -4.1330    -7.2110     1.7140 H     1 <1>   0.0800 
 39 H       -5.1560    -8.6130     1.6270 H     1 <1>   0.0800 
 40 H       -4.6920    -8.9340    -0.7150 H     1 <1>   0.0800 
 41 H       -3.4140    -7.7550    -0.6930 H     1 <1>   0.0800 
 42 H       -1.4670   -10.7890    -0.4090 H     1 <1>   0.2700 
 43 H       -5.5980   -11.4600    -0.2500 H     1 <1>   0.1500 
 44 H       -6.2260    -7.0390    -0.1640 H     1 <1>   0.4500 
 45 H       -2.3140   -11.5140    -2.7250 H     1 <1>   0.1500 
 46 H       -4.8030    -6.9970    -2.7590 H     1 <1>   0.0800 
 47 H       -6.4140    -6.3740    -2.4670 H     1 <1>   0.0800 
 48 H       -6.0980    -8.0910    -2.3270 H     1 <1>   0.0800 
 49 H       -3.8800    -5.4310    -1.0330 H     1 <1>   0.0800 
 50 H       -4.5710    -5.4160     0.5720 H     1 <1>   0.0800 
 51 H       -5.4980    -4.8060    -0.7830 H     1 <1>   0.0800 
@<TRIPOS>BOND
  1   1   2  1   
  2   2   3  ar  
  3   2   4  ar  
  4   3   5  ar  
  5   3  26  1   
  6   4   6  ar  
  7   4  27  1   
  8   5   7  ar  
  9   5   8  1   
 10   6   7  ar  
 11   6  28  1   
 12   7   9  1   
 13   8  29  1   
 14   8  30  1   
 15   8  31  1   
 16   9  10  1   
 17  10  11  1   
 18  10  12  1   
 19  10  32  1   
 20  11  13  2   
 21  11  14  am  
 22  12  33  1   
 23  12  34  1   
 24  12  35  1   
 25  14  15  1   
 26  14  16  1   
 27  15  17  1   
 28  15  36  1   
 29  15  37  1   
 30  16  18  1   
 31  16  38  1   
 32  16  39  1   
 33  17  19  1   
 34  17  20  2   
 35  18  21  1   
 36  18  40  1   
 37  18  41  1   
 38  19  22  1   
 39  19  42  1   
 40  20  23  1   
 41  20  43  1   
 42  21  24  1   
 43  21  25  1   
 44  21  44  1   
 45  22  23  2   
 46  22  45  1   
 47  24  46  1   
 48  24  47  1   
 49  24  48  1   
 50  25  49  1   
 51  25  50  1   
 52  25  51  1   
@<TRIPOS>SUBSTRUCTURE
  1 ****   9 GROUP 4 **** **** 0

# MOE 2024.06 (io_trps.svl 2023.06)
