@<TRIPOS>MOLECULE
NONAME
51 55 1 0 0 
SMALL
USER_CHARGES


@<TRIPOS>ATOM
  1 O        2.6620    -0.2870     1.9360 O.2   1 <1>  -0.5700 
  2 C        2.1910    -1.2140     1.3230 C.2   1 <1>   0.5690 
  3 N        1.0050    -1.7930     1.6220 N.am  1 <1>  -0.5470 
  4 C        2.8240    -1.9150     0.1050 C.3   1 <1>   0.2050 
  5 C        0.7250    -2.8310     0.7540 C.ar  1 <1>   0.1170 
  6 C        1.7460    -2.9650    -0.1670 C.ar  1 <1>  -0.1440 
  7 C        2.9750    -0.9690    -1.1020 C.3   1 <1>  -0.1600 
  8 C        4.1640    -2.5940     0.4540 C.3   1 <1>  -0.1600 
  9 C       -0.3780    -3.6690     0.7240 C.ar  1 <1>  -0.1500 
 10 C        1.6850    -3.9450    -1.1430 C.ar  1 <1>  -0.1500 
 11 C        4.1300     0.0130    -0.9060 C.3   1 <1>   0.2090 
 12 C        5.2880    -1.5700     0.6140 C.3   1 <1>   0.2090 
 13 C       -0.4420    -4.6500    -0.2520 C.ar  1 <1>  -0.1500 
 14 C        0.5830    -4.7880    -1.1790 C.ar  1 <1>  -0.1500 
 15 N        5.3710    -0.7570    -0.6240 N.pl3 1 <1>  -0.8380 
 16 C        6.5930    -0.1690    -0.9090 C.ar  1 <1>   0.4100 
 17 N        6.6800     1.1360    -0.7260 N.ar  1 <1>  -0.6200 
 18 C        7.6760    -0.9420    -1.3520 C.ar  1 <1>   0.1600 
 19 C        7.8930     1.6510    -0.9870 C.ar  1 <1>   0.3960 
 20 N        8.8780    -0.4770    -1.6210 N.ar  1 <1>  -0.6200 
 21 C        8.1650     3.0840    -0.8230 C.2   1 <1>   0.5440 
 22 C        8.9410     0.8350    -1.4270 C.ar  1 <1>   0.1600 
 23 O        9.0640     3.5880    -1.4770 O.2   1 <1>  -0.5700 
 24 N        7.4860     3.9190     0.0510 N.am  1 <1>  -0.6600 
 25 C        6.4180     3.5180     0.9990 C.3   1 <1>   0.1400 
 26 C        7.8650     5.3340     0.2600 C.3   1 <1>   0.1400 
 27 C        6.0530     4.7920     1.7550 C.3   1 <1>  -0.1600 
 28 C        7.2740     5.6960     1.6170 C.3   1 <1>  -0.1600 
 29 H        0.4220    -1.4780     2.3960 H     1 <1>   0.3700 
 30 H        2.0620    -0.4230    -1.2530 H     1 <1>   0.0800 
 31 H        3.1670    -1.5420    -1.9900 H     1 <1>   0.0800 
 32 H        4.4380    -3.2780    -0.3290 H     1 <1>   0.0800 
 33 H        4.0590    -3.1570     1.3630 H     1 <1>   0.0800 
 34 H       -1.1660    -3.5550     1.4450 H     1 <1>   0.1500 
 35 H        2.4760    -4.0540    -1.8630 H     1 <1>   0.1500 
 36 H        3.9280     0.6840    -0.0880 H     1 <1>   0.0800 
 37 H        4.2620     0.6020    -1.7990 H     1 <1>   0.0800 
 38 H        6.2210    -2.0770     0.7890 H     1 <1>   0.0800 
 39 H        5.0960    -0.9230     1.4540 H     1 <1>   0.0800 
 40 H       -1.2900    -5.3120    -0.2920 H     1 <1>   0.1500 
 41 H        0.5210    -5.5540    -1.9330 H     1 <1>   0.1500 
 42 H        7.5050    -1.9940    -1.4820 H     1 <1>   0.1500 
 43 H        9.8910     1.3000    -1.6290 H     1 <1>   0.1500 
 44 H        6.8020     2.7710     1.6730 H     1 <1>   0.0800 
 45 H        5.5630     3.1290     0.4740 H     1 <1>   0.0800 
 46 H        7.4240     5.9310    -0.5190 H     1 <1>   0.0800 
 47 H        8.9350     5.4570     0.2480 H     1 <1>   0.0800 
 48 H        5.8060     4.5880     2.7820 H     1 <1>   0.0800 
 49 H        5.2050     5.2480     1.2750 H     1 <1>   0.0800 
 50 H        7.0230     6.7400     1.6770 H     1 <1>   0.0800 
 51 H        7.9920     5.4610     2.3830 H     1 <1>   0.0800 
@<TRIPOS>BOND
  1   1   2  2   
  2   2   3  am  
  3   2   4  1   
  4   3   5  1   
  5   3  29  1   
  6   4   6  1   
  7   4   7  1   
  8   4   8  1   
  9   5   6  ar  
 10   5   9  ar  
 11   6  10  ar  
 12   7  11  1   
 13   7  30  1   
 14   7  31  1   
 15   8  12  1   
 16   8  32  1   
 17   8  33  1   
 18   9  13  ar  
 19   9  34  1   
 20  10  14  ar  
 21  10  35  1   
 22  11  15  1   
 23  11  36  1   
 24  11  37  1   
 25  12  15  1   
 26  12  38  1   
 27  12  39  1   
 28  13  14  ar  
 29  13  40  1   
 30  14  41  1   
 31  15  16  1   
 32  16  17  ar  
 33  16  18  ar  
 34  17  19  ar  
 35  18  20  ar  
 36  18  42  1   
 37  19  21  1   
 38  19  22  ar  
 39  20  22  ar  
 40  21  23  2   
 41  21  24  am  
 42  22  43  1   
 43  24  25  1   
 44  24  26  1   
 45  25  27  1   
 46  25  44  1   
 47  25  45  1   
 48  26  28  1   
 49  26  46  1   
 50  26  47  1   
 51  27  28  1   
 52  27  48  1   
 53  27  49  1   
 54  28  50  1   
 55  28  51  1   
@<TRIPOS>SUBSTRUCTURE
  1 ****  11 GROUP 4 **** **** 0

# MOE 2024.06 (io_trps.svl 2023.06)
