@<TRIPOS>MOLECULE
NONAME
37 39 1 0 0 
SMALL
USER_CHARGES


@<TRIPOS>ATOM
  1 CL      -3.8520    -1.7140    -3.7070 Cl    1 <1>  -0.1240 
  2 C       -3.3780    -2.1870    -2.0990 C.2   1 <1>   0.1640 
  3 S       -3.2540    -3.9050    -1.7930 S.3   1 <1>  -0.0800 
  4 C       -3.0810    -1.4600    -1.0110 C.2   1 <1>  -0.1500 
  5 C       -2.7810    -3.6090    -0.1160 C.2   1 <1>  -0.0220 
  6 C       -2.7420    -2.2760     0.1160 C.2   1 <1>  -0.1500 
  7 S       -2.4610    -5.0440     0.9370 S.o2  1 <1>   1.5000 
  8 O       -1.4730    -5.9130     0.3370 O.2   1 <1>  -0.6500 
  9 O       -2.3060    -4.6190     2.3060 O.2   1 <1>  -0.6500 
 10 N       -3.9240    -5.8600     0.9260 N.am  1 <1>  -0.9140 
 11 C       -3.9830    -7.0190     0.0430 C.3   1 <1>   0.2760 
 12 C       -5.4310    -7.4510    -0.1480 C.3   1 <1>  -0.0800 
 13 C       -3.4320    -8.2480     0.7630 C.3   1 <1>   0.1200 
 14 C       -5.6970    -8.3260     1.0830 C.3   1 <1>   0.1200 
 15 C       -6.4510    -6.3140    -0.3510 C.3   1 <1>  -0.0160 
 16 O       -4.4490    -8.6260     1.6390 O.3   1 <1>  -0.5600 
 17 C       -7.8400    -6.8750    -0.6070 C.ar  1 <1>  -0.1430 
 18 C       -8.2190    -7.3350    -1.8520 C.ar  1 <1>  -0.1500 
 19 C       -8.7910    -6.9550     0.3890 C.ar  1 <1>  -0.1500 
 20 C       -9.4940    -7.8450    -2.0330 C.ar  1 <1>   0.1600 
 21 C      -10.0390    -7.4830     0.1030 C.ar  1 <1>   0.1600 
 22 N      -10.4110    -7.9320    -1.0840 N.ar  1 <1>  -0.6200 
 23 H       -3.0870    -0.3850    -0.9550 H     1 <1>   0.1500 
 24 H       -2.4830    -1.8290     1.0620 H     1 <1>   0.1500 
 25 H       -4.0060    -6.2350     1.8740 H     1 <1>   0.4200 
 26 H       -3.4940    -6.8270    -0.8980 H     1 <1>   0.0800 
 27 H       -5.4700    -8.0930    -1.0100 H     1 <1>   0.0800 
 28 H       -2.5290    -8.0580     1.3160 H     1 <1>   0.0800 
 29 H       -3.2710    -9.0570     0.0720 H     1 <1>   0.0800 
 30 H       -6.1960    -9.2430     0.8210 H     1 <1>   0.0800 
 31 H       -6.2680    -7.8020     1.8300 H     1 <1>   0.0800 
 32 H       -6.1520    -5.7080    -1.1880 H     1 <1>   0.0800 
 33 H       -6.4820    -5.6750     0.5140 H     1 <1>   0.0800 
 34 H       -7.5380    -7.3020    -2.6820 H     1 <1>   0.1500 
 35 H       -8.5770    -6.6130     1.3850 H     1 <1>   0.1500 
 36 H       -9.7740    -8.2000    -3.0110 H     1 <1>   0.1500 
 37 H      -10.7700    -7.5390     0.8910 H     1 <1>   0.1500 
@<TRIPOS>BOND
  1   1   2  1   
  2   2   3  1   
  3   2   4  2   
  4   3   5  1   
  5   4   6  1   
  6   4  23  1   
  7   5   6  2   
  8   5   7  1   
  9   6  24  1   
 10   7   8  2   
 11   7   9  2   
 12   7  10  am  
 13  10  11  1   
 14  10  25  1   
 15  11  12  1   
 16  11  13  1   
 17  11  26  1   
 18  12  14  1   
 19  12  15  1   
 20  12  27  1   
 21  13  16  1   
 22  13  28  1   
 23  13  29  1   
 24  14  16  1   
 25  14  30  1   
 26  14  31  1   
 27  15  17  1   
 28  15  32  1   
 29  15  33  1   
 30  17  18  ar  
 31  17  19  ar  
 32  18  20  ar  
 33  18  34  1   
 34  19  21  ar  
 35  19  35  1   
 36  20  22  ar  
 37  20  36  1   
 38  21  22  ar  
 39  21  37  1   
@<TRIPOS>SUBSTRUCTURE
  1 ****  15 GROUP 4 **** **** 0

# MOE 2024.06 (io_trps.svl 2023.06)
