@<TRIPOS>MOLECULE
NONAME
48 50 1 0 0 
SMALL
USER_CHARGES


@<TRIPOS>ATOM
  1 S       -0.1350    -0.3270     1.0610 S.3   1 <1>  -0.0800 
  2 C       -1.2520    -1.0040    -0.0810 C.2   1 <1>   0.4420 
  3 C       -0.4260     1.2090     0.3220 C.2   1 <1>   0.1980 
  4 N       -1.7290    -0.1110    -0.8720 N.2   1 <1>  -0.3380 
  5 N       -1.4810    -2.3620     0.0010 N.am  1 <1>  -0.4940 
  6 N       -1.2540     1.1470    -0.6370 N.2   1 <1>  -0.3380 
  7 C        0.2960     2.4270     0.8560 C.3   1 <1>   0.0200 
  8 C       -2.2960    -3.1430    -0.7700 C.2   1 <1>   0.5690 
  9 C       -0.1060     3.6460     0.0170 C.3   1 <1>   0.3430 
 10 O       -2.9560    -2.7180    -1.6820 O.2   1 <1>  -0.5700 
 11 C       -2.3710    -4.6250    -0.4500 C.3   1 <1>  -0.0190 
 12 N        0.6070     4.9040     0.4250 N.4   1 <1>  -0.9590 
 13 C       -2.1380    -5.4650    -1.7090 C.3   1 <1>   0.1200 
 14 C       -3.7360    -4.9970     0.1430 C.3   1 <1>  -0.0170 
 15 C        0.1780     5.3960     1.7740 C.3   1 <1>   0.2630 
 16 C        0.3710     5.9660    -0.6030 C.3   1 <1>   0.2630 
 17 O       -2.1030    -6.8380    -1.3670 O.3   1 <1>  -0.3630 
 18 C       -3.8670    -6.5090     0.2380 C.ar  1 <1>  -0.1440 
 19 C       -3.0450    -7.3370    -0.5230 C.ar  1 <1>   0.0830 
 20 C       -4.8090    -7.0740     1.0840 C.ar  1 <1>  -0.1500 
 21 C       -3.1610    -8.7130    -0.4280 C.ar  1 <1>  -0.1500 
 22 C       -4.9300    -8.4590     1.1780 C.ar  1 <1>   0.0830 
 23 C       -4.1010    -9.2710     0.4200 C.ar  1 <1>  -0.1500 
 24 O       -5.8270    -9.0880     1.9820 O.3   1 <1>  -0.3630 
 25 C       -6.7420    -8.3570     2.7660 C.3   1 <1>   0.0400 
 26 H       -0.9670    -2.8380     0.7370 H     1 <1>   0.3700 
 27 H        1.3550     2.2590     0.7850 H     1 <1>   0.0800 
 28 H        0.0180     2.5630     1.8850 H     1 <1>   0.0800 
 29 H       -1.1720     3.7890     0.0910 H     1 <1>   0.0800 
 30 H        0.1170     3.4280    -1.0160 H     1 <1>   0.0800 
 31 H       -1.6000    -4.8740     0.2560 H     1 <1>   0.0800 
 32 H        1.6220     4.7130     0.4490 H     1 <1>   0.4500 
 33 H       -1.2000    -5.2190    -2.1730 H     1 <1>   0.0800 
 34 H       -2.9320    -5.3200    -2.4220 H     1 <1>   0.0800 
 35 H       -4.5230    -4.6250    -0.4910 H     1 <1>   0.0800 
 36 H       -3.8470    -4.5510     1.1160 H     1 <1>   0.0800 
 37 H       -0.8830     5.5900     1.7830 H     1 <1>   0.0800 
 38 H        0.6950     6.3090     2.0210 H     1 <1>   0.0800 
 39 H        0.4010     4.6650     2.5340 H     1 <1>   0.0800 
 40 H       -0.6800     6.1980    -0.6690 H     1 <1>   0.0800 
 41 H        0.7110     5.6330    -1.5710 H     1 <1>   0.0800 
 42 H        0.9070     6.8650    -0.3430 H     1 <1>   0.0800 
 43 H       -5.4410    -6.4280     1.6620 H     1 <1>   0.1500 
 44 H       -2.5180    -9.3400    -1.0180 H     1 <1>   0.1500 
 45 H       -4.1980   -10.3380     0.4980 H     1 <1>   0.1500 
 46 H       -7.3570    -9.0590     3.3010 H     1 <1>   0.0800 
 47 H       -7.3540    -7.7550     2.1190 H     1 <1>   0.0800 
 48 H       -6.1960    -7.7470     3.4620 H     1 <1>   0.0800 
@<TRIPOS>BOND
  1   1   2  1   
  2   1   3  1   
  3   2   4  2   
  4   2   5  1   
  5   3   6  2   
  6   3   7  1   
  7   4   6  1   
  8   5   8  am  
  9   5  26  1   
 10   7   9  1   
 11   7  27  1   
 12   7  28  1   
 13   8  10  2   
 14   8  11  1   
 15   9  12  1   
 16   9  29  1   
 17   9  30  1   
 18  11  13  1   
 19  11  14  1   
 20  11  31  1   
 21  12  15  1   
 22  12  16  1   
 23  12  32  1   
 24  13  17  1   
 25  13  33  1   
 26  13  34  1   
 27  14  18  1   
 28  14  35  1   
 29  14  36  1   
 30  15  37  1   
 31  15  38  1   
 32  15  39  1   
 33  16  40  1   
 34  16  41  1   
 35  16  42  1   
 36  17  19  1   
 37  18  19  ar  
 38  18  20  ar  
 39  19  21  ar  
 40  20  22  ar  
 41  20  43  1   
 42  21  23  ar  
 43  21  44  1   
 44  22  23  ar  
 45  22  24  1   
 46  23  45  1   
 47  24  25  1   
 48  25  46  1   
 49  25  47  1   
 50  25  48  1   
@<TRIPOS>SUBSTRUCTURE
  1 ****   8 GROUP 4 **** **** 0

# MOE 2024.06 (io_trps.svl 2023.06)
