@<TRIPOS>MOLECULE
NONAME
44 46 1 0 0 
SMALL
USER_CHARGES


@<TRIPOS>ATOM
  1 O        2.9300     1.9200     1.8480 O.co2 1 <1>  -0.9000 
  2 C        2.2610     0.9510     1.4580 C.2   1 <1>   0.9060 
  3 O        1.9310     0.0540     2.2320 O.co2 1 <1>  -0.9000 
  4 C        2.1110     0.6910    -0.0480 C.3   1 <1>  -0.1060 
  5 C        3.0340    -0.5240    -0.2940 C.3   1 <1>   0.2000 
  6 C        2.6320     1.8880    -0.9110 C.3   1 <1>  -0.1600 
  7 C        0.6300     0.3680    -0.3770 C.3   1 <1>  -0.0170 
  8 O        3.0670    -0.8340    -1.6560 O.3   1 <1>  -0.6800 
  9 C        4.4810    -0.2050     0.1710 C.3   1 <1>   0.3430 
 10 C        4.1610     1.9210    -1.0910 C.3   1 <1>   0.3430 
 11 C       -0.2860     1.5840    -0.2880 C.ar  1 <1>  -0.1440 
 12 N        4.8140     1.2610     0.0690 N.4   1 <1>  -0.9590 
 13 C       -0.6940     2.0610     0.9490 C.ar  1 <1>  -0.1500 
 14 C       -0.7250     2.2240    -1.4380 C.ar  1 <1>  -0.1500 
 15 C        6.2370     1.5770     0.2610 C.3   1 <1>   0.5240 
 16 C       -1.5220     3.1660     1.0360 C.ar  1 <1>  -0.1500 
 17 C       -1.5540     3.3290    -1.3530 C.ar  1 <1>  -0.1500 
 18 C        6.4040     3.0730     0.4330 C.2   1 <1>  -0.1810 
 19 C       -1.9530     3.8020    -0.1150 C.ar  1 <1>  -0.1500 
 20 C        5.6310     3.9450     1.1210 C.2   1 <1>  -0.0100 
 21 C        7.4380     3.8450    -0.1190 C.2   1 <1>  -0.1500 
 22 O        6.1110     5.1680     1.0220 O.3   1 <1>  -0.2800 
 23 C        7.1970     5.1120     0.2790 C.2   1 <1>  -0.0100 
 24 H        2.6760    -1.3940     0.2310 H     1 <1>   0.0800 
 25 H        2.3080     2.8150    -0.4700 H     1 <1>   0.0800 
 26 H        2.1970     1.8490    -1.8930 H     1 <1>   0.0800 
 27 H        0.5540    -0.0380    -1.3690 H     1 <1>   0.0800 
 28 H        0.2660    -0.3870     0.2990 H     1 <1>   0.0800 
 29 H        2.1840    -1.1400    -1.9450 H     1 <1>   0.4000 
 30 H        5.1680    -0.7950    -0.4100 H     1 <1>   0.0800 
 31 H        4.5670    -0.4980     1.2060 H     1 <1>   0.0800 
 32 H        4.4850     2.9450    -1.1810 H     1 <1>   0.0800 
 33 H        4.4250     1.3920    -1.9920 H     1 <1>   0.0800 
 34 H        4.3100     1.6910     0.8890 H     1 <1>   0.4500 
 35 H       -0.3650     1.5740     1.8530 H     1 <1>   0.1500 
 36 H       -0.4230     1.8670    -2.4060 H     1 <1>   0.1500 
 37 H        6.6080     1.0780     1.1410 H     1 <1>   0.0800 
 38 H        6.8020     1.2420    -0.5920 H     1 <1>   0.0800 
 39 H       -1.8250     3.5280     2.0020 H     1 <1>   0.1500 
 40 H       -1.8900     3.8210    -2.2490 H     1 <1>   0.1500 
 41 H       -2.5950     4.6620    -0.0460 H     1 <1>   0.1500 
 42 H        4.7320     3.7870     1.7010 H     1 <1>   0.1500 
 43 H        8.2490     3.4870    -0.7290 H     1 <1>   0.1500 
 44 H        7.7370     6.0230     0.0860 H     1 <1>   0.1500 
@<TRIPOS>BOND
  1   1   2  ar  
  2   2   3  ar  
  3   2   4  1   
  4   4   5  1   
  5   4   6  1   
  6   4   7  1   
  7   5   8  1   
  8   5   9  1   
  9   5  24  1   
 10   6  10  1   
 11   6  25  1   
 12   6  26  1   
 13   7  11  1   
 14   7  27  1   
 15   7  28  1   
 16   8  29  1   
 17   9  12  1   
 18   9  30  1   
 19   9  31  1   
 20  10  12  1   
 21  10  32  1   
 22  10  33  1   
 23  11  13  ar  
 24  11  14  ar  
 25  12  15  1   
 26  12  34  1   
 27  13  16  ar  
 28  13  35  1   
 29  14  17  ar  
 30  14  36  1   
 31  15  18  1   
 32  15  37  1   
 33  15  38  1   
 34  16  19  ar  
 35  16  39  1   
 36  17  19  ar  
 37  17  40  1   
 38  18  20  2   
 39  18  21  1   
 40  19  41  1   
 41  20  22  1   
 42  20  42  1   
 43  21  23  2   
 44  21  43  1   
 45  22  23  1   
 46  23  44  1   
@<TRIPOS>SUBSTRUCTURE
  1 ****   6 GROUP 4 **** **** 0

# MOE 2024.06 (io_trps.svl 2023.06)
