@<TRIPOS>MOLECULE
NONAME
47 50 1 0 0 
SMALL
USER_CHARGES


@<TRIPOS>ATOM
  1 O        2.8190    -1.4190    -1.8090 O.2   1 <1>  -0.5700 
  2 C        2.1010    -1.6530    -0.8650 C.2   1 <1>   0.5690 
  3 N        1.6820    -0.6970     0.0030 N.am  1 <1>  -0.5790 
  4 C        1.6330    -3.0910    -0.6250 C.3   1 <1>   0.1710 
  5 C        1.9840     0.7370    -0.0560 C.3   1 <1>   0.0490 
  6 N        0.3120    -3.2050     0.0620 N.3   1 <1>  -0.8100 
  7 C        2.0660     1.4900     1.2300 C.3   1 <1>  -0.2000 
  8 C        0.9000     1.6950     0.3090 C.3   1 <1>  -0.2000 
  9 C       -0.8000    -2.7050    -0.7640 C.3   1 <1>   0.1100 
 10 C       -0.0180    -4.6000     0.4090 C.3   1 <1>   0.1100 
 11 C       -2.0320    -3.4100    -0.2120 C.3   1 <1>   0.2000 
 12 C       -1.5110    -4.8120     0.0950 C.3   1 <1>  -0.0800 
 13 O       -2.3610    -2.8070     0.9870 O.3   1 <1>  -0.6800 
 14 C       -1.7330    -5.7540    -1.1070 C.3   1 <1>  -0.0160 
 15 C       -1.1870    -7.1570    -0.8530 C.ar  1 <1>  -0.1440 
 16 C       -1.8290    -8.0810     0.0070 C.ar  1 <1>   0.0000 
 17 C       -0.0360    -7.5630    -1.4640 C.ar  1 <1>  -0.1500 
 18 C       -1.2130    -9.3420     0.1960 C.ar  1 <1>   0.3100 
 19 C       -3.0460    -7.8320     0.6850 C.ar  1 <1>  -0.1500 
 20 C        0.4840    -8.8390    -1.2170 C.ar  1 <1>   0.1600 
 21 N       -0.0590    -9.7030    -0.4210 N.ar  1 <1>  -0.6200 
 22 C       -1.8160   -10.2730     1.0570 C.ar  1 <1>  -0.1500 
 23 C       -3.6090    -8.7620     1.5150 C.ar  1 <1>  -0.1500 
 24 C       -2.9880    -9.9980     1.7080 C.ar  1 <1>  -0.1500 
 25 H        1.0290    -1.0000     0.7300 H     1 <1>   0.3700 
 26 H        2.3820    -3.5730    -0.0230 H     1 <1>   0.0800 
 27 H        1.5960    -3.5980    -1.5730 H     1 <1>   0.0800 
 28 H        2.6610     0.9980    -0.8550 H     1 <1>   0.1000 
 29 H        1.9180     0.9580     2.1530 H     1 <1>   0.1000 
 30 H        2.7900     2.2810     1.3180 H     1 <1>   0.1000 
 31 H        0.8330     2.6250    -0.2270 H     1 <1>   0.1000 
 32 H       -0.0640     1.3080     0.5900 H     1 <1>   0.1000 
 33 H       -0.8950    -1.6330    -0.7060 H     1 <1>   0.0800 
 34 H       -0.6570    -2.9900    -1.7930 H     1 <1>   0.0800 
 35 H        0.5970    -5.2910    -0.1420 H     1 <1>   0.0800 
 36 H        0.1630    -4.7530     1.4600 H     1 <1>   0.0800 
 37 H       -2.8880    -3.3800    -0.8650 H     1 <1>   0.0800 
 38 H       -2.0130    -5.2200     0.9540 H     1 <1>   0.0800 
 39 H       -1.5280    -2.7120     1.4930 H     1 <1>   0.4000 
 40 H       -1.2540    -5.3410    -1.9780 H     1 <1>   0.0800 
 41 H       -2.7830    -5.8190    -1.3320 H     1 <1>   0.0800 
 42 H        0.5010    -6.9230    -2.1410 H     1 <1>   0.1500 
 43 H       -3.5470    -6.8930     0.5470 H     1 <1>   0.1500 
 44 H        1.3950    -9.1170    -1.7190 H     1 <1>   0.1500 
 45 H       -1.3220   -11.2180     1.1860 H     1 <1>   0.1500 
 46 H       -4.5340    -8.5570     2.0280 H     1 <1>   0.1500 
 47 H       -3.4390   -10.7210     2.3650 H     1 <1>   0.1500 
@<TRIPOS>BOND
  1   1   2  2   
  2   2   3  am  
  3   2   4  1   
  4   3   5  1   
  5   3  25  1   
  6   4   6  1   
  7   4  26  1   
  8   4  27  1   
  9   5   7  1   
 10   5   8  1   
 11   5  28  1   
 12   6   9  1   
 13   6  10  1   
 14   7   8  1   
 15   7  29  1   
 16   7  30  1   
 17   8  31  1   
 18   8  32  1   
 19   9  11  1   
 20   9  33  1   
 21   9  34  1   
 22  10  12  1   
 23  10  35  1   
 24  10  36  1   
 25  11  12  1   
 26  11  13  1   
 27  11  37  1   
 28  12  14  1   
 29  12  38  1   
 30  13  39  1   
 31  14  15  1   
 32  14  40  1   
 33  14  41  1   
 34  15  16  ar  
 35  15  17  ar  
 36  16  18  ar  
 37  16  19  ar  
 38  17  20  ar  
 39  17  42  1   
 40  18  21  ar  
 41  18  22  ar  
 42  19  23  ar  
 43  19  43  1   
 44  20  21  ar  
 45  20  44  1   
 46  22  24  ar  
 47  22  45  1   
 48  23  24  ar  
 49  23  46  1   
 50  24  47  1   
@<TRIPOS>SUBSTRUCTURE
  1 ****  10 GROUP 4 **** **** 0

# MOE 2024.06 (io_trps.svl 2023.06)
