@<TRIPOS>MOLECULE
NONAME
48 48 1 0 0 
SMALL
USER_CHARGES


@<TRIPOS>ATOM
  1 O       -0.2800     0.5530     1.8330 O.2   1 <1>  -0.5700 
  2 C       -1.1170     0.9540     1.0360 C.2   1 <1>   0.7800 
  3 O       -1.1850     2.2560     0.7400 O.3   1 <1>  -0.4300 
  4 N       -2.0350     0.1270     0.4390 N.am  1 <1>  -0.3600 
  5 C       -0.2310     3.2540     1.0030 C.3   1 <1>   0.2800 
  6 N       -2.0550    -1.3320     0.6670 N.am  1 <1>  -0.3600 
  7 C       -3.2180     0.6700    -0.3330 C.3   1 <1>   0.1140 
  8 C       -0.7690     4.5010     0.3020 C.3   1 <1>  -0.2400 
  9 C       -0.1350     3.5150     2.5110 C.3   1 <1>  -0.2400 
 10 C        1.1170     2.8670     0.3840 C.3   1 <1>  -0.2400 
 11 C       -1.1330    -2.1830     0.1030 C.2   1 <1>   0.7800 
 12 C       -3.2300    -1.8160     1.4430 C.3   1 <1>   0.1400 
 13 C       -2.9430     1.0160    -1.8100 C.2   1 <1>   0.9060 
 14 C       -4.4500    -0.2510    -0.1440 C.3   1 <1>  -0.1600 
 15 O       -0.1510    -1.8000    -0.5120 O.2   1 <1>  -0.5700 
 16 O       -1.3380    -3.5000     0.2760 O.3   1 <1>  -0.4300 
 17 C       -4.4550    -0.8990     1.2530 C.3   1 <1>  -0.1600 
 18 O       -2.7450     2.2020    -2.1120 O.co2 1 <1>  -0.9000 
 19 O       -3.0230     0.1380    -2.6820 O.co2 1 <1>  -0.9000 
 20 C       -0.5660    -4.5590    -0.2470 C.3   1 <1>   0.2800 
 21 C       -0.5790    -4.5180    -1.7800 C.3   1 <1>  -0.2400 
 22 C       -1.2690    -5.8320     0.2260 C.3   1 <1>  -0.2400 
 23 C        0.8530    -4.5240     0.3330 C.3   1 <1>  -0.2400 
 24 H       -3.4750     1.6070     0.1220 H     1 <1>   0.0800 
 25 H       -0.0900     5.3250     0.4180 H     1 <1>   0.0800 
 26 H       -1.7230     4.7760     0.7120 H     1 <1>   0.0800 
 27 H       -0.8940     4.3020    -0.7500 H     1 <1>   0.0800 
 28 H        0.4870     4.3710     2.6950 H     1 <1>   0.0800 
 29 H        0.3020     2.6760     3.0200 H     1 <1>   0.0800 
 30 H       -1.1120     3.7060     2.9160 H     1 <1>   0.0800 
 31 H        1.8070     3.6860     0.4570 H     1 <1>   0.0800 
 32 H        0.9850     2.6190    -0.6540 H     1 <1>   0.0800 
 33 H        1.5490     2.0250     0.8930 H     1 <1>   0.0800 
 34 H       -3.4900    -2.8030     1.1050 H     1 <1>   0.0800 
 35 H       -2.9650    -1.8700     2.4840 H     1 <1>   0.0800 
 36 H       -5.3440     0.3260    -0.3020 H     1 <1>   0.0800 
 37 H       -4.4310    -1.0230    -0.8950 H     1 <1>   0.0800 
 38 H       -5.3540    -1.4710     1.3950 H     1 <1>   0.0800 
 39 H       -4.4350    -0.1270     2.0010 H     1 <1>   0.0800 
 40 H       -0.1180    -5.4030    -2.1770 H     1 <1>   0.0800 
 41 H       -0.0290    -3.6720    -2.1500 H     1 <1>   0.0800 
 42 H       -1.5880    -4.4620    -2.1450 H     1 <1>   0.0800 
 43 H       -0.7470    -6.7020    -0.1300 H     1 <1>   0.0800 
 44 H       -2.2760    -5.8620    -0.1510 H     1 <1>   0.0800 
 45 H       -1.2950    -5.8660     1.3000 H     1 <1>   0.0800 
 46 H        1.3880    -5.4110     0.0520 H     1 <1>   0.0800 
 47 H        0.8160    -4.4700     1.4060 H     1 <1>   0.0800 
 48 H        1.4030    -3.6810    -0.0420 H     1 <1>   0.0800 
@<TRIPOS>BOND
  1   1   2  2   
  2   2   3  1   
  3   2   4  am  
  4   3   5  1   
  5   4   6  1   
  6   4   7  1   
  7   5   8  1   
  8   5   9  1   
  9   5  10  1   
 10   6  11  am  
 11   6  12  1   
 12   7  13  1   
 13   7  14  1   
 14   7  24  1   
 15   8  25  1   
 16   8  26  1   
 17   8  27  1   
 18   9  28  1   
 19   9  29  1   
 20   9  30  1   
 21  10  31  1   
 22  10  32  1   
 23  10  33  1   
 24  11  15  2   
 25  11  16  1   
 26  12  17  1   
 27  12  34  1   
 28  12  35  1   
 29  13  18  ar  
 30  13  19  ar  
 31  14  17  1   
 32  14  36  1   
 33  14  37  1   
 34  16  20  1   
 35  17  38  1   
 36  17  39  1   
 37  20  21  1   
 38  20  22  1   
 39  20  23  1   
 40  21  40  1   
 41  21  41  1   
 42  21  42  1   
 43  22  43  1   
 44  22  44  1   
 45  22  45  1   
 46  23  46  1   
 47  23  47  1   
 48  23  48  1   
@<TRIPOS>SUBSTRUCTURE
  1 ****   4 GROUP 4 **** **** 0

# MOE 2024.06 (io_trps.svl 2023.06)
