@<TRIPOS>MOLECULE
NONAME
51 54 1 0 0 
SMALL
USER_CHARGES


@<TRIPOS>ATOM
  1 O        0.8740     0.0740     2.5650 O.2   1 <1>  -0.5700 
  2 C        1.5620    -0.5660     1.8070 C.2   1 <1>   0.9370 
  3 N        2.4980     0.0760     0.9920 N.pl3 1 <1>  -0.5760 
  4 C        1.4150    -1.9730     1.7140 C.2   1 <1>  -0.1360 
  5 C        3.2510    -0.6510     0.1310 C.cat 1 <1>   0.7390 
  6 C        2.6760     1.4400     1.0620 C.2   1 <1>   0.1910 
  7 C        2.1480    -2.6910     0.8410 C.2   1 <1>   0.2030 
  8 N        3.0650    -1.9980     0.0580 N.pl3 1 <1>  -0.6450 
  9 C        4.2050    -0.0100    -0.6710 C.2   1 <1>  -0.1800 
 10 C        3.6010     2.0850     0.2850 C.2   1 <1>  -0.1380 
 11 C        2.0010    -4.2220     0.7030 C.3   1 <1>   0.4810 
 12 C        4.3870     1.3450    -0.6040 C.2   1 <1>  -0.1500 
 13 C        3.8020     3.5910     0.3580 C.3   1 <1>  -0.1020 
 14 N        1.3720    -4.6920    -0.5930 N.4   1 <1>  -0.9590 
 15 C       -0.1000    -4.4620    -0.7950 C.3   1 <1>   0.4230 
 16 C        1.6320    -6.1630    -0.7550 C.3   1 <1>   0.2630 
 17 C       -0.9820    -4.7110     0.4280 C.3   1 <1>  -0.1600 
 18 C       -0.4450    -3.0480    -1.2510 C.3   1 <1>  -0.1600 
 19 C       -2.3070    -4.0370     0.0560 C.3   1 <1>  -0.0800 
 20 C       -1.9210    -2.8510    -0.8630 C.3   1 <1>  -0.0800 
 21 C       -3.1960    -3.7080     1.2790 C.3   1 <1>   0.1400 
 22 C       -2.2030    -1.4690    -0.2440 C.3   1 <1>  -0.0990 
 23 N       -4.0220    -2.5150     1.0150 N.am  1 <1>  -0.7300 
 24 C       -3.6010    -1.4320     0.3310 C.2   1 <1>   0.5690 
 25 O       -4.2960    -0.4630     0.1860 O.2   1 <1>  -0.5700 
 26 H        0.6870    -2.4000     2.3790 H     1 <1>   0.1500 
 27 H        2.0660     2.0080     1.7530 H     1 <1>   0.1500 
 28 H        3.7150    -2.4860    -0.5690 H     1 <1>   0.4500 
 29 H        4.8050    -0.5890    -1.3490 H     1 <1>   0.1500 
 30 H        1.4250    -4.5970     1.5330 H     1 <1>   0.0800 
 31 H        2.9850    -4.6540     0.7920 H     1 <1>   0.0800 
 32 H        5.1200     1.8490    -1.2180 H     1 <1>   0.1500 
 33 H        3.6140     4.0370    -0.6030 H     1 <1>   0.0800 
 34 H        4.8140     3.8150     0.6470 H     1 <1>   0.0800 
 35 H        3.1380     4.0400     1.0750 H     1 <1>   0.0800 
 36 H        1.8350    -4.2270    -1.3850 H     1 <1>   0.4500 
 37 H       -0.4490    -5.1230    -1.5740 H     1 <1>   0.0800 
 38 H        1.1450    -6.7230     0.0280 H     1 <1>   0.0800 
 39 H        2.6900    -6.3710    -0.7170 H     1 <1>   0.0800 
 40 H        1.2550    -6.5100    -1.7040 H     1 <1>   0.0800 
 41 H       -1.1260    -5.7610     0.6140 H     1 <1>   0.0800 
 42 H       -0.5920    -4.2330     1.3050 H     1 <1>   0.0800 
 43 H        0.1550    -2.3060    -0.7680 H     1 <1>   0.0800 
 44 H       -0.3280    -2.9520    -2.3170 H     1 <1>   0.0800 
 45 H       -2.8660    -4.7320    -0.5510 H     1 <1>   0.0800 
 46 H       -2.5280    -2.9260    -1.7530 H     1 <1>   0.0800 
 47 H       -2.5940    -3.5060     2.1480 H     1 <1>   0.0800 
 48 H       -3.8370    -4.5450     1.5030 H     1 <1>   0.0800 
 49 H       -2.1130    -0.7000    -0.9910 H     1 <1>   0.0800 
 50 H       -1.5210    -1.2510     0.5550 H     1 <1>   0.0800 
 51 H       -4.9610    -2.4660     1.4230 H     1 <1>   0.3700 
@<TRIPOS>BOND
  1   1   2  2   
  2   2   3  1   
  3   2   4  1   
  4   3   5  ar  
  5   3   6  1   
  6   4   7  2   
  7   4  26  1   
  8   5   8  ar  
  9   5   9  1   
 10   6  10  2   
 11   6  27  1   
 12   7   8  1   
 13   7  11  1   
 14   8  28  1   
 15   9  12  2   
 16   9  29  1   
 17  10  12  1   
 18  10  13  1   
 19  11  14  1   
 20  11  30  1   
 21  11  31  1   
 22  12  32  1   
 23  13  33  1   
 24  13  34  1   
 25  13  35  1   
 26  14  15  1   
 27  14  16  1   
 28  14  36  1   
 29  15  17  1   
 30  15  18  1   
 31  15  37  1   
 32  16  38  1   
 33  16  39  1   
 34  16  40  1   
 35  17  19  1   
 36  17  41  1   
 37  17  42  1   
 38  18  20  1   
 39  18  43  1   
 40  18  44  1   
 41  19  20  1   
 42  19  21  1   
 43  19  45  1   
 44  20  22  1   
 45  20  46  1   
 46  21  23  1   
 47  21  47  1   
 48  21  48  1   
 49  22  24  1   
 50  22  49  1   
 51  22  50  1   
 52  23  24  am  
 53  23  51  1   
 54  24  25  2   
@<TRIPOS>SUBSTRUCTURE
  1 ****   4 GROUP 4 **** **** 0

# MOE 2024.06 (io_trps.svl 2023.06)
