@<TRIPOS>MOLECULE
NONAME
50 52 1 0 0 
SMALL
USER_CHARGES


@<TRIPOS>ATOM
  1 O       -3.3100     2.2170    -1.8910 O.2   1 <1>  -0.5700 
  2 C       -2.2600     2.1890    -1.2950 C.2   1 <1>   0.5690 
  3 N       -2.0940     1.8440     0.0000 N.am  1 <1>  -0.6600 
  4 C       -0.9390     2.5190    -1.9330 C.3   1 <1>  -0.0990 
  5 C       -0.6860     1.8560     0.4250 C.3   1 <1>   0.1400 
  6 C       -3.1770     1.4210     0.9100 C.3   1 <1>   0.1400 
  7 C        0.0490     2.5140    -0.7520 C.3   1 <1>  -0.1600 
  8 C       -3.2890    -0.1030     0.8810 C.3   1 <1>  -0.1600 
  9 C       -4.5180    -0.5910     1.6640 C.3   1 <1>  -0.0990 
 10 C       -4.6650    -2.1000     1.5840 C.2   1 <1>   0.5690 
 11 O       -4.1530    -2.7610     2.4560 O.2   1 <1>  -0.5700 
 12 N       -5.3480    -2.6780     0.5500 N.am  1 <1>  -0.6600 
 13 C       -5.9770    -1.9880    -0.6050 C.3   1 <1>   0.1400 
 14 C       -5.4980    -4.1480     0.4290 C.3   1 <1>   0.1400 
 15 C       -6.3520    -3.1090    -1.5730 C.3   1 <1>   0.2000 
 16 C       -6.4980    -4.3580    -0.7080 C.3   1 <1>  -0.0800 
 17 O       -7.5410    -2.8410    -2.2310 O.3   1 <1>  -0.6800 
 18 C       -6.2790    -5.6630    -1.4870 C.3   1 <1>   0.0210 
 19 C       -6.3340    -6.8630    -0.5620 C.2   1 <1>   0.1080 
 20 N       -7.3910    -7.1760     0.1210 N.2   1 <1>  -0.7070 
 21 C       -5.2810    -7.7410    -0.3310 C.2   1 <1>  -0.1500 
 22 N       -7.0370    -8.2740     0.8130 N.pl3 1 <1>   0.3000 
 23 C       -5.7620    -8.6360     0.5570 C.2   1 <1>  -0.3320 
 24 C       -5.0710    -9.8310     1.1880 C.3   1 <1>  -0.0600 
 25 H       -0.6980     1.7540    -2.6470 H     1 <1>   0.0800 
 26 H       -0.9840     3.4770    -2.4170 H     1 <1>   0.0800 
 27 H       -0.5650     2.4250     1.3320 H     1 <1>   0.0800 
 28 H       -0.3470     0.8450     0.5750 H     1 <1>   0.0800 
 29 H       -2.9750     1.7710     1.9080 H     1 <1>   0.0800 
 30 H       -4.1020     1.8610     0.5750 H     1 <1>   0.0800 
 31 H        0.2980     3.5260    -0.4850 H     1 <1>   0.0800 
 32 H        0.9560     1.9870    -0.9900 H     1 <1>   0.0800 
 33 H       -3.3700    -0.4260    -0.1420 H     1 <1>   0.0800 
 34 H       -2.4030    -0.5410     1.3060 H     1 <1>   0.0800 
 35 H       -5.4100    -0.1220     1.2920 H     1 <1>   0.0800 
 36 H       -4.4140    -0.3170     2.6990 H     1 <1>   0.0800 
 37 H       -6.8550    -1.4650    -0.2690 H     1 <1>   0.0800 
 38 H       -5.2880    -1.3040    -1.0680 H     1 <1>   0.0800 
 39 H       -4.5410    -4.5770     0.1900 H     1 <1>   0.0800 
 40 H       -5.8570    -4.5760     1.3510 H     1 <1>   0.0800 
 41 H       -5.5750    -3.2260    -2.3090 H     1 <1>   0.0800 
 42 H       -7.4780    -4.3770    -0.2630 H     1 <1>   0.0800 
 43 H       -8.2900    -2.8830    -1.6050 H     1 <1>   0.4000 
 44 H       -5.3270    -5.6420    -1.9860 H     1 <1>   0.0800 
 45 H       -7.0460    -5.7690    -2.2330 H     1 <1>   0.0800 
 46 H       -4.3030    -7.6930    -0.7770 H     1 <1>   0.1500 
 47 H       -7.6850    -8.7510     1.4510 H     1 <1>   0.2700 
 48 H       -4.0620    -9.9080     0.8240 H     1 <1>   0.0800 
 49 H       -5.5950   -10.7370     0.9410 H     1 <1>   0.0800 
 50 H       -5.0420    -9.7210     2.2580 H     1 <1>   0.0800 
@<TRIPOS>BOND
  1   1   2  2   
  2   2   3  am  
  3   2   4  1   
  4   3   5  1   
  5   3   6  1   
  6   4   7  1   
  7   4  25  1   
  8   4  26  1   
  9   5   7  1   
 10   5  27  1   
 11   5  28  1   
 12   6   8  1   
 13   6  29  1   
 14   6  30  1   
 15   7  31  1   
 16   7  32  1   
 17   8   9  1   
 18   8  33  1   
 19   8  34  1   
 20   9  10  1   
 21   9  35  1   
 22   9  36  1   
 23  10  11  2   
 24  10  12  am  
 25  12  13  1   
 26  12  14  1   
 27  13  15  1   
 28  13  37  1   
 29  13  38  1   
 30  14  16  1   
 31  14  39  1   
 32  14  40  1   
 33  15  16  1   
 34  15  17  1   
 35  15  41  1   
 36  16  18  1   
 37  16  42  1   
 38  17  43  1   
 39  18  19  1   
 40  18  44  1   
 41  18  45  1   
 42  19  20  2   
 43  19  21  1   
 44  20  22  1   
 45  21  23  2   
 46  21  46  1   
 47  22  23  1   
 48  22  47  1   
 49  23  24  1   
 50  24  48  1   
 51  24  49  1   
 52  24  50  1   
@<TRIPOS>SUBSTRUCTURE
  1 ****  12 GROUP 4 **** **** 0

# MOE 2024.06 (io_trps.svl 2023.06)
