@<TRIPOS>MOLECULE
NONAME
46 47 1 0 0 
SMALL
USER_CHARGES


@<TRIPOS>ATOM
  1 CL      -0.2330     1.1030    -2.1500 Cl    1 <1>  -0.1770 
  2 C       -0.0810     2.3350    -0.9240 C.ar  1 <1>   0.1770 
  3 C        1.1470     2.9350    -0.7170 C.ar  1 <1>  -0.1500 
  4 C       -1.1900     2.6900    -0.1790 C.ar  1 <1>  -0.1500 
  5 C        1.2750     3.9130     0.2590 C.ar  1 <1>  -0.1440 
  6 C       -1.0650     3.6690     0.7910 C.ar  1 <1>  -0.1500 
  7 C        0.1630     4.2760     1.0060 C.ar  1 <1>  -0.1500 
  8 C        2.6170     4.5800     0.5110 C.3   1 <1>   0.2140 
  9 S        2.5610     6.2560    -0.1820 S.3   1 <1>  -0.4600 
 10 C        4.2120     6.9100     0.1670 C.3   1 <1>   0.0700 
 11 C        4.2600     8.3470    -0.3520 C.3   1 <1>  -0.1600 
 12 C        5.6370     8.9590    -0.1170 C.3   1 <1>   0.2090 
 13 N        5.6360    10.3540    -0.5980 N.pl3 1 <1>  -0.8690 
 14 C        6.7260    11.1760    -0.5000 C.ar  1 <1>   0.4100 
 15 N        7.7750    10.7270     0.1780 N.ar  1 <1>  -0.6200 
 16 C        6.7010    12.4300    -1.1060 C.ar  1 <1>  -0.1500 
 17 C        8.8130    11.5430     0.2540 C.ar  1 <1>   0.1600 
 18 C        7.7870    13.2650    -1.0100 C.ar  1 <1>  -0.1500 
 19 C        8.8940    12.8220    -0.2920 C.ar  1 <1>   0.0860 
 20 C       10.0850    13.6180    -0.1120 C.2   1 <1>   0.5440 
 21 O       11.1730    13.0930    -0.2560 O.2   1 <1>  -0.5700 
 22 N       10.0340    14.9580     0.2300 N.am  1 <1>  -0.6600 
 23 C       11.2440    15.8220     0.1510 C.3   1 <1>   0.0600 
 24 C        8.8650    15.5940     0.8980 C.3   1 <1>   0.0600 
 25 H        1.9860     2.6370    -1.3190 H     1 <1>   0.1500 
 26 H       -2.1340     2.2080    -0.3610 H     1 <1>   0.1500 
 27 H       -1.9190     3.9610     1.3770 H     1 <1>   0.1500 
 28 H        0.2490     5.0420     1.7580 H     1 <1>   0.1500 
 29 H        3.4210     4.0580     0.0240 H     1 <1>   0.0800 
 30 H        2.8170     4.6720     1.5630 H     1 <1>   0.0800 
 31 H        4.9220     6.2800    -0.3390 H     1 <1>   0.0800 
 32 H        4.3600     6.8670     1.2320 H     1 <1>   0.0800 
 33 H        3.5180     8.9310     0.1630 H     1 <1>   0.0800 
 34 H        4.0420     8.3480    -1.4050 H     1 <1>   0.0800 
 35 H        6.3930     8.4020    -0.6460 H     1 <1>   0.0800 
 36 H        5.8770     8.9500     0.9340 H     1 <1>   0.0800 
 37 H        4.9330    10.5700    -1.3050 H     1 <1>   0.4000 
 38 H        5.8230    12.7300    -1.6450 H     1 <1>   0.1500 
 39 H        9.6730    11.1820     0.7920 H     1 <1>   0.1500 
 40 H        7.7940    14.2350    -1.4750 H     1 <1>   0.1500 
 41 H       11.9780    15.3850    -0.5050 H     1 <1>   0.0800 
 42 H       11.6770    15.9290     1.1310 H     1 <1>   0.0800 
 43 H       10.9790    16.7920    -0.2310 H     1 <1>   0.0800 
 44 H        8.1570    14.8520     1.2250 H     1 <1>   0.0800 
 45 H        8.3790    16.2690     0.2140 H     1 <1>   0.0800 
 46 H        9.1950    16.1470     1.7600 H     1 <1>   0.0800 
@<TRIPOS>BOND
  1   1   2  1   
  2   2   3  ar  
  3   2   4  ar  
  4   3   5  ar  
  5   3  25  1   
  6   4   6  ar  
  7   4  26  1   
  8   5   7  ar  
  9   5   8  1   
 10   6   7  ar  
 11   6  27  1   
 12   7  28  1   
 13   8   9  1   
 14   8  29  1   
 15   8  30  1   
 16   9  10  1   
 17  10  11  1   
 18  10  31  1   
 19  10  32  1   
 20  11  12  1   
 21  11  33  1   
 22  11  34  1   
 23  12  13  1   
 24  12  35  1   
 25  12  36  1   
 26  13  14  1   
 27  13  37  1   
 28  14  15  ar  
 29  14  16  ar  
 30  15  17  ar  
 31  16  18  ar  
 32  16  38  1   
 33  17  19  ar  
 34  17  39  1   
 35  18  19  ar  
 36  18  40  1   
 37  19  20  1   
 38  20  21  2   
 39  20  22  am  
 40  22  23  1   
 41  22  24  1   
 42  23  41  1   
 43  23  42  1   
 44  23  43  1   
 45  24  44  1   
 46  24  45  1   
 47  24  46  1   
@<TRIPOS>SUBSTRUCTURE
  1 ****  12 GROUP 4 **** **** 0

# MOE 2024.06 (io_trps.svl 2023.06)
