@<TRIPOS>MOLECULE
NONAME
35 36 1 0 0 
SMALL
USER_CHARGES


@<TRIPOS>ATOM
  1 S       -0.9400    -0.0570    -0.6710 S.3   1 <1>  -0.0800 
  2 C       -0.7800    -1.2630     0.5610 C.2   1 <1>   0.4420 
  3 C        0.0240     0.9850     0.3220 C.2   1 <1>   0.1980 
  4 N       -0.0730    -0.8530     1.5520 N.2   1 <1>  -0.3380 
  5 N       -1.4070    -2.4650     0.3180 N.am  1 <1>  -0.4940 
  6 N        0.3810     0.4300     1.4100 N.2   1 <1>  -0.3380 
  7 C        0.3310     2.3990    -0.1660 C.3   1 <1>   0.3800 
  8 C       -1.5540    -3.5850     1.0960 C.2   1 <1>   0.5440 
  9 O       -0.8450     3.0950    -0.4650 O.3   1 <1>  -0.5600 
 10 C        1.1840     2.4020    -1.4340 C.3   1 <1>  -0.2400 
 11 O       -1.1500    -3.5600     2.2400 O.2   1 <1>  -0.5700 
 12 C       -2.1730    -4.7940     0.5680 C.ar  1 <1>   0.0860 
 13 C       -1.6270     3.4290     0.6420 C.3   1 <1>   0.0400 
 14 C       -2.9510    -4.8480    -0.6120 C.ar  1 <1>   0.0830 
 15 C       -1.9940    -5.9920     1.2680 C.ar  1 <1>  -0.1500 
 16 O       -3.1590    -3.7020    -1.3140 O.3   1 <1>  -0.3630 
 17 C       -3.5030    -6.0550    -1.0500 C.ar  1 <1>  -0.1500 
 18 C       -2.5520    -7.1640     0.8120 C.ar  1 <1>   0.1900 
 19 C       -4.0160    -3.6230    -2.4350 C.3   1 <1>   0.0400 
 20 C       -3.3070    -7.2230    -0.3400 C.ar  1 <1>  -0.1500 
 21 F       -2.3610    -8.2640     1.4920 F     1 <1>  -0.1900 
 22 H       -1.8860    -2.5340    -0.5800 H     1 <1>   0.3700 
 23 H        0.8530     2.9360     0.6080 H     1 <1>   0.0800 
 24 H        0.6590     1.9230    -2.2410 H     1 <1>   0.0800 
 25 H        2.1020     1.8720    -1.2550 H     1 <1>   0.0800 
 26 H        1.4180     3.4130    -1.7130 H     1 <1>   0.0800 
 27 H       -2.4770     3.9880     0.2930 H     1 <1>   0.0800 
 28 H       -1.0500     4.0340     1.3190 H     1 <1>   0.0800 
 29 H       -1.9660     2.5320     1.1320 H     1 <1>   0.0800 
 30 H       -1.4140    -6.0100     2.1750 H     1 <1>   0.1500 
 31 H       -4.0920    -6.1130    -1.9470 H     1 <1>   0.1500 
 32 H       -4.0450    -2.6000    -2.7660 H     1 <1>   0.0800 
 33 H       -5.0040    -3.9380    -2.1460 H     1 <1>   0.0800 
 34 H       -3.6280    -4.2470    -3.2210 H     1 <1>   0.0800 
 35 H       -3.7250    -8.1590    -0.6640 H     1 <1>   0.1500 
@<TRIPOS>BOND
  1   1   2  1   
  2   1   3  1   
  3   2   4  2   
  4   2   5  1   
  5   3   6  2   
  6   3   7  1   
  7   4   6  1   
  8   5   8  am  
  9   5  22  1   
 10   7   9  1   
 11   7  10  1   
 12   7  23  1   
 13   8  11  2   
 14   8  12  1   
 15   9  13  1   
 16  10  24  1   
 17  10  25  1   
 18  10  26  1   
 19  12  14  ar  
 20  12  15  ar  
 21  13  27  1   
 22  13  28  1   
 23  13  29  1   
 24  14  16  1   
 25  14  17  ar  
 26  15  18  ar  
 27  15  30  1   
 28  16  19  1   
 29  17  20  ar  
 30  17  31  1   
 31  18  20  ar  
 32  18  21  1   
 33  19  32  1   
 34  19  33  1   
 35  19  34  1   
 36  20  35  1   
@<TRIPOS>SUBSTRUCTURE
  1 ****   5 GROUP 4 **** **** 0

# MOE 2024.06 (io_trps.svl 2023.06)
