@<TRIPOS>MOLECULE
NONAME
51 53 1 0 0 
SMALL
USER_CHARGES


@<TRIPOS>ATOM
  1 O        0.1200     1.4250     0.8290 O.2   1 <1>  -0.5700 
  2 C       -0.2990     2.3600     0.1880 C.2   1 <1>   0.5690 
  3 N       -1.3030     3.1760     0.6280 N.am  1 <1>  -0.6600 
  4 C        0.3180     2.6520    -1.1830 C.3   1 <1>   0.1810 
  5 C       -1.6150     4.3920    -0.1860 C.3   1 <1>   0.3640 
  6 C       -1.9370     2.9950     1.9600 C.3   1 <1>   0.2200 
  7 O        0.5310     4.0270    -1.4430 O.3   1 <1>  -0.5600 
  8 C       -2.6650     4.1250    -1.2740 C.ar  1 <1>  -0.1440 
  9 C       -0.3100     4.9790    -0.7850 C.3   1 <1>   0.2610 
 10 C       -3.4600     3.0910     1.8620 C.3   1 <1>  -0.2400 
 11 C       -1.3700     4.0170     2.9440 C.3   1 <1>  -0.2400 
 12 C       -3.0760     2.8500    -1.6520 C.ar  1 <1>  -0.1500 
 13 C       -3.2430     5.2190    -1.9070 C.ar  1 <1>  -0.1500 
 14 C        0.4570     5.7010     0.3270 C.2   1 <1>   0.5690 
 15 C       -4.0230     2.6770    -2.6450 C.ar  1 <1>  -0.1500 
 16 C       -4.1910     5.0480    -2.9000 C.ar  1 <1>  -0.1500 
 17 O       -0.0660     6.6380     0.8890 O.2   1 <1>  -0.5700 
 18 N        1.7120     5.2950     0.6580 N.am  1 <1>  -0.7300 
 19 C       -4.5810     3.7750    -3.2720 C.ar  1 <1>  -0.1500 
 20 C        2.5390     5.8670     1.7330 C.3   1 <1>   0.2010 
 21 C        3.1150     7.2600     1.4240 C.2   1 <1>   0.5690 
 22 O        4.3300     7.4330     1.4190 O.2   1 <1>  -0.5700 
 23 N        2.2370     8.2640     1.1640 N.am  1 <1>  -0.5790 
 24 C        2.5660     9.6510     0.8200 C.3   1 <1>   0.0490 
 25 C        1.6060    10.7180     1.2280 C.3   1 <1>  -0.2000 
 26 C        1.7290    10.3260    -0.2140 C.3   1 <1>  -0.2000 
 27 H       -0.3320     2.2720    -1.9490 H     1 <1>   0.0800 
 28 H        1.2660     2.1530    -1.2640 H     1 <1>   0.0800 
 29 H       -2.0370     5.1390     0.4620 H     1 <1>   0.0800 
 30 H       -1.6950     2.0100     2.3270 H     1 <1>   0.0800 
 31 H       -0.5640     5.7200    -1.5190 H     1 <1>   0.0800 
 32 H       -3.7780     4.0740     1.5680 H     1 <1>   0.0800 
 33 H       -3.8970     2.8720     2.8200 H     1 <1>   0.0800 
 34 H       -3.8300     2.3700     1.1560 H     1 <1>   0.0800 
 35 H       -1.6420     5.0200     2.6750 H     1 <1>   0.0800 
 36 H       -0.2980     3.9330     2.9800 H     1 <1>   0.0800 
 37 H       -1.7530     3.8190     3.9290 H     1 <1>   0.0800 
 38 H       -2.6730     1.9720    -1.1790 H     1 <1>   0.1500 
 39 H       -2.9620     6.2210    -1.6320 H     1 <1>   0.1500 
 40 H       -4.3290     1.6840    -2.9290 H     1 <1>   0.1500 
 41 H       -4.6270     5.9050    -3.3840 H     1 <1>   0.1500 
 42 H        2.1140     4.5660     0.0840 H     1 <1>   0.3700 
 43 H       -5.3170     3.6400    -4.0450 H     1 <1>   0.1500 
 44 H        1.9370     5.9490     2.6390 H     1 <1>   0.0800 
 45 H        3.3740     5.1980     1.9430 H     1 <1>   0.0800 
 46 H        1.2380     8.0150     1.1140 H     1 <1>   0.3700 
 47 H        3.6240     9.8610     0.8510 H     1 <1>   0.1000 
 48 H        0.7230    10.4390     1.7740 H     1 <1>   0.1000 
 49 H        1.9980    11.6730     1.5310 H     1 <1>   0.1000 
 50 H        2.2030    11.0150    -0.8910 H     1 <1>   0.1000 
 51 H        0.9310     9.7720    -0.6760 H     1 <1>   0.1000 
@<TRIPOS>BOND
  1   1   2  2   
  2   2   3  am  
  3   2   4  1   
  4   3   5  1   
  5   3   6  1   
  6   4   7  1   
  7   4  27  1   
  8   4  28  1   
  9   5   8  1   
 10   5   9  1   
 11   5  29  1   
 12   6  10  1   
 13   6  11  1   
 14   6  30  1   
 15   7   9  1   
 16   8  12  ar  
 17   8  13  ar  
 18   9  14  1   
 19   9  31  1   
 20  10  32  1   
 21  10  33  1   
 22  10  34  1   
 23  11  35  1   
 24  11  36  1   
 25  11  37  1   
 26  12  15  ar  
 27  12  38  1   
 28  13  16  ar  
 29  13  39  1   
 30  14  17  2   
 31  14  18  am  
 32  15  19  ar  
 33  15  40  1   
 34  16  19  ar  
 35  16  41  1   
 36  18  20  1   
 37  18  42  1   
 38  19  43  1   
 39  20  21  1   
 40  20  44  1   
 41  20  45  1   
 42  21  22  2   
 43  21  23  am  
 44  23  24  1   
 45  23  46  1   
 46  24  25  1   
 47  24  26  1   
 48  24  47  1   
 49  25  26  1   
 50  25  48  1   
 51  25  49  1   
 52  26  50  1   
 53  26  51  1   
@<TRIPOS>SUBSTRUCTURE
  1 ****   9 GROUP 4 **** **** 0

# MOE 2024.06 (io_trps.svl 2023.06)
