@<TRIPOS>MOLECULE
NONAME
41 43 1 0 0 
SMALL
USER_CHARGES


@<TRIPOS>ATOM
  1 O       -0.7240    -5.3420     1.1360 O.3   1 <1>  -0.5600 
  2 C        0.2370    -4.5820     0.4780 C.3   1 <1>   0.1200 
  3 C       -2.0330    -5.0350     0.7700 C.3   1 <1>   0.0400 
  4 C        1.5980    -5.1990     0.7910 C.3   1 <1>   0.0960 
  5 N        2.6700    -4.6140    -0.0450 N.pl3 1 <1>   0.0480 
  6 C        2.8950    -4.6650    -1.3680 C.2   1 <1>   0.0060 
  7 C        3.7220    -3.9260     0.4010 C.2   1 <1>   0.0360 
  8 N        3.9880    -4.0550    -1.6800 N.2   1 <1>  -0.3380 
  9 C        1.9980    -5.3260    -2.4070 C.3   1 <1>   0.3890 
 10 N        4.5150    -3.5830    -0.5520 N.2   1 <1>  -0.3380 
 11 N        1.4720    -6.6510    -1.9350 N.pl3 1 <1>  -0.8220 
 12 C        0.0970    -6.9420    -2.0650 C.2   1 <1>   0.2700 
 13 C        2.4890    -7.7420    -1.8680 C.3   1 <1>   0.1290 
 14 N       -0.7230    -6.2070    -2.7330 N.2   1 <1>  -0.3380 
 15 N       -0.5860    -7.9740    -1.5230 N.pl3 1 <1>   0.5930 
 16 N       -1.9160    -6.7830    -2.6200 N.2   1 <1>   0.0000 
 17 N       -1.8540    -7.8370    -1.9010 N.2   1 <1>  -0.4180 
 18 C       -0.1280    -9.0230    -0.6830 C.ar  1 <1>  -0.0230 
 19 C        0.0230    -8.8200     0.6850 C.ar  1 <1>  -0.1500 
 20 C        0.1860   -10.2700    -1.2170 C.ar  1 <1>  -0.1500 
 21 C        0.4950    -9.8350     1.4980 C.ar  1 <1>  -0.1500 
 22 C        0.6570   -11.2840    -0.4040 C.ar  1 <1>  -0.1500 
 23 C        0.8140   -11.0670     0.9540 C.ar  1 <1>  -0.1500 
 24 H        0.1800    -3.5680     0.8360 H     1 <1>   0.0800 
 25 H        0.0330    -4.6130    -0.5780 H     1 <1>   0.0800 
 26 H       -2.6960    -5.6710     1.3290 H     1 <1>   0.0800 
 27 H       -2.1630    -5.2180    -0.2830 H     1 <1>   0.0800 
 28 H       -2.2360    -4.0040     1.0030 H     1 <1>   0.0800 
 29 H        1.5670    -6.2570     0.6100 H     1 <1>   0.0800 
 30 H        1.8320    -5.0360     1.8260 H     1 <1>   0.0800 
 31 H        3.8790    -3.6940     1.4380 H     1 <1>   0.1500 
 32 H        2.5560    -5.4690    -3.3160 H     1 <1>   0.0800 
 33 H        1.1920    -4.6500    -2.6290 H     1 <1>   0.0800 
 34 H        3.4620    -7.3740    -2.1510 H     1 <1>   0.0800 
 35 H        2.2180    -8.5420    -2.5360 H     1 <1>   0.0800 
 36 H        2.5500    -8.1250    -0.8640 H     1 <1>   0.0800 
 37 H       -0.2330    -7.8680     1.1180 H     1 <1>   0.1500 
 38 H        0.0580   -10.4490    -2.2720 H     1 <1>   0.1500 
 39 H        0.6080    -9.6690     2.5560 H     1 <1>   0.1500 
 40 H        0.8980   -12.2460    -0.8240 H     1 <1>   0.1500 
 41 H        1.1790   -11.8570     1.5880 H     1 <1>   0.1500 
@<TRIPOS>BOND
  1   1   2  1   
  2   1   3  1   
  3   2   4  1   
  4   2  24  1   
  5   2  25  1   
  6   3  26  1   
  7   3  27  1   
  8   3  28  1   
  9   4   5  1   
 10   4  29  1   
 11   4  30  1   
 12   5   6  1   
 13   5   7  1   
 14   6   8  2   
 15   6   9  1   
 16   7  10  2   
 17   7  31  1   
 18   8  10  1   
 19   9  11  1   
 20   9  32  1   
 21   9  33  1   
 22  11  12  1   
 23  11  13  1   
 24  12  14  2   
 25  12  15  1   
 26  13  34  1   
 27  13  35  1   
 28  13  36  1   
 29  14  16  1   
 30  15  17  1   
 31  15  18  1   
 32  16  17  2   
 33  18  19  ar  
 34  18  20  ar  
 35  19  21  ar  
 36  19  37  1   
 37  20  22  ar  
 38  20  38  1   
 39  21  23  ar  
 40  21  39  1   
 41  22  23  ar  
 42  22  40  1   
 43  23  41  1   
@<TRIPOS>SUBSTRUCTURE
  1 ****  11 GROUP 4 **** **** 0

# MOE 2024.06 (io_trps.svl 2023.06)
