@<TRIPOS>MOLECULE
NONAME
59 62 1 0 0 
SMALL
USER_CHARGES


@<TRIPOS>ATOM
  1 O       -0.3140     0.3800    -0.4550 O.2   1 <1>  -0.5700 
  2 C       -1.3320     0.9810    -0.1650 C.2   1 <1>   0.5440 
  3 N       -2.4920     0.2590     0.0150 N.am  1 <1>  -0.6600 
  4 C       -1.3060     2.4240    -0.0370 C.ar  1 <1>   0.0860 
  5 C       -3.8600     0.8260    -0.0920 C.3   1 <1>   0.1400 
  6 C       -2.5290    -1.2180    -0.1220 C.3   1 <1>   0.1400 
  7 C       -0.6980     3.2170    -1.0120 C.ar  1 <1>  -0.1500 
  8 C       -1.8750     3.0810     1.0560 C.ar  1 <1>  -0.1500 
  9 C       -4.7540    -0.3620    -0.4460 C.3   1 <1>   0.2000 
 10 C       -4.0020    -1.5980     0.0390 C.3   1 <1>  -0.0800 
 11 C       -0.6810     4.5940    -0.9130 C.ar  1 <1>  -0.1500 
 12 C       -1.8590     4.4580     1.1560 C.ar  1 <1>  -0.1500 
 13 O       -5.9880    -0.2790     0.1830 O.3   1 <1>  -0.6800 
 14 C       -4.4040    -2.8750    -0.7180 C.3   1 <1>  -0.0170 
 15 C       -1.2650     5.2380     0.1720 C.ar  1 <1>   0.1000 
 16 C       -3.6570    -4.0880    -0.1920 C.ar  1 <1>   0.1670 
 17 N       -1.2590     6.6200     0.2810 N.pl3 1 <1>  -0.8380 
 18 N       -2.4990    -4.3500    -0.7150 N.ar  1 <1>  -0.6200 
 19 C       -4.2400    -4.8550     0.8290 C.ar  1 <1>  -0.1500 
 20 C       -2.5330     7.3700     0.1700 C.3   1 <1>   0.2090 
 21 C        0.0110     7.3810     0.1890 C.3   1 <1>   0.2090 
 22 C       -1.8170    -5.4230    -0.2390 C.ar  1 <1>   0.3100 
 23 C       -3.5810    -5.9400     1.3230 C.ar  1 <1>  -0.1500 
 24 C       -2.8560     7.6090    -1.3020 C.3   1 <1>  -0.2400 
 25 C        0.3450     7.9470     1.5640 C.3   1 <1>  -0.2400 
 26 C       -2.3220    -6.2540     0.7850 C.ar  1 <1>   0.0000 
 27 C       -0.5570    -5.7220    -0.7810 C.ar  1 <1>  -0.1500 
 28 C       -1.5500    -7.3490     1.2220 C.ar  1 <1>  -0.1500 
 29 C        0.1790    -6.7910    -0.3430 C.ar  1 <1>  -0.1500 
 30 C       -0.3250    -7.6140     0.6700 C.ar  1 <1>  -0.1500 
 31 H       -4.1430     1.2480     0.8560 H     1 <1>   0.0800 
 32 H       -3.9000     1.5780    -0.8620 H     1 <1>   0.0800 
 33 H       -2.1640    -1.4910    -1.0990 H     1 <1>   0.0800 
 34 H       -1.9120    -1.6880     0.6250 H     1 <1>   0.0800 
 35 H       -0.2360     2.7330    -1.8550 H     1 <1>   0.1500 
 36 H       -2.3270     2.4970     1.8370 H     1 <1>   0.1500 
 37 H       -4.9150    -0.3930    -1.5110 H     1 <1>   0.0800 
 38 H       -4.1790    -1.7370     1.0910 H     1 <1>   0.0800 
 39 H       -0.2190     5.1860    -1.6810 H     1 <1>   0.1500 
 40 H       -2.2970     4.9500     2.0040 H     1 <1>   0.1500 
 41 H       -5.8730    -0.2590     1.1520 H     1 <1>   0.4000 
 42 H       -4.1920    -2.7610    -1.7670 H     1 <1>   0.0800 
 43 H       -5.4630    -3.0340    -0.6180 H     1 <1>   0.0800 
 44 H       -5.2050    -4.5760     1.2110 H     1 <1>   0.1500 
 45 H       -3.3250     6.7980     0.6230 H     1 <1>   0.0800 
 46 H       -2.4530     8.3070     0.6930 H     1 <1>   0.0800 
 47 H        0.8050     6.7260    -0.1260 H     1 <1>   0.0800 
 48 H       -0.0830     8.1740    -0.5320 H     1 <1>   0.0800 
 49 H       -3.9950    -6.5520     2.1030 H     1 <1>   0.1500 
 50 H       -2.9370     6.6680    -1.8160 H     1 <1>   0.0800 
 51 H       -2.0920     8.2050    -1.7640 H     1 <1>   0.0800 
 52 H       -3.7930     8.1270    -1.3860 H     1 <1>   0.0800 
 53 H        0.4280     7.1460     2.2760 H     1 <1>   0.0800 
 54 H       -0.4170     8.6330     1.8850 H     1 <1>   0.0800 
 55 H        1.2830     8.4700     1.5220 H     1 <1>   0.0800 
 56 H       -0.1880    -5.0770    -1.5570 H     1 <1>   0.1500 
 57 H       -1.9420    -7.9770     2.0020 H     1 <1>   0.1500 
 58 H        1.1440    -7.0080    -0.7680 H     1 <1>   0.1500 
 59 H        0.2630    -8.4510     1.0060 H     1 <1>   0.1500 
@<TRIPOS>BOND
  1   1   2  2   
  2   2   3  am  
  3   2   4  1   
  4   3   5  1   
  5   3   6  1   
  6   4   7  ar  
  7   4   8  ar  
  8   5   9  1   
  9   5  31  1   
 10   5  32  1   
 11   6  10  1   
 12   6  33  1   
 13   6  34  1   
 14   7  11  ar  
 15   7  35  1   
 16   8  12  ar  
 17   8  36  1   
 18   9  10  1   
 19   9  13  1   
 20   9  37  1   
 21  10  14  1   
 22  10  38  1   
 23  11  15  ar  
 24  11  39  1   
 25  12  15  ar  
 26  12  40  1   
 27  13  41  1   
 28  14  16  1   
 29  14  42  1   
 30  14  43  1   
 31  15  17  1   
 32  16  18  ar  
 33  16  19  ar  
 34  17  20  1   
 35  17  21  1   
 36  18  22  ar  
 37  19  23  ar  
 38  19  44  1   
 39  20  24  1   
 40  20  45  1   
 41  20  46  1   
 42  21  25  1   
 43  21  47  1   
 44  21  48  1   
 45  22  26  ar  
 46  22  27  ar  
 47  23  26  ar  
 48  23  49  1   
 49  24  50  1   
 50  24  51  1   
 51  24  52  1   
 52  25  53  1   
 53  25  54  1   
 54  25  55  1   
 55  26  28  ar  
 56  27  29  ar  
 57  27  56  1   
 58  28  30  ar  
 59  28  57  1   
 60  29  30  ar  
 61  29  58  1   
 62  30  59  1   
@<TRIPOS>SUBSTRUCTURE
  1 ****   3 GROUP 4 **** **** 0

# MOE 2024.06 (io_trps.svl 2023.06)
