@<TRIPOS>MOLECULE
NONAME
48 49 1 0 0 
SMALL
USER_CHARGES


@<TRIPOS>ATOM
  1 S       -1.1480     0.7430     0.8600 S.o2  1 <1>   1.4470 
  2 O       -2.0880     1.7990     0.5430 O.2   1 <1>  -0.6500 
  3 O       -0.8900     0.4780     2.2620 O.2   1 <1>  -0.6500 
  4 N       -1.7580    -0.6970     0.2080 N.am  1 <1>  -0.8490 
  5 C        0.4190     1.0720     0.0010 C.ar  1 <1>  -0.0090 
  6 C       -0.9440    -1.8740     0.5830 C.3   1 <1>   0.1960 
  7 C       -3.1840    -0.8590     0.4700 C.3   1 <1>   0.1960 
  8 C        1.3730     1.9020     0.5770 C.ar  1 <1>  -0.1500 
  9 C        0.7070     0.5350    -1.2460 C.ar  1 <1>  -0.1500 
 10 C       -1.4200    -3.2030    -0.0450 C.3   1 <1>  -0.1060 
 11 C       -3.7160    -2.1080    -0.2290 C.3   1 <1>  -0.1600 
 12 C        2.5780     2.1870    -0.0490 C.ar  1 <1>  -0.1440 
 13 C        1.9040     0.8020    -1.8810 C.ar  1 <1>  -0.1500 
 14 C       -1.1540    -3.1810    -1.5580 C.2   1 <1>   0.9060 
 15 C       -2.9430    -3.3580     0.1910 C.3   1 <1>   0.2000 
 16 C       -0.6640    -4.4110     0.5960 C.3   1 <1>  -0.1600 
 17 C        2.8480     1.6280    -1.2930 C.ar  1 <1>  -0.1440 
 18 C        3.5760     3.1040     0.6440 C.3   1 <1>  -0.0960 
 19 O       -0.1590    -2.5910    -2.0030 O.co2 1 <1>  -0.9000 
 20 O       -1.9120    -3.8010    -2.3160 O.co2 1 <1>  -0.9000 
 21 O       -3.2140    -3.5630     1.5430 O.3   1 <1>  -0.6800 
 22 C        0.8630    -4.4140     0.4010 C.3   1 <1>  -0.1600 
 23 C        4.1540     1.8960    -2.0260 C.3   1 <1>  -0.0970 
 24 C        1.5000    -5.6320     1.0750 C.3   1 <1>  -0.2400 
 25 H        0.0760    -1.6990     0.2870 H     1 <1>   0.0800 
 26 H       -0.9510    -1.9770     1.6540 H     1 <1>   0.0800 
 27 H       -3.3580    -0.9170     1.5310 H     1 <1>   0.0800 
 28 H       -3.7190    -0.0040     0.0900 H     1 <1>   0.0800 
 29 H        1.1590     2.3300     1.5410 H     1 <1>   0.1500 
 30 H       -0.0070    -0.1140    -1.7310 H     1 <1>   0.1500 
 31 H       -3.6260    -1.9750    -1.2930 H     1 <1>   0.0800 
 32 H       -4.7600    -2.2410    -0.0120 H     1 <1>   0.0800 
 33 H        2.0860     0.3480    -2.8400 H     1 <1>   0.1500 
 34 H       -3.3170    -4.2160    -0.3420 H     1 <1>   0.0800 
 35 H       -0.8640    -4.4500     1.6510 H     1 <1>   0.0800 
 36 H       -1.0600    -5.3130     0.1610 H     1 <1>   0.0800 
 37 H        3.1970     3.4420     1.5910 H     1 <1>   0.0800 
 38 H        3.7690     3.9660     0.0310 H     1 <1>   0.0800 
 39 H        4.4980     2.5800     0.8160 H     1 <1>   0.0800 
 40 H       -2.7670    -2.8680     2.0590 H     1 <1>   0.4000 
 41 H        1.0970    -4.4370    -0.6510 H     1 <1>   0.0800 
 42 H        1.2970    -3.5200     0.8130 H     1 <1>   0.0800 
 43 H        4.1770     1.3790    -2.9680 H     1 <1>   0.0800 
 44 H        4.9830     1.5540    -1.4340 H     1 <1>   0.0800 
 45 H        4.2620     2.9480    -2.2140 H     1 <1>   0.0800 
 46 H        1.1020    -6.5390     0.6540 H     1 <1>   0.0800 
 47 H        1.3040    -5.6220     2.1330 H     1 <1>   0.0800 
 48 H        2.5640    -5.6210     0.9200 H     1 <1>   0.0800 
@<TRIPOS>BOND
  1   1   2  2   
  2   1   3  2   
  3   1   4  am  
  4   1   5  1   
  5   4   6  1   
  6   4   7  1   
  7   5   8  ar  
  8   5   9  ar  
  9   6  10  1   
 10   6  25  1   
 11   6  26  1   
 12   7  11  1   
 13   7  27  1   
 14   7  28  1   
 15   8  12  ar  
 16   8  29  1   
 17   9  13  ar  
 18   9  30  1   
 19  10  14  1   
 20  10  15  1   
 21  10  16  1   
 22  11  15  1   
 23  11  31  1   
 24  11  32  1   
 25  12  17  ar  
 26  12  18  1   
 27  13  17  ar  
 28  13  33  1   
 29  14  19  ar  
 30  14  20  ar  
 31  15  21  1   
 32  15  34  1   
 33  16  22  1   
 34  16  35  1   
 35  16  36  1   
 36  17  23  1   
 37  18  37  1   
 38  18  38  1   
 39  18  39  1   
 40  21  40  1   
 41  22  24  1   
 42  22  41  1   
 43  22  42  1   
 44  23  43  1   
 45  23  44  1   
 46  23  45  1   
 47  24  46  1   
 48  24  47  1   
 49  24  48  1   
@<TRIPOS>SUBSTRUCTURE
  1 ****   6 GROUP 4 **** **** 0

# MOE 2024.06 (io_trps.svl 2023.06)
