@<TRIPOS>MOLECULE
NONAME
46 48 1 0 0 
SMALL
USER_CHARGES


@<TRIPOS>ATOM
  1 S        0.5590    -0.0670    -1.2090 S.o2  1 <1>   1.3330 
  2 O       -0.1230     0.0340    -2.4790 O.2   1 <1>  -0.6500 
  3 O        1.8460    -0.7250    -1.1420 O.2   1 <1>  -0.6500 
  4 N       -0.4960    -0.8810    -0.1530 N.am  1 <1>  -0.8490 
  5 C        0.6940     1.5750    -0.4830 C.3   1 <1>  -0.0550 
  6 C       -1.9140    -0.6150    -0.4230 C.3   1 <1>   0.1160 
  7 C       -0.2600    -2.3290    -0.1410 C.3   1 <1>   0.1160 
  8 C        1.6660     1.7560     0.7050 C.3   1 <1>  -0.0800 
  9 C        3.1390     1.6140     0.3130 C.3   1 <1>   0.2200 
 10 C        1.5050     0.7940     1.8870 C.3   1 <1>   0.1200 
 11 N        3.8280     2.9090     0.5090 N.am  1 <1>  -0.7300 
 12 C        3.6630     0.5640     1.2910 C.3   1 <1>   0.1200 
 13 O        2.7920     0.6050     2.3750 O.3   1 <1>  -0.5600 
 14 C        3.8760     3.9340    -0.3970 C.2   1 <1>   0.5440 
 15 O        3.2710     3.7870    -1.4460 O.2   1 <1>  -0.5700 
 16 C        4.6130     5.1650    -0.1020 C.ar  1 <1>   0.3960 
 17 N        5.2180     5.2890     1.1210 N.ar  1 <1>  -0.6200 
 18 C        4.6990     6.1790    -1.0280 C.ar  1 <1>  -0.1500 
 19 C        5.8670     6.3850     1.3700 C.ar  1 <1>   0.1600 
 20 C        5.3960     7.3680    -0.7730 C.ar  1 <1>   0.0000 
 21 C        6.0080     7.4740     0.4840 C.ar  1 <1>   0.0000 
 22 C        5.5120     8.4320    -1.6870 C.ar  1 <1>  -0.1500 
 23 C        6.7230     8.6480     0.7930 C.ar  1 <1>  -0.1500 
 24 C        6.2110     9.5630    -1.3640 C.ar  1 <1>  -0.1500 
 25 C        6.8230     9.6720    -0.1100 C.ar  1 <1>  -0.1500 
 26 H        1.0120     2.2530    -1.2540 H     1 <1>   0.0800 
 27 H       -0.2810     1.8960    -0.1770 H     1 <1>   0.0800 
 28 H       -2.5270    -1.0760     0.3320 H     1 <1>   0.0800 
 29 H       -2.1940    -1.0050    -1.3880 H     1 <1>   0.0800 
 30 H       -2.1030     0.4450    -0.4130 H     1 <1>   0.0800 
 31 H       -0.9380    -2.8130     0.5410 H     1 <1>   0.0800 
 32 H        0.7460    -2.5370     0.1830 H     1 <1>   0.0800 
 33 H       -0.3970    -2.7380    -1.1280 H     1 <1>   0.0800 
 34 H        1.5040     2.7480     1.0910 H     1 <1>   0.0800 
 35 H        3.2800     1.2860    -0.7030 H     1 <1>   0.0800 
 36 H        1.1350    -0.1720     1.5970 H     1 <1>   0.0800 
 37 H        0.8890     1.2010     2.6700 H     1 <1>   0.0800 
 38 H        4.2400     3.0700     1.4340 H     1 <1>   0.3700 
 39 H        4.6670     0.7600     1.6220 H     1 <1>   0.0800 
 40 H        3.6020    -0.4190     0.8560 H     1 <1>   0.0800 
 41 H        4.2190     6.0670    -1.9830 H     1 <1>   0.1500 
 42 H        6.3410     6.4780     2.3320 H     1 <1>   0.1500 
 43 H        5.0390     8.3410    -2.6490 H     1 <1>   0.1500 
 44 H        7.1920     8.7310     1.7570 H     1 <1>   0.1500 
 45 H        6.3000    10.3770    -2.0630 H     1 <1>   0.1500 
 46 H        7.3700    10.5690     0.1280 H     1 <1>   0.1500 
@<TRIPOS>BOND
  1   1   2  2   
  2   1   3  2   
  3   1   4  am  
  4   1   5  1   
  5   4   6  1   
  6   4   7  1   
  7   5   8  1   
  8   5  26  1   
  9   5  27  1   
 10   6  28  1   
 11   6  29  1   
 12   6  30  1   
 13   7  31  1   
 14   7  32  1   
 15   7  33  1   
 16   8   9  1   
 17   8  10  1   
 18   8  34  1   
 19   9  11  1   
 20   9  12  1   
 21   9  35  1   
 22  10  13  1   
 23  10  36  1   
 24  10  37  1   
 25  11  14  am  
 26  11  38  1   
 27  12  13  1   
 28  12  39  1   
 29  12  40  1   
 30  14  15  2   
 31  14  16  1   
 32  16  17  ar  
 33  16  18  ar  
 34  17  19  ar  
 35  18  20  ar  
 36  18  41  1   
 37  19  21  ar  
 38  19  42  1   
 39  20  21  ar  
 40  20  22  ar  
 41  21  23  ar  
 42  22  24  ar  
 43  22  43  1   
 44  23  25  ar  
 45  23  44  1   
 46  24  25  ar  
 47  24  45  1   
 48  25  46  1   
@<TRIPOS>SUBSTRUCTURE
  1 ****  14 GROUP 4 **** **** 0

# MOE 2024.06 (io_trps.svl 2023.06)
