@<TRIPOS>MOLECULE
NONAME
50 53 1 0 0 
SMALL
USER_CHARGES


@<TRIPOS>ATOM
  1 O       -1.2420    -0.8350    -0.0440 O.co2 1 <1>  -0.9000 
  2 C       -0.6680    -1.7450     0.5780 C.2   1 <1>   1.0330 
  3 O       -1.0540    -2.0140     1.7290 O.co2 1 <1>  -0.9000 
  4 C        0.3470    -2.5190    -0.0530 C.2   1 <1>  -0.2330 
  5 C        0.1770    -3.8190    -0.5290 C.2   1 <1>   0.3720 
  6 C        1.6480    -2.2410    -0.3270 C.2   1 <1>   0.0870 
  7 N        1.2710    -4.2790    -1.0230 N.2   1 <1>  -0.4100 
  8 N       -0.9910    -4.5860    -0.4860 N.pl3 1 <1>  -0.8210 
  9 O        2.1450    -3.3150    -0.8970 O.3   1 <1>  -0.0190 
 10 C        2.4890    -1.0870    -0.1060 C.ar  1 <1>   0.0530 
 11 C       -1.2600    -5.1190     0.8690 C.3   1 <1>   0.2090 
 12 C       -2.1920    -3.9140    -1.0450 C.3   1 <1>   0.2090 
 13 C        1.9670     0.1970     0.0490 C.ar  1 <1>  -0.1500 
 14 C        3.8780    -1.2190    -0.0410 C.ar  1 <1>  -0.1500 
 15 C       -2.3260    -6.2150     0.7920 C.3   1 <1>  -0.0800 
 16 C       -3.2840    -4.9630    -1.2350 C.3   1 <1>  -0.1600 
 17 C        2.7840     1.2920     0.2620 C.ar  1 <1>  -0.1500 
 18 C        4.7030    -0.1290     0.1700 C.ar  1 <1>  -0.1500 
 19 C       -3.6000    -5.7380     0.0590 C.3   1 <1>   0.2800 
 20 C       -1.7700    -7.4760     0.1220 C.3   1 <1>   0.1400 
 21 C        4.1570     1.1320     0.3230 C.ar  1 <1>  -0.1500 
 22 O       -4.2520    -4.8670     0.9130 O.3   1 <1>  -0.6800 
 23 C       -4.5750    -6.8980    -0.2450 C.3   1 <1>  -0.1600 
 24 N       -2.7900    -8.5750     0.0970 N.am  1 <1>  -0.6600 
 25 C       -4.1920    -8.2010     0.4600 C.3   1 <1>   0.1400 
 26 C       -2.4810    -9.8600    -0.2620 C.2   1 <1>   0.5690 
 27 O       -3.2950   -10.7510    -0.2490 O.2   1 <1>  -0.5700 
 28 C       -1.0750   -10.2100    -0.6960 C.3   1 <1>  -0.1790 
 29 H       -0.3500    -5.5110     1.2910 H     1 <1>   0.0800 
 30 H       -1.6050    -4.3300     1.5130 H     1 <1>   0.0800 
 31 H       -2.5450    -3.1450    -0.3790 H     1 <1>   0.0800 
 32 H       -1.9440    -3.4560    -1.9880 H     1 <1>   0.0800 
 33 H        0.9030     0.3490    -0.0030 H     1 <1>   0.1500 
 34 H        4.3170    -2.1940    -0.1560 H     1 <1>   0.1500 
 35 H       -2.5760    -6.4790     1.8040 H     1 <1>   0.0800 
 36 H       -2.9380    -5.6470    -1.9890 H     1 <1>   0.0800 
 37 H       -4.1760    -4.4950    -1.6090 H     1 <1>   0.0800 
 38 H        2.3460     2.2680     0.3790 H     1 <1>   0.1500 
 39 H        5.7700    -0.2620     0.2160 H     1 <1>   0.1500 
 40 H       -0.8990    -7.8060     0.6610 H     1 <1>   0.0800 
 41 H       -1.4720    -7.2440    -0.8870 H     1 <1>   0.0800 
 42 H        4.7930     1.9840     0.4890 H     1 <1>   0.1500 
 43 H       -3.6790    -4.0910     1.0910 H     1 <1>   0.4000 
 44 H       -5.5790    -6.6250     0.0260 H     1 <1>   0.0800 
 45 H       -4.5810    -7.1100    -1.2980 H     1 <1>   0.0800 
 46 H       -4.8770    -8.9790     0.1670 H     1 <1>   0.0800 
 47 H       -4.2650    -8.0810     1.5270 H     1 <1>   0.0800 
 48 H       -0.7690    -9.5710    -1.5020 H     1 <1>   0.0800 
 49 H       -1.0450   -11.2290    -1.0340 H     1 <1>   0.0800 
 50 H       -0.4020   -10.1020     0.1320 H     1 <1>   0.0800 
@<TRIPOS>BOND
  1   1   2  ar  
  2   2   3  ar  
  3   2   4  1   
  4   4   5  1   
  5   4   6  2   
  6   5   7  2   
  7   5   8  1   
  8   6   9  1   
  9   6  10  1   
 10   7   9  1   
 11   8  11  1   
 12   8  12  1   
 13  10  13  ar  
 14  10  14  ar  
 15  11  15  1   
 16  11  29  1   
 17  11  30  1   
 18  12  16  1   
 19  12  31  1   
 20  12  32  1   
 21  13  17  ar  
 22  13  33  1   
 23  14  18  ar  
 24  14  34  1   
 25  15  19  1   
 26  15  20  1   
 27  15  35  1   
 28  16  19  1   
 29  16  36  1   
 30  16  37  1   
 31  17  21  ar  
 32  17  38  1   
 33  18  21  ar  
 34  18  39  1   
 35  19  22  1   
 36  19  23  1   
 37  20  24  1   
 38  20  40  1   
 39  20  41  1   
 40  21  42  1   
 41  22  43  1   
 42  23  25  1   
 43  23  44  1   
 44  23  45  1   
 45  24  25  1   
 46  24  26  am  
 47  25  46  1   
 48  25  47  1   
 49  26  27  2   
 50  26  28  1   
 51  28  48  1   
 52  28  49  1   
 53  28  50  1   
@<TRIPOS>SUBSTRUCTURE
  1 ****   8 GROUP 4 **** **** 0

# MOE 2024.06 (io_trps.svl 2023.06)
