@<TRIPOS>MOLECULE
NONAME
42 45 1 0 0 
SMALL
USER_CHARGES


@<TRIPOS>ATOM
  1 O        0.3420     0.5950     0.4000 O.3   1 <1>  -0.0190 
  2 N        1.2220    -0.3610     0.3160 N.2   1 <1>  -0.4100 
  3 C        0.8230     1.7410    -0.0020 C.2   1 <1>  -0.0400 
  4 C        2.2900     0.1790    -0.1500 C.2   1 <1>   0.1080 
  5 C        2.0960     1.5380    -0.3790 C.2   1 <1>  -0.1500 
  6 C       -0.0790     2.9640     0.0290 C.3   1 <1>   0.0200 
  7 C        3.5780    -0.5690    -0.4100 C.3   1 <1>  -0.0590 
  8 C        0.6540     4.2650    -0.3460 C.3   1 <1>  -0.0800 
  9 C       -0.2500     5.4940    -0.5000 C.3   1 <1>   0.2000 
 10 C        1.6900     4.7020     0.6890 C.3   1 <1>   0.2090 
 11 O       -1.2260     5.4630     0.5050 O.3   1 <1>  -0.5600 
 12 C        0.7030     6.6840    -0.2940 C.3   1 <1>   0.2090 
 13 N        1.8810     6.1430     0.4260 N.pl3 1 <1>  -0.8220 
 14 C       -2.3330     6.2800     0.2860 C.3   1 <1>   0.0400 
 15 C        3.1270     6.7120     0.3290 C.2   1 <1>   0.5620 
 16 O        3.2290     7.9580    -0.1190 O.3   1 <1>  -0.2800 
 17 N        4.2460     6.1450     0.6300 N.2   1 <1>  -0.5650 
 18 C        4.5200     8.2260    -0.1020 C.ar  1 <1>   0.1400 
 19 C        5.1620     7.1060     0.3630 C.ar  1 <1>   0.2270 
 20 C        5.1990     9.3800    -0.4630 C.ar  1 <1>  -0.1500 
 21 C        6.5470     7.1080     0.4840 C.ar  1 <1>  -0.1500 
 22 C        6.5770     9.3800    -0.3420 C.ar  1 <1>  -0.1500 
 23 C        7.2480     8.2480     0.1300 C.ar  1 <1>  -0.1500 
 24 H        2.8270     2.2220    -0.7690 H     1 <1>   0.1500 
 25 H       -0.8920     2.8030    -0.6560 H     1 <1>   0.0800 
 26 H       -0.4990     3.0550     1.0160 H     1 <1>   0.0800 
 27 H        3.8460    -0.4840    -1.4460 H     1 <1>   0.0800 
 28 H        3.4540    -1.6080    -0.1650 H     1 <1>   0.0800 
 29 H        4.3650    -0.1590     0.1960 H     1 <1>   0.0800 
 30 H        1.1670     4.1190    -1.2790 H     1 <1>   0.0800 
 31 H       -0.7340     5.5150    -1.4610 H     1 <1>   0.0800 
 32 H        2.6100     4.1530     0.5950 H     1 <1>   0.0800 
 33 H        1.3030     4.5820     1.6870 H     1 <1>   0.0800 
 34 H        0.2430     7.4700     0.2780 H     1 <1>   0.0800 
 35 H        1.0190     7.0690    -1.2480 H     1 <1>   0.0800 
 36 H       -2.9990     6.1680     1.1240 H     1 <1>   0.0800 
 37 H       -2.8320     5.9700    -0.6150 H     1 <1>   0.0800 
 38 H       -2.0180     7.3060     0.2130 H     1 <1>   0.0800 
 39 H        4.6570    10.2350    -0.8210 H     1 <1>   0.1500 
 40 H        7.0410     6.2270     0.8500 H     1 <1>   0.1500 
 41 H        7.1420    10.2560    -0.6110 H     1 <1>   0.1500 
 42 H        8.3210     8.2680     0.2180 H     1 <1>   0.1500 
@<TRIPOS>BOND
  1   1   2  1   
  2   1   3  1   
  3   2   4  2   
  4   3   5  2   
  5   3   6  1   
  6   4   5  1   
  7   4   7  1   
  8   5  24  1   
  9   6   8  1   
 10   6  25  1   
 11   6  26  1   
 12   7  27  1   
 13   7  28  1   
 14   7  29  1   
 15   8   9  1   
 16   8  10  1   
 17   8  30  1   
 18   9  11  1   
 19   9  12  1   
 20   9  31  1   
 21  10  13  1   
 22  10  32  1   
 23  10  33  1   
 24  11  14  1   
 25  12  13  1   
 26  12  34  1   
 27  12  35  1   
 28  13  15  1   
 29  14  36  1   
 30  14  37  1   
 31  14  38  1   
 32  15  16  1   
 33  15  17  2   
 34  16  18  1   
 35  17  19  1   
 36  18  19  ar  
 37  18  20  ar  
 38  19  21  ar  
 39  20  22  ar  
 40  20  39  1   
 41  21  23  ar  
 42  21  40  1   
 43  22  23  ar  
 44  22  41  1   
 45  23  42  1   
@<TRIPOS>SUBSTRUCTURE
  1 ****  10 GROUP 4 **** **** 0

# MOE 2024.06 (io_trps.svl 2023.06)
