@<TRIPOS>MOLECULE
NONAME
49 51 1 0 0 
SMALL
USER_CHARGES


@<TRIPOS>ATOM
  1 O       -0.8040     1.2960    -1.2390 O.2   1 <1>  -0.5700 
  2 C       -1.8780     1.2830    -0.6700 C.2   1 <1>   0.5440 
  3 N       -2.6210     0.1140    -0.6820 N.am  1 <1>  -0.6600 
  4 C       -2.3220     2.4990    -0.0140 C.ar  1 <1>   0.0860 
  5 C       -4.0950     0.0100    -0.9050 C.3   1 <1>   0.2200 
  6 C       -1.9090    -1.1860    -0.8440 C.3   1 <1>   0.0600 
  7 C       -2.5290     3.6660    -0.7450 C.ar  1 <1>  -0.1500 
  8 C       -2.5310     2.5530     1.3650 C.ar  1 <1>  -0.1500 
  9 C       -4.6510     1.0020    -1.9250 C.3   1 <1>  -0.1600 
 10 C       -4.9040     0.2120     0.3700 C.3   1 <1>  -0.1600 
 11 C       -2.9820     4.8170    -0.1280 C.ar  1 <1>   0.0830 
 12 C       -2.9740     3.7070     1.9870 C.ar  1 <1>  -0.1500 
 13 C       -6.1030     1.2780    -1.5090 C.3   1 <1>  -0.0800 
 14 C       -6.2700     0.7520    -0.0740 C.3   1 <1>  -0.0800 
 15 O       -3.2050     5.9230    -0.8520 O.3   1 <1>  -0.5320 
 16 C       -3.2060     4.8460     1.2370 C.ar  1 <1>  -0.1500 
 17 C       -6.4550     2.7730    -1.4690 C.3   1 <1>  -0.1600 
 18 C       -6.7500     1.9400     0.7710 C.3   1 <1>  -0.1600 
 19 C       -6.2890     3.1710    -0.0030 C.3   1 <1>   0.4230 
 20 N       -7.0240     4.4130     0.3950 N.4   1 <1>  -0.9590 
 21 C       -8.4980     4.4090     0.1230 C.3   1 <1>   0.2630 
 22 C       -6.3920     5.6170    -0.2270 C.3   1 <1>   0.2630 
 23 H       -4.3250    -0.9760    -1.2750 H     1 <1>   0.0800 
 24 H       -2.3680    -1.9380    -0.2260 H     1 <1>   0.0800 
 25 H       -0.8770    -1.0880    -0.5520 H     1 <1>   0.0800 
 26 H       -1.9460    -1.4950    -1.8740 H     1 <1>   0.0800 
 27 H       -2.3280     3.6520    -1.8020 H     1 <1>   0.1500 
 28 H       -2.3340     1.6700     1.9510 H     1 <1>   0.1500 
 29 H       -4.0880     1.9100    -1.9380 H     1 <1>   0.0800 
 30 H       -4.6130     0.5740    -2.9120 H     1 <1>   0.0800 
 31 H       -5.0110    -0.7190     0.8980 H     1 <1>   0.0800 
 32 H       -4.4180     0.9120     1.0140 H     1 <1>   0.0800 
 33 H       -3.1210     3.7220     3.0540 H     1 <1>   0.1500 
 34 H       -6.7700     0.7530    -2.1740 H     1 <1>   0.0800 
 35 H       -6.9930    -0.0470    -0.0530 H     1 <1>   0.0800 
 36 H       -2.7150     5.9280    -1.6990 H     1 <1>   0.4500 
 37 H       -3.5340     5.7560     1.7080 H     1 <1>   0.1500 
 38 H       -7.4760     2.8760    -1.7850 H     1 <1>   0.0800 
 39 H       -5.8250     3.3570    -2.1170 H     1 <1>   0.0800 
 40 H       -6.3480     1.9180     1.7680 H     1 <1>   0.0800 
 41 H       -7.8220     1.8930     0.8220 H     1 <1>   0.0800 
 42 H       -5.2350     3.3010     0.1890 H     1 <1>   0.0800 
 43 H       -6.8960     4.4960     1.4140 H     1 <1>   0.4500 
 44 H       -8.6870     4.3490    -0.9360 H     1 <1>   0.0800 
 45 H       -8.9470     5.3140     0.4970 H     1 <1>   0.0800 
 46 H       -8.9730     3.5710     0.6060 H     1 <1>   0.0800 
 47 H       -6.4300     5.5500    -1.3020 H     1 <1>   0.0800 
 48 H       -5.3620     5.6970     0.0750 H     1 <1>   0.0800 
 49 H       -6.9050     6.5130     0.0820 H     1 <1>   0.0800 
@<TRIPOS>BOND
  1   1   2  2   
  2   2   3  am  
  3   2   4  1   
  4   3   5  1   
  5   3   6  1   
  6   4   7  ar  
  7   4   8  ar  
  8   5   9  1   
  9   5  10  1   
 10   5  23  1   
 11   6  24  1   
 12   6  25  1   
 13   6  26  1   
 14   7  11  ar  
 15   7  27  1   
 16   8  12  ar  
 17   8  28  1   
 18   9  13  1   
 19   9  29  1   
 20   9  30  1   
 21  10  14  1   
 22  10  31  1   
 23  10  32  1   
 24  11  15  1   
 25  11  16  ar  
 26  12  16  ar  
 27  12  33  1   
 28  13  14  1   
 29  13  17  1   
 30  13  34  1   
 31  14  18  1   
 32  14  35  1   
 33  15  36  1   
 34  16  37  1   
 35  17  19  1   
 36  17  38  1   
 37  17  39  1   
 38  18  19  1   
 39  18  40  1   
 40  18  41  1   
 41  19  20  1   
 42  19  42  1   
 43  20  21  1   
 44  20  22  1   
 45  20  43  1   
 46  21  44  1   
 47  21  45  1   
 48  21  46  1   
 49  22  47  1   
 50  22  48  1   
 51  22  49  1   
@<TRIPOS>SUBSTRUCTURE
  1 ****   4 GROUP 4 **** **** 0

# MOE 2024.06 (io_trps.svl 2023.06)
