@<TRIPOS>MOLECULE
NONAME
44 45 1 0 0 
SMALL
USER_CHARGES


@<TRIPOS>ATOM
  1 S        0.3810    -0.1170    -0.4090 S.o2  1 <1>   1.3330 
  2 O        0.2580    -0.4110     1.0020 O.2   1 <1>  -0.6500 
  3 O        0.4150    -1.2030    -1.3620 O.2   1 <1>  -0.6500 
  4 N       -0.8920     0.9230    -0.8320 N.am  1 <1>  -0.8490 
  5 C        1.8400     0.8870    -0.6670 C.3   1 <1>  -0.0550 
  6 C       -1.2430     1.8780     0.2240 C.3   1 <1>   0.1160 
  7 C       -2.0850     0.1900    -1.2610 C.3   1 <1>   0.1160 
  8 C        3.1540     0.0960    -0.5080 C.3   1 <1>  -0.0800 
  9 C        4.4230     0.8910    -0.7770 C.3   1 <1>   0.2200 
 10 C        3.4010    -0.4750     0.8950 C.3   1 <1>   0.1200 
 11 N        4.3530     2.2290    -0.1400 N.am  1 <1>  -0.7300 
 12 C        5.4370     0.0480    -0.0180 C.3   1 <1>   0.1200 
 13 O        4.7720    -0.3430     1.1450 O.3   1 <1>  -0.5600 
 14 C        4.0500     3.3970    -0.7770 C.2   1 <1>   0.5440 
 15 O        3.7510     3.3390    -1.9530 O.2   1 <1>  -0.5700 
 16 C        4.0690     4.6690    -0.0720 C.ar  1 <1>   0.0860 
 17 C        4.1330     5.8700    -0.7770 C.ar  1 <1>  -0.1500 
 18 C        4.0210     4.7520     1.3250 C.ar  1 <1>  -0.1500 
 19 C        4.1540     7.0730    -0.1010 C.ar  1 <1>   0.1900 
 20 C        4.0440     5.9670     1.9910 C.ar  1 <1>  -0.1500 
 21 F        4.2160     8.1720    -0.8040 F     1 <1>  -0.1900 
 22 C        4.1120     7.1550     1.2820 C.ar  1 <1>  -0.1440 
 23 C        4.1390     8.4960     2.0000 C.3   1 <1>  -0.0970 
 24 H        1.8090     1.2960    -1.6590 H     1 <1>   0.0800 
 25 H        1.8250     1.7070     0.0220 H     1 <1>   0.0800 
 26 H       -1.9960     2.5610    -0.1320 H     1 <1>   0.0800 
 27 H       -0.3780     2.4500     0.5110 H     1 <1>   0.0800 
 28 H       -1.6200     1.3600     1.0910 H     1 <1>   0.0800 
 29 H       -2.8650     0.8770    -1.5430 H     1 <1>   0.0800 
 30 H       -2.4400    -0.4460    -0.4670 H     1 <1>   0.0800 
 31 H       -1.8530    -0.4230    -2.1170 H     1 <1>   0.0800 
 32 H        3.1310    -0.7330    -1.1950 H     1 <1>   0.0800 
 33 H        4.6540     0.9750    -1.8260 H     1 <1>   0.0800 
 34 H        3.1310    -1.5150     0.9580 H     1 <1>   0.0800 
 35 H        2.8770     0.0810     1.6540 H     1 <1>   0.0800 
 36 H        4.6170     2.2210     0.8470 H     1 <1>   0.3700 
 37 H        6.3300     0.5920     0.2360 H     1 <1>   0.0800 
 38 H        5.6900    -0.8400    -0.5710 H     1 <1>   0.0800 
 39 H        4.1660     5.8650    -1.8520 H     1 <1>   0.1500 
 40 H        3.9590     3.8530     1.9100 H     1 <1>   0.1500 
 41 H        4.0070     5.9830     3.0680 H     1 <1>   0.1500 
 42 H        4.1040     8.3660     3.0670 H     1 <1>   0.0800 
 43 H        3.2940     9.0900     1.6990 H     1 <1>   0.0800 
 44 H        5.0400     9.0280     1.7490 H     1 <1>   0.0800 
@<TRIPOS>BOND
  1   1   2  2   
  2   1   3  2   
  3   1   4  am  
  4   1   5  1   
  5   4   6  1   
  6   4   7  1   
  7   5   8  1   
  8   5  24  1   
  9   5  25  1   
 10   6  26  1   
 11   6  27  1   
 12   6  28  1   
 13   7  29  1   
 14   7  30  1   
 15   7  31  1   
 16   8   9  1   
 17   8  10  1   
 18   8  32  1   
 19   9  11  1   
 20   9  12  1   
 21   9  33  1   
 22  10  13  1   
 23  10  34  1   
 24  10  35  1   
 25  11  14  am  
 26  11  36  1   
 27  12  13  1   
 28  12  37  1   
 29  12  38  1   
 30  14  15  2   
 31  14  16  1   
 32  16  17  ar  
 33  16  18  ar  
 34  17  19  ar  
 35  17  39  1   
 36  18  20  ar  
 37  18  40  1   
 38  19  21  1   
 39  19  22  ar  
 40  20  22  ar  
 41  20  41  1   
 42  22  23  1   
 43  23  42  1   
 44  23  43  1   
 45  23  44  1   
@<TRIPOS>SUBSTRUCTURE
  1 ****  14 GROUP 4 **** **** 0

# MOE 2024.06 (io_trps.svl 2023.06)
