@<TRIPOS>MOLECULE
NONAME
41 43 1 0 0 
SMALL
USER_CHARGES


@<TRIPOS>ATOM
  1 S       -0.3560     0.0240    -0.1680 S.o2  1 <1>   1.3330 
  2 O       -1.0680     0.7320     0.8650 O.2   1 <1>  -0.6500 
  3 O       -0.6120     0.2840    -1.5650 O.2   1 <1>  -0.6500 
  4 N       -0.6800    -1.5900     0.1390 N.am  1 <1>  -0.9140 
  5 C        1.3940     0.1290     0.1330 C.3   1 <1>  -0.1350 
  6 C       -1.7400    -2.1620    -0.6650 C.3   1 <1>   0.2760 
  7 C       -3.1080    -1.6250    -0.2300 C.3   1 <1>  -0.1600 
  8 C       -1.6860    -3.6800    -0.4930 C.3   1 <1>  -0.1600 
  9 C       -4.2290    -2.3130    -1.0090 C.3   1 <1>   0.1400 
 10 C       -2.8110    -4.3630    -1.2720 C.3   1 <1>   0.1400 
 11 N       -4.1230    -3.7940    -0.8550 N.am  1 <1>  -0.6600 
 12 C       -5.0960    -4.5070    -0.1880 C.2   1 <1>   0.6160 
 13 O       -5.8300    -3.9270     0.5860 O.2   1 <1>  -0.5700 
 14 C       -5.2850    -5.9330    -0.3550 C.2   1 <1>   0.0140 
 15 C       -5.6770    -6.6960     0.7180 C.2   1 <1>   0.2290 
 16 C       -5.1210    -6.5820    -1.6110 C.2   1 <1>  -0.1500 
 17 N       -5.8810    -8.0530     0.5970 N.pl3 1 <1>  -0.6290 
 18 C       -5.3300    -7.9300    -1.7230 C.2   1 <1>  -0.1410 
 19 C       -5.7170    -8.6730    -0.5950 C.cat 1 <1>   0.7910 
 20 C       -6.2710    -9.0190     1.5050 C.2   1 <1>   0.2000 
 21 N       -5.9830    -9.9800    -0.4480 N.pl3 1 <1>  -0.7000 
 22 C       -6.3310   -10.2010     0.8610 C.2   1 <1>   0.2000 
 23 H       -1.0130    -1.5880     1.1010 H     1 <1>   0.4200 
 24 H        1.7300     1.1380    -0.0090 H     1 <1>   0.0800 
 25 H        1.9230    -0.5090    -0.5470 H     1 <1>   0.0800 
 26 H        1.6170    -0.1710     1.1370 H     1 <1>   0.0800 
 27 H       -1.5740    -1.9360    -1.7070 H     1 <1>   0.0800 
 28 H       -3.1710    -0.5680    -0.4180 H     1 <1>   0.0800 
 29 H       -3.2650    -1.7930     0.8210 H     1 <1>   0.0800 
 30 H       -1.7750    -3.9380     0.5470 H     1 <1>   0.0800 
 31 H       -0.7400    -4.0430    -0.8530 H     1 <1>   0.0800 
 32 H       -4.1540    -2.0620    -2.0530 H     1 <1>   0.0800 
 33 H       -5.1840    -1.9590    -0.6550 H     1 <1>   0.0800 
 34 H       -2.7730    -5.4210    -1.0820 H     1 <1>   0.0800 
 35 H       -2.6760    -4.2010    -2.3290 H     1 <1>   0.0800 
 36 H       -5.8390    -6.2430     1.6860 H     1 <1>   0.1500 
 37 H       -4.8410    -5.9870    -2.4660 H     1 <1>   0.1500 
 38 H       -5.2130    -8.4420    -2.6600 H     1 <1>   0.1500 
 39 H       -6.4770    -8.7980     2.5410 H     1 <1>   0.1500 
 40 H       -5.9390   -10.6790    -1.1940 H     1 <1>   0.4500 
 41 H       -6.5980   -11.1730     1.2490 H     1 <1>   0.1500 
@<TRIPOS>BOND
  1   1   2  2   
  2   1   3  2   
  3   1   4  am  
  4   1   5  1   
  5   4   6  1   
  6   4  23  1   
  7   5  24  1   
  8   5  25  1   
  9   5  26  1   
 10   6   7  1   
 11   6   8  1   
 12   6  27  1   
 13   7   9  1   
 14   7  28  1   
 15   7  29  1   
 16   8  10  1   
 17   8  30  1   
 18   8  31  1   
 19   9  11  1   
 20   9  32  1   
 21   9  33  1   
 22  10  11  1   
 23  10  34  1   
 24  10  35  1   
 25  11  12  am  
 26  12  13  2   
 27  12  14  1   
 28  14  15  2   
 29  14  16  1   
 30  15  17  1   
 31  15  36  1   
 32  16  18  2   
 33  16  37  1   
 34  17  19  ar  
 35  17  20  1   
 36  18  19  1   
 37  18  38  1   
 38  19  21  ar  
 39  20  22  2   
 40  20  39  1   
 41  21  22  1   
 42  21  40  1   
 43  22  41  1   
@<TRIPOS>SUBSTRUCTURE
  1 ****  11 GROUP 4 **** **** 0

# MOE 2024.06 (io_trps.svl 2023.06)
