@<TRIPOS>MOLECULE
NONAME
53 54 1 0 0 
SMALL
USER_CHARGES


@<TRIPOS>ATOM
  1 O        0.5610    -0.5410    -0.5250 O.3   1 <1>  -0.3630 
  2 C        0.1700    -1.8180    -0.2890 C.ar  1 <1>   0.0820 
  3 C        0.8680     0.2710     0.5890 C.3   1 <1>   0.2000 
  4 C       -1.0140    -2.1440     0.3820 C.ar  1 <1>   0.0820 
  5 C        1.0020    -2.8300    -0.7350 C.ar  1 <1>  -0.1500 
  6 C        0.8260     1.7230     0.1190 C.3   1 <1>  -0.2400 
  7 C        2.2580    -0.1060     1.1050 C.3   1 <1>  -0.2400 
  8 O       -1.9100    -1.2220     0.8100 O.3   1 <1>  -0.3630 
  9 C       -1.3110    -3.4710     0.6380 C.ar  1 <1>  -0.1500 
 10 C        0.6880    -4.1560    -0.4930 C.ar  1 <1>  -0.1500 
 11 C       -2.5190    -0.4060    -0.1660 C.3   1 <1>   0.1200 
 12 C       -0.4720    -4.4840     0.1960 C.ar  1 <1>  -0.1440 
 13 C       -3.5380     0.4860     0.5350 C.3   1 <1>  -0.2400 
 14 C       -0.8290    -5.9330     0.4630 C.3   1 <1>   0.4860 
 15 N       -1.3360    -6.5370    -0.8030 N.4   1 <1>  -0.9590 
 16 C       -1.4150    -8.0330    -0.6660 C.3   1 <1>   0.3430 
 17 C       -2.6170    -5.9060    -1.2500 C.3   1 <1>   0.3430 
 18 C       -2.8500    -8.5790    -0.5850 C.3   1 <1>  -0.0800 
 19 C       -3.7880    -6.2380    -0.3100 C.3   1 <1>  -0.1600 
 20 C       -3.7420    -7.6630     0.2630 C.3   1 <1>   0.2000 
 21 C       -2.8340   -10.0160    -0.0540 C.3   1 <1>   0.1200 
 22 O       -3.2120    -7.5980     1.5410 O.3   1 <1>  -0.6800 
 23 O       -1.9320   -10.7410    -0.8140 O.3   1 <1>  -0.6800 
 24 H        0.1290     0.1150     1.3550 H     1 <1>   0.0800 
 25 H        1.9020    -2.5660    -1.2630 H     1 <1>   0.1500 
 26 H        1.5430     1.8840    -0.6660 H     1 <1>   0.0800 
 27 H        1.0580     2.3800     0.9380 H     1 <1>   0.0800 
 28 H       -0.1570     1.9650    -0.2400 H     1 <1>   0.0800 
 29 H        2.9900     0.0040     0.3260 H     1 <1>   0.0800 
 30 H        2.2610    -1.1200     1.4600 H     1 <1>   0.0800 
 31 H        2.5290     0.5350     1.9240 H     1 <1>   0.0800 
 32 H       -2.2110    -3.6900     1.1850 H     1 <1>   0.1500 
 33 H        1.3630    -4.9190    -0.8420 H     1 <1>   0.1500 
 34 H       -1.7680     0.1900    -0.6520 H     1 <1>   0.0800 
 35 H       -2.9980    -1.0420    -0.8900 H     1 <1>   0.0800 
 36 H       -3.0450     1.1080     1.2610 H     1 <1>   0.0800 
 37 H       -4.2840    -0.1150     1.0240 H     1 <1>   0.0800 
 38 H       -4.0230     1.1190    -0.1850 H     1 <1>   0.0800 
 39 H       -1.5760    -5.9930     1.2360 H     1 <1>   0.0800 
 40 H        0.0480    -6.4590     0.8000 H     1 <1>   0.0800 
 41 H       -0.6240    -6.3170    -1.5100 H     1 <1>   0.4500 
 42 H       -0.9240    -8.5050    -1.5020 H     1 <1>   0.0800 
 43 H       -0.8900    -8.3380     0.2240 H     1 <1>   0.0800 
 44 H       -2.5020    -4.8360    -1.3270 H     1 <1>   0.0800 
 45 H       -2.8540    -6.2780    -2.2340 H     1 <1>   0.0800 
 46 H       -3.2580    -8.6180    -1.5800 H     1 <1>   0.0800 
 47 H       -4.6880    -6.1350    -0.8890 H     1 <1>   0.0800 
 48 H       -3.8470    -5.5100     0.4790 H     1 <1>   0.0800 
 49 H       -4.7370    -8.0720     0.3420 H     1 <1>   0.0800 
 50 H       -3.8060   -10.4730    -0.1450 H     1 <1>   0.0800 
 51 H       -2.5140   -10.0540     0.9750 H     1 <1>   0.0800 
 52 H       -3.9010    -7.3270     2.1860 H     1 <1>   0.4000 
 53 H       -1.9500   -11.6900    -0.5660 H     1 <1>   0.4000 
@<TRIPOS>BOND
  1   1   2  1   
  2   1   3  1   
  3   2   4  ar  
  4   2   5  ar  
  5   3   6  1   
  6   3   7  1   
  7   3  24  1   
  8   4   8  1   
  9   4   9  ar  
 10   5  10  ar  
 11   5  25  1   
 12   6  26  1   
 13   6  27  1   
 14   6  28  1   
 15   7  29  1   
 16   7  30  1   
 17   7  31  1   
 18   8  11  1   
 19   9  12  ar  
 20   9  32  1   
 21  10  12  ar  
 22  10  33  1   
 23  11  13  1   
 24  11  34  1   
 25  11  35  1   
 26  12  14  1   
 27  13  36  1   
 28  13  37  1   
 29  13  38  1   
 30  14  15  1   
 31  14  39  1   
 32  14  40  1   
 33  15  16  1   
 34  15  17  1   
 35  15  41  1   
 36  16  18  1   
 37  16  42  1   
 38  16  43  1   
 39  17  19  1   
 40  17  44  1   
 41  17  45  1   
 42  18  20  1   
 43  18  21  1   
 44  18  46  1   
 45  19  20  1   
 46  19  47  1   
 47  19  48  1   
 48  20  22  1   
 49  20  49  1   
 50  21  23  1   
 51  21  50  1   
 52  21  51  1   
 53  22  52  1   
 54  23  53  1   
@<TRIPOS>SUBSTRUCTURE
  1 ****  12 GROUP 4 **** **** 0

# MOE 2024.06 (io_trps.svl 2023.06)
