@<TRIPOS>MOLECULE
NONAME
39 41 1 0 0 
SMALL
USER_CHARGES


@<TRIPOS>ATOM
  1 CL       1.3050    -0.3710     0.8070 Cl    1 <1>  -0.1770 
  2 C        2.2500     0.8430    -0.0190 C.ar  1 <1>   0.1770 
  3 C        3.1890     0.4640    -0.9630 C.ar  1 <1>   0.1600 
  4 C        2.0560     2.1720     0.2730 C.ar  1 <1>  -0.1500 
  5 N        3.9450     1.3210    -1.6370 N.ar  1 <1>  -0.6200 
  6 C        2.8380     3.0960    -0.4090 C.ar  1 <1>   0.0860 
  7 C        3.7430     2.6000    -1.3490 C.ar  1 <1>   0.1600 
  8 C        2.7100     4.5180    -0.1690 C.2   1 <1>   0.5440 
  9 O        1.5960     5.0030    -0.1240 O.2   1 <1>  -0.5700 
 10 N        3.8070     5.3340     0.0240 N.am  1 <1>  -0.6600 
 11 C        5.0960     4.7720     0.5560 C.3   1 <1>   0.1400 
 12 C        3.6360     6.8170    -0.0800 C.3   1 <1>   0.1400 
 13 C        5.8830     5.7190     1.4720 C.3   1 <1>   0.1400 
 14 C        4.8150     7.5110    -0.7690 C.3   1 <1>  -0.1600 
 15 N        6.6760     6.7020     0.6790 N.am  1 <1>  -0.6600 
 16 C        5.9430     7.8980     0.1900 C.3   1 <1>   0.1400 
 17 C        7.9580     6.3870     0.2760 C.2   1 <1>   0.7160 
 18 O        8.2920     5.2160     0.2690 O.2   1 <1>  -0.5700 
 19 C        8.9050     7.3940    -0.1370 C.2   1 <1>  -0.0860 
 20 C        9.0810     8.6560     0.4390 C.2   1 <1>   0.1390 
 21 C        9.8410     7.3750    -1.1260 C.2   1 <1>  -0.3020 
 22 N       10.0040     9.3560    -0.1400 N.2   1 <1>  -0.7070 
 23 N       10.4810     8.5530    -1.1090 N.pl3 1 <1>   0.3000 
 24 H        3.3190    -0.5840    -1.1690 H     1 <1>   0.1500 
 25 H        1.3260     2.4880     0.9980 H     1 <1>   0.1500 
 26 H        4.3350     3.3150    -1.8960 H     1 <1>   0.1500 
 27 H        5.7280     4.4770    -0.2640 H     1 <1>   0.0800 
 28 H        4.8730     3.8870     1.1270 H     1 <1>   0.0800 
 29 H        3.4700     7.2300     0.9000 H     1 <1>   0.0800 
 30 H        2.7540     7.0230    -0.6640 H     1 <1>   0.0800 
 31 H        6.5640     5.1280     2.0620 H     1 <1>   0.0800 
 32 H        5.2220     6.2230     2.1550 H     1 <1>   0.0800 
 33 H        4.4400     8.4250    -1.1940 H     1 <1>   0.0800 
 34 H        5.1880     6.9140    -1.5820 H     1 <1>   0.0800 
 35 H        5.5470     8.4430     1.0300 H     1 <1>   0.0800 
 36 H        6.6110     8.5550    -0.3390 H     1 <1>   0.0800 
 37 H        8.5110     9.0140     1.2800 H     1 <1>   0.1500 
 38 H       10.0670     6.5820    -1.8160 H     1 <1>   0.1500 
 39 H       11.2450     8.8440    -1.7320 H     1 <1>   0.2700 
@<TRIPOS>BOND
  1   1   2  1   
  2   2   3  ar  
  3   2   4  ar  
  4   3   5  ar  
  5   3  24  1   
  6   4   6  ar  
  7   4  25  1   
  8   5   7  ar  
  9   6   7  ar  
 10   6   8  1   
 11   7  26  1   
 12   8   9  2   
 13   8  10  am  
 14  10  11  1   
 15  10  12  1   
 16  11  13  1   
 17  11  27  1   
 18  11  28  1   
 19  12  14  1   
 20  12  29  1   
 21  12  30  1   
 22  13  15  1   
 23  13  31  1   
 24  13  32  1   
 25  14  16  1   
 26  14  33  1   
 27  14  34  1   
 28  15  16  1   
 29  15  17  am  
 30  16  35  1   
 31  16  36  1   
 32  17  18  2   
 33  17  19  1   
 34  19  20  1   
 35  19  21  2   
 36  20  22  2   
 37  20  37  1   
 38  21  23  1   
 39  21  38  1   
 40  22  23  1   
 41  23  39  1   
@<TRIPOS>SUBSTRUCTURE
  1 ****  11 GROUP 4 **** **** 0

# MOE 2024.06 (io_trps.svl 2023.06)
