@<TRIPOS>MOLECULE
NONAME
42 43 1 0 0 
SMALL
USER_CHARGES


@<TRIPOS>ATOM
  1 O        2.0170     0.1470    -1.5740 O.co2 1 <1>  -0.9000 
  2 C        3.0440     0.4190    -0.9310 C.2   1 <1>   1.0320 
  3 O        3.9460    -0.4350    -0.8290 O.co2 1 <1>  -0.9000 
  4 C        3.2480     1.7070    -0.3140 C.2   1 <1>  -0.3840 
  5 N        4.4370     1.9290     0.3060 N.pl3 1 <1>   0.0330 
  6 C        2.5060     2.8530    -0.1920 C.2   1 <1>  -0.1810 
  7 C        4.4610     3.1900     0.7860 C.2   1 <1>  -0.3320 
  8 C        3.2750     3.8150     0.4890 C.2   1 <1>  -0.0860 
  9 C        1.0950     3.0900    -0.6970 C.3   1 <1>  -0.0590 
 10 C        5.6620     3.7580     1.5200 C.3   1 <1>  -0.0600 
 11 C        2.8950     5.1860     0.7420 C.2   1 <1>   0.7160 
 12 O        2.3700     5.5170     1.7910 O.2   1 <1>  -0.5700 
 13 N        3.1630     6.1540    -0.2010 N.am  1 <1>  -0.6600 
 14 C        3.2520     7.5870     0.2010 C.3   1 <1>   0.3200 
 15 C        3.7690     5.8160    -1.5220 C.3   1 <1>   0.0600 
 16 C        4.6990     7.9990     0.4190 C.2   1 <1>   0.2980 
 17 O        5.3410     7.5080     1.4480 O.3   1 <1>  -0.0190 
 18 N        5.3750     8.7830    -0.3260 N.2   1 <1>  -0.5650 
 19 N        6.5300     8.0170     1.3490 N.2   1 <1>  -0.4100 
 20 C        6.5390     8.7600     0.3130 C.2   1 <1>   0.3350 
 21 C        7.7280     9.5750    -0.2000 C.3   1 <1>   0.1010 
 22 C        9.0760     8.9220     0.1430 C.3   1 <1>  -0.2400 
 23 C        7.6800    11.0060     0.3510 C.3   1 <1>  -0.2400 
 24 H        5.1490     1.1870     0.3460 H     1 <1>   0.2700 
 25 H        0.6630     2.1740    -1.0540 H     1 <1>   0.0800 
 26 H        1.1080     3.8000    -1.5020 H     1 <1>   0.0800 
 27 H        0.4830     3.4670     0.1010 H     1 <1>   0.0800 
 28 H        5.8960     3.1420     2.3700 H     1 <1>   0.0800 
 29 H        5.4560     4.7540     1.8680 H     1 <1>   0.0800 
 30 H        6.5130     3.7910     0.8650 H     1 <1>   0.0800 
 31 H        2.6960     7.7680     1.1030 H     1 <1>   0.0800 
 32 H        2.8240     8.1950    -0.5750 H     1 <1>   0.0800 
 33 H        3.3920     4.8730    -1.8810 H     1 <1>   0.0800 
 34 H        4.8380     5.7430    -1.4220 H     1 <1>   0.0800 
 35 H        3.5320     6.5750    -2.2460 H     1 <1>   0.0800 
 36 H        7.6470     9.6220    -1.2720 H     1 <1>   0.0800 
 37 H        9.2120     8.8780     1.2100 H     1 <1>   0.0800 
 38 H        9.8860     9.4840    -0.2860 H     1 <1>   0.0800 
 39 H        9.1080     7.9200    -0.2460 H     1 <1>   0.0800 
 40 H        7.7490    10.9940     1.4250 H     1 <1>   0.0800 
 41 H        6.7520    11.4740     0.0740 H     1 <1>   0.0800 
 42 H        8.4910    11.5910    -0.0450 H     1 <1>   0.0800 
@<TRIPOS>BOND
  1   1   2  ar  
  2   2   3  ar  
  3   2   4  1   
  4   4   5  1   
  5   4   6  2   
  6   5   7  1   
  7   5  24  1   
  8   6   8  1   
  9   6   9  1   
 10   7   8  2   
 11   7  10  1   
 12   8  11  1   
 13   9  25  1   
 14   9  26  1   
 15   9  27  1   
 16  10  28  1   
 17  10  29  1   
 18  10  30  1   
 19  11  12  2   
 20  11  13  am  
 21  13  14  1   
 22  13  15  1   
 23  14  16  1   
 24  14  31  1   
 25  14  32  1   
 26  15  33  1   
 27  15  34  1   
 28  15  35  1   
 29  16  17  1   
 30  16  18  2   
 31  17  19  1   
 32  18  20  1   
 33  19  20  2   
 34  20  21  1   
 35  21  22  1   
 36  21  23  1   
 37  21  36  1   
 38  22  37  1   
 39  22  38  1   
 40  22  39  1   
 41  23  40  1   
 42  23  41  1   
 43  23  42  1   
@<TRIPOS>SUBSTRUCTURE
  1 ****  13 GROUP 4 **** **** 0

# MOE 2024.06 (io_trps.svl 2023.06)
