@<TRIPOS>MOLECULE
NONAME
23 23 1 0 0 
SMALL
USER_CHARGES


@<TRIPOS>ATOM
  1 O       -0.0210    -0.2710    -0.5440 O.3   1 <1>  -0.6800 
  2 C       -0.0220    -1.4780     0.1250 C.3   1 <1>   0.2000 
  3 C        1.3770    -2.0810    -0.0580 C.3   1 <1>  -0.1600 
  4 C       -1.1870    -2.3130    -0.4280 C.3   1 <1>  -0.1600 
  5 C        1.5700    -3.4430     0.6240 C.3   1 <1>  -0.0220 
  6 C       -1.6170    -3.4560     0.5170 C.3   1 <1>  -0.1600 
  7 C        1.2200    -4.5880    -0.3110 C.2   1 <1>  -0.2880 
  8 C       -1.3680    -4.8590    -0.0540 C.3   1 <1>  -0.0220 
  9 C        0.0370    -5.1640    -0.5610 C.2   1 <1>  -0.2880 
 10 H       -0.8980     0.1490    -0.4780 H     1 <1>   0.4000 
 11 H       -0.1910    -1.2580     1.1660 H     1 <1>   0.0800 
 12 H        1.5970    -2.1730    -1.1070 H     1 <1>   0.0800 
 13 H        2.0840    -1.3930     0.3690 H     1 <1>   0.0800 
 14 H       -2.0390    -1.6700    -0.5600 H     1 <1>   0.0800 
 15 H       -0.9220    -2.6990    -1.3980 H     1 <1>   0.0800 
 16 H        1.0120    -3.5010     1.5380 H     1 <1>   0.0800 
 17 H        2.6060    -3.5490     0.8950 H     1 <1>   0.0800 
 18 H       -1.1490    -3.3650     1.4790 H     1 <1>   0.0800 
 19 H       -2.6750    -3.3660     0.6940 H     1 <1>   0.0800 
 20 H        2.1040    -4.9430    -0.8150 H     1 <1>   0.1500 
 21 H       -2.0410    -4.9880    -0.8840 H     1 <1>   0.0800 
 22 H       -1.6360    -5.5960     0.6840 H     1 <1>   0.0800 
 23 H       -0.0010    -5.9980    -1.2420 H     1 <1>   0.1500 
@<TRIPOS>BOND
  1   1   2  1   
  2   1  10  1   
  3   2   3  1   
  4   2   4  1   
  5   2  11  1   
  6   3   5  1   
  7   3  12  1   
  8   3  13  1   
  9   4   6  1   
 10   4  14  1   
 11   4  15  1   
 12   5   7  1   
 13   5  16  1   
 14   5  17  1   
 15   6   8  1   
 16   6  18  1   
 17   6  19  1   
 18   7   9  2   
 19   7  20  1   
 20   8   9  1   
 21   8  21  1   
 22   8  22  1   
 23   9  23  1   
@<TRIPOS>SUBSTRUCTURE
  1 ****   4 GROUP 4 **** **** 0

# MOE 2024.06 (io_trps.svl 2023.06)
