@<TRIPOS>MOLECULE
NONAME
45 48 1 0 0 
SMALL
USER_CHARGES


@<TRIPOS>ATOM
  1 O       -2.1550    -0.6670     0.4900 O.2   1 <1>  -0.5700 
  2 C       -2.5620     0.3930     0.0320 C.2   1 <1>   0.6160 
  3 N       -2.2250     1.6030     0.6100 N.am  1 <1>  -0.4770 
  4 C       -3.4440     0.3820    -1.0930 C.2   1 <1>  -0.1240 
  5 C       -2.7970     2.8090     0.1510 C.ar  1 <1>   0.1170 
  6 C       -1.2290     1.6300     1.7260 C.3   1 <1>   0.0600 
  7 C       -3.9810     1.5300    -1.5680 C.2   1 <1>  -0.1780 
  8 C       -3.7310    -0.9700    -1.7140 C.3   1 <1>   0.4810 
  9 C       -3.6790     2.7800    -0.9480 C.ar  1 <1>   0.0280 
 10 C       -2.5280     4.0460     0.7480 C.ar  1 <1>  -0.1500 
 11 N       -4.3400    -1.8800    -0.7030 N.4   1 <1>  -0.9590 
 12 C       -4.2440     3.9700    -1.4110 C.ar  1 <1>  -0.1500 
 13 C       -3.0980     5.2100     0.2790 C.ar  1 <1>  -0.1500 
 14 C       -4.3840    -3.2910    -1.1770 C.3   1 <1>   0.3430 
 15 C       -5.6490    -1.3780    -0.1880 C.3   1 <1>   0.3430 
 16 C       -3.9580     5.1730    -0.8070 C.ar  1 <1>  -0.1500 
 17 C       -4.8320    -4.2060    -0.0400 C.3   1 <1>  -0.1600 
 18 C       -6.1110    -2.2500     0.9730 C.3   1 <1>  -0.1600 
 19 C       -6.1610    -3.7140     0.5400 C.3   1 <1>   0.2580 
 20 O       -6.5490    -4.5150     1.6350 O.3   1 <1>  -0.5160 
 21 C       -7.4390    -4.1480    -0.1960 C.3   1 <1>   0.0000 
 22 C       -7.4580    -5.2760     0.8420 C.3   1 <1>   0.2580 
 23 H       -0.7970     0.6590     1.8970 H     1 <1>   0.0800 
 24 H       -1.7110     1.9530     2.6320 H     1 <1>   0.0800 
 25 H       -0.4310     2.3090     1.4830 H     1 <1>   0.0800 
 26 H       -4.6440     1.5550    -2.4170 H     1 <1>   0.1500 
 27 H       -2.8010    -1.3910    -2.0640 H     1 <1>   0.0800 
 28 H       -4.3920    -0.8560    -2.5570 H     1 <1>   0.0800 
 29 H       -1.8690     4.1150     1.5920 H     1 <1>   0.1500 
 30 H       -3.6650    -1.8420     0.0900 H     1 <1>   0.4500 
 31 H       -4.9120     3.9510    -2.2540 H     1 <1>   0.1500 
 32 H       -2.8770     6.1520     0.7510 H     1 <1>   0.1500 
 33 H       -3.4070    -3.5980    -1.5150 H     1 <1>   0.0800 
 34 H       -5.0740    -3.3780    -2.0010 H     1 <1>   0.0800 
 35 H       -6.3870    -1.4020    -0.9740 H     1 <1>   0.0800 
 36 H       -5.5490    -0.3590     0.1540 H     1 <1>   0.0800 
 37 H       -4.3990     6.0860    -1.1700 H     1 <1>   0.1500 
 38 H       -4.0810    -4.2030     0.7310 H     1 <1>   0.0800 
 39 H       -4.9260    -5.2110    -0.4100 H     1 <1>   0.0800 
 40 H       -7.0800    -1.9250     1.3050 H     1 <1>   0.0800 
 41 H       -5.4230    -2.1400     1.7930 H     1 <1>   0.0800 
 42 H       -7.2870    -4.4840    -1.2060 H     1 <1>   0.0000 
 43 H       -8.2660    -3.4680    -0.0900 H     1 <1>   0.0000 
 44 H       -8.3920    -5.4020     1.3600 H     1 <1>   0.0000 
 45 H       -6.9890    -6.1910     0.5220 H     1 <1>   0.0000 
@<TRIPOS>BOND
  1   1   2  2   
  2   2   3  am  
  3   2   4  1   
  4   3   5  1   
  5   3   6  1   
  6   4   7  2   
  7   4   8  1   
  8   5   9  ar  
  9   5  10  ar  
 10   6  23  1   
 11   6  24  1   
 12   6  25  1   
 13   7   9  1   
 14   7  26  1   
 15   8  11  1   
 16   8  27  1   
 17   8  28  1   
 18   9  12  ar  
 19  10  13  ar  
 20  10  29  1   
 21  11  14  1   
 22  11  15  1   
 23  11  30  1   
 24  12  16  ar  
 25  12  31  1   
 26  13  16  ar  
 27  13  32  1   
 28  14  17  1   
 29  14  33  1   
 30  14  34  1   
 31  15  18  1   
 32  15  35  1   
 33  15  36  1   
 34  16  37  1   
 35  17  19  1   
 36  17  38  1   
 37  17  39  1   
 38  18  19  1   
 39  18  40  1   
 40  18  41  1   
 41  19  20  1   
 42  19  21  1   
 43  20  22  1   
 44  21  22  1   
 45  21  42  1   
 46  21  43  1   
 47  22  44  1   
 48  22  45  1   
@<TRIPOS>SUBSTRUCTURE
  1 ****   4 GROUP 4 **** **** 0

# MOE 2024.06 (io_trps.svl 2023.06)
