@<TRIPOS>MOLECULE
NONAME
52 55 1 0 0 
SMALL
USER_CHARGES


@<TRIPOS>ATOM
  1 O        1.9540    -1.5720     1.1210 O.3   1 <1>  -0.0190 
  2 N        2.0560    -0.2910     1.3090 N.2   1 <1>  -0.4100 
  3 C        2.2140    -1.9070    -0.1140 C.2   1 <1>  -0.0400 
  4 C        2.4080     0.2130     0.1770 C.2   1 <1>   0.1080 
  5 C        2.5280    -0.7880    -0.7850 C.2   1 <1>  -0.1500 
  6 C        2.1320    -3.3650    -0.5440 C.3   1 <1>   0.2900 
  7 C        2.6550     1.6950    -0.0850 C.3   1 <1>   0.1010 
  8 N        0.7380    -3.8460    -0.7040 N.3   1 <1>  -0.8100 
  9 C        3.7610     2.2430     0.8330 C.3   1 <1>  -0.1600 
 10 C        1.3580     2.5050     0.0840 C.3   1 <1>  -0.1600 
 11 C       -0.0140    -3.7960     0.5710 C.3   1 <1>   0.2780 
 12 C        0.0470    -3.1250    -1.7870 C.3   1 <1>   0.0300 
 13 C        4.0000     3.7420     0.5980 C.3   1 <1>  -0.1600 
 14 C        1.5920     4.0040    -0.1510 C.3   1 <1>  -0.1600 
 15 C       -1.3590    -4.5230     0.4940 C.2   1 <1>   0.1820 
 16 C        2.7010     4.5410     0.7640 C.3   1 <1>  -0.1600 
 17 N       -1.4940    -5.8340     0.0660 N.pl3 1 <1>  -0.6290 
 18 C       -2.5910    -4.0650     0.8090 C.2   1 <1>   0.1820 
 19 C       -2.8070    -6.1440     0.1330 C.cat 1 <1>   0.7910 
 20 C       -0.5810    -6.7500    -0.4090 C.2   1 <1>   0.2290 
 21 N       -3.4830    -5.0760     0.5860 N.pl3 1 <1>  -0.7000 
 22 C       -3.0580    -2.7160     1.3250 C.3   1 <1>  -0.0720 
 23 C       -3.2610    -7.4180    -0.2480 C.2   1 <1>  -0.1410 
 24 C       -1.0010    -7.9930    -0.7880 C.2   1 <1>  -0.1500 
 25 C       -2.3640    -8.3460    -0.7070 C.2   1 <1>  -0.1500 
 26 H        2.8060    -0.6550    -1.8140 H     1 <1>   0.1500 
 27 H        2.6450    -3.9750     0.1800 H     1 <1>   0.0800 
 28 H        2.6480    -3.4800    -1.4820 H     1 <1>   0.0800 
 29 H        2.9850     1.8030    -1.1030 H     1 <1>   0.0800 
 30 H        4.6740     1.7000     0.6600 H     1 <1>   0.0800 
 31 H        3.4780     2.0880     1.8610 H     1 <1>   0.0800 
 32 H        0.9780     2.3580     1.0810 H     1 <1>   0.0800 
 33 H        0.6160     2.1430    -0.6060 H     1 <1>   0.0800 
 34 H       -0.1820    -2.7730     0.8540 H     1 <1>   0.0800 
 35 H        0.5740    -4.2610     1.3440 H     1 <1>   0.0800 
 36 H        0.6300    -3.1720    -2.6920 H     1 <1>   0.0800 
 37 H       -0.1040    -2.0910    -1.5250 H     1 <1>   0.0800 
 38 H       -0.9090    -3.5790    -1.9870 H     1 <1>   0.0800 
 39 H        4.3880     3.8920    -0.3950 H     1 <1>   0.0800 
 40 H        4.7360     4.1020     1.2960 H     1 <1>   0.0800 
 41 H        0.6800     4.5450     0.0350 H     1 <1>   0.0800 
 42 H        1.8680     4.1680    -1.1790 H     1 <1>   0.0800 
 43 H        2.8840     5.5780     0.5390 H     1 <1>   0.0800 
 44 H        2.3760     4.4800     1.7890 H     1 <1>   0.0800 
 45 H        0.4540    -6.4530    -0.4710 H     1 <1>   0.1500 
 46 H       -4.4930    -5.0430     0.7280 H     1 <1>   0.4500 
 47 H       -2.2320    -2.0390     1.4440 H     1 <1>   0.0800 
 48 H       -3.5400    -2.8340     2.2790 H     1 <1>   0.0800 
 49 H       -3.7580    -2.2810     0.6340 H     1 <1>   0.0800 
 50 H       -4.3090    -7.6370    -0.1720 H     1 <1>   0.1500 
 51 H       -0.2990    -8.7200    -1.1580 H     1 <1>   0.1500 
 52 H       -2.6730    -9.3350    -1.0090 H     1 <1>   0.1500 
@<TRIPOS>BOND
  1   1   2  1   
  2   1   3  1   
  3   2   4  2   
  4   3   5  2   
  5   3   6  1   
  6   4   5  1   
  7   4   7  1   
  8   5  26  1   
  9   6   8  1   
 10   6  27  1   
 11   6  28  1   
 12   7   9  1   
 13   7  10  1   
 14   7  29  1   
 15   8  11  1   
 16   8  12  1   
 17   9  13  1   
 18   9  30  1   
 19   9  31  1   
 20  10  14  1   
 21  10  32  1   
 22  10  33  1   
 23  11  15  1   
 24  11  34  1   
 25  11  35  1   
 26  12  36  1   
 27  12  37  1   
 28  12  38  1   
 29  13  16  1   
 30  13  39  1   
 31  13  40  1   
 32  14  16  1   
 33  14  41  1   
 34  14  42  1   
 35  15  17  1   
 36  15  18  2   
 37  16  43  1   
 38  16  44  1   
 39  17  19  ar  
 40  17  20  1   
 41  18  21  1   
 42  18  22  1   
 43  19  21  ar  
 44  19  23  1   
 45  20  24  2   
 46  20  45  1   
 47  21  46  1   
 48  22  47  1   
 49  22  48  1   
 50  22  49  1   
 51  23  25  2   
 52  23  50  1   
 53  24  25  1   
 54  24  51  1   
 55  25  52  1   
@<TRIPOS>SUBSTRUCTURE
  1 ****  11 GROUP 4 **** **** 0

# MOE 2024.06 (io_trps.svl 2023.06)
