@<TRIPOS>MOLECULE
NONAME
64 67 1 0 0 
SMALL
USER_CHARGES


@<TRIPOS>ATOM
  1 O       -0.6340     0.3070     0.4520 O.2   1 <1>  -0.5700 
  2 C       -1.6950     0.8780     0.3650 C.2   1 <1>   0.5690 
  3 N       -2.8510     0.1860     0.1380 N.am  1 <1>  -0.6600 
  4 C       -1.7390     2.3940     0.4920 C.3   1 <1>  -0.0990 
  5 C       -4.2150     0.7500    -0.0250 C.3   1 <1>   0.1400 
  6 C       -2.8750    -1.2870    -0.0410 C.3   1 <1>   0.1400 
  7 C       -0.3960     3.0230     0.9150 C.3   1 <1>  -0.0990 
  8 C       -5.1420    -0.4590     0.0990 C.3   1 <1>   0.2000 
  9 C       -4.3110    -1.6160    -0.4730 C.3   1 <1>  -0.0800 
 10 C       -0.4670     4.5360     0.9710 C.2   1 <1>   0.5690 
 11 O       -5.3840    -0.6800     1.4470 O.3   1 <1>  -0.6800 
 12 C       -4.7930    -3.0210    -0.0510 C.3   1 <1>  -0.0160 
 13 O       -1.4060     5.0610     1.5170 O.2   1 <1>  -0.5700 
 14 N        0.5370     5.2480     0.4030 N.am  1 <1>  -0.7300 
 15 C       -4.0980    -4.2190    -0.7120 C.ar  1 <1>  -0.1440 
 16 C        0.6310     6.7170     0.3770 C.3   1 <1>   0.2200 
 17 C       -4.3560    -5.5280    -0.2340 C.ar  1 <1>   0.0000 
 18 C       -3.2330    -4.1060    -1.7650 C.ar  1 <1>  -0.1500 
 19 C        0.7060     7.1600    -1.0910 C.3   1 <1>  -0.1600 
 20 C        1.8360     7.1190     1.2360 C.3   1 <1>  -0.1600 
 21 C       -3.6870    -6.6100    -0.8580 C.ar  1 <1>   0.3100 
 22 C       -5.2460    -5.8310     0.8250 C.ar  1 <1>  -0.1500 
 23 C       -2.6270    -5.2430    -2.3130 C.ar  1 <1>   0.1600 
 24 C        0.4810     8.6710    -1.2590 C.3   1 <1>  -0.1600 
 25 C        2.1470     8.6250     1.2590 C.3   1 <1>  -0.1600 
 26 N       -2.8260    -6.4510    -1.8930 N.ar  1 <1>  -0.6200 
 27 C       -3.9190    -7.9160    -0.3970 C.ar  1 <1>  -0.1500 
 28 C       -5.4520    -7.1160     1.2490 C.ar  1 <1>  -0.1500 
 29 C        1.7480     9.5320    -1.1340 C.3   1 <1>  -0.1600 
 30 C        2.7640     9.1160    -0.0590 C.3   1 <1>  -0.1600 
 31 C       -4.7800    -8.1740     0.6340 C.ar  1 <1>  -0.1500 
 32 H       -2.0370     2.8050    -0.4550 H     1 <1>   0.0800 
 33 H       -2.4830     2.6550     1.2220 H     1 <1>   0.0800 
 34 H       -4.4400     1.4970     0.7180 H     1 <1>   0.0800 
 35 H       -4.3020     1.1780    -1.0080 H     1 <1>   0.0800 
 36 H       -2.1510    -1.5890    -0.7770 H     1 <1>   0.0800 
 37 H       -2.6370    -1.7570     0.8980 H     1 <1>   0.0800 
 38 H        0.3700     2.7270     0.2220 H     1 <1>   0.0800 
 39 H       -0.1230     2.6600     1.8890 H     1 <1>   0.0800 
 40 H       -6.0860    -0.3220    -0.4000 H     1 <1>   0.0800 
 41 H       -4.3660    -1.5370    -1.5440 H     1 <1>   0.0800 
 42 H       -4.5330    -0.6480     1.9300 H     1 <1>   0.4000 
 43 H       -5.8470    -3.0940    -0.2570 H     1 <1>   0.0800 
 44 H       -4.6660    -3.1090     1.0140 H     1 <1>   0.0800 
 45 H        1.3190     4.7610    -0.0330 H     1 <1>   0.3700 
 46 H       -0.2610     7.1320     0.8190 H     1 <1>   0.0800 
 47 H       -2.9810    -3.1670    -2.2160 H     1 <1>   0.1500 
 48 H        1.6400     6.8660    -1.5340 H     1 <1>   0.0800 
 49 H       -0.0860     6.6600    -1.6210 H     1 <1>   0.0800 
 50 H        1.6280     6.8100     2.2460 H     1 <1>   0.0800 
 51 H        2.7090     6.5850     0.9060 H     1 <1>   0.0800 
 52 H       -5.7810    -5.0380     1.3130 H     1 <1>   0.1500 
 53 H       -1.9490    -5.1020    -3.1380 H     1 <1>   0.1500 
 54 H        0.0590     8.8500    -2.2330 H     1 <1>   0.0800 
 55 H       -0.2500     9.0040    -0.5420 H     1 <1>   0.0800 
 56 H        1.2680     9.1950     1.5070 H     1 <1>   0.0800 
 57 H        2.8670     8.7940     2.0420 H     1 <1>   0.0800 
 58 H       -3.3920    -8.7130    -0.8880 H     1 <1>   0.1500 
 59 H       -6.1320    -7.3270     2.0570 H     1 <1>   0.1500 
 60 H        2.2560     9.5380    -2.0830 H     1 <1>   0.0800 
 61 H        1.4380    10.5450    -0.9410 H     1 <1>   0.0800 
 62 H        3.3840     9.9710     0.1510 H     1 <1>   0.0800 
 63 H        3.4140     8.3560    -0.4560 H     1 <1>   0.0800 
 64 H       -4.9490    -9.1800     0.9770 H     1 <1>   0.1500 
@<TRIPOS>BOND
  1   1   2  2   
  2   2   3  am  
  3   2   4  1   
  4   3   5  1   
  5   3   6  1   
  6   4   7  1   
  7   4  32  1   
  8   4  33  1   
  9   5   8  1   
 10   5  34  1   
 11   5  35  1   
 12   6   9  1   
 13   6  36  1   
 14   6  37  1   
 15   7  10  1   
 16   7  38  1   
 17   7  39  1   
 18   8   9  1   
 19   8  11  1   
 20   8  40  1   
 21   9  12  1   
 22   9  41  1   
 23  10  13  2   
 24  10  14  am  
 25  11  42  1   
 26  12  15  1   
 27  12  43  1   
 28  12  44  1   
 29  14  16  1   
 30  14  45  1   
 31  15  17  ar  
 32  15  18  ar  
 33  16  19  1   
 34  16  20  1   
 35  16  46  1   
 36  17  21  ar  
 37  17  22  ar  
 38  18  23  ar  
 39  18  47  1   
 40  19  24  1   
 41  19  48  1   
 42  19  49  1   
 43  20  25  1   
 44  20  50  1   
 45  20  51  1   
 46  21  26  ar  
 47  21  27  ar  
 48  22  28  ar  
 49  22  52  1   
 50  23  26  ar  
 51  23  53  1   
 52  24  29  1   
 53  24  54  1   
 54  24  55  1   
 55  25  30  1   
 56  25  56  1   
 57  25  57  1   
 58  27  31  ar  
 59  27  58  1   
 60  28  31  ar  
 61  28  59  1   
 62  29  30  1   
 63  29  60  1   
 64  29  61  1   
 65  30  62  1   
 66  30  63  1   
 67  31  64  1   
@<TRIPOS>SUBSTRUCTURE
  1 ****   2 GROUP 4 **** **** 0

# MOE 2024.06 (io_trps.svl 2023.06)
