@<TRIPOS>MOLECULE
NONAME
50 52 1 0 0 
SMALL
USER_CHARGES


@<TRIPOS>ATOM
  1 O       -0.1670    -1.8870     0.7690 O.3   1 <1>  -0.5600 
  2 C       -0.2180    -2.5060    -0.4850 C.3   1 <1>   0.2000 
  3 C        1.0830    -2.1140     1.3430 C.3   1 <1>   0.1200 
  4 C        1.1780    -2.3080    -1.0610 C.3   1 <1>  -0.1600 
  5 C       -1.3540    -1.8910    -1.3320 C.3   1 <1>   0.3430 
  6 C        2.0620    -2.2160     0.1760 C.3   1 <1>  -0.1600 
  7 N       -2.3720    -1.2630    -0.4250 N.4   1 <1>  -0.9590 
  8 C       -3.6740    -1.9840    -0.4050 C.3   1 <1>   0.4860 
  9 C       -2.5250     0.2090    -0.6380 C.3   1 <1>   0.3430 
 10 C       -3.4400    -3.4420    -0.0420 C.ar  1 <1>  -0.1440 
 11 C       -1.2630     0.9790    -0.2360 C.3   1 <1>   0.1200 
 12 C       -3.0010    -3.7930     1.2270 C.ar  1 <1>  -0.1500 
 13 C       -3.6600    -4.4400    -0.9790 C.ar  1 <1>  -0.1500 
 14 O       -1.4790     2.3330    -0.5400 O.3   1 <1>  -0.3620 
 15 C       -2.7800    -5.1210     1.5470 C.ar  1 <1>  -0.1500 
 16 C       -3.4370    -5.7670    -0.6520 C.ar  1 <1>  -0.1500 
 17 C       -0.5080     3.2580    -0.3330 C.ar  1 <1>   0.0820 
 18 C       -2.9930    -6.1290     0.6140 C.ar  1 <1>   0.0730 
 19 C        0.7220     2.9720     0.2570 C.ar  1 <1>  -0.1500 
 20 C       -0.7830     4.5520    -0.7440 C.ar  1 <1>  -0.1500 
 21 C       -2.7610    -7.5070     0.9490 C.1   1 <1>   0.4840 
 22 C        1.6580     3.9780     0.4250 C.ar  1 <1>  -0.1500 
 23 C        0.1550     5.5560    -0.5750 C.ar  1 <1>  -0.1500 
 24 N       -2.5680    -8.5990     1.2110 N.1   1 <1>  -0.5570 
 25 C        1.3760     5.2680     0.0090 C.ar  1 <1>  -0.1500 
 26 H       -0.4050    -3.5550    -0.3180 H     1 <1>   0.0800 
 27 H        1.0380    -3.0390     1.8940 H     1 <1>   0.0800 
 28 H        1.3200    -1.3010     2.0080 H     1 <1>   0.0800 
 29 H        1.2350    -1.3880    -1.6170 H     1 <1>   0.0800 
 30 H        1.4630    -3.1240    -1.7020 H     1 <1>   0.0800 
 31 H       -1.7990    -2.6540    -1.9490 H     1 <1>   0.0800 
 32 H       -0.9360    -1.1450    -1.9870 H     1 <1>   0.0800 
 33 H        2.6780    -3.0910     0.2900 H     1 <1>   0.0800 
 34 H        2.6990    -1.3490     0.1380 H     1 <1>   0.0800 
 35 H       -1.9360    -1.3990     0.5080 H     1 <1>   0.4500 
 36 H       -4.1470    -1.9190    -1.3710 H     1 <1>   0.0800 
 37 H       -4.3300    -1.5380     0.3250 H     1 <1>   0.0800 
 38 H       -3.3430     0.5780    -0.0410 H     1 <1>   0.0800 
 39 H       -2.7430     0.4070    -1.6750 H     1 <1>   0.0800 
 40 H       -0.4060     0.6480    -0.7960 H     1 <1>   0.0800 
 41 H       -1.0830     0.8940     0.8210 H     1 <1>   0.0800 
 42 H       -2.8270    -3.0430     1.9810 H     1 <1>   0.1500 
 43 H       -4.0110    -4.2030    -1.9700 H     1 <1>   0.1500 
 44 H       -2.4400    -5.3810     2.5370 H     1 <1>   0.1500 
 45 H       -3.6140    -6.5350    -1.3880 H     1 <1>   0.1500 
 46 H        0.9740     1.9860     0.5950 H     1 <1>   0.1500 
 47 H       -1.7320     4.7730    -1.1970 H     1 <1>   0.1500 
 48 H        2.6090     3.7620     0.8800 H     1 <1>   0.1500 
 49 H       -0.0650     6.5590    -0.8980 H     1 <1>   0.1500 
 50 H        2.1060     6.0480     0.1400 H     1 <1>   0.1500 
@<TRIPOS>BOND
  1   1   2  1   
  2   1   3  1   
  3   2   4  1   
  4   2   5  1   
  5   2  26  1   
  6   3   6  1   
  7   3  27  1   
  8   3  28  1   
  9   4   6  1   
 10   4  29  1   
 11   4  30  1   
 12   5   7  1   
 13   5  31  1   
 14   5  32  1   
 15   6  33  1   
 16   6  34  1   
 17   7   8  1   
 18   7   9  1   
 19   7  35  1   
 20   8  10  1   
 21   8  36  1   
 22   8  37  1   
 23   9  11  1   
 24   9  38  1   
 25   9  39  1   
 26  10  12  ar  
 27  10  13  ar  
 28  11  14  1   
 29  11  40  1   
 30  11  41  1   
 31  12  15  ar  
 32  12  42  1   
 33  13  16  ar  
 34  13  43  1   
 35  14  17  1   
 36  15  18  ar  
 37  15  44  1   
 38  16  18  ar  
 39  16  45  1   
 40  17  19  ar  
 41  17  20  ar  
 42  18  21  1   
 43  19  22  ar  
 44  19  46  1   
 45  20  23  ar  
 46  20  47  1   
 47  21  24  3   
 48  22  25  ar  
 49  22  48  1   
 50  23  25  ar  
 51  23  49  1   
 52  25  50  1   
@<TRIPOS>SUBSTRUCTURE
  1 ****   7 GROUP 4 **** **** 0

# MOE 2024.06 (io_trps.svl 2023.06)
