@<TRIPOS>MOLECULE
NONAME
43 45 1 0 0 
SMALL
USER_CHARGES


@<TRIPOS>ATOM
  1 CL       0.7780     0.5010    -1.8270 Cl    1 <1>  -0.1230 
  2 C        2.3230    -0.0270    -1.1840 C.2   1 <1>   0.1230 
  3 C        3.3420     0.7910    -0.6910 C.2   1 <1>   0.2030 
  4 C        2.7330    -1.2990    -1.0630 C.2   1 <1>  -0.3020 
  5 N        4.3470     0.0270    -0.2720 N.2   1 <1>  -0.7070 
  6 C        3.2660     2.2460    -0.6800 C.2   1 <1>   0.7160 
  7 N        3.9580    -1.2410    -0.5120 N.pl3 1 <1>   0.3140 
  8 O        2.8830     2.8370    -1.6740 O.2   1 <1>  -0.5700 
  9 N        3.6850     3.0210     0.3970 N.am  1 <1>  -0.6600 
 10 C        4.8020    -2.4030    -0.1950 C.3   1 <1>   0.0160 
 11 C        4.5580     2.4880     1.4790 C.3   1 <1>   0.1400 
 12 C        3.4830     4.4960     0.4240 C.3   1 <1>   0.1400 
 13 C        6.0040     2.3230     0.9670 C.3   1 <1>   0.3430 
 14 C        4.8140     5.2430     0.2700 C.3   1 <1>  -0.1600 
 15 N        6.6730     3.6030     0.5360 N.4   1 <1>  -0.9590 
 16 C        5.9060     4.4420    -0.4450 C.3   1 <1>   0.3430 
 17 C        8.0420     3.3080    -0.0140 C.3   1 <1>   0.5240 
 18 C        8.9350     4.5510    -0.0220 C.2   1 <1>   0.3350 
 19 N        8.7490     5.5820     0.7050 N.2   1 <1>  -0.4100 
 20 N        9.9900     4.6440    -0.8130 N.2   1 <1>  -0.5650 
 21 O        9.7000     6.4210     0.4220 O.3   1 <1>  -0.0190 
 22 C       10.4080     5.8020    -0.4900 C.2   1 <1>   0.2980 
 23 C       11.6250     6.4940    -1.0630 C.3   1 <1>  -0.0600 
 24 H        2.2320    -2.2110    -1.3290 H     1 <1>   0.1500 
 25 H        4.3050    -3.0100     0.5380 H     1 <1>   0.0800 
 26 H        5.7440    -2.0650     0.1950 H     1 <1>   0.0800 
 27 H        4.9660    -2.9750    -1.0890 H     1 <1>   0.0800 
 28 H        4.1820     1.5330     1.8050 H     1 <1>   0.0800 
 29 H        4.5400     3.1430     2.3320 H     1 <1>   0.0800 
 30 H        3.0050     4.7770     1.3480 H     1 <1>   0.0800 
 31 H        2.8180     4.7920    -0.3720 H     1 <1>   0.0800 
 32 H        5.9900     1.6360     0.1390 H     1 <1>   0.0800 
 33 H        6.5860     1.8660     1.7500 H     1 <1>   0.0800 
 34 H        5.1640     5.5830     1.2290 H     1 <1>   0.0800 
 35 H        4.6140     6.1260    -0.3100 H     1 <1>   0.0800 
 36 H        6.8370     4.2020     1.3590 H     1 <1>   0.4500 
 37 H        6.5780     5.1450    -0.9120 H     1 <1>   0.0800 
 38 H        5.4740     3.8290    -1.2210 H     1 <1>   0.0800 
 39 H        7.9610     2.9300    -1.0190 H     1 <1>   0.0800 
 40 H        8.5270     2.5590     0.5880 H     1 <1>   0.0800 
 41 H       12.0980     5.8640    -1.7940 H     1 <1>   0.0800 
 42 H       12.3270     6.7050    -0.2780 H     1 <1>   0.0800 
 43 H       11.3330     7.4150    -1.5320 H     1 <1>   0.0800 
@<TRIPOS>BOND
  1   1   2  1   
  2   2   3  1   
  3   2   4  2   
  4   3   5  2   
  5   3   6  1   
  6   4   7  1   
  7   4  24  1   
  8   5   7  1   
  9   6   8  2   
 10   6   9  am  
 11   7  10  1   
 12   9  11  1   
 13   9  12  1   
 14  10  25  1   
 15  10  26  1   
 16  10  27  1   
 17  11  13  1   
 18  11  28  1   
 19  11  29  1   
 20  12  14  1   
 21  12  30  1   
 22  12  31  1   
 23  13  15  1   
 24  13  32  1   
 25  13  33  1   
 26  14  16  1   
 27  14  34  1   
 28  14  35  1   
 29  15  16  1   
 30  15  17  1   
 31  15  36  1   
 32  16  37  1   
 33  16  38  1   
 34  17  18  1   
 35  17  39  1   
 36  17  40  1   
 37  18  19  2   
 38  18  20  1   
 39  19  21  1   
 40  20  22  2   
 41  21  22  1   
 42  22  23  1   
 43  23  41  1   
 44  23  42  1   
 45  23  43  1   
@<TRIPOS>SUBSTRUCTURE
  1 ****  13 GROUP 4 **** **** 0

# MOE 2024.06 (io_trps.svl 2023.06)
