@<TRIPOS>MOLECULE
NONAME
48 51 1 0 0 
SMALL
USER_CHARGES


@<TRIPOS>ATOM
  1 O        1.0090     0.3680     1.1910 O.3   1 <1>  -0.6800 
  2 C        1.7880    -0.0250     0.1110 C.3   1 <1>   0.2000 
  3 C        2.6480    -1.2280     0.5040 C.3   1 <1>  -0.0800 
  4 C        2.7860     1.0740    -0.2740 C.3   1 <1>   0.1100 
  5 C        4.0080    -0.9150    -0.1150 C.3   1 <1>   0.1100 
  6 C        2.0630    -2.5720     0.0410 C.3   1 <1>  -0.0170 
  7 N        4.1300     0.5340     0.0000 N.3   1 <1>  -0.8100 
  8 C        3.0240    -3.7170     0.3130 C.ar  1 <1>   0.1670 
  9 C        5.1680     1.0870    -0.8880 C.3   1 <1>   0.2900 
 10 N        3.8010    -4.0880    -0.6580 N.ar  1 <1>  -0.6200 
 11 C        3.0380    -4.3040     1.5890 C.ar  1 <1>  -0.1500 
 12 C        5.2860     2.5980    -0.7550 C.2   1 <1>   0.0070 
 13 C        4.6700    -5.1040    -0.4200 C.ar  1 <1>   0.3100 
 14 C        3.9020    -5.3220     1.8560 C.ar  1 <1>  -0.1500 
 15 N        5.2440     3.4120    -1.7520 N.2   1 <1>  -0.5650 
 16 N        5.4570     3.2540     0.4040 N.pl3 1 <1>   0.3140 
 17 C        4.7590    -5.7540     0.8310 C.ar  1 <1>   0.0000 
 18 C        5.5210    -5.5260    -1.4540 C.ar  1 <1>  -0.1500 
 19 C        5.3990     4.5910    -1.1410 C.2   1 <1>   0.3660 
 20 N        5.5330     4.5550     0.1420 N.2   1 <1>  -0.7070 
 21 C        5.5530     2.7390     1.7890 C.3   1 <1>   0.0960 
 22 C        5.6940    -6.7950     0.9970 C.ar  1 <1>  -0.1500 
 23 C        6.4230    -6.5410    -1.2730 C.ar  1 <1>  -0.1500 
 24 C        6.9420     2.1550     2.0780 C.3   1 <1>  -0.2400 
 25 C        6.5090    -7.1820    -0.0320 C.ar  1 <1>  -0.1500 
 26 H        0.4070    -0.3500     1.4590 H     1 <1>   0.4000 
 27 H        1.1370    -0.2350    -0.7200 H     1 <1>   0.0800 
 28 H        2.7870    -1.2410     1.5710 H     1 <1>   0.0800 
 29 H        2.6190     1.9770     0.2900 H     1 <1>   0.0800 
 30 H        2.6840     1.2890    -1.3240 H     1 <1>   0.0800 
 31 H        4.0180    -1.2090    -1.1530 H     1 <1>   0.0800 
 32 H        4.8070    -1.4150     0.4060 H     1 <1>   0.0800 
 33 H        1.8600    -2.5360    -1.0150 H     1 <1>   0.0800 
 34 H        1.1330    -2.7580     0.5450 H     1 <1>   0.0800 
 35 H        6.1160     0.6410    -0.6460 H     1 <1>   0.0800 
 36 H        4.9390     0.8440    -1.9110 H     1 <1>   0.0800 
 37 H        2.3650    -3.9390     2.3430 H     1 <1>   0.1500 
 38 H        3.9420    -5.7960     2.8210 H     1 <1>   0.1500 
 39 H        5.4380    -5.0220    -2.3990 H     1 <1>   0.1500 
 40 H        5.4090     5.5080    -1.7090 H     1 <1>   0.1500 
 41 H        5.3590     3.5570     2.4600 H     1 <1>   0.0800 
 42 H        4.7920     1.9970     1.9440 H     1 <1>   0.0800 
 43 H        5.7550    -7.2850     1.9520 H     1 <1>   0.1500 
 44 H        7.0690    -6.8550    -2.0740 H     1 <1>   0.1500 
 45 H        7.6990     2.9020     1.9150 H     1 <1>   0.0800 
 46 H        7.1320     1.3050     1.4480 H     1 <1>   0.0800 
 47 H        6.9920     1.8350     3.1030 H     1 <1>   0.0800 
 48 H        7.2220    -7.9780     0.0970 H     1 <1>   0.1500 
@<TRIPOS>BOND
  1   1   2  1   
  2   1  26  1   
  3   2   3  1   
  4   2   4  1   
  5   2  27  1   
  6   3   5  1   
  7   3   6  1   
  8   3  28  1   
  9   4   7  1   
 10   4  29  1   
 11   4  30  1   
 12   5   7  1   
 13   5  31  1   
 14   5  32  1   
 15   6   8  1   
 16   6  33  1   
 17   6  34  1   
 18   7   9  1   
 19   8  10  ar  
 20   8  11  ar  
 21   9  12  1   
 22   9  35  1   
 23   9  36  1   
 24  10  13  ar  
 25  11  14  ar  
 26  11  37  1   
 27  12  15  2   
 28  12  16  1   
 29  13  17  ar  
 30  13  18  ar  
 31  14  17  ar  
 32  14  38  1   
 33  15  19  1   
 34  16  20  1   
 35  16  21  1   
 36  17  22  ar  
 37  18  23  ar  
 38  18  39  1   
 39  19  20  2   
 40  19  40  1   
 41  21  24  1   
 42  21  41  1   
 43  21  42  1   
 44  22  25  ar  
 45  22  43  1   
 46  23  25  ar  
 47  23  44  1   
 48  24  45  1   
 49  24  46  1   
 50  24  47  1   
 51  25  48  1   
@<TRIPOS>SUBSTRUCTURE
  1 ****   5 GROUP 4 **** **** 0

# MOE 2024.06 (io_trps.svl 2023.06)
