@<TRIPOS>MOLECULE
NONAME
42 44 1 0 0 
SMALL
USER_CHARGES


@<TRIPOS>ATOM
  1 O       -1.1360    -1.4870     0.1610 O.2   1 <1>  -0.5700 
  2 C        0.0090    -1.8230     0.3690 C.2   1 <1>   0.7800 
  3 O        0.6540    -1.4890     1.4760 O.3   1 <1>  -0.4300 
  4 N        0.7620    -2.6020    -0.4340 N.am  1 <1>  -0.6600 
  5 C        1.9420    -2.0790     1.5050 C.3   1 <1>   0.1200 
  6 C        2.0380    -2.9050     0.2160 C.3   1 <1>   0.1400 
  7 C        0.2690    -3.3660    -1.6180 C.3   1 <1>   0.2010 
  8 C        0.1030    -4.8620    -1.3410 C.2   1 <1>   0.5690 
  9 O        0.9860    -5.6030    -1.7090 O.2   1 <1>  -0.5700 
 10 N       -1.0030    -5.3420    -0.6920 N.am  1 <1>  -0.6600 
 11 C       -2.1310    -4.5400    -0.1480 C.3   1 <1>   0.1400 
 12 C       -1.1970    -6.7840    -0.4010 C.3   1 <1>   0.1400 
 13 C       -3.1760    -5.5780     0.2620 C.3   1 <1>   0.2000 
 14 C       -2.3810    -6.8450     0.5660 C.3   1 <1>  -0.0800 
 15 O       -3.8930    -5.1790     1.3770 O.3   1 <1>  -0.6800 
 16 C       -3.2150    -8.1280     0.4400 C.3   1 <1>   0.0210 
 17 C       -2.3490    -9.3630     0.6030 C.2   1 <1>   0.1080 
 18 N       -1.6830    -9.6190     1.6860 N.2   1 <1>  -0.7070 
 19 C       -2.1620   -10.3370    -0.3710 C.2   1 <1>  -0.1500 
 20 N       -1.0480   -10.7770     1.4290 N.pl3 1 <1>   0.3000 
 21 C       -1.3210   -11.2320     0.1880 C.2   1 <1>  -0.3320 
 22 C       -0.7510   -12.5110    -0.3960 C.3   1 <1>  -0.0600 
 23 H        2.6780    -1.2960     1.5310 H     1 <1>   0.0800 
 24 H        2.0220    -2.6970     2.3820 H     1 <1>   0.0800 
 25 H        2.1200    -3.9570     0.4330 H     1 <1>   0.0800 
 26 H        2.8660    -2.5890    -0.3950 H     1 <1>   0.0800 
 27 H       -0.6710    -2.9600    -1.9420 H     1 <1>   0.0800 
 28 H        0.9700    -3.2450    -2.4240 H     1 <1>   0.0800 
 29 H       -1.7920    -3.9890     0.7110 H     1 <1>   0.0800 
 30 H       -2.5260    -3.8690    -0.8910 H     1 <1>   0.0800 
 31 H       -1.4210    -7.2980    -1.3200 H     1 <1>   0.0800 
 32 H       -0.3110    -7.2130     0.0380 H     1 <1>   0.0800 
 33 H       -3.8680    -5.7340    -0.5480 H     1 <1>   0.0800 
 34 H       -1.9760    -6.7870     1.5620 H     1 <1>   0.0800 
 35 H       -3.2960    -5.0610     2.1410 H     1 <1>   0.4000 
 36 H       -3.7000    -8.1610    -0.5190 H     1 <1>   0.0800 
 37 H       -3.9750    -8.1370     1.2000 H     1 <1>   0.0800 
 38 H       -2.6030   -10.3490    -1.3520 H     1 <1>   0.1500 
 39 H       -0.4370   -11.2300     2.1190 H     1 <1>   0.2700 
 40 H       -1.1160   -12.6550    -1.3980 H     1 <1>   0.0800 
 41 H       -1.0460   -13.3560     0.2000 H     1 <1>   0.0800 
 42 H        0.3230   -12.4600    -0.4280 H     1 <1>   0.0800 
@<TRIPOS>BOND
  1   1   2  2   
  2   2   3  1   
  3   2   4  am  
  4   3   5  1   
  5   4   6  1   
  6   4   7  1   
  7   5   6  1   
  8   5  23  1   
  9   5  24  1   
 10   6  25  1   
 11   6  26  1   
 12   7   8  1   
 13   7  27  1   
 14   7  28  1   
 15   8   9  2   
 16   8  10  am  
 17  10  11  1   
 18  10  12  1   
 19  11  13  1   
 20  11  29  1   
 21  11  30  1   
 22  12  14  1   
 23  12  31  1   
 24  12  32  1   
 25  13  14  1   
 26  13  15  1   
 27  13  33  1   
 28  14  16  1   
 29  14  34  1   
 30  15  35  1   
 31  16  17  1   
 32  16  36  1   
 33  16  37  1   
 34  17  18  2   
 35  17  19  1   
 36  18  20  1   
 37  19  21  2   
 38  19  38  1   
 39  20  21  1   
 40  20  39  1   
 41  21  22  1   
 42  22  40  1   
 43  22  41  1   
 44  22  42  1   
@<TRIPOS>SUBSTRUCTURE
  1 ****  12 GROUP 4 **** **** 0

# MOE 2024.06 (io_trps.svl 2023.06)
