@<TRIPOS>MOLECULE
NONAME
42 43 1 0 0 
SMALL
USER_CHARGES


@<TRIPOS>ATOM
  1 F       -0.8200     3.0590    -2.5240 F     1 <1>  -0.1900 
  2 C       -1.4730     2.7250    -1.4410 C.ar  1 <1>   0.1900 
  3 C       -0.7910     2.6470    -0.2360 C.ar  1 <1>  -0.1440 
  4 C       -2.8290     2.4800    -1.5500 C.ar  1 <1>  -0.1500 
  5 C       -1.5250     2.3260     0.8990 C.ar  1 <1>  -0.1500 
  6 C        0.7100     2.9360    -0.1640 C.3   1 <1>   0.3940 
  7 C       -3.5390     2.1500    -0.4090 C.ar  1 <1>  -0.1500 
  8 C       -2.8860     2.0770     0.8120 C.ar  1 <1>  -0.1500 
  9 N        1.4020     1.9630     0.7500 N.3   1 <1>  -0.8100 
 10 C        0.8850     4.4500     0.1260 C.2   1 <1>   0.5690 
 11 C        1.2730     0.5740     0.2810 C.3   1 <1>   0.0300 
 12 C        2.8230     2.2880     0.9480 C.3   1 <1>   0.0300 
 13 O        1.0480     4.8640     1.2520 O.2   1 <1>  -0.5700 
 14 N        0.8120     5.2970    -0.9480 N.am  1 <1>  -0.4940 
 15 C        0.9630     6.6850    -0.9980 C.2   1 <1>   0.2040 
 16 O        0.1640     7.3600    -1.7880 O.3   1 <1>  -0.0190 
 17 C        1.7980     7.5710    -0.4120 C.2   1 <1>  -0.1810 
 18 N        0.3960     8.6440    -1.7440 N.2   1 <1>  -0.4100 
 19 C        1.3680     8.7990    -0.9190 C.2   1 <1>   0.1080 
 20 C        2.9540     7.3450     0.5540 C.3   1 <1>   0.0210 
 21 C        1.9350    10.1610    -0.5780 C.3   1 <1>  -0.0590 
 22 C        4.3010     7.6230    -0.1180 C.3   1 <1>  -0.2400 
 23 H       -3.3160     2.5490    -2.5060 H     1 <1>   0.1500 
 24 H       -1.0280     2.2710     1.8550 H     1 <1>   0.1500 
 25 H        1.1300     2.7730    -1.1390 H     1 <1>   0.0800 
 26 H       -4.5960     1.9550    -0.4670 H     1 <1>   0.1500 
 27 H       -3.4380     1.8270     1.7020 H     1 <1>   0.1500 
 28 H        0.2360     0.2900     0.2210 H     1 <1>   0.0800 
 29 H        1.7560    -0.0920     0.9750 H     1 <1>   0.0800 
 30 H        1.7260     0.4570    -0.6890 H     1 <1>   0.0800 
 31 H        2.9280     3.2470     1.4260 H     1 <1>   0.0800 
 32 H        3.3460     2.3000     0.0070 H     1 <1>   0.0800 
 33 H        3.2780     1.5550     1.5920 H     1 <1>   0.0800 
 34 H        0.3900     4.9040    -1.7900 H     1 <1>   0.3700 
 35 H        2.9570     6.3290     0.8970 H     1 <1>   0.0800 
 36 H        2.8310     7.9750     1.4170 H     1 <1>   0.0800 
 37 H        2.2390    10.1940     0.4510 H     1 <1>   0.0800 
 38 H        1.1880    10.9160    -0.7410 H     1 <1>   0.0800 
 39 H        2.7800    10.3690    -1.2080 H     1 <1>   0.0800 
 40 H        4.4160     6.9950    -0.9840 H     1 <1>   0.0800 
 41 H        5.1020     7.4130     0.5680 H     1 <1>   0.0800 
 42 H        4.3730     8.6500    -0.4230 H     1 <1>   0.0800 
@<TRIPOS>BOND
  1   1   2  1   
  2   2   3  ar  
  3   2   4  ar  
  4   3   5  ar  
  5   3   6  1   
  6   4   7  ar  
  7   4  23  1   
  8   5   8  ar  
  9   5  24  1   
 10   6   9  1   
 11   6  10  1   
 12   6  25  1   
 13   7   8  ar  
 14   7  26  1   
 15   8  27  1   
 16   9  11  1   
 17   9  12  1   
 18  10  13  2   
 19  10  14  am  
 20  11  28  1   
 21  11  29  1   
 22  11  30  1   
 23  12  31  1   
 24  12  32  1   
 25  12  33  1   
 26  14  15  1   
 27  14  34  1   
 28  15  16  1   
 29  15  17  2   
 30  16  18  1   
 31  17  19  1   
 32  17  20  1   
 33  18  19  2   
 34  19  21  1   
 35  20  22  1   
 36  20  35  1   
 37  20  36  1   
 38  21  37  1   
 39  21  38  1   
 40  21  39  1   
 41  22  40  1   
 42  22  41  1   
 43  22  42  1   
@<TRIPOS>SUBSTRUCTURE
  1 ****  10 GROUP 4 **** **** 0

# MOE 2024.06 (io_trps.svl 2023.06)
