@<TRIPOS>MOLECULE
NONAME
42 44 1 0 0 
SMALL
USER_CHARGES


@<TRIPOS>ATOM
  1 CL      -0.6320     1.0920    -1.7950 Cl    1 <1>  -0.1770 
  2 C       -1.6430     1.5710    -0.4350 C.ar  1 <1>   0.1770 
  3 C       -1.2210     2.5700     0.4930 C.ar  1 <1>   0.4100 
  4 C       -2.8660     0.9870    -0.2840 C.ar  1 <1>   0.2170 
  5 N       -2.0010     2.9040     1.5100 N.ar  1 <1>  -0.6200 
  6 N       -0.0450     3.2620     0.4240 N.pl3 1 <1>  -0.8380 
  7 N       -3.6250     1.4040     0.7610 N.ar  1 <1>  -0.1790 
  8 C       -3.4630    -0.0870    -1.1890 C.3   1 <1>  -0.0970 
  9 C       -3.1840     2.3430     1.6130 C.ar  1 <1>   0.7710 
 10 C        0.1410     4.6070     1.0720 C.3   1 <1>   0.4690 
 11 C        1.2290     2.8270    -0.2020 C.3   1 <1>   0.2090 
 12 N       -3.9480     2.7570     2.6180 N.pl3 1 <1>  -0.9000 
 13 C       -0.9310     5.6370     0.6780 C.2   1 <1>   0.2980 
 14 C        1.5600     5.0310     0.6870 C.3   1 <1>  -0.1600 
 15 C        2.2940     3.7230     0.4140 C.3   1 <1>  -0.1600 
 16 O       -1.8180     5.9570     1.5870 O.3   1 <1>  -0.0190 
 17 N       -1.0760     6.2190    -0.4500 N.2   1 <1>  -0.5650 
 18 N       -2.5950     6.8060     0.9890 N.2   1 <1>  -0.4100 
 19 C       -2.1500     6.9560    -0.1970 C.2   1 <1>   0.3350 
 20 C       -2.7340     7.8780    -1.2690 C.3   1 <1>   0.1010 
 21 C       -2.0200     9.2370    -1.2580 C.3   1 <1>  -0.2400 
 22 C       -4.2500     8.0780    -1.1100 C.3   1 <1>  -0.2400 
 23 H       -4.5540     1.0320     0.9330 H     1 <1>   0.4570 
 24 H       -2.7920    -0.3650    -1.9810 H     1 <1>   0.0800 
 25 H       -4.3710     0.2700    -1.6430 H     1 <1>   0.0800 
 26 H       -3.6830    -0.9750    -0.6220 H     1 <1>   0.0800 
 27 H        0.1080     4.4690     2.1390 H     1 <1>   0.0800 
 28 H        1.4310     1.7870    -0.0100 H     1 <1>   0.0800 
 29 H        1.1830     3.0060    -1.2640 H     1 <1>   0.0800 
 30 H       -4.8970     2.4770     2.8700 H     1 <1>   0.4000 
 31 H       -3.5730     3.5050     3.2130 H     1 <1>   0.4000 
 32 H        1.5320     5.6200    -0.2140 H     1 <1>   0.0800 
 33 H        2.0240     5.6100     1.4650 H     1 <1>   0.0800 
 34 H        2.6320     3.2860     1.3380 H     1 <1>   0.0800 
 35 H        3.1350     3.8530    -0.2430 H     1 <1>   0.0800 
 36 H       -2.5600     7.4130    -2.2240 H     1 <1>   0.0800 
 37 H       -2.1670     9.7270    -0.3110 H     1 <1>   0.0800 
 38 H       -2.3990     9.8680    -2.0410 H     1 <1>   0.0800 
 39 H       -0.9650     9.0960    -1.4110 H     1 <1>   0.0800 
 40 H       -4.4690     8.5650    -0.1760 H     1 <1>   0.0800 
 41 H       -4.7500     7.1260    -1.1260 H     1 <1>   0.0800 
 42 H       -4.6340     8.6810    -1.9130 H     1 <1>   0.0800 
@<TRIPOS>BOND
  1   1   2  1   
  2   2   3  ar  
  3   2   4  ar  
  4   3   5  ar  
  5   3   6  1   
  6   4   7  ar  
  7   4   8  1   
  8   5   9  ar  
  9   6  10  1   
 10   6  11  1   
 11   7   9  ar  
 12   7  23  1   
 13   8  24  1   
 14   8  25  1   
 15   8  26  1   
 16   9  12  1   
 17  10  13  1   
 18  10  14  1   
 19  10  27  1   
 20  11  15  1   
 21  11  28  1   
 22  11  29  1   
 23  12  30  1   
 24  12  31  1   
 25  13  16  1   
 26  13  17  2   
 27  14  15  1   
 28  14  32  1   
 29  14  33  1   
 30  15  34  1   
 31  15  35  1   
 32  16  18  1   
 33  17  19  1   
 34  18  19  2   
 35  19  20  1   
 36  20  21  1   
 37  20  22  1   
 38  20  36  1   
 39  21  37  1   
 40  21  38  1   
 41  21  39  1   
 42  22  40  1   
 43  22  41  1   
 44  22  42  1   
@<TRIPOS>SUBSTRUCTURE
  1 ****   3 GROUP 4 **** **** 0

# MOE 2024.06 (io_trps.svl 2023.06)
