@<TRIPOS>MOLECULE
NONAME
45 48 1 0 0 
SMALL
USER_CHARGES


@<TRIPOS>ATOM
  1 O        4.3820    -1.8700    -1.8680 O.2   1 <1>  -0.5700 
  2 C        3.4240    -1.7440    -1.1280 C.2   1 <1>   0.5440 
  3 N        3.2700    -0.5110    -0.5510 N.am  1 <1>  -0.6600 
  4 C        2.5370    -2.8500    -0.8230 C.ar  1 <1>   0.0860 
  5 C        3.8850    -0.3090     0.8090 C.3   1 <1>   0.2200 
  6 C        3.1030     0.6700    -1.4550 C.3   1 <1>   0.1400 
  7 C        2.8690    -4.1540    -1.2520 C.ar  1 <1>   0.1600 
  8 C        1.3660    -2.7060    -0.1200 C.ar  1 <1>  -0.1500 
  9 C        3.2690     0.8710     1.5780 C.3   1 <1>   0.1200 
 10 C        5.4280    -0.1590     0.7170 C.3   1 <1>   0.3430 
 11 C        4.0170     1.8720    -1.1460 C.3   1 <1>  -0.0800 
 12 N        2.1730    -5.2240    -1.0200 N.ar  1 <1>  -0.6200 
 13 C        0.5740    -3.8320     0.1520 C.ar  1 <1>   0.0000 
 14 O        3.9260     2.0610     1.2620 O.3   1 <1>  -0.5600 
 15 N        5.9030     0.1950    -0.6660 N.4   1 <1>  -0.9590 
 16 C        3.5380     2.6700     0.0770 C.3   1 <1>   0.1200 
 17 C        5.5320     1.5780    -1.1010 C.3   1 <1>   0.3430 
 18 C        1.0200    -5.0860    -0.3180 C.ar  1 <1>   0.3100 
 19 C       -0.6370    -3.7640     0.8710 C.ar  1 <1>  -0.1500 
 20 C        7.3600    -0.0640    -0.8310 C.3   1 <1>   0.2630 
 21 C        0.2410    -6.2210    -0.0470 C.ar  1 <1>  -0.1500 
 22 C       -1.3750    -4.8910     1.1180 C.ar  1 <1>  -0.1500 
 23 C       -0.9310    -6.1340     0.6550 C.ar  1 <1>  -0.1500 
 24 H        3.6780    -1.1900     1.3940 H     1 <1>   0.0800 
 25 H        3.2810     0.3580    -2.4720 H     1 <1>   0.0800 
 26 H        2.0750     0.9890    -1.4070 H     1 <1>   0.0800 
 27 H        3.7790    -4.2720    -1.8170 H     1 <1>   0.1500 
 28 H        1.0340    -1.7450     0.2270 H     1 <1>   0.1500 
 29 H        3.4130     0.7170     2.6340 H     1 <1>   0.0800 
 30 H        2.2120     0.9660     1.3930 H     1 <1>   0.0800 
 31 H        5.8650    -1.1010     1.0040 H     1 <1>   0.0800 
 32 H        5.7630     0.5800     1.4260 H     1 <1>   0.0800 
 33 H        3.8800     2.5490    -1.9700 H     1 <1>   0.0800 
 34 H        5.3820    -0.4650    -1.2880 H     1 <1>   0.4500 
 35 H        2.4670     2.7960     0.0790 H     1 <1>   0.0800 
 36 H        3.9870     3.6490     0.0710 H     1 <1>   0.0800 
 37 H        6.0060     2.2980    -0.4530 H     1 <1>   0.0800 
 38 H        5.9250     1.7310    -2.0940 H     1 <1>   0.0800 
 39 H       -0.9790    -2.8080     1.2250 H     1 <1>   0.1500 
 40 H        7.9310     0.5810    -0.1830 H     1 <1>   0.0800 
 41 H        7.6570     0.1170    -1.8510 H     1 <1>   0.0800 
 42 H        7.5850    -1.0900    -0.5880 H     1 <1>   0.0800 
 43 H        0.5980    -7.1670    -0.4130 H     1 <1>   0.1500 
 44 H       -2.3000    -4.8380     1.6670 H     1 <1>   0.1500 
 45 H       -1.5210    -7.0120     0.8560 H     1 <1>   0.1500 
@<TRIPOS>BOND
  1   1   2  2   
  2   2   3  am  
  3   2   4  1   
  4   3   5  1   
  5   3   6  1   
  6   4   7  ar  
  7   4   8  ar  
  8   5   9  1   
  9   5  10  1   
 10   5  24  1   
 11   6  11  1   
 12   6  25  1   
 13   6  26  1   
 14   7  12  ar  
 15   7  27  1   
 16   8  13  ar  
 17   8  28  1   
 18   9  14  1   
 19   9  29  1   
 20   9  30  1   
 21  10  15  1   
 22  10  31  1   
 23  10  32  1   
 24  11  16  1   
 25  11  17  1   
 26  11  33  1   
 27  12  18  ar  
 28  13  18  ar  
 29  13  19  ar  
 30  14  16  1   
 31  15  17  1   
 32  15  20  1   
 33  15  34  1   
 34  16  35  1   
 35  16  36  1   
 36  17  37  1   
 37  17  38  1   
 38  18  21  ar  
 39  19  22  ar  
 40  19  39  1   
 41  20  40  1   
 42  20  41  1   
 43  20  42  1   
 44  21  23  ar  
 45  21  43  1   
 46  22  23  ar  
 47  22  44  1   
 48  23  45  1   
@<TRIPOS>SUBSTRUCTURE
  1 ****   2 GROUP 4 **** **** 0

# MOE 2024.06 (io_trps.svl 2023.06)
