@<TRIPOS>MOLECULE
NONAME
54 57 1 0 0 
SMALL
USER_CHARGES


@<TRIPOS>ATOM
  1 O       -1.1860    -0.0070     1.0730 O.2   1 <1>  -0.5700 
  2 C       -2.0040     0.8970     1.1390 C.2   1 <1>   0.5440 
  3 N       -3.3320     0.5460     1.2480 N.am  1 <1>  -0.6600 
  4 C       -1.5760     2.2820     1.0670 C.ar  1 <1>   0.0860 
  5 C       -3.7040    -0.8400     1.6460 C.3   1 <1>   0.1400 
  6 C       -4.3840     1.2210     0.4360 C.3   1 <1>   0.1400 
  7 C       -0.5060     2.6600     0.2720 C.ar  1 <1>  -0.1500 
  8 C       -2.2370     3.2860     1.8080 C.ar  1 <1>  -0.1500 
  9 C       -3.8730    -1.6870     0.3630 C.3   1 <1>   0.4230 
 10 C       -4.6320     0.3910    -0.8330 C.3   1 <1>  -0.1600 
 11 C       -0.1070     3.9950     0.1910 C.ar  1 <1>   0.0000 
 12 C       -1.8600     4.6050     1.7440 C.ar  1 <1>  -0.1500 
 13 N       -4.1220    -3.1480     0.6100 N.4   1 <1>  -0.9590 
 14 C       -4.9980    -1.0880    -0.5120 C.3   1 <1>  -0.1060 
 15 C       -0.7870     4.9590     0.9240 C.ar  1 <1>  -0.1520 
 16 C        0.9110     4.6740    -0.5170 C.2   1 <1>  -0.1810 
 17 C       -4.1530    -3.9250    -0.6550 C.3   1 <1>   0.3430 
 18 C       -3.2420    -3.7690     1.6350 C.3   1 <1>   0.2630 
 19 C       -6.3230    -1.1650     0.2720 C.2   1 <1>   0.9060 
 20 C       -5.0980    -1.8760    -1.8390 C.3   1 <1>  -0.1600 
 21 N       -0.2110     6.1740     0.6740 N.pl3 1 <1>   0.0330 
 22 C        0.8220     5.9910    -0.2050 C.2   1 <1>  -0.3320 
 23 C        1.8840     3.9620    -1.4380 C.3   1 <1>  -0.0590 
 24 C       -5.2400    -3.3860    -1.5880 C.3   1 <1>  -0.1600 
 25 O       -6.5030    -2.1110     1.0560 O.co2 1 <1>  -0.9000 
 26 O       -7.1690    -0.2850     0.1220 O.co2 1 <1>  -0.9000 
 27 C        1.6580     7.1690    -0.6730 C.3   1 <1>  -0.0600 
 28 H       -2.9250    -1.2420     2.2670 H     1 <1>   0.0800 
 29 H       -4.6150    -0.8140     2.2190 H     1 <1>   0.0800 
 30 H       -5.2910     1.3000     1.0140 H     1 <1>   0.0800 
 31 H       -4.0800     2.2150     0.1590 H     1 <1>   0.0800 
 32 H        0.0320     1.9220    -0.2940 H     1 <1>   0.1500 
 33 H       -3.0580     2.9950     2.4410 H     1 <1>   0.1500 
 34 H       -2.9470    -1.5990    -0.1790 H     1 <1>   0.0800 
 35 H       -5.4330     0.8470    -1.3900 H     1 <1>   0.0800 
 36 H       -3.7490     0.4350    -1.4460 H     1 <1>   0.0800 
 37 H       -2.3740     5.3600     2.3130 H     1 <1>   0.1500 
 38 H       -5.1160    -3.1190     0.9660 H     1 <1>   0.4500 
 39 H       -3.1950    -3.8580    -1.1420 H     1 <1>   0.0800 
 40 H       -4.3570    -4.9610    -0.4400 H     1 <1>   0.0800 
 41 H       -2.2090    -3.6860     1.3390 H     1 <1>   0.0800 
 42 H       -3.4920    -4.8100     1.7550 H     1 <1>   0.0800 
 43 H       -3.3740    -3.2780     2.5840 H     1 <1>   0.0800 
 44 H       -5.9500    -1.5240    -2.3990 H     1 <1>   0.0800 
 45 H       -4.2180    -1.7020    -2.4340 H     1 <1>   0.0800 
 46 H       -0.5050     7.0640     1.0840 H     1 <1>   0.2700 
 47 H        2.4340     3.2250    -0.8810 H     1 <1>   0.0800 
 48 H        2.5790     4.6520    -1.8750 H     1 <1>   0.0800 
 49 H        1.3430     3.4720    -2.2260 H     1 <1>   0.0800 
 50 H       -5.1920    -3.9090    -2.5260 H     1 <1>   0.0800 
 51 H       -6.2050    -3.5940    -1.1580 H     1 <1>   0.0800 
 52 H        2.4220     6.8520    -1.3580 H     1 <1>   0.0800 
 53 H        2.1330     7.6410     0.1680 H     1 <1>   0.0800 
 54 H        1.0340     7.8890    -1.1720 H     1 <1>   0.0800 
@<TRIPOS>BOND
  1   1   2  2   
  2   2   3  am  
  3   2   4  1   
  4   3   5  1   
  5   3   6  1   
  6   4   7  ar  
  7   4   8  ar  
  8   5   9  1   
  9   5  28  1   
 10   5  29  1   
 11   6  10  1   
 12   6  30  1   
 13   6  31  1   
 14   7  11  ar  
 15   7  32  1   
 16   8  12  ar  
 17   8  33  1   
 18   9  13  1   
 19   9  14  1   
 20   9  34  1   
 21  10  14  1   
 22  10  35  1   
 23  10  36  1   
 24  11  15  ar  
 25  11  16  1   
 26  12  15  ar  
 27  12  37  1   
 28  13  17  1   
 29  13  18  1   
 30  13  38  1   
 31  14  19  1   
 32  14  20  1   
 33  15  21  1   
 34  16  22  2   
 35  16  23  1   
 36  17  24  1   
 37  17  39  1   
 38  17  40  1   
 39  18  41  1   
 40  18  42  1   
 41  18  43  1   
 42  19  25  ar  
 43  19  26  ar  
 44  20  24  1   
 45  20  44  1   
 46  20  45  1   
 47  21  22  1   
 48  21  46  1   
 49  22  27  1   
 50  23  47  1   
 51  23  48  1   
 52  23  49  1   
 53  24  50  1   
 54  24  51  1   
 55  27  52  1   
 56  27  53  1   
 57  27  54  1   
@<TRIPOS>SUBSTRUCTURE
  1 ****   2 GROUP 4 **** **** 0

# MOE 2024.06 (io_trps.svl 2023.06)
