@<TRIPOS>MOLECULE
NONAME
43 45 1 0 0 
SMALL
USER_CHARGES


@<TRIPOS>ATOM
  1 S        2.2630     0.1400    -1.2100 S.3   1 <1>  -0.0800 
  2 C        1.3870    -0.9950    -0.2400 C.2   1 <1>   0.4620 
  3 C        1.7550     1.3610    -0.0900 C.2   1 <1>   0.1980 
  4 N        0.8120    -0.4490     0.7700 N.2   1 <1>  -0.3380 
  5 N        1.3780    -2.3050    -0.6040 N.pl3 1 <1>  -0.8840 
  6 N        1.0290     0.8980     0.8470 N.2   1 <1>  -0.3380 
  7 C        2.2150     2.7800    -0.3490 C.3   1 <1>   0.0200 
  8 C        1.9510     3.6770     0.8610 C.3   1 <1>   0.2090 
  9 N        2.3790     5.0700     0.5640 N.pl3 1 <1>  -0.8690 
 10 C        3.6580     5.5090     0.8210 C.ar  1 <1>   0.4100 
 11 N        4.6070     4.5920     0.9520 N.ar  1 <1>  -0.6200 
 12 C        3.8970     6.8710     0.9230 C.ar  1 <1>  -0.1500 
 13 C        5.8190     5.0470     1.2120 C.ar  1 <1>   0.1600 
 14 C        5.1660     7.3540     1.1770 C.ar  1 <1>   0.0860 
 15 C        6.1460     6.3820     1.3330 C.ar  1 <1>  -0.1500 
 16 C        5.4420     8.7720     1.2840 C.2   1 <1>   0.5440 
 17 O        4.7780     9.4370     2.0560 O.2   1 <1>  -0.5700 
 18 N        6.4250     9.3860     0.5330 N.am  1 <1>  -0.6600 
 19 C        7.0110     8.7990    -0.7050 C.3   1 <1>   0.1400 
 20 C        6.8430    10.7920     0.7970 C.3   1 <1>   0.1400 
 21 C        6.6470     9.6690    -1.9130 C.3   1 <1>  -0.1600 
 22 C        6.4720    11.6760    -0.3980 C.3   1 <1>  -0.1600 
 23 C        7.0610    11.1330    -1.7070 C.3   1 <1>  -0.1600 
 24 H        0.8860    -2.9910    -0.0290 H     1 <1>   0.4000 
 25 H        1.8870    -2.6550    -1.4160 H     1 <1>   0.4000 
 26 H        1.6930     3.1680    -1.2030 H     1 <1>   0.0800 
 27 H        3.2690     2.7710    -0.5590 H     1 <1>   0.0800 
 28 H        2.4870     3.3010     1.7180 H     1 <1>   0.0800 
 29 H        0.9000     3.6700     1.0960 H     1 <1>   0.0800 
 30 H        1.6470     5.7620     0.7390 H     1 <1>   0.4000 
 31 H        3.0870     7.5640     0.8050 H     1 <1>   0.1500 
 32 H        6.5940     4.3100     1.3350 H     1 <1>   0.1500 
 33 H        7.1560     6.6770     1.5520 H     1 <1>   0.1500 
 34 H        6.6460     7.8010    -0.8730 H     1 <1>   0.0800 
 35 H        8.0810     8.7530    -0.5970 H     1 <1>   0.0800 
 36 H        7.9080    10.8160     0.9530 H     1 <1>   0.0800 
 37 H        6.3720    11.1710     1.6880 H     1 <1>   0.0800 
 38 H        5.5840     9.6140    -2.0710 H     1 <1>   0.0800 
 39 H        7.1290     9.2780    -2.7910 H     1 <1>   0.0800 
 40 H        6.8310    12.6750    -0.2250 H     1 <1>   0.0800 
 41 H        5.3990    11.7210    -0.4700 H     1 <1>   0.0800 
 42 H        6.7180    11.7290    -2.5350 H     1 <1>   0.0800 
 43 H        8.1350    11.1990    -1.6700 H     1 <1>   0.0800 
@<TRIPOS>BOND
  1   1   2  1   
  2   1   3  1   
  3   2   4  2   
  4   2   5  1   
  5   3   6  2   
  6   3   7  1   
  7   4   6  1   
  8   5  24  1   
  9   5  25  1   
 10   7   8  1   
 11   7  26  1   
 12   7  27  1   
 13   8   9  1   
 14   8  28  1   
 15   8  29  1   
 16   9  10  1   
 17   9  30  1   
 18  10  11  ar  
 19  10  12  ar  
 20  11  13  ar  
 21  12  14  ar  
 22  12  31  1   
 23  13  15  ar  
 24  13  32  1   
 25  14  15  ar  
 26  14  16  1   
 27  15  33  1   
 28  16  17  2   
 29  16  18  am  
 30  18  19  1   
 31  18  20  1   
 32  19  21  1   
 33  19  34  1   
 34  19  35  1   
 35  20  22  1   
 36  20  36  1   
 37  20  37  1   
 38  21  23  1   
 39  21  38  1   
 40  21  39  1   
 41  22  23  1   
 42  22  40  1   
 43  22  41  1   
 44  23  42  1   
 45  23  43  1   
@<TRIPOS>SUBSTRUCTURE
  1 ****  10 GROUP 4 **** **** 0

# MOE 2024.06 (io_trps.svl 2023.06)
