@<TRIPOS>MOLECULE
NONAME
52 54 1 0 0 
SMALL
USER_CHARGES


@<TRIPOS>ATOM
  1 F        1.5840     0.7240    -2.2490 F     1 <1>  -0.1900 
  2 C        2.4690     1.2080    -1.4010 C.ar  1 <1>   0.1900 
  3 C        3.0220     0.4270    -0.3870 C.ar  1 <1>   0.4100 
  4 C        2.8420     2.5180    -1.5150 C.ar  1 <1>   0.1600 
  5 N        3.8880     0.9710     0.4500 N.ar  1 <1>  -0.6200 
  6 N        2.7210    -0.9190    -0.1870 N.pl3 1 <1>  -0.8380 
  7 N        3.7160     3.0630    -0.6900 N.ar  1 <1>  -0.6200 
  8 C        4.1830     2.2420     0.2470 C.ar  1 <1>   0.7200 
  9 C        2.6840    -1.8730    -1.3290 C.3   1 <1>   0.1290 
 10 C        2.8820    -1.5460     1.1540 C.3   1 <1>   0.1290 
 11 N        5.0850     2.7320     1.1310 N.pl3 1 <1>  -0.8690 
 12 C        5.1680     4.1590     1.5020 C.3   1 <1>   0.2090 
 13 C        6.1370     4.8900     0.5550 C.3   1 <1>  -0.0800 
 14 C        7.5420     4.2610     0.5440 C.3   1 <1>  -0.1600 
 15 C        6.2460     6.3810     0.9080 C.3   1 <1>  -0.1600 
 16 C        8.4810     5.0210    -0.3870 C.3   1 <1>   0.3430 
 17 C        7.2170     7.1020    -0.0290 C.3   1 <1>   0.3430 
 18 N        8.5650     6.4550     0.0310 N.4   1 <1>  -0.9590 
 19 C        9.5780     7.1950    -0.7710 C.3   1 <1>   0.4230 
 20 C       10.9910     6.6260    -0.5700 C.3   1 <1>  -0.1600 
 21 C        9.6720     8.6650    -0.3520 C.3   1 <1>  -0.1600 
 22 C       11.9080     7.8010    -0.2110 C.3   1 <1>  -0.1600 
 23 C       11.1270     9.0540    -0.5880 C.3   1 <1>  -0.1600 
 24 H        2.4180     3.1280    -2.2930 H     1 <1>   0.1500 
 25 H        3.0310    -1.3990    -2.2310 H     1 <1>   0.0800 
 26 H        1.6750    -2.2160    -1.4790 H     1 <1>   0.0800 
 27 H        3.3190    -2.7180    -1.1260 H     1 <1>   0.0800 
 28 H        2.6860    -0.8230     1.9270 H     1 <1>   0.0800 
 29 H        3.8880    -1.9120     1.2650 H     1 <1>   0.0800 
 30 H        2.1890    -2.3610     1.2650 H     1 <1>   0.0800 
 31 H        5.2110     2.0660     1.8940 H     1 <1>   0.4000 
 32 H        5.5110     4.2380     2.5200 H     1 <1>   0.0800 
 33 H        4.1880     4.6030     1.4430 H     1 <1>   0.0800 
 34 H        5.7270     4.8190    -0.4390 H     1 <1>   0.0800 
 35 H        7.4780     3.2440     0.1960 H     1 <1>   0.0800 
 36 H        7.9530     4.2360     1.5380 H     1 <1>   0.0800 
 37 H        6.5700     6.5050     1.9260 H     1 <1>   0.0800 
 38 H        5.2760     6.8390     0.8170 H     1 <1>   0.0800 
 39 H        8.1100     4.9570    -1.3980 H     1 <1>   0.0800 
 40 H        9.4550     4.5620    -0.3570 H     1 <1>   0.0800 
 41 H        7.2840     8.1370     0.2640 H     1 <1>   0.0800 
 42 H        6.8380     7.0600    -1.0380 H     1 <1>   0.0800 
 43 H        8.8820     6.4800     1.0070 H     1 <1>   0.4500 
 44 H        9.3300     7.1470    -1.8200 H     1 <1>   0.0800 
 45 H       11.3240     6.1870    -1.4940 H     1 <1>   0.0800 
 46 H       11.0430     5.8860     0.2100 H     1 <1>   0.0800 
 47 H        9.4600     8.7760     0.6980 H     1 <1>   0.0800 
 48 H        9.0120     9.2900    -0.9270 H     1 <1>   0.0800 
 49 H       12.8530     7.7510    -0.7260 H     1 <1>   0.0800 
 50 H       12.0940     7.8050     0.8500 H     1 <1>   0.0800 
 51 H       11.4240     9.9070     0.0010 H     1 <1>   0.0800 
 52 H       11.2840     9.2780    -1.6310 H     1 <1>   0.0800 
@<TRIPOS>BOND
  1   1   2  1   
  2   2   3  ar  
  3   2   4  ar  
  4   3   5  ar  
  5   3   6  1   
  6   4   7  ar  
  7   4  24  1   
  8   5   8  ar  
  9   6   9  1   
 10   6  10  1   
 11   7   8  ar  
 12   8  11  1   
 13   9  25  1   
 14   9  26  1   
 15   9  27  1   
 16  10  28  1   
 17  10  29  1   
 18  10  30  1   
 19  11  12  1   
 20  11  31  1   
 21  12  13  1   
 22  12  32  1   
 23  12  33  1   
 24  13  14  1   
 25  13  15  1   
 26  13  34  1   
 27  14  16  1   
 28  14  35  1   
 29  14  36  1   
 30  15  17  1   
 31  15  37  1   
 32  15  38  1   
 33  16  18  1   
 34  16  39  1   
 35  16  40  1   
 36  17  18  1   
 37  17  41  1   
 38  17  42  1   
 39  18  19  1   
 40  18  43  1   
 41  19  20  1   
 42  19  21  1   
 43  19  44  1   
 44  20  22  1   
 45  20  45  1   
 46  20  46  1   
 47  21  23  1   
 48  21  47  1   
 49  21  48  1   
 50  22  23  1   
 51  22  49  1   
 52  22  50  1   
 53  23  51  1   
 54  23  52  1   
@<TRIPOS>SUBSTRUCTURE
  1 ****  13 GROUP 4 **** **** 0

# MOE 2024.06 (io_trps.svl 2023.06)
