@<TRIPOS>MOLECULE
NONAME
52 55 1 0 0 
SMALL
USER_CHARGES


@<TRIPOS>ATOM
  1 O       -1.5140     0.4160    -1.8020 O.2   1 <1>  -0.5700 
  2 C       -1.7220     0.6420    -0.6370 C.2   1 <1>   0.5690 
  3 N       -2.0320    -0.3430     0.2390 N.am  1 <1>  -0.7300 
  4 C       -1.6390     2.0700    -0.1440 C.3   1 <1>  -0.0990 
  5 C       -2.1110    -1.7850    -0.1010 C.3   1 <1>   0.2200 
  6 C       -0.2110     2.6200    -0.2770 C.3   1 <1>  -0.0220 
  7 C       -3.5570    -2.2560    -0.1870 C.3   1 <1>  -0.0800 
  8 C       -1.6290    -2.5960     1.0930 C.3   1 <1>   0.1200 
  9 C       -0.1400     4.0910     0.1530 C.2   1 <1>  -0.1240 
 10 C       -3.9100    -2.5650     1.2730 C.3   1 <1>   0.1200 
 11 C       -4.5390    -1.3010    -0.8900 C.3   1 <1>  -0.0160 
 12 O       -2.7040    -2.5960     1.9820 O.3   1 <1>  -0.5600 
 13 C        0.2100     4.4240     1.5100 C.2   1 <1>   0.3750 
 14 C       -0.4040     5.1030    -0.7310 C.2   1 <1>  -0.1690 
 15 C       -5.9210    -1.9270    -0.9980 C.ar  1 <1>  -0.1440 
 16 N        0.2990     5.6370     1.9440 N.2   1 <1>  -0.5760 
 17 C        0.5010     3.3400     2.5330 C.3   1 <1>  -0.1790 
 18 N       -0.2940     6.4010    -0.2510 N.pl3 1 <1>   0.6010 
 19 C       -0.8140     4.9660    -2.2000 C.3   1 <1>  -0.1020 
 20 C       -6.2310    -2.8310    -1.9930 C.ar  1 <1>  -0.1500 
 21 C       -6.9350    -1.6280    -0.1100 C.ar  1 <1>  -0.1500 
 22 C        0.0450     6.6370     1.0460 C.2   1 <1>   0.3120 
 23 N       -0.4780     7.5710    -0.8610 N.2   1 <1>  -0.7070 
 24 C       -7.5010    -3.3810    -2.0480 C.ar  1 <1>   0.1600 
 25 C       -8.1710    -2.2350    -0.2530 C.ar  1 <1>   0.1600 
 26 N        0.0850     7.9080     1.2880 N.2   1 <1>  -0.5650 
 27 C       -0.2390     8.4100     0.0990 C.2   1 <1>   0.3660 
 28 N       -8.4780    -3.1060    -1.2000 N.ar  1 <1>  -0.6200 
 29 H       -2.2480    -0.1430     1.2180 H     1 <1>   0.3700 
 30 H       -2.3110     2.6650    -0.7350 H     1 <1>   0.0800 
 31 H       -1.9620     2.1240     0.8780 H     1 <1>   0.0800 
 32 H       -1.5500    -1.9980    -0.9960 H     1 <1>   0.0800 
 33 H        0.1140     2.5230    -1.2980 H     1 <1>   0.0800 
 34 H        0.4660     2.0110     0.2930 H     1 <1>   0.0800 
 35 H       -3.5640    -3.1910    -0.7200 H     1 <1>   0.0800 
 36 H       -0.7620    -2.1710     1.5670 H     1 <1>   0.0800 
 37 H       -1.4320    -3.6150     0.8100 H     1 <1>   0.0800 
 38 H       -4.3990    -3.5190     1.3720 H     1 <1>   0.0800 
 39 H       -4.5230    -1.7960     1.7090 H     1 <1>   0.0800 
 40 H       -4.1720    -1.0770    -1.8770 H     1 <1>   0.0800 
 41 H       -4.6110    -0.3720    -0.3540 H     1 <1>   0.0800 
 42 H       -0.3120     2.6430     2.5890 H     1 <1>   0.0800 
 43 H        0.6330     3.7760     3.5080 H     1 <1>   0.0800 
 44 H        1.4070     2.8250     2.2740 H     1 <1>   0.0800 
 45 H       -1.7080     5.5360    -2.3830 H     1 <1>   0.0800 
 46 H       -1.0110     3.9520    -2.4930 H     1 <1>   0.0800 
 47 H       -0.0350     5.3560    -2.8320 H     1 <1>   0.0800 
 48 H       -5.4980    -3.1120    -2.7270 H     1 <1>   0.1500 
 49 H       -6.7770    -0.9300     0.6920 H     1 <1>   0.1500 
 50 H       -7.7240    -4.0840    -2.8320 H     1 <1>   0.1500 
 51 H       -8.9500    -1.9900     0.4490 H     1 <1>   0.1500 
 52 H       -0.2950     9.4790    -0.0420 H     1 <1>   0.1500 
@<TRIPOS>BOND
  1   1   2  2   
  2   2   3  am  
  3   2   4  1   
  4   3   5  1   
  5   3  29  1   
  6   4   6  1   
  7   4  30  1   
  8   4  31  1   
  9   5   7  1   
 10   5   8  1   
 11   5  32  1   
 12   6   9  1   
 13   6  33  1   
 14   6  34  1   
 15   7  10  1   
 16   7  11  1   
 17   7  35  1   
 18   8  12  1   
 19   8  36  1   
 20   8  37  1   
 21   9  13  1   
 22   9  14  2   
 23  10  12  1   
 24  10  38  1   
 25  10  39  1   
 26  11  15  1   
 27  11  40  1   
 28  11  41  1   
 29  13  16  2   
 30  13  17  1   
 31  14  18  1   
 32  14  19  1   
 33  15  20  ar  
 34  15  21  ar  
 35  16  22  1   
 36  17  42  1   
 37  17  43  1   
 38  17  44  1   
 39  18  22  1   
 40  18  23  1   
 41  19  45  1   
 42  19  46  1   
 43  19  47  1   
 44  20  24  ar  
 45  20  48  1   
 46  21  25  ar  
 47  21  49  1   
 48  22  26  2   
 49  23  27  2   
 50  24  28  ar  
 51  24  50  1   
 52  25  28  ar  
 53  25  51  1   
 54  26  27  1   
 55  27  52  1   
@<TRIPOS>SUBSTRUCTURE
  1 ****   4 GROUP 4 **** **** 0

# MOE 2024.06 (io_trps.svl 2023.06)
