@<TRIPOS>MOLECULE
NONAME
52 54 1 0 0 
SMALL
USER_CHARGES


@<TRIPOS>ATOM
  1 O        1.5230    -0.2130     2.4860 O.2   1 <1>  -0.5700 
  2 C        1.5600    -0.8310     1.4440 C.2   1 <1>   0.5690 
  3 N        1.9220    -0.2340     0.2560 N.am  1 <1>  -0.6600 
  4 C        1.1910    -2.3250     1.5160 C.3   1 <1>   0.1710 
  5 C        2.2100     1.2320     0.2010 C.3   1 <1>   0.2200 
  6 C        1.9430    -0.9920    -1.0320 C.3   1 <1>   0.0600 
  7 N        0.0370    -2.7660     0.6720 N.3   1 <1>  -0.8100 
  8 C        1.3140     1.9450    -0.8230 C.3   1 <1>  -0.1600 
  9 C        3.6980     1.4810    -0.0820 C.3   1 <1>  -0.1600 
 10 C       -0.1430    -4.2250     0.7960 C.3   1 <1>   0.1100 
 11 C       -1.1790    -2.0320     1.0630 C.3   1 <1>   0.0300 
 12 C        1.6180     3.4500    -0.8600 C.3   1 <1>  -0.1600 
 13 C        4.0030     2.9870    -0.1280 C.3   1 <1>  -0.1600 
 14 C       -0.9470    -4.7880    -0.3810 C.3   1 <1>   0.0200 
 15 C        3.1050     3.7070    -1.1440 C.3   1 <1>  -0.1600 
 16 C       -1.0210    -6.3060    -0.3450 C.2   1 <1>   0.0070 
 17 N       -0.6650    -7.0420     0.6510 N.2   1 <1>  -0.5650 
 18 N       -1.4910    -7.0150    -1.4040 N.pl3 1 <1>   0.0330 
 19 C       -0.9080    -8.3180     0.2380 C.ar  1 <1>   0.2270 
 20 C       -1.4240    -8.3200    -1.0430 C.ar  1 <1>  -0.1520 
 21 C       -0.7100    -9.5230     0.9100 C.ar  1 <1>  -0.1500 
 22 C       -1.7560    -9.5130    -1.6900 C.ar  1 <1>  -0.1500 
 23 C       -1.0350   -10.7050     0.2810 C.ar  1 <1>  -0.1500 
 24 C       -1.5570   -10.6990    -1.0190 C.ar  1 <1>  -0.1500 
 25 H        0.9830    -2.5630     2.5440 H     1 <1>   0.0800 
 26 H        2.0660    -2.8820     1.2330 H     1 <1>   0.0800 
 27 H        1.9940     1.6680     1.1620 H     1 <1>   0.0800 
 28 H        2.2750    -2.0010    -0.8720 H     1 <1>   0.0800 
 29 H        2.6060    -0.5290    -1.7400 H     1 <1>   0.0800 
 30 H        0.9500    -1.0170    -1.4450 H     1 <1>   0.0800 
 31 H        0.2830     1.7960    -0.5540 H     1 <1>   0.0800 
 32 H        1.4750     1.5430    -1.8060 H     1 <1>   0.0800 
 33 H        3.9760     1.0460    -1.0240 H     1 <1>   0.0800 
 34 H        4.2850     1.0230     0.6940 H     1 <1>   0.0800 
 35 H       -0.6270    -4.4690     1.7270 H     1 <1>   0.0800 
 36 H        0.8200    -4.7070     0.7900 H     1 <1>   0.0800 
 37 H       -1.0290    -0.9730     0.9370 H     1 <1>   0.0800 
 38 H       -1.4230    -2.2280     2.0930 H     1 <1>   0.0800 
 39 H       -2.0090    -2.3210     0.4440 H     1 <1>   0.0800 
 40 H        1.3550     3.8900     0.0870 H     1 <1>   0.0800 
 41 H        1.0180     3.9210    -1.6200 H     1 <1>   0.0800 
 42 H        5.0370     3.1380    -0.3860 H     1 <1>   0.0800 
 43 H        3.8430     3.4100     0.8500 H     1 <1>   0.0800 
 44 H       -0.4730    -4.4810    -1.2960 H     1 <1>   0.0800 
 45 H       -1.9480    -4.4000    -0.3580 H     1 <1>   0.0800 
 46 H        3.3000     4.7650    -1.1090 H     1 <1>   0.0800 
 47 H        3.3430     3.3620    -2.1360 H     1 <1>   0.0800 
 48 H       -1.8290    -6.6490    -2.2960 H     1 <1>   0.2700 
 49 H       -0.3080    -9.4980     1.9050 H     1 <1>   0.1500 
 50 H       -2.1570    -9.4970    -2.6880 H     1 <1>   0.1500 
 51 H       -0.8880   -11.6450     0.7850 H     1 <1>   0.1500 
 52 H       -1.8030   -11.6360    -1.4880 H     1 <1>   0.1500 
@<TRIPOS>BOND
  1   1   2  2   
  2   2   3  am  
  3   2   4  1   
  4   3   5  1   
  5   3   6  1   
  6   4   7  1   
  7   4  25  1   
  8   4  26  1   
  9   5   8  1   
 10   5   9  1   
 11   5  27  1   
 12   6  28  1   
 13   6  29  1   
 14   6  30  1   
 15   7  10  1   
 16   7  11  1   
 17   8  12  1   
 18   8  31  1   
 19   8  32  1   
 20   9  13  1   
 21   9  33  1   
 22   9  34  1   
 23  10  14  1   
 24  10  35  1   
 25  10  36  1   
 26  11  37  1   
 27  11  38  1   
 28  11  39  1   
 29  12  15  1   
 30  12  40  1   
 31  12  41  1   
 32  13  15  1   
 33  13  42  1   
 34  13  43  1   
 35  14  16  1   
 36  14  44  1   
 37  14  45  1   
 38  15  46  1   
 39  15  47  1   
 40  16  17  2   
 41  16  18  1   
 42  17  19  1   
 43  18  20  1   
 44  18  48  1   
 45  19  20  ar  
 46  19  21  ar  
 47  20  22  ar  
 48  21  23  ar  
 49  21  49  1   
 50  22  24  ar  
 51  22  50  1   
 52  23  24  ar  
 53  23  51  1   
 54  24  52  1   
@<TRIPOS>SUBSTRUCTURE
  1 ****   7 GROUP 4 **** **** 0

# MOE 2024.06 (io_trps.svl 2023.06)
