@<TRIPOS>MOLECULE
NONAME
48 50 1 0 0 
SMALL
USER_CHARGES


@<TRIPOS>ATOM
  1 O       -2.7910    -0.2370    -1.1350 O.2   1 <1>  -0.5700 
  2 C       -3.1020    -1.3800    -0.9190 C.2   1 <1>   0.5690 
  3 N       -3.2580    -2.2300    -1.9590 N.am  1 <1>  -0.7300 
  4 C       -3.3000    -1.8220     0.5140 C.3   1 <1>  -0.0990 
  5 C       -3.6010    -3.6750    -1.9410 C.3   1 <1>   0.1400 
  6 C       -2.3650    -2.9670     0.9030 C.3   1 <1>   0.1400 
  7 C       -2.6290    -4.4860    -1.0690 C.3   1 <1>   0.1400 
  8 N       -2.8920    -4.2630     0.3850 N.am  1 <1>  -0.6600 
  9 C       -3.6460    -5.0790     1.2090 C.2   1 <1>   0.5690 
 10 O       -3.8850    -4.7360     2.3470 O.2   1 <1>  -0.5700 
 11 C       -4.2680    -6.4060     0.7300 C.3   1 <1>   0.2610 
 12 O       -3.6560    -7.5200     1.3500 O.3   1 <1>  -0.5600 
 13 C       -5.7920    -6.3750     0.9830 C.3   1 <1>   0.3640 
 14 C       -4.1530    -8.7670     0.9230 C.3   1 <1>   0.1810 
 15 N       -6.4400    -7.7260     0.9690 N.am  1 <1>  -0.6600 
 16 C       -6.4350    -5.4060    -0.0250 C.ar  1 <1>  -0.1440 
 17 C       -5.6820    -8.8680     0.9590 C.2   1 <1>   0.5690 
 18 C       -7.9160    -7.7500     1.1820 C.3   1 <1>   0.0600 
 19 C       -6.7100    -5.7050    -1.3650 C.ar  1 <1>  -0.1440 
 20 C       -6.7240    -4.1320     0.4500 C.ar  1 <1>  -0.1500 
 21 O       -6.1770    -9.9700     0.9510 O.2   1 <1>  -0.5700 
 22 C       -7.2680    -4.7280    -2.1780 C.ar  1 <1>  -0.1500 
 23 C       -6.4460    -7.0640    -2.0070 C.3   1 <1>  -0.0970 
 24 C       -7.2740    -3.1670    -0.3720 C.ar  1 <1>  -0.1500 
 25 C       -7.5470    -3.4660    -1.6900 C.ar  1 <1>  -0.1500 
 26 H       -3.1420    -1.8000    -2.8800 H     1 <1>   0.3700 
 27 H       -3.0880    -0.9830     1.1500 H     1 <1>   0.0800 
 28 H       -4.3240    -2.1020     0.6750 H     1 <1>   0.0800 
 29 H       -4.6090    -3.8030    -1.5880 H     1 <1>   0.0800 
 30 H       -3.5530    -4.0450    -2.9500 H     1 <1>   0.0800 
 31 H       -2.2880    -3.0080     1.9760 H     1 <1>   0.0800 
 32 H       -1.3750    -2.7870     0.5180 H     1 <1>   0.0800 
 33 H       -1.6180    -4.1980    -1.3020 H     1 <1>   0.0800 
 34 H       -2.7110    -5.5270    -1.3140 H     1 <1>   0.0800 
 35 H       -4.1120    -6.5160    -0.3190 H     1 <1>   0.0800 
 36 H       -5.9480    -5.9840     1.9730 H     1 <1>   0.0800 
 37 H       -3.8070    -8.9460    -0.0780 H     1 <1>   0.0800 
 38 H       -3.7370    -9.5180     1.5700 H     1 <1>   0.0800 
 39 H       -8.4150    -7.2320     0.3810 H     1 <1>   0.0800 
 40 H       -8.1570    -7.2700     2.1140 H     1 <1>   0.0800 
 41 H       -8.2800    -8.7620     1.2120 H     1 <1>   0.0800 
 42 H       -6.5170    -3.8740     1.4760 H     1 <1>   0.1500 
 43 H       -7.4960    -4.9440    -3.2080 H     1 <1>   0.1500 
 44 H       -6.4500    -6.9900    -3.0800 H     1 <1>   0.0800 
 45 H       -7.2160    -7.7580    -1.7210 H     1 <1>   0.0800 
 46 H       -5.4970    -7.4650    -1.7140 H     1 <1>   0.0800 
 47 H       -7.4890    -2.1860     0.0150 H     1 <1>   0.1500 
 48 H       -7.9780    -2.7190    -2.3350 H     1 <1>   0.1500 
@<TRIPOS>BOND
  1   1   2  2   
  2   2   3  am  
  3   2   4  1   
  4   3   5  1   
  5   3  26  1   
  6   4   6  1   
  7   4  27  1   
  8   4  28  1   
  9   5   7  1   
 10   5  29  1   
 11   5  30  1   
 12   6   8  1   
 13   6  31  1   
 14   6  32  1   
 15   7   8  1   
 16   7  33  1   
 17   7  34  1   
 18   8   9  am  
 19   9  10  2   
 20   9  11  1   
 21  11  12  1   
 22  11  13  1   
 23  11  35  1   
 24  12  14  1   
 25  13  15  1   
 26  13  16  1   
 27  13  36  1   
 28  14  17  1   
 29  14  37  1   
 30  14  38  1   
 31  15  17  am  
 32  15  18  1   
 33  16  19  ar  
 34  16  20  ar  
 35  17  21  2   
 36  18  39  1   
 37  18  40  1   
 38  18  41  1   
 39  19  22  ar  
 40  19  23  1   
 41  20  24  ar  
 42  20  42  1   
 43  22  25  ar  
 44  22  43  1   
 45  23  44  1   
 46  23  45  1   
 47  23  46  1   
 48  24  25  ar  
 49  24  47  1   
 50  25  48  1   
@<TRIPOS>SUBSTRUCTURE
  1 ****  16 GROUP 4 **** **** 0

# MOE 2024.06 (io_trps.svl 2023.06)
