@<TRIPOS>MOLECULE
NONAME
44 45 1 0 0 
SMALL
USER_CHARGES


@<TRIPOS>ATOM
  1 S        1.2570     1.3010     0.4940 S.o2  1 <1>   1.3330 
  2 O        0.8960     2.3090     1.4660 O.2   1 <1>  -0.6500 
  3 O        0.2240     0.6170    -0.2490 O.2   1 <1>  -0.6500 
  4 N        2.1760     0.1250     1.3070 N.am  1 <1>  -0.8490 
  5 C        2.4050     2.0160    -0.6840 C.3   1 <1>  -0.0550 
  6 C        1.3330    -0.9290     1.8800 C.3   1 <1>   0.1160 
  7 C        3.0420     0.6840     2.3510 C.3   1 <1>   0.1160 
  8 C        2.8800     1.0510    -1.7950 C.3   1 <1>  -0.0800 
  9 C        3.6810     1.7080    -2.9130 C.3   1 <1>   0.2200 
 10 C        3.8140    -0.0680    -1.3170 C.3   1 <1>   0.1200 
 11 N        4.6210     2.7080    -2.3580 N.am  1 <1>  -0.7300 
 12 C        4.4740     0.5170    -3.4300 C.3   1 <1>   0.1200 
 13 O        4.8060    -0.2140    -2.2910 O.3   1 <1>  -0.5600 
 14 C        4.3890     4.0420    -2.2890 C.2   1 <1>   0.5690 
 15 O        3.4300     4.5470    -2.8190 O.2   1 <1>  -0.5700 
 16 C        5.3230     4.9030    -1.4630 C.3   1 <1>   0.0440 
 17 C        5.3060     4.4470    -0.0050 C.ar  1 <1>  -0.1440 
 18 C        6.2170     3.5150     0.4810 C.ar  1 <1>   0.1900 
 19 C        4.3420     4.9420     0.8650 C.ar  1 <1>  -0.1500 
 20 F        7.1120     3.0140    -0.3280 F     1 <1>  -0.1900 
 21 C        6.2090     3.0720     1.7890 C.ar  1 <1>  -0.1500 
 22 C        4.3020     4.5130     2.1840 C.ar  1 <1>  -0.1500 
 23 C        5.2360     3.5900     2.6200 C.ar  1 <1>   0.1900 
 24 F        5.1880     3.1810     3.8580 F     1 <1>  -0.1900 
 25 H        1.9180     2.8480    -1.1560 H     1 <1>   0.0800 
 26 H        3.2520     2.4020    -0.1540 H     1 <1>   0.0800 
 27 H        1.9410    -1.6660     2.3760 H     1 <1>   0.0800 
 28 H        0.7780    -1.4230     1.0990 H     1 <1>   0.0800 
 29 H        0.6360    -0.5090     2.5860 H     1 <1>   0.0800 
 30 H        3.6520    -0.0910     2.7820 H     1 <1>   0.0800 
 31 H        2.4520     1.1390     3.1310 H     1 <1>   0.0800 
 32 H        3.6900     1.4310     1.9300 H     1 <1>   0.0800 
 33 H        2.0150     0.5880    -2.2380 H     1 <1>   0.0800 
 34 H        3.0580     2.1510    -3.6720 H     1 <1>   0.0800 
 35 H        3.2910    -1.0030    -1.2050 H     1 <1>   0.0800 
 36 H        4.3050     0.1840    -0.3930 H     1 <1>   0.0800 
 37 H        5.4320     2.2970    -1.8820 H     1 <1>   0.3700 
 38 H        5.3690     0.8050    -3.9530 H     1 <1>   0.0800 
 39 H        3.8630    -0.1070    -4.0590 H     1 <1>   0.0800 
 40 H        6.3120     4.8460    -1.8770 H     1 <1>   0.0800 
 41 H        5.0030     5.9270    -1.5280 H     1 <1>   0.0800 
 42 H        3.6130     5.6580     0.5200 H     1 <1>   0.1500 
 43 H        6.9260     2.3550     2.1430 H     1 <1>   0.1500 
 44 H        3.5560     4.8850     2.8640 H     1 <1>   0.1500 
@<TRIPOS>BOND
  1   1   2  2   
  2   1   3  2   
  3   1   4  am  
  4   1   5  1   
  5   4   6  1   
  6   4   7  1   
  7   5   8  1   
  8   5  25  1   
  9   5  26  1   
 10   6  27  1   
 11   6  28  1   
 12   6  29  1   
 13   7  30  1   
 14   7  31  1   
 15   7  32  1   
 16   8   9  1   
 17   8  10  1   
 18   8  33  1   
 19   9  11  1   
 20   9  12  1   
 21   9  34  1   
 22  10  13  1   
 23  10  35  1   
 24  10  36  1   
 25  11  14  am  
 26  11  37  1   
 27  12  13  1   
 28  12  38  1   
 29  12  39  1   
 30  14  15  2   
 31  14  16  1   
 32  16  17  1   
 33  16  40  1   
 34  16  41  1   
 35  17  18  ar  
 36  17  19  ar  
 37  18  20  1   
 38  18  21  ar  
 39  19  22  ar  
 40  19  42  1   
 41  21  23  ar  
 42  21  43  1   
 43  22  23  ar  
 44  22  44  1   
 45  23  24  1   
@<TRIPOS>SUBSTRUCTURE
  1 ****   5 GROUP 4 **** **** 0

# MOE 2024.06 (io_trps.svl 2023.06)
