@<TRIPOS>MOLECULE
NONAME
57 60 1 0 0 
SMALL
USER_CHARGES


@<TRIPOS>ATOM
  1 S       -0.1520     0.0480    -1.7280 S.o2  1 <1>   1.4470 
  2 O       -0.9070    -1.1210    -2.1260 O.2   1 <1>  -0.6500 
  3 O       -0.0400     1.1740    -2.6290 O.2   1 <1>  -0.6500 
  4 N       -0.8630     0.6300    -0.3050 N.am  1 <1>  -0.8490 
  5 C        1.5100    -0.4270    -1.1820 C.ar  1 <1>  -0.0090 
  6 C       -2.1280     1.3320    -0.6000 C.3   1 <1>   0.1960 
  7 C       -1.0920    -0.4370     0.6770 C.3   1 <1>   0.1960 
  8 C        2.3720     0.5200    -0.6480 C.ar  1 <1>  -0.1500 
  9 C        1.9530    -1.7420    -1.2660 C.ar  1 <1>  -0.1500 
 10 C       -2.7150     2.0060     0.6560 C.3   1 <1>   0.1440 
 11 C       -1.6110     0.1560     1.9930 C.3   1 <1>  -0.1600 
 12 C        3.6440     0.1910    -0.1970 C.ar  1 <1>   0.1170 
 13 C        3.2170    -2.0940    -0.8260 C.ar  1 <1>  -0.1500 
 14 C       -4.0170     2.6810     0.2730 C.ar  1 <1>   0.1660 
 15 C       -2.9040     0.9550     1.7700 C.3   1 <1>  -0.1600 
 16 C       -1.8390     3.2010     1.1230 C.3   1 <1>  -0.1600 
 17 N        4.4610     1.2060     0.3200 N.am  1 <1>  -0.5470 
 18 C        4.0550    -1.1330    -0.2960 C.ar  1 <1>  -0.1500 
 19 N       -5.1370     2.0620     0.0000 N.ar  1 <1>  -0.6200 
 20 C       -3.8850     4.0350     0.2220 C.ar  1 <1>  -0.1430 
 21 C       -2.4830     4.4790     0.5560 C.3   1 <1>  -0.0170 
 22 C        5.5010     1.1420     1.2030 C.2   1 <1>   0.5690 
 23 C       -6.1620     2.8540    -0.3230 C.ar  1 <1>   0.7200 
 24 C       -4.9920     4.7700    -0.1190 C.ar  1 <1>   0.1600 
 25 O        5.8760     0.1290     1.7360 O.2   1 <1>  -0.5700 
 26 C        6.2070     2.4330     1.5330 C.3   1 <1>  -0.1790 
 27 N       -6.1370     4.1890    -0.3910 N.ar  1 <1>  -0.6200 
 28 N       -7.3620     2.2340    -0.6160 N.pl3 1 <1>  -0.8380 
 29 C       -7.4490     0.7750    -0.9020 C.3   1 <1>   0.1290 
 30 C       -8.6410     2.9900    -0.6980 C.3   1 <1>   0.1290 
 31 H       -2.8460     0.6340    -1.0000 H     1 <1>   0.0800 
 32 H       -1.9600     2.0900    -1.3470 H     1 <1>   0.0800 
 33 H       -0.1700    -0.9590     0.8730 H     1 <1>   0.0800 
 34 H       -1.8060    -1.1470     0.2910 H     1 <1>   0.0800 
 35 H        2.0350     1.5390    -0.5790 H     1 <1>   0.1500 
 36 H        1.3060    -2.4980    -1.6800 H     1 <1>   0.1500 
 37 H       -0.8510     0.7880     2.4160 H     1 <1>   0.0800 
 38 H       -1.7990    -0.6410     2.6900 H     1 <1>   0.0800 
 39 H        3.5490    -3.1160    -0.8970 H     1 <1>   0.1500 
 40 H       -3.6840     0.2730     1.4740 H     1 <1>   0.0800 
 41 H       -3.2210     1.4270     2.6830 H     1 <1>   0.0800 
 42 H       -0.8140     3.1040     0.8120 H     1 <1>   0.0800 
 43 H       -1.8600     3.2650     2.1970 H     1 <1>   0.0800 
 44 H        4.2250     2.1450     0.0080 H     1 <1>   0.3700 
 45 H        5.0360    -1.4180     0.0400 H     1 <1>   0.1500 
 46 H       -1.9800     4.7920    -0.3420 H     1 <1>   0.0800 
 47 H       -2.4800     5.2780     1.2770 H     1 <1>   0.0800 
 48 H       -4.9380     5.8430    -0.1720 H     1 <1>   0.1500 
 49 H        6.5920     2.8790     0.6360 H     1 <1>   0.0800 
 50 H        7.0260     2.2360     2.2010 H     1 <1>   0.0800 
 51 H        5.5250     3.1090     2.0120 H     1 <1>   0.0800 
 52 H       -6.5240     0.4150    -1.3180 H     1 <1>   0.0800 
 53 H       -8.2340     0.5840    -1.6120 H     1 <1>   0.0800 
 54 H       -7.6540     0.2430     0.0090 H     1 <1>   0.0800 
 55 H       -8.6160     3.8460    -0.0460 H     1 <1>   0.0800 
 56 H       -9.4620     2.3620    -0.3990 H     1 <1>   0.0800 
 57 H       -8.7960     3.3240    -1.7080 H     1 <1>   0.0800 
@<TRIPOS>BOND
  1   1   2  2   
  2   1   3  2   
  3   1   4  am  
  4   1   5  1   
  5   4   6  1   
  6   4   7  1   
  7   5   8  ar  
  8   5   9  ar  
  9   6  10  1   
 10   6  31  1   
 11   6  32  1   
 12   7  11  1   
 13   7  33  1   
 14   7  34  1   
 15   8  12  ar  
 16   8  35  1   
 17   9  13  ar  
 18   9  36  1   
 19  10  14  1   
 20  10  15  1   
 21  10  16  1   
 22  11  15  1   
 23  11  37  1   
 24  11  38  1   
 25  12  17  1   
 26  12  18  ar  
 27  13  18  ar  
 28  13  39  1   
 29  14  19  ar  
 30  14  20  ar  
 31  15  40  1   
 32  15  41  1   
 33  16  21  1   
 34  16  42  1   
 35  16  43  1   
 36  17  22  am  
 37  17  44  1   
 38  18  45  1   
 39  19  23  ar  
 40  20  21  1   
 41  20  24  ar  
 42  21  46  1   
 43  21  47  1   
 44  22  25  2   
 45  22  26  1   
 46  23  27  ar  
 47  23  28  1   
 48  24  27  ar  
 49  24  48  1   
 50  26  49  1   
 51  26  50  1   
 52  26  51  1   
 53  28  29  1   
 54  28  30  1   
 55  29  52  1   
 56  29  53  1   
 57  29  54  1   
 58  30  55  1   
 59  30  56  1   
 60  30  57  1   
@<TRIPOS>SUBSTRUCTURE
  1 ****   4 GROUP 4 **** **** 0

# MOE 2024.06 (io_trps.svl 2023.06)
