@<TRIPOS>MOLECULE
NONAME
46 48 1 0 0 
SMALL
USER_CHARGES


@<TRIPOS>ATOM
  1 N        0.1040    -0.1240    -0.3110 N.ar  1 <1>  -0.6200 
  2 C        1.1880     0.5900    -0.0400 C.ar  1 <1>   0.7710 
  3 C        0.1810    -1.4300    -0.2090 C.ar  1 <1>   0.4100 
  4 N        2.3410     0.0140     0.3380 N.ar  1 <1>  -0.1790 
  5 N        1.1360     1.9400    -0.1470 N.pl3 1 <1>  -0.8380 
  6 N       -0.9610    -2.0640    -0.5250 N.pl3 1 <1>  -0.8690 
  7 C        1.3630    -2.0750     0.2000 C.ar  1 <1>  -0.1500 
  8 C        2.4610    -1.3280     0.4720 C.ar  1 <1>   0.2170 
  9 C       -0.1030     2.6370    -0.5970 C.3   1 <1>   0.2090 
 10 C        2.1960     2.9390     0.1600 C.3   1 <1>   0.2090 
 11 C       -1.3480    -3.4850    -0.7190 C.3   1 <1>   0.2890 
 12 C        3.7970    -1.9130     0.9140 C.3   1 <1>  -0.0170 
 13 C        0.3030     4.0920    -0.7840 C.3   1 <1>  -0.1600 
 14 C        1.4830     4.2840     0.1590 C.3   1 <1>  -0.1600 
 15 C       -1.3990    -4.2220     0.6260 C.3   1 <1>   0.0960 
 16 C       -0.4390    -4.1290    -1.7700 C.3   1 <1>  -0.2400 
 17 C        4.9090    -1.6510    -0.1110 C.3   1 <1>  -0.2400 
 18 N       -1.9000    -5.5940     0.4480 N.pl3 1 <1>   0.3140 
 19 N       -3.0880    -5.8620    -0.0750 N.2   1 <1>  -0.7070 
 20 C       -1.2960    -6.7490     0.7450 C.2   1 <1>   0.0360 
 21 C       -3.1160    -7.1540    -0.0570 C.2   1 <1>   0.3660 
 22 N       -2.0280    -7.7570     0.4400 N.2   1 <1>  -0.5650 
 23 H        3.1130     0.6470     0.5020 H     1 <1>   0.4570 
 24 H       -1.7170    -1.4250    -0.7950 H     1 <1>   0.4000 
 25 H        1.3760    -3.1420     0.2890 H     1 <1>   0.1500 
 26 H       -0.8570     2.5550     0.1690 H     1 <1>   0.0800 
 27 H       -0.4800     2.2160    -1.5150 H     1 <1>   0.0800 
 28 H        2.9390     2.9260    -0.6210 H     1 <1>   0.0800 
 29 H        2.6550     2.7580     1.1170 H     1 <1>   0.0800 
 30 H       -2.3500    -3.4810    -1.1190 H     1 <1>   0.0800 
 31 H        3.6960    -2.9770     1.0460 H     1 <1>   0.0800 
 32 H        4.0780    -1.4990     1.8680 H     1 <1>   0.0800 
 33 H       -0.5100     4.7630    -0.5680 H     1 <1>   0.0800 
 34 H        0.6160     4.2410    -1.8030 H     1 <1>   0.0800 
 35 H        2.1310     5.0840    -0.1550 H     1 <1>   0.0800 
 36 H        1.1250     4.4960     1.1520 H     1 <1>   0.0800 
 37 H       -2.0720    -3.7090     1.2880 H     1 <1>   0.0800 
 38 H       -0.4260    -4.2650     1.0740 H     1 <1>   0.0800 
 39 H        0.5550    -4.2930    -1.4030 H     1 <1>   0.0800 
 40 H       -0.3970    -3.5080    -2.6470 H     1 <1>   0.0800 
 41 H       -0.8450    -5.0810    -2.0650 H     1 <1>   0.0800 
 42 H        4.6420    -2.0620    -1.0700 H     1 <1>   0.0800 
 43 H        5.8210    -2.1240     0.2120 H     1 <1>   0.0800 
 44 H        5.1030    -0.6000    -0.2260 H     1 <1>   0.0800 
 45 H       -0.3170    -6.8090     1.1850 H     1 <1>   0.1500 
 46 H       -3.9520    -7.7350    -0.4140 H     1 <1>   0.1500 
@<TRIPOS>BOND
  1   1   2  ar  
  2   1   3  ar  
  3   2   4  ar  
  4   2   5  1   
  5   3   6  1   
  6   3   7  ar  
  7   4   8  ar  
  8   4  23  1   
  9   5   9  1   
 10   5  10  1   
 11   6  11  1   
 12   6  24  1   
 13   7   8  ar  
 14   7  25  1   
 15   8  12  1   
 16   9  13  1   
 17   9  26  1   
 18   9  27  1   
 19  10  14  1   
 20  10  28  1   
 21  10  29  1   
 22  11  15  1   
 23  11  16  1   
 24  11  30  1   
 25  12  17  1   
 26  12  31  1   
 27  12  32  1   
 28  13  14  1   
 29  13  33  1   
 30  13  34  1   
 31  14  35  1   
 32  14  36  1   
 33  15  18  1   
 34  15  37  1   
 35  15  38  1   
 36  16  39  1   
 37  16  40  1   
 38  16  41  1   
 39  17  42  1   
 40  17  43  1   
 41  17  44  1   
 42  18  19  1   
 43  18  20  1   
 44  19  21  2   
 45  20  22  2   
 46  20  45  1   
 47  21  22  1   
 48  21  46  1   
@<TRIPOS>SUBSTRUCTURE
  1 ****   3 GROUP 4 **** **** 0

# MOE 2024.06 (io_trps.svl 2023.06)
