@<TRIPOS>MOLECULE
NONAME
44 46 1 0 0 
SMALL
USER_CHARGES


@<TRIPOS>ATOM
  1 S        0.2880     0.7160    -1.4450 S.3   1 <1>  -0.0800 
  2 C       -1.0410     1.4810    -0.6150 C.2   1 <1>  -0.1400 
  3 C       -0.5810    -0.8000    -1.3810 C.2   1 <1>   0.2280 
  4 C       -1.9860     0.5550    -0.3740 C.2   1 <1>   0.0460 
  5 C       -0.9140     2.9660    -0.3290 C.3   1 <1>   0.0200 
  6 N       -1.7130    -0.7300    -0.8080 N.2   1 <1>  -0.5650 
  7 C       -3.3200     0.7460     0.3160 C.3   1 <1>  -0.0590 
  8 C        0.1340     3.2030     0.7600 C.3   1 <1>   0.2090 
  9 N        0.4630     4.6500     0.8520 N.pl3 1 <1>  -0.8690 
 10 C        1.5120     5.3640     0.4270 C.ar  1 <1>   0.7710 
 11 N        1.4960     6.6460     0.7220 N.ar  1 <1>  -0.6200 
 12 N        2.5060     4.7810    -0.2650 N.ar  1 <1>  -0.1790 
 13 C        2.5180     7.3870     0.3320 C.ar  1 <1>   0.4100 
 14 C        3.5610     5.5080    -0.7050 C.ar  1 <1>   0.2110 
 15 N        2.5110     8.7030     0.6720 N.pl3 1 <1>  -0.8380 
 16 C        3.5780     6.8300    -0.4120 C.ar  1 <1>  -0.1500 
 17 C        3.7410     9.5270     0.9210 C.3   1 <1>   0.2090 
 18 C        1.2480     9.4620     0.9320 C.3   1 <1>   0.2090 
 19 C        3.7310    10.7830     0.0340 C.3   1 <1>   0.2000 
 20 C        1.2100    10.7140     0.0440 C.3   1 <1>  -0.1600 
 21 O        4.8160    11.5830     0.3460 O.3   1 <1>  -0.6800 
 22 C        2.4510    11.6030     0.2300 C.3   1 <1>  -0.1600 
 23 H       -0.1070    -1.6620    -1.8190 H     1 <1>   0.1500 
 24 H       -1.8610     3.3590    -0.0070 H     1 <1>   0.0800 
 25 H       -0.6330     3.4670    -1.2380 H     1 <1>   0.0800 
 26 H       -3.4570     1.7620     0.6320 H     1 <1>   0.0800 
 27 H       -3.3750     0.1030     1.1760 H     1 <1>   0.0800 
 28 H       -4.1130     0.4820    -0.3600 H     1 <1>   0.0800 
 29 H        1.0200     2.6310     0.5490 H     1 <1>   0.0800 
 30 H       -0.2520     2.8610     1.7070 H     1 <1>   0.0800 
 31 H       -0.2290     5.2100     1.3660 H     1 <1>   0.4000 
 32 H        2.4100     3.7870    -0.4440 H     1 <1>   0.4570 
 33 H        4.3410     5.0220    -1.2710 H     1 <1>   0.1500 
 34 H        4.3760     7.4630    -0.7500 H     1 <1>   0.1500 
 35 H        4.6360     8.9620     0.7380 H     1 <1>   0.0800 
 36 H        3.7430     9.8250     1.9550 H     1 <1>   0.0800 
 37 H        1.2110     9.7440     1.9710 H     1 <1>   0.0800 
 38 H        0.3830     8.8580     0.7200 H     1 <1>   0.0800 
 39 H        3.8330    10.4890    -0.9970 H     1 <1>   0.0800 
 40 H        0.3250    11.2800     0.2730 H     1 <1>   0.0800 
 41 H        1.1380    10.4020    -0.9840 H     1 <1>   0.0800 
 42 H        4.6580    12.0620     1.1820 H     1 <1>   0.4000 
 43 H        2.4260    12.4090    -0.4840 H     1 <1>   0.0800 
 44 H        2.4330    12.0180     1.2230 H     1 <1>   0.0800 
@<TRIPOS>BOND
  1   1   2  1   
  2   1   3  1   
  3   2   4  2   
  4   2   5  1   
  5   3   6  2   
  6   3  23  1   
  7   4   6  1   
  8   4   7  1   
  9   5   8  1   
 10   5  24  1   
 11   5  25  1   
 12   7  26  1   
 13   7  27  1   
 14   7  28  1   
 15   8   9  1   
 16   8  29  1   
 17   8  30  1   
 18   9  10  1   
 19   9  31  1   
 20  10  11  ar  
 21  10  12  ar  
 22  11  13  ar  
 23  12  14  ar  
 24  12  32  1   
 25  13  15  1   
 26  13  16  ar  
 27  14  16  ar  
 28  14  33  1   
 29  15  17  1   
 30  15  18  1   
 31  16  34  1   
 32  17  19  1   
 33  17  35  1   
 34  17  36  1   
 35  18  20  1   
 36  18  37  1   
 37  18  38  1   
 38  19  21  1   
 39  19  22  1   
 40  19  39  1   
 41  20  22  1   
 42  20  40  1   
 43  20  41  1   
 44  21  42  1   
 45  22  43  1   
 46  22  44  1   
@<TRIPOS>SUBSTRUCTURE
  1 ****  10 GROUP 4 **** **** 0

# MOE 2024.06 (io_trps.svl 2023.06)
