@<TRIPOS>MOLECULE
NONAME
49 51 1 0 0 
SMALL
USER_CHARGES


@<TRIPOS>ATOM
  1 O       -1.5920     0.1210    -1.7110 O.2   1 <1>  -0.5700 
  2 C       -1.6580     0.6270    -0.6050 C.2   1 <1>   0.7160 
  3 N       -1.8110    -0.2000     0.4920 N.am  1 <1>  -0.6600 
  4 C       -1.5680     2.0430    -0.4610 C.2   1 <1>  -0.0860 
  5 C       -1.9550    -1.6770     0.3130 C.3   1 <1>   0.1400 
  6 C       -1.8610     0.2910     1.9000 C.3   1 <1>   0.0600 
  7 C       -2.5990     2.9970    -0.4320 C.2   1 <1>   0.3720 
  8 C       -0.4410     2.7720    -0.2570 C.2   1 <1>   0.0870 
  9 C       -3.3490    -2.0750    -0.2160 C.3   1 <1>   0.2000 
 10 N       -2.1050     4.1700    -0.2130 N.2   1 <1>  -0.4100 
 11 N       -3.9890     2.8010    -0.6020 N.pl3 1 <1>  -0.8210 
 12 O       -0.8140     4.0150    -0.1130 O.3   1 <1>  -0.0190 
 13 C        0.9490     2.4060    -0.1580 C.ar  1 <1>   0.0530 
 14 O       -4.3610    -1.6030     0.6320 O.3   1 <1>  -0.6800 
 15 C       -3.4810    -3.6000    -0.3650 C.3   1 <1>   0.1200 
 16 C       -4.5900     1.4490    -0.3520 C.3   1 <1>   0.2090 
 17 C       -4.8640     3.9120    -0.0980 C.3   1 <1>   0.2090 
 18 C        1.7950     3.0590     0.7370 C.ar  1 <1>  -0.1500 
 19 C        1.5000     1.3920    -0.9420 C.ar  1 <1>  -0.1500 
 20 O       -4.8020    -3.9300    -0.6230 O.3   1 <1>  -0.6800 
 21 C       -6.0970     1.3960    -0.6540 C.3   1 <1>   0.1200 
 22 C       -6.3450     3.7010    -0.4520 C.3   1 <1>   0.1200 
 23 C        3.1280     2.7080     0.8570 C.ar  1 <1>  -0.1500 
 24 C        2.8310     1.0360    -0.8270 C.ar  1 <1>  -0.1500 
 25 O       -6.7830     2.4430    -0.0300 O.3   1 <1>  -0.5600 
 26 C        3.6480     1.6930     0.0750 C.ar  1 <1>  -0.1500 
 27 H       -1.7590    -2.1800     1.2430 H     1 <1>   0.0800 
 28 H       -1.2130    -2.0110    -0.3920 H     1 <1>   0.0800 
 29 H       -1.8070     1.3650     1.9480 H     1 <1>   0.0800 
 30 H       -1.0340    -0.1160     2.4550 H     1 <1>   0.0800 
 31 H       -2.7830    -0.0200     2.3600 H     1 <1>   0.0800 
 32 H       -3.4980    -1.6240    -1.1830 H     1 <1>   0.0800 
 33 H       -4.2400    -1.9600     1.5340 H     1 <1>   0.4000 
 34 H       -3.1840    -4.1000     0.5400 H     1 <1>   0.0800 
 35 H       -2.8780    -3.9620    -1.1800 H     1 <1>   0.0800 
 36 H       -4.4260     1.1640     0.6720 H     1 <1>   0.0800 
 37 H       -4.1220     0.7220    -0.9880 H     1 <1>   0.0800 
 38 H       -4.5440     4.8460    -0.5290 H     1 <1>   0.0800 
 39 H       -4.7640     3.9880     0.9700 H     1 <1>   0.0800 
 40 H        1.4020     3.8520     1.3490 H     1 <1>   0.1500 
 41 H        0.8840     0.8790    -1.6600 H     1 <1>   0.1500 
 42 H       -5.3740    -3.2240    -0.2480 H     1 <1>   0.4000 
 43 H       -6.5090     0.4690    -0.2950 H     1 <1>   0.0800 
 44 H       -6.2660     1.4580    -1.7150 H     1 <1>   0.0800 
 45 H       -6.4920     3.7820    -1.5150 H     1 <1>   0.0800 
 46 H       -6.9510     4.4410     0.0380 H     1 <1>   0.0800 
 47 H        3.7610     3.2260     1.5560 H     1 <1>   0.1500 
 48 H        3.2320     0.2490    -1.4420 H     1 <1>   0.1500 
 49 H        4.6850     1.4170     0.1660 H     1 <1>   0.1500 
@<TRIPOS>BOND
  1   1   2  2   
  2   2   3  am  
  3   2   4  1   
  4   3   5  1   
  5   3   6  1   
  6   4   7  1   
  7   4   8  2   
  8   5   9  1   
  9   5  27  1   
 10   5  28  1   
 11   6  29  1   
 12   6  30  1   
 13   6  31  1   
 14   7  10  2   
 15   7  11  1   
 16   8  12  1   
 17   8  13  1   
 18   9  14  1   
 19   9  15  1   
 20   9  32  1   
 21  10  12  1   
 22  11  16  1   
 23  11  17  1   
 24  13  18  ar  
 25  13  19  ar  
 26  14  33  1   
 27  15  20  1   
 28  15  34  1   
 29  15  35  1   
 30  16  21  1   
 31  16  36  1   
 32  16  37  1   
 33  17  22  1   
 34  17  38  1   
 35  17  39  1   
 36  18  23  ar  
 37  18  40  1   
 38  19  24  ar  
 39  19  41  1   
 40  20  42  1   
 41  21  25  1   
 42  21  43  1   
 43  21  44  1   
 44  22  25  1   
 45  22  45  1   
 46  22  46  1   
 47  23  26  ar  
 48  23  47  1   
 49  24  26  ar  
 50  24  48  1   
 51  26  49  1   
@<TRIPOS>SUBSTRUCTURE
  1 ****   2 GROUP 4 **** **** 0

# MOE 2024.06 (io_trps.svl 2023.06)
