@<TRIPOS>MOLECULE
NONAME
55 57 1 0 0 
SMALL
USER_CHARGES


@<TRIPOS>ATOM
  1 O       -0.7760     0.8700     2.0550 O.2   1 <1>  -0.5700 
  2 C       -0.6140     2.0300     1.7700 C.2   1 <1>   0.5690 
  3 N       -1.5790     2.9410     2.0180 N.am  1 <1>  -0.7300 
  4 C        0.6790     2.4770     1.0830 C.3   1 <1>   0.1810 
  5 C       -1.4480     4.3840     1.7010 C.3   1 <1>   0.3640 
  6 O        0.8910     3.8710     1.1470 O.3   1 <1>  -0.5600 
  7 C       -2.7400     4.8540     1.0350 C.ar  1 <1>  -0.1440 
  8 C       -0.2300     4.6640     0.7820 C.3   1 <1>   0.2610 
  9 C       -3.3100     6.0600     1.4140 C.ar  1 <1>  -0.1500 
 10 C       -3.3600     4.1080     0.0430 C.ar  1 <1>  -0.1500 
 11 C        0.1360     6.1590     0.7690 C.2   1 <1>   0.5690 
 12 C       -4.4730     6.5260     0.8260 C.ar  1 <1>   0.0830 
 13 C       -4.5280     4.5540    -0.5500 C.ar  1 <1>  -0.1500 
 14 O       -0.1670     6.8400     1.7250 O.2   1 <1>  -0.5700 
 15 N        0.7800     6.7130    -0.3160 N.am  1 <1>  -0.6600 
 16 O       -4.9150     7.7290     1.2880 O.3   1 <1>  -0.3620 
 17 C       -5.1070     5.7610    -0.1660 C.ar  1 <1>   0.0830 
 18 C        1.0470     8.1800    -0.3680 C.3   1 <1>   0.1400 
 19 C        1.2630     5.9270    -1.4860 C.3   1 <1>   0.0600 
 20 C       -5.4730     8.6740     0.4020 C.3   1 <1>   0.0400 
 21 O       -6.2770     6.1970    -0.7180 O.3   1 <1>  -0.3630 
 22 C        2.3210     8.5450     0.4130 C.3   1 <1>  -0.0800 
 23 C       -7.0870     5.3560    -1.5090 C.3   1 <1>   0.0400 
 24 C        2.6020    10.0470     0.4130 C.3   1 <1>  -0.1600 
 25 C        3.6150     7.9470    -0.1380 C.3   1 <1>  -0.1600 
 26 C        4.0910    10.1810     0.7410 C.3   1 <1>  -0.1600 
 27 C        4.7250     8.8150     0.4520 C.3   1 <1>  -0.1600 
 28 H       -2.4350     2.6440     2.4890 H     1 <1>   0.3700 
 29 H        0.6530     2.1850     0.0490 H     1 <1>   0.0800 
 30 H        1.5170     1.9990     1.5570 H     1 <1>   0.0800 
 31 H       -1.3170     4.9090     2.6320 H     1 <1>   0.0800 
 32 H       -0.5030     4.3860    -0.2180 H     1 <1>   0.0800 
 33 H       -2.8470     6.6660     2.1750 H     1 <1>   0.1500 
 34 H       -2.9400     3.1680    -0.2740 H     1 <1>   0.1500 
 35 H       -4.9710     3.9420    -1.3110 H     1 <1>   0.1500 
 36 H        1.1340     8.5000    -1.3910 H     1 <1>   0.0800 
 37 H        0.2110     8.7030     0.0670 H     1 <1>   0.0800 
 38 H        2.0580     6.4500    -1.9870 H     1 <1>   0.0800 
 39 H        0.4550     5.7760    -2.1800 H     1 <1>   0.0800 
 40 H        1.6430     4.9730    -1.1630 H     1 <1>   0.0800 
 41 H       -5.3730     9.6480     0.8450 H     1 <1>   0.0800 
 42 H       -6.5140     8.4450     0.2610 H     1 <1>   0.0800 
 43 H       -4.9440     8.6370    -0.5330 H     1 <1>   0.0800 
 44 H        2.2030     8.2300     1.4370 H     1 <1>   0.0800 
 45 H       -7.9980     5.8830    -1.7310 H     1 <1>   0.0800 
 46 H       -7.3090     4.4620    -0.9540 H     1 <1>   0.0800 
 47 H       -6.5680     5.1270    -2.4230 H     1 <1>   0.0800 
 48 H        2.4210    10.4520    -0.5680 H     1 <1>   0.0800 
 49 H        1.9860    10.5660     1.1270 H     1 <1>   0.0800 
 50 H        3.7240     6.9120     0.1360 H     1 <1>   0.0800 
 51 H        3.6300     8.0380    -1.2100 H     1 <1>   0.0800 
 52 H        4.5430    10.9550     0.1440 H     1 <1>   0.0800 
 53 H        4.2200    10.4260     1.7820 H     1 <1>   0.0800 
 54 H        5.0680     8.3790     1.3760 H     1 <1>   0.0800 
 55 H        5.5580     8.8970    -0.2250 H     1 <1>   0.0800 
@<TRIPOS>BOND
  1   1   2  2   
  2   2   3  am  
  3   2   4  1   
  4   3   5  1   
  5   3  28  1   
  6   4   6  1   
  7   4  29  1   
  8   4  30  1   
  9   5   7  1   
 10   5   8  1   
 11   5  31  1   
 12   6   8  1   
 13   7   9  ar  
 14   7  10  ar  
 15   8  11  1   
 16   8  32  1   
 17   9  12  ar  
 18   9  33  1   
 19  10  13  ar  
 20  10  34  1   
 21  11  14  2   
 22  11  15  am  
 23  12  16  1   
 24  12  17  ar  
 25  13  17  ar  
 26  13  35  1   
 27  15  18  1   
 28  15  19  1   
 29  16  20  1   
 30  17  21  1   
 31  18  22  1   
 32  18  36  1   
 33  18  37  1   
 34  19  38  1   
 35  19  39  1   
 36  19  40  1   
 37  20  41  1   
 38  20  42  1   
 39  20  43  1   
 40  21  23  1   
 41  22  24  1   
 42  22  25  1   
 43  22  44  1   
 44  23  45  1   
 45  23  46  1   
 46  23  47  1   
 47  24  26  1   
 48  24  48  1   
 49  24  49  1   
 50  25  27  1   
 51  25  50  1   
 52  25  51  1   
 53  26  27  1   
 54  26  52  1   
 55  26  53  1   
 56  27  54  1   
 57  27  55  1   
@<TRIPOS>SUBSTRUCTURE
  1 ****  11 GROUP 4 **** **** 0

# MOE 2024.06 (io_trps.svl 2023.06)
