@<TRIPOS>MOLECULE
NONAME
40 42 1 0 0 
SMALL
USER_CHARGES


@<TRIPOS>ATOM
  1 O       -0.4830     0.2020     0.1480 O.2   1 <1>  -0.5700 
  2 C       -1.5100     0.8130     0.3870 C.2   1 <1>   0.7150 
  3 N       -2.6790     0.0870     0.5010 N.am  1 <1>  -0.6600 
  4 C       -1.4980     2.2540     0.5370 C.2   1 <1>   0.0550 
  5 C       -4.0350     0.6490     0.2810 C.3   1 <1>   0.1400 
  6 C       -2.6970    -1.3880     0.3370 C.3   1 <1>   0.1400 
  7 O       -0.6560     3.0050    -0.1670 O.3   1 <1>  -0.2800 
  8 C       -2.2430     3.0820     1.3250 C.2   1 <1>  -0.1500 
  9 C       -4.8560    -0.5120    -0.2760 C.3   1 <1>   0.2000 
 10 C       -4.1730    -1.7760     0.2390 C.3   1 <1>  -0.0800 
 11 C       -0.8400     4.2700     0.1380 C.2   1 <1>  -0.0400 
 12 C       -1.8170     4.3840     1.0640 C.2   1 <1>  -0.1500 
 13 O       -6.1700    -0.4620     0.1610 O.3   1 <1>  -0.6800 
 14 C       -4.4300    -3.0010    -0.6530 C.3   1 <1>  -0.0170 
 15 C        0.0230     5.3120    -0.5530 C.3   1 <1>   0.3000 
 16 C       -3.7200    -4.2310    -0.1090 C.ar  1 <1>  -0.1430 
 17 O       -0.5290     6.5700    -0.3620 O.3   1 <1>  -0.6800 
 18 C       -4.2820    -5.0150     0.8780 C.ar  1 <1>  -0.1500 
 19 C       -2.4790    -4.6260    -0.5680 C.ar  1 <1>  -0.1500 
 20 C       -3.5950    -6.1210     1.3480 C.ar  1 <1>   0.1600 
 21 C       -1.8760    -5.7500    -0.0290 C.ar  1 <1>   0.1600 
 22 N       -2.4040    -6.5060     0.9200 N.ar  1 <1>  -0.6200 
 23 H       -4.4360     0.9800     1.2230 H     1 <1>   0.0800 
 24 H       -4.0050     1.4650    -0.4210 H     1 <1>   0.0800 
 25 H       -2.1720    -1.6440    -0.5690 H     1 <1>   0.0800 
 26 H       -2.2150    -1.8700     1.1710 H     1 <1>   0.0800 
 27 H       -3.0080     2.8120     2.0300 H     1 <1>   0.1500 
 28 H       -4.8540    -0.4740    -1.3530 H     1 <1>   0.0800 
 29 H       -4.5120    -1.9860     1.2390 H     1 <1>   0.0800 
 30 H       -2.1980     5.2780     1.5260 H     1 <1>   0.1500 
 31 H       -6.2160    -0.5780     1.1290 H     1 <1>   0.4000 
 32 H       -4.0940    -2.8030    -1.6560 H     1 <1>   0.0800 
 33 H       -5.4880    -3.1920    -0.6990 H     1 <1>   0.0800 
 34 H        0.0640     5.1210    -1.6110 H     1 <1>   0.0800 
 35 H        1.0200     5.3100    -0.1490 H     1 <1>   0.0800 
 36 H       -1.4630     6.5520    -0.6430 H     1 <1>   0.4000 
 37 H       -5.2480    -4.7760     1.2860 H     1 <1>   0.1500 
 38 H       -1.9730    -4.0730    -1.3380 H     1 <1>   0.1500 
 39 H       -4.0490    -6.7220     2.1180 H     1 <1>   0.1500 
 40 H       -0.9080    -6.0420    -0.3970 H     1 <1>   0.1500 
@<TRIPOS>BOND
  1   1   2  2   
  2   2   3  am  
  3   2   4  1   
  4   3   5  1   
  5   3   6  1   
  6   4   7  1   
  7   4   8  2   
  8   5   9  1   
  9   5  23  1   
 10   5  24  1   
 11   6  10  1   
 12   6  25  1   
 13   6  26  1   
 14   7  11  1   
 15   8  12  1   
 16   8  27  1   
 17   9  10  1   
 18   9  13  1   
 19   9  28  1   
 20  10  14  1   
 21  10  29  1   
 22  11  12  2   
 23  11  15  1   
 24  12  30  1   
 25  13  31  1   
 26  14  16  1   
 27  14  32  1   
 28  14  33  1   
 29  15  17  1   
 30  15  34  1   
 31  15  35  1   
 32  16  18  ar  
 33  16  19  ar  
 34  17  36  1   
 35  18  20  ar  
 36  18  37  1   
 37  19  21  ar  
 38  19  38  1   
 39  20  22  ar  
 40  20  39  1   
 41  21  22  ar  
 42  21  40  1   
@<TRIPOS>SUBSTRUCTURE
  1 ****   3 GROUP 4 **** **** 0

# MOE 2024.06 (io_trps.svl 2023.06)
