@<TRIPOS>MOLECULE
NONAME
48 50 1 0 0 
SMALL
USER_CHARGES


@<TRIPOS>ATOM
  1 O        0.8670    -0.3450     1.4380 O.2   1 <1>  -0.5700 
  2 C        1.7160    -0.5080     0.5850 C.2   1 <1>   0.7150 
  3 N        2.1650     0.5930    -0.1190 N.am  1 <1>  -0.6600 
  4 C        2.2440    -1.8180     0.3510 C.2   1 <1>  -0.2370 
  5 C        3.1650     0.5130    -1.2310 C.3   1 <1>   0.1400 
  6 C        1.5390     1.9370     0.0560 C.3   1 <1>   0.1400 
  7 N        1.4560    -2.8890     0.0780 N.pl3 1 <1>   0.3140 
  8 C        3.5190    -2.3030     0.3460 C.2   1 <1>  -0.1500 
  9 C        4.5810     0.8990    -0.7540 C.3   1 <1>   0.3430 
 10 C        2.4240     2.8400     0.9230 C.3   1 <1>  -0.1600 
 11 N        2.1730    -4.0000    -0.1360 N.2   1 <1>  -0.7070 
 12 C       -0.0140    -2.9230     0.0160 C.3   1 <1>   0.0160 
 13 C        3.4050    -3.6440     0.0350 C.2   1 <1>   0.1080 
 14 N        4.5610     1.6790     0.5310 N.4   1 <1>  -0.9590 
 15 C        3.8650     2.9900     0.4300 C.3   1 <1>   0.3430 
 16 C        4.5430    -4.6300    -0.0950 C.3   1 <1>  -0.0590 
 17 C        5.9220     1.7970     1.1410 C.3   1 <1>   0.5230 
 18 C        6.9240     2.5290     0.2580 C.2   1 <1>  -0.0400 
 19 O        8.1840     2.4460     0.6330 O.3   1 <1>  -0.2800 
 20 C        6.8240     3.2760    -0.8670 C.2   1 <1>  -0.1500 
 21 C        8.9130     3.1250    -0.2270 C.2   1 <1>  -0.0400 
 22 C        8.1310     3.6650    -1.1840 C.2   1 <1>  -0.1500 
 23 C       10.4110     3.1910    -0.0220 C.3   1 <1>  -0.0600 
 24 H        2.8700     1.1770    -2.0250 H     1 <1>   0.0800 
 25 H        3.1860    -0.4760    -1.6570 H     1 <1>   0.0800 
 26 H        0.5700     1.8410     0.5190 H     1 <1>   0.0800 
 27 H        1.3800     2.3900    -0.9080 H     1 <1>   0.0800 
 28 H        4.4390    -1.7930     0.5490 H     1 <1>   0.1500 
 29 H        5.0820     1.4550    -1.5290 H     1 <1>   0.0800 
 30 H        5.1410    -0.0100    -0.6050 H     1 <1>   0.0800 
 31 H        2.4150     2.4800     1.9370 H     1 <1>   0.0800 
 32 H        1.9730     3.8170     0.9410 H     1 <1>   0.0800 
 33 H       -0.3600    -2.2020    -0.6990 H     1 <1>   0.0800 
 34 H       -0.4130    -2.6950     0.9870 H     1 <1>   0.0800 
 35 H       -0.3330    -3.9060    -0.2790 H     1 <1>   0.0800 
 36 H        3.9710     1.1220     1.1680 H     1 <1>   0.4500 
 37 H        4.3680     3.7190     1.0460 H     1 <1>   0.0800 
 38 H        3.8770     3.3470    -0.5870 H     1 <1>   0.0800 
 39 H        5.4860    -4.1520     0.0930 H     1 <1>   0.0800 
 40 H        4.5470    -5.0440    -1.0870 H     1 <1>   0.0800 
 41 H        4.4060    -5.4280     0.6110 H     1 <1>   0.0800 
 42 H        6.3100     0.8110     1.3340 H     1 <1>   0.0800 
 43 H        5.8580     2.3100     2.0870 H     1 <1>   0.0800 
 44 H        5.9670     3.5580    -1.4500 H     1 <1>   0.1500 
 45 H        8.4240     4.2730    -2.0230 H     1 <1>   0.1500 
 46 H       10.6300     3.6400     0.9300 H     1 <1>   0.0800 
 47 H       10.8690     3.7770    -0.7970 H     1 <1>   0.0800 
 48 H       10.8270     2.1990    -0.0430 H     1 <1>   0.0800 
@<TRIPOS>BOND
  1   1   2  2   
  2   2   3  am  
  3   2   4  1   
  4   3   5  1   
  5   3   6  1   
  6   4   7  1   
  7   4   8  2   
  8   5   9  1   
  9   5  24  1   
 10   5  25  1   
 11   6  10  1   
 12   6  26  1   
 13   6  27  1   
 14   7  11  1   
 15   7  12  1   
 16   8  13  1   
 17   8  28  1   
 18   9  14  1   
 19   9  29  1   
 20   9  30  1   
 21  10  15  1   
 22  10  31  1   
 23  10  32  1   
 24  11  13  2   
 25  12  33  1   
 26  12  34  1   
 27  12  35  1   
 28  13  16  1   
 29  14  15  1   
 30  14  17  1   
 31  14  36  1   
 32  15  37  1   
 33  15  38  1   
 34  16  39  1   
 35  16  40  1   
 36  16  41  1   
 37  17  18  1   
 38  17  42  1   
 39  17  43  1   
 40  18  19  1   
 41  18  20  2   
 42  19  21  1   
 43  20  22  1   
 44  20  44  1   
 45  21  22  2   
 46  21  23  1   
 47  22  45  1   
 48  23  46  1   
 49  23  47  1   
 50  23  48  1   
@<TRIPOS>SUBSTRUCTURE
  1 ****   9 GROUP 4 **** **** 0

# MOE 2024.06 (io_trps.svl 2023.06)
