@<TRIPOS>MOLECULE
NONAME
44 47 1 0 0 
SMALL
USER_CHARGES


@<TRIPOS>ATOM
  1 O       -1.4120     0.3970    -1.3970 O.2   1 <1>  -0.5700 
  2 C       -1.3860     0.3310    -0.1790 C.2   1 <1>   0.7160 
  3 N       -1.6500    -0.8720     0.4060 N.am  1 <1>  -0.7300 
  4 C       -1.1090     1.4880     0.6610 C.2   1 <1>   0.2030 
  5 C       -1.9460    -2.1480    -0.2810 C.3   1 <1>   0.2200 
  6 N       -1.1630     1.4980     1.9860 N.2   1 <1>  -0.7070 
  7 C       -0.7460     2.7590     0.1950 C.2   1 <1>  -0.1810 
  8 C       -3.4240    -2.4980    -0.1860 C.3   1 <1>  -0.0800 
  9 C       -1.3320    -3.2980     0.5070 C.3   1 <1>   0.1200 
 10 N       -0.8400     2.7500     2.3530 N.pl3 1 <1>   0.3000 
 11 C       -0.5950     3.5260     1.2820 C.2   1 <1>  -0.3320 
 12 C       -0.5350     3.2820    -1.2180 C.3   1 <1>   0.3010 
 13 C       -3.5270    -3.1760     1.1820 C.3   1 <1>   0.1200 
 14 C       -4.4080    -1.3300    -0.3880 C.3   1 <1>  -0.0160 
 15 O       -2.2350    -3.5770     1.5360 O.3   1 <1>  -0.5600 
 16 C       -0.2030     4.9860     1.1950 C.3   1 <1>   0.0200 
 17 O        0.1320     4.5230    -1.1660 O.3   1 <1>  -0.5600 
 18 C       -5.8470    -1.8220    -0.3510 C.ar  1 <1>  -0.1430 
 19 C       -0.3960     5.4600    -0.2610 C.3   1 <1>   0.1200 
 20 C       -6.4450    -2.4030    -1.4510 C.ar  1 <1>  -0.1500 
 21 C       -6.6280    -1.7160     0.7820 C.ar  1 <1>  -0.1500 
 22 C       -7.7560    -2.8420    -1.3660 C.ar  1 <1>   0.1600 
 23 C       -7.9300    -2.1870     0.7620 C.ar  1 <1>   0.1600 
 24 N       -8.5130    -2.7510    -0.2850 N.ar  1 <1>  -0.6200 
 25 H       -1.6430    -0.8940     1.4310 H     1 <1>   0.3700 
 26 H       -1.5920    -2.1200    -1.2980 H     1 <1>   0.0800 
 27 H       -3.6330    -3.2460    -0.9310 H     1 <1>   0.0800 
 28 H       -0.3710    -3.0530     0.9230 H     1 <1>   0.0800 
 29 H       -1.2530    -4.1790    -0.1060 H     1 <1>   0.0800 
 30 H       -0.7940     3.0460     3.3360 H     1 <1>   0.2700 
 31 H       -1.4770     3.4180    -1.7190 H     1 <1>   0.0800 
 32 H        0.0760     2.6050    -1.7890 H     1 <1>   0.0800 
 33 H       -4.1700    -4.0400     1.1560 H     1 <1>   0.0800 
 34 H       -3.8690    -2.4900     1.9380 H     1 <1>   0.0800 
 35 H       -4.2160    -0.8610    -1.3370 H     1 <1>   0.0800 
 36 H       -4.2690    -0.5840     0.3740 H     1 <1>   0.0800 
 37 H        0.8280     5.1060     1.4780 H     1 <1>   0.0800 
 38 H       -0.8110     5.5850     1.8500 H     1 <1>   0.0800 
 39 H        0.1090     6.3960    -0.4210 H     1 <1>   0.0800 
 40 H       -1.4420     5.5850    -0.4820 H     1 <1>   0.0800 
 41 H       -5.9040    -2.5170    -2.3730 H     1 <1>   0.1500 
 42 H       -6.2390    -1.2710     1.6790 H     1 <1>   0.1500 
 43 H       -8.2050    -3.2920    -2.2340 H     1 <1>   0.1500 
 44 H       -8.5250    -2.0960     1.6550 H     1 <1>   0.1500 
@<TRIPOS>BOND
  1   1   2  2   
  2   2   3  am  
  3   2   4  1   
  4   3   5  1   
  5   3  25  1   
  6   4   6  2   
  7   4   7  1   
  8   5   8  1   
  9   5   9  1   
 10   5  26  1   
 11   6  10  1   
 12   7  11  2   
 13   7  12  1   
 14   8  13  1   
 15   8  14  1   
 16   8  27  1   
 17   9  15  1   
 18   9  28  1   
 19   9  29  1   
 20  10  11  1   
 21  10  30  1   
 22  11  16  1   
 23  12  17  1   
 24  12  31  1   
 25  12  32  1   
 26  13  15  1   
 27  13  33  1   
 28  13  34  1   
 29  14  18  1   
 30  14  35  1   
 31  14  36  1   
 32  16  19  1   
 33  16  37  1   
 34  16  38  1   
 35  17  19  1   
 36  18  20  ar  
 37  18  21  ar  
 38  19  39  1   
 39  19  40  1   
 40  20  22  ar  
 41  20  41  1   
 42  21  23  ar  
 43  21  42  1   
 44  22  24  ar  
 45  22  43  1   
 46  23  24  ar  
 47  23  44  1   
@<TRIPOS>SUBSTRUCTURE
  1 ****   3 GROUP 4 **** **** 0

# MOE 2024.06 (io_trps.svl 2023.06)
