@<TRIPOS>MOLECULE
NONAME
43 45 1 0 0 
SMALL
USER_CHARGES


@<TRIPOS>ATOM
  1 F       -0.6900    -0.5460    -0.0400 F     1 <1>  -0.3400 
  2 C       -1.6510     0.0360    -0.7420 C.3   1 <1>   1.1640 
  3 F       -1.5570    -0.4270    -1.9790 F     1 <1>  -0.3400 
  4 F       -2.8000    -0.4150    -0.2560 F     1 <1>  -0.3400 
  5 C       -1.5530     1.5740    -0.6930 C.ar  1 <1>  -0.1440 
  6 C       -2.5760     2.3760    -0.2290 C.ar  1 <1>  -0.1500 
  7 C       -0.3870     2.1990    -1.1510 C.ar  1 <1>  -0.1500 
  8 C       -2.4590     3.7750    -0.1970 C.ar  1 <1>   0.3610 
  9 C       -0.2520     3.5630    -1.1050 C.ar  1 <1>  -0.1500 
 10 N       -3.5350     4.5560     0.1610 N.ar  1 <1>  -0.1790 
 11 C       -1.2540     4.3980    -0.5750 C.ar  1 <1>   0.0000 
 12 C       -3.4810     5.8980     0.1620 C.ar  1 <1>   0.2180 
 13 C       -1.1400     5.8240    -0.4590 C.ar  1 <1>   0.1000 
 14 C       -2.3050     6.5290    -0.1450 C.ar  1 <1>  -0.1500 
 15 C       -4.7360     6.6760     0.5240 C.3   1 <1>  -0.0970 
 16 N        0.0310     6.4980    -0.5980 N.pl3 1 <1>  -0.8380 
 17 C        0.1420     7.8670    -1.2160 C.3   1 <1>   0.2090 
 18 C        1.3380     6.0330    -0.0360 C.3   1 <1>   0.2090 
 19 C        0.6250     8.9050    -0.1910 C.3   1 <1>   0.2000 
 20 C        1.8450     7.0410     1.0030 C.3   1 <1>  -0.1600 
 21 O        0.7970    10.1170    -0.8630 O.3   1 <1>  -0.5600 
 22 C        1.9570     8.4660     0.4370 C.3   1 <1>  -0.1600 
 23 C        0.8050    11.2580    -0.0610 C.3   1 <1>   0.0400 
 24 H       -3.4930     1.9270     0.1110 H     1 <1>   0.1500 
 25 H        0.4160     1.5980    -1.5510 H     1 <1>   0.1500 
 26 H        0.6440     4.0090    -1.4990 H     1 <1>   0.1500 
 27 H       -4.4060     4.0820     0.4070 H     1 <1>   0.4570 
 28 H       -2.2620     7.6020    -0.1100 H     1 <1>   0.1500 
 29 H       -5.5300     6.4520    -0.1660 H     1 <1>   0.0800 
 30 H       -4.5500     7.7350     0.4850 H     1 <1>   0.0800 
 31 H       -5.0560     6.4310     1.5220 H     1 <1>   0.0800 
 32 H       -0.8000     8.1760    -1.6300 H     1 <1>   0.0800 
 33 H        0.8550     7.8210    -2.0220 H     1 <1>   0.0800 
 34 H        2.0560     5.9350    -0.8340 H     1 <1>   0.0800 
 35 H        1.2250     5.0770     0.4440 H     1 <1>   0.0800 
 36 H       -0.1340     9.0290     0.5620 H     1 <1>   0.0800 
 37 H        2.8080     6.7220     1.3600 H     1 <1>   0.0800 
 38 H        1.1700     7.0370     1.8410 H     1 <1>   0.0800 
 39 H        2.2340     9.1360     1.2300 H     1 <1>   0.0800 
 40 H        2.7250     8.4870    -0.3170 H     1 <1>   0.0800 
 41 H        0.8820    12.1160    -0.7050 H     1 <1>   0.0800 
 42 H        1.6530    11.2310     0.5990 H     1 <1>   0.0800 
 43 H       -0.1130    11.3090     0.4990 H     1 <1>   0.0800 
@<TRIPOS>BOND
  1   1   2  1   
  2   2   3  1   
  3   2   4  1   
  4   2   5  1   
  5   5   6  ar  
  6   5   7  ar  
  7   6   8  ar  
  8   6  24  1   
  9   7   9  ar  
 10   7  25  1   
 11   8  10  ar  
 12   8  11  ar  
 13   9  11  ar  
 14   9  26  1   
 15  10  12  ar  
 16  10  27  1   
 17  11  13  ar  
 18  12  14  ar  
 19  12  15  1   
 20  13  14  ar  
 21  13  16  1   
 22  14  28  1   
 23  15  29  1   
 24  15  30  1   
 25  15  31  1   
 26  16  17  1   
 27  16  18  1   
 28  17  19  1   
 29  17  32  1   
 30  17  33  1   
 31  18  20  1   
 32  18  34  1   
 33  18  35  1   
 34  19  21  1   
 35  19  22  1   
 36  19  36  1   
 37  20  22  1   
 38  20  37  1   
 39  20  38  1   
 40  21  23  1   
 41  22  39  1   
 42  22  40  1   
 43  23  41  1   
 44  23  42  1   
 45  23  43  1   
@<TRIPOS>SUBSTRUCTURE
  1 ****  11 GROUP 4 **** **** 0

# MOE 2024.06 (io_trps.svl 2023.06)
