@<TRIPOS>MOLECULE
NONAME
52 55 1 0 0 
SMALL
USER_CHARGES


@<TRIPOS>ATOM
  1 O       -0.7060     0.6530    -1.5690 O.2   1 <1>  -0.5700 
  2 C       -1.1620     1.4500    -0.7630 C.2   1 <1>   0.7160 
  3 N       -2.3100     1.0790    -0.0720 N.am  1 <1>  -0.6600 
  4 C       -0.4880     2.7290    -0.5610 C.2   1 <1>   0.2030 
  5 C       -3.0340    -0.1910    -0.3730 C.3   1 <1>   0.1400 
  6 C       -2.9610     1.9490     0.9420 C.3   1 <1>   0.1400 
  7 N       -1.0600     3.9220    -0.5780 N.2   1 <1>  -0.7070 
  8 C        0.9030     2.8430    -0.3350 C.2   1 <1>  -0.0540 
  9 C       -4.4150     0.0650    -0.9950 C.3   1 <1>   0.1400 
 10 C       -4.1050     2.7230     0.2830 C.3   1 <1>  -0.1600 
 11 N       -0.0500     4.7940    -0.3990 N.pl3 1 <1>   0.3000 
 12 C        1.8670     1.7790    -0.2140 C.ar  1 <1>   0.0540 
 13 C        1.1410     4.1800    -0.2360 C.2   1 <1>  -0.0680 
 14 N       -5.4030     0.5270     0.0320 N.am  1 <1>  -0.6600 
 15 C       -5.4580     1.9980     0.3080 C.3   1 <1>   0.1400 
 16 C        3.0110     1.7630    -1.0090 C.ar  1 <1>  -0.1500 
 17 C        1.6980     0.7430     0.7030 C.ar  1 <1>  -0.1500 
 18 N        2.3600     4.8240    -0.0040 N.pl3 1 <1>  -0.8840 
 19 C       -6.3050    -0.3070     0.6560 C.2   1 <1>   0.6300 
 20 C        3.9530     0.7580    -0.8920 C.ar  1 <1>  -0.1500 
 21 C        2.6360    -0.2650     0.8250 C.ar  1 <1>  -0.1500 
 22 O       -6.9990     0.0850     1.5660 O.2   1 <1>  -0.5700 
 23 C       -6.4820    -1.7770     0.2330 C.3   1 <1>  -0.0950 
 24 C        3.7670    -0.2590     0.0280 C.ar  1 <1>  -0.1500 
 25 C       -6.9750    -2.1190    -1.1450 C.3   1 <1>  -0.2000 
 26 C       -7.8890    -2.2650     0.0320 C.3   1 <1>  -0.2000 
 27 C       -5.5210    -2.7330     0.9520 C.3   1 <1>  -0.1450 
 28 H       -3.1410    -0.7590     0.5330 H     1 <1>   0.0800 
 29 H       -2.4630    -0.7910    -1.0600 H     1 <1>   0.0800 
 30 H       -2.2440     2.6410     1.3460 H     1 <1>   0.0800 
 31 H       -3.3310     1.3530     1.7590 H     1 <1>   0.0800 
 32 H       -4.7500    -0.8480    -1.4450 H     1 <1>   0.0800 
 33 H       -4.3300     0.7920    -1.7830 H     1 <1>   0.0800 
 34 H       -3.8400     2.9830    -0.7270 H     1 <1>   0.0800 
 35 H       -4.2300     3.6500     0.8110 H     1 <1>   0.0800 
 36 H       -0.1830     5.8100    -0.4120 H     1 <1>   0.2700 
 37 H       -6.1170     2.4570    -0.4070 H     1 <1>   0.0800 
 38 H       -5.8900     2.1550     1.2820 H     1 <1>   0.0800 
 39 H        3.1520     2.5510    -1.7280 H     1 <1>   0.1500 
 40 H        0.8220     0.7310     1.3260 H     1 <1>   0.1500 
 41 H        2.3690     5.6720     0.5740 H     1 <1>   0.4000 
 42 H        3.1400     4.2010     0.2440 H     1 <1>   0.4000 
 43 H        4.8280     0.7640    -1.5170 H     1 <1>   0.1500 
 44 H        2.4870    -1.0570     1.5380 H     1 <1>   0.1500 
 45 H        4.4970    -1.0440     0.1200 H     1 <1>   0.1500 
 46 H       -6.6130    -3.0100    -1.6280 H     1 <1>   0.1000 
 47 H       -7.1750    -1.3230    -1.8420 H     1 <1>   0.1000 
 48 H       -8.6960    -1.5620     0.1550 H     1 <1>   0.1000 
 49 H       -8.1560    -3.2530     0.3660 H     1 <1>   0.1000 
 50 H       -4.5080    -2.5460     0.6540 H     1 <1>   0.0800 
 51 H       -5.7580    -3.7570     0.7220 H     1 <1>   0.0800 
 52 H       -5.6020    -2.5950     2.0160 H     1 <1>   0.0800 
@<TRIPOS>BOND
  1   1   2  2   
  2   2   3  am  
  3   2   4  1   
  4   3   5  1   
  5   3   6  1   
  6   4   7  2   
  7   4   8  1   
  8   5   9  1   
  9   5  28  1   
 10   5  29  1   
 11   6  10  1   
 12   6  30  1   
 13   6  31  1   
 14   7  11  1   
 15   8  12  1   
 16   8  13  2   
 17   9  14  1   
 18   9  32  1   
 19   9  33  1   
 20  10  15  1   
 21  10  34  1   
 22  10  35  1   
 23  11  13  1   
 24  11  36  1   
 25  12  16  ar  
 26  12  17  ar  
 27  13  18  1   
 28  14  15  1   
 29  14  19  am  
 30  15  37  1   
 31  15  38  1   
 32  16  20  ar  
 33  16  39  1   
 34  17  21  ar  
 35  17  40  1   
 36  18  41  1   
 37  18  42  1   
 38  19  22  2   
 39  19  23  1   
 40  20  24  ar  
 41  20  43  1   
 42  21  24  ar  
 43  21  44  1   
 44  23  25  1   
 45  23  26  1   
 46  23  27  1   
 47  24  45  1   
 48  25  26  1   
 49  25  46  1   
 50  25  47  1   
 51  26  48  1   
 52  26  49  1   
 53  27  50  1   
 54  27  51  1   
 55  27  52  1   
@<TRIPOS>SUBSTRUCTURE
  1 ****   3 GROUP 4 **** **** 0

# MOE 2024.06 (io_trps.svl 2023.06)
