@<TRIPOS>MOLECULE
NONAME
60 64 1 0 0 
SMALL
USER_CHARGES


@<TRIPOS>ATOM
  1 O       -2.4820    -0.3280    -1.9560 O.2   1 <1>  -0.5700 
  2 C       -2.4190     0.2350    -0.8810 C.2   1 <1>   0.5440 
  3 N       -2.8330    -0.4550     0.2400 N.am  1 <1>  -0.6600 
  4 C       -1.9620     1.6070    -0.8110 C.ar  1 <1>   0.0860 
  5 C       -3.6560     0.1800     1.2970 C.3   1 <1>   0.1400 
  6 C       -2.8720    -1.9390     0.2390 C.3   1 <1>   0.1400 
  7 C       -1.1720     2.0490     0.2490 C.ar  1 <1>   0.1600 
  8 C       -2.2850     2.5410    -1.7860 C.ar  1 <1>  -0.1500 
  9 C       -5.1150    -0.2210     1.0640 C.3   1 <1>  -0.1600 
 10 C       -4.3090    -2.3840    -0.0210 C.3   1 <1>  -0.1600 
 11 N       -0.7320     3.2840     0.4290 N.ar  1 <1>  -0.6200 
 12 C       -1.8280     3.8310    -1.6270 C.ar  1 <1>  -0.1500 
 13 C       -5.2660    -1.7470     1.0000 C.3   1 <1>   0.4230 
 14 C       -1.0680     4.1480    -0.5150 C.ar  1 <1>   0.1600 
 15 N       -6.6900    -2.0890     0.7240 N.4   1 <1>  -0.9590 
 16 C       -7.2300    -1.7120    -0.6190 C.3   1 <1>   0.3430 
 17 C       -7.0300    -3.5330     0.9280 C.3   1 <1>   0.3430 
 18 C       -8.4420    -2.6240    -0.8050 C.3   1 <1>   0.2000 
 19 C       -7.9600    -3.9500    -0.2240 C.3   1 <1>  -0.0800 
 20 O       -9.4680    -2.1440     0.0020 O.3   1 <1>  -0.6800 
 21 C       -7.2200    -4.7900    -1.2870 C.3   1 <1>  -0.0170 
 22 C       -6.6220    -6.0510    -0.6880 C.ar  1 <1>   0.1670 
 23 N       -5.4260    -5.9610    -0.1920 N.ar  1 <1>  -0.6200 
 24 C       -7.3800    -7.2330    -0.6880 C.ar  1 <1>  -0.1500 
 25 C       -4.8770    -7.0860     0.3400 C.ar  1 <1>   0.3100 
 26 C       -6.8610    -8.3690    -0.1460 C.ar  1 <1>  -0.1500 
 27 C       -5.5670    -8.3170     0.3960 C.ar  1 <1>   0.0000 
 28 C       -3.5740    -7.0260     0.8610 C.ar  1 <1>  -0.1500 
 29 C       -4.9340    -9.4310     0.9820 C.ar  1 <1>  -0.1500 
 30 C       -2.9760    -8.1220     1.4250 C.ar  1 <1>  -0.1500 
 31 C       -3.6660    -9.3360     1.4870 C.ar  1 <1>  -0.1500 
 32 H       -3.3170    -0.1530     2.2640 H     1 <1>   0.0800 
 33 H       -3.5680     1.2530     1.2610 H     1 <1>   0.0800 
 34 H       -2.2200    -2.3290    -0.5280 H     1 <1>   0.0800 
 35 H       -2.5230    -2.3080     1.1890 H     1 <1>   0.0800 
 36 H       -0.8900     1.3280     0.9970 H     1 <1>   0.1500 
 37 H       -2.8740     2.2540    -2.6410 H     1 <1>   0.1500 
 38 H       -5.4370     0.2310     0.1440 H     1 <1>   0.0800 
 39 H       -5.7120     0.1720     1.8670 H     1 <1>   0.0800 
 40 H       -4.3440    -3.4550     0.0420 H     1 <1>   0.0800 
 41 H       -4.5520    -2.0920    -1.0260 H     1 <1>   0.0800 
 42 H       -2.0550     4.5870    -2.3580 H     1 <1>   0.1500 
 43 H       -5.0050    -2.1370     1.9710 H     1 <1>   0.0800 
 44 H       -0.7170     5.1600    -0.3970 H     1 <1>   0.1500 
 45 H       -7.2840    -1.5770     1.3900 H     1 <1>   0.4500 
 46 H       -7.5120    -0.6730    -0.6660 H     1 <1>   0.0800 
 47 H       -6.5090    -1.9230    -1.3880 H     1 <1>   0.0800 
 48 H       -6.1410    -4.1370     0.9530 H     1 <1>   0.0800 
 49 H       -7.5450    -3.6510     1.8680 H     1 <1>   0.0800 
 50 H       -8.7850    -2.6720    -1.8260 H     1 <1>   0.0800 
 51 H       -8.7810    -4.5350     0.1550 H     1 <1>   0.0800 
 52 H      -10.3190    -2.5900    -0.1980 H     1 <1>   0.4000 
 53 H       -6.4240    -4.2210    -1.7370 H     1 <1>   0.0800 
 54 H       -7.9000    -5.0630    -2.0740 H     1 <1>   0.0800 
 55 H       -8.3660    -7.2350    -1.1180 H     1 <1>   0.1500 
 56 H       -7.4100    -9.2940    -0.1250 H     1 <1>   0.1500 
 57 H       -3.0530    -6.0900     0.8000 H     1 <1>   0.1500 
 58 H       -5.4670   -10.3640     1.0250 H     1 <1>   0.1500 
 59 H       -1.9760    -8.0660     1.8210 H     1 <1>   0.1500 
 60 H       -3.1850   -10.1900     1.9340 H     1 <1>   0.1500 
@<TRIPOS>BOND
  1   1   2  2   
  2   2   3  am  
  3   2   4  1   
  4   3   5  1   
  5   3   6  1   
  6   4   7  ar  
  7   4   8  ar  
  8   5   9  1   
  9   5  32  1   
 10   5  33  1   
 11   6  10  1   
 12   6  34  1   
 13   6  35  1   
 14   7  11  ar  
 15   7  36  1   
 16   8  12  ar  
 17   8  37  1   
 18   9  13  1   
 19   9  38  1   
 20   9  39  1   
 21  10  13  1   
 22  10  40  1   
 23  10  41  1   
 24  11  14  ar  
 25  12  14  ar  
 26  12  42  1   
 27  13  15  1   
 28  13  43  1   
 29  14  44  1   
 30  15  16  1   
 31  15  17  1   
 32  15  45  1   
 33  16  18  1   
 34  16  46  1   
 35  16  47  1   
 36  17  19  1   
 37  17  48  1   
 38  17  49  1   
 39  18  19  1   
 40  18  20  1   
 41  18  50  1   
 42  19  21  1   
 43  19  51  1   
 44  20  52  1   
 45  21  22  1   
 46  21  53  1   
 47  21  54  1   
 48  22  23  ar  
 49  22  24  ar  
 50  23  25  ar  
 51  24  26  ar  
 52  24  55  1   
 53  25  27  ar  
 54  25  28  ar  
 55  26  27  ar  
 56  26  56  1   
 57  27  29  ar  
 58  28  30  ar  
 59  28  57  1   
 60  29  31  ar  
 61  29  58  1   
 62  30  31  ar  
 63  30  59  1   
 64  31  60  1   
@<TRIPOS>SUBSTRUCTURE
  1 ****  10 GROUP 4 **** **** 0

# MOE 2024.06 (io_trps.svl 2023.06)
