@<TRIPOS>MOLECULE
NONAME
57 59 1 0 0 
SMALL
USER_CHARGES


@<TRIPOS>ATOM
  1 O        1.0770    -0.4640     2.4130 O.2   1 <1>  -0.5700 
  2 C        1.8750    -0.3900     1.4950 C.2   1 <1>   0.7160 
  3 N        2.3010     0.8710     1.1140 N.am  1 <1>  -0.6600 
  4 C        2.4110    -1.5990     0.8800 C.2   1 <1>   0.2030 
  5 C        2.7600     1.1890    -0.2720 C.3   1 <1>   0.1400 
  6 C        2.5370     1.9150     2.1360 C.3   1 <1>   0.1400 
  7 N        3.5960    -1.7400     0.2940 N.2   1 <1>  -0.7070 
  8 C        1.7180    -2.8130     0.8600 C.2   1 <1>  -0.1500 
  9 C        4.2800     1.4340    -0.3630 C.3   1 <1>   0.3430 
 10 C        3.8670     1.6210     2.8390 C.3   1 <1>  -0.1600 
 11 N        3.6420    -3.0250    -0.1010 N.pl3 1 <1>   0.3140 
 12 C        2.5190    -3.6920     0.2310 C.2   1 <1>  -0.3320 
 13 N        5.0290     0.7840     0.7580 N.4   1 <1>  -0.9590 
 14 C        5.1120     1.6840     1.9470 C.3   1 <1>   0.3430 
 15 C        4.8010    -3.5910    -0.8060 C.3   1 <1>   0.0160 
 16 C        2.2500    -5.1600    -0.0620 C.3   1 <1>  -0.0600 
 17 C        6.3940     0.3680     0.3170 C.3   1 <1>   0.5240 
 18 C        7.1550     1.5010    -0.3780 C.2   1 <1>   0.0460 
 19 N        7.3100     2.7130     0.1980 N.2   1 <1>  -0.5650 
 20 C        7.7520     1.4730    -1.5910 C.2   1 <1>  -0.3020 
 21 C        8.0030     3.3870    -0.6620 C.2   1 <1>   0.0060 
 22 N        8.3030     2.6870    -1.7770 N.pl3 1 <1>   0.0330 
 23 C        8.4500     4.8240    -0.4550 C.3   1 <1>   0.0200 
 24 C        9.9620     4.9040    -0.2070 C.3   1 <1>  -0.1600 
 25 C       10.4170     6.3500     0.0300 C.3   1 <1>  -0.1600 
 26 C       11.9270     6.4160     0.2770 C.3   1 <1>  -0.2400 
 27 H        2.2370     2.0580    -0.6320 H     1 <1>   0.0800 
 28 H        2.5020     0.3770    -0.9300 H     1 <1>   0.0800 
 29 H        1.7350     1.8990     2.8580 H     1 <1>   0.0800 
 30 H        2.5510     2.8910     1.6800 H     1 <1>   0.0800 
 31 H        0.7390    -2.9690     1.2800 H     1 <1>   0.1500 
 32 H        4.4790     2.4930    -0.3580 H     1 <1>   0.0800 
 33 H        4.6250     1.0500    -1.3080 H     1 <1>   0.0800 
 34 H        3.8160     0.6600     3.3190 H     1 <1>   0.0800 
 35 H        3.9930     2.3460     3.6230 H     1 <1>   0.0800 
 36 H        4.4970    -0.0770     0.9930 H     1 <1>   0.4500 
 37 H        5.9670     1.4080     2.5430 H     1 <1>   0.0800 
 38 H        5.2710     2.6980     1.6160 H     1 <1>   0.0800 
 39 H        5.5230    -2.8190    -0.9880 H     1 <1>   0.0800 
 40 H        4.4760    -4.0070    -1.7420 H     1 <1>   0.0800 
 41 H        5.2400    -4.3610    -0.2000 H     1 <1>   0.0800 
 42 H        1.2820    -5.4410     0.3150 H     1 <1>   0.0800 
 43 H        2.9900    -5.7790     0.4120 H     1 <1>   0.0800 
 44 H        2.2660    -5.3400    -1.1220 H     1 <1>   0.0800 
 45 H        6.3100    -0.4600    -0.3670 H     1 <1>   0.0800 
 46 H        6.9630     0.0380     1.1690 H     1 <1>   0.0800 
 47 H        7.8270     0.6840    -2.3180 H     1 <1>   0.1500 
 48 H        8.8510     3.0190    -2.5780 H     1 <1>   0.2700 
 49 H        7.9280     5.2320     0.3930 H     1 <1>   0.0800 
 50 H        8.1850     5.4090    -1.3180 H     1 <1>   0.0800 
 51 H       10.4890     4.4980    -1.0520 H     1 <1>   0.0800 
 52 H       10.2050     4.3060     0.6560 H     1 <1>   0.0800 
 53 H        9.9030     6.7580     0.8840 H     1 <1>   0.0800 
 54 H       10.1740     6.9550    -0.8270 H     1 <1>   0.0800 
 55 H       12.1920     5.8340     1.1430 H     1 <1>   0.0800 
 56 H       12.2270     7.4350     0.4470 H     1 <1>   0.0800 
 57 H       12.4670     6.0380    -0.5730 H     1 <1>   0.0800 
@<TRIPOS>BOND
  1   1   2  2   
  2   2   3  am  
  3   2   4  1   
  4   3   5  1   
  5   3   6  1   
  6   4   7  2   
  7   4   8  1   
  8   5   9  1   
  9   5  27  1   
 10   5  28  1   
 11   6  10  1   
 12   6  29  1   
 13   6  30  1   
 14   7  11  1   
 15   8  12  2   
 16   8  31  1   
 17   9  13  1   
 18   9  32  1   
 19   9  33  1   
 20  10  14  1   
 21  10  34  1   
 22  10  35  1   
 23  11  12  1   
 24  11  15  1   
 25  12  16  1   
 26  13  14  1   
 27  13  17  1   
 28  13  36  1   
 29  14  37  1   
 30  14  38  1   
 31  15  39  1   
 32  15  40  1   
 33  15  41  1   
 34  16  42  1   
 35  16  43  1   
 36  16  44  1   
 37  17  18  1   
 38  17  45  1   
 39  17  46  1   
 40  18  19  1   
 41  18  20  2   
 42  19  21  2   
 43  20  22  1   
 44  20  47  1   
 45  21  22  1   
 46  21  23  1   
 47  22  48  1   
 48  23  24  1   
 49  23  49  1   
 50  23  50  1   
 51  24  25  1   
 52  24  51  1   
 53  24  52  1   
 54  25  26  1   
 55  25  53  1   
 56  25  54  1   
 57  26  55  1   
 58  26  56  1   
 59  26  57  1   
@<TRIPOS>SUBSTRUCTURE
  1 ****  13 GROUP 4 **** **** 0

# MOE 2024.06 (io_trps.svl 2023.06)
