@<TRIPOS>MOLECULE
NONAME
51 52 1 0 0 
SMALL
USER_CHARGES


@<TRIPOS>ATOM
  1 S        0.4450    -0.0540    -1.3520 S.o2  1 <1>   1.3330 
  2 O        1.6310    -0.3190    -2.1370 O.2   1 <1>  -0.6500 
  3 O       -0.8300     0.0890    -2.0150 O.2   1 <1>  -0.6500 
  4 N        0.2720    -1.3180    -0.2280 N.am  1 <1>  -0.8490 
  5 C        0.7310     1.3890    -0.3140 C.3   1 <1>  -0.0550 
  6 C       -1.0810    -1.4210     0.3320 C.3   1 <1>   0.1160 
  7 C        0.6760    -2.6140    -0.7840 C.3   1 <1>   0.1160 
  8 C        2.1570     1.6050     0.2410 C.3   1 <1>  -0.0800 
  9 C        3.1860     1.9420    -0.8420 C.3   1 <1>   0.2200 
 10 C        2.7950     0.4380     1.0050 C.3   1 <1>   0.1200 
 11 N        3.7350     3.2920    -0.5880 N.am  1 <1>  -0.7300 
 12 C        4.2640     0.8800    -0.6390 C.3   1 <1>   0.1200 
 13 O        4.1480     0.4990     0.6930 O.3   1 <1>  -0.5600 
 14 C        3.1380     4.4560    -0.9790 C.2   1 <1>   0.5440 
 15 O        2.0690     4.3830    -1.5530 O.2   1 <1>  -0.5700 
 16 C        3.7470     5.7430    -0.6850 C.ar  1 <1>   0.0860 
 17 C        5.1080     5.8700    -0.4050 C.ar  1 <1>  -0.1500 
 18 C        2.9830     6.9110    -0.6680 C.ar  1 <1>  -0.1500 
 19 C        5.6850     7.0920    -0.1090 C.ar  1 <1>   0.0820 
 20 C        3.5440     8.1400    -0.3760 C.ar  1 <1>  -0.1500 
 21 O        7.0160     7.0780     0.1530 O.3   1 <1>  -0.3620 
 22 C        4.8940     8.2370    -0.0930 C.ar  1 <1>  -0.1500 
 23 C        7.7740     8.2440     0.3930 C.3   1 <1>   0.2000 
 24 C        8.0930     8.9120    -0.9470 C.3   1 <1>  -0.2400 
 25 C        9.0510     7.8070     1.1050 C.3   1 <1>  -0.2400 
 26 H        0.4830     2.2620    -0.8880 H     1 <1>   0.0800 
 27 H        0.0460     1.3610     0.5100 H     1 <1>   0.0800 
 28 H       -1.1050    -2.1720     1.1040 H     1 <1>   0.0800 
 29 H       -1.7880    -1.6880    -0.4370 H     1 <1>   0.0800 
 30 H       -1.3790    -0.4810     0.7620 H     1 <1>   0.0800 
 31 H        0.5610    -3.3900    -0.0470 H     1 <1>   0.0800 
 32 H        1.7110    -2.5830    -1.0800 H     1 <1>   0.0800 
 33 H        0.0770    -2.8530    -1.6480 H     1 <1>   0.0800 
 34 H        2.0950     2.4280     0.9320 H     1 <1>   0.0800 
 35 H        2.7880     1.8980    -1.8420 H     1 <1>   0.0800 
 36 H        2.4410    -0.5220     0.6800 H     1 <1>   0.0800 
 37 H        2.6760     0.5290     2.0710 H     1 <1>   0.0800 
 38 H        4.5060     3.3150     0.0820 H     1 <1>   0.3700 
 39 H        5.2570     1.2460    -0.8310 H     1 <1>   0.0800 
 40 H        4.0660     0.0160    -1.2500 H     1 <1>   0.0800 
 41 H        5.7450     5.0060    -0.4230 H     1 <1>   0.1500 
 42 H        1.9310     6.8470    -0.8890 H     1 <1>   0.1500 
 43 H        2.9280     9.0230    -0.3700 H     1 <1>   0.1500 
 44 H        5.3050     9.2020     0.1310 H     1 <1>   0.1500 
 45 H        7.2160     8.8970     1.0410 H     1 <1>   0.0800 
 46 H        8.6380     8.2350    -1.5800 H     1 <1>   0.0800 
 47 H        8.6940     9.7880    -0.7840 H     1 <1>   0.0800 
 48 H        7.1910     9.2120    -1.4480 H     1 <1>   0.0800 
 49 H        9.6090     7.1240     0.4900 H     1 <1>   0.0800 
 50 H        8.8050     7.3270     2.0350 H     1 <1>   0.0800 
 51 H        9.6670     8.6620     1.3170 H     1 <1>   0.0800 
@<TRIPOS>BOND
  1   1   2  2   
  2   1   3  2   
  3   1   4  am  
  4   1   5  1   
  5   4   6  1   
  6   4   7  1   
  7   5   8  1   
  8   5  26  1   
  9   5  27  1   
 10   6  28  1   
 11   6  29  1   
 12   6  30  1   
 13   7  31  1   
 14   7  32  1   
 15   7  33  1   
 16   8   9  1   
 17   8  10  1   
 18   8  34  1   
 19   9  11  1   
 20   9  12  1   
 21   9  35  1   
 22  10  13  1   
 23  10  36  1   
 24  10  37  1   
 25  11  14  am  
 26  11  38  1   
 27  12  13  1   
 28  12  39  1   
 29  12  40  1   
 30  14  15  2   
 31  14  16  1   
 32  16  17  ar  
 33  16  18  ar  
 34  17  19  ar  
 35  17  41  1   
 36  18  20  ar  
 37  18  42  1   
 38  19  21  1   
 39  19  22  ar  
 40  20  22  ar  
 41  20  43  1   
 42  21  23  1   
 43  22  44  1   
 44  23  24  1   
 45  23  25  1   
 46  23  45  1   
 47  24  46  1   
 48  24  47  1   
 49  24  48  1   
 50  25  49  1   
 51  25  50  1   
 52  25  51  1   
@<TRIPOS>SUBSTRUCTURE
  1 ****  11 GROUP 4 **** **** 0

# MOE 2024.06 (io_trps.svl 2023.06)
