@<TRIPOS>MOLECULE
NONAME
40 41 1 0 0 
SMALL
USER_CHARGES


@<TRIPOS>ATOM
  1 O       -0.4330     0.8350     2.1000 O.2   1 <1>  -0.5700 
  2 C        0.4160     0.0780     1.6980 C.2   1 <1>   0.5690 
  3 N        1.4670     0.4530     0.9060 N.am  1 <1>  -0.4940 
  4 C        0.3100    -1.3840     2.0880 C.3   1 <1>  -0.0990 
  5 C        1.8140     1.7450     0.4360 C.2   1 <1>  -0.0880 
  6 C       -0.1410    -2.2630     0.9100 C.3   1 <1>  -0.1600 
  7 N        2.8150     2.0180    -0.4440 N.pl3 1 <1>   0.3140 
  8 C        1.2590     2.9400     0.7470 C.2   1 <1>  -0.1500 
  9 C       -0.3280    -3.7260     1.3410 C.3   1 <1>   0.0960 
 10 N        2.9120     3.3420    -0.6950 N.2   1 <1>  -0.7070 
 11 C        3.7080     1.0530    -1.1170 C.3   1 <1>   0.0960 
 12 C        1.9780     3.8800     0.0210 C.2   1 <1>   0.1080 
 13 N       -0.6180    -4.5790     0.1730 N.pl3 1 <1>   0.3140 
 14 C        4.8400     0.6020    -0.1820 C.3   1 <1>  -0.1600 
 15 C        1.7270     5.3690     0.0390 C.3   1 <1>  -0.0590 
 16 N        0.3290    -5.0140    -0.6460 N.2   1 <1>  -0.7070 
 17 C       -1.7970    -5.0390    -0.2550 C.2   1 <1>   0.0360 
 18 C        5.7470    -0.4300    -0.8610 C.3   1 <1>  -0.2400 
 19 C       -0.3440    -5.7070    -1.5050 C.2   1 <1>   0.3660 
 20 N       -1.6690    -5.7560    -1.3120 N.2   1 <1>  -0.5650 
 21 H        2.0850    -0.3050     0.6220 H     1 <1>   0.3700 
 22 H       -0.4010    -1.4640     2.8920 H     1 <1>   0.0800 
 23 H        1.2630    -1.7150     2.4590 H     1 <1>   0.0800 
 24 H        0.5960    -2.2170     0.1260 H     1 <1>   0.0800 
 25 H       -1.0730    -1.8840     0.5220 H     1 <1>   0.0800 
 26 H        0.4370     3.1380     1.4110 H     1 <1>   0.1500 
 27 H       -1.1350    -3.8120     2.0450 H     1 <1>   0.0800 
 28 H        0.5710    -4.0950     1.8000 H     1 <1>   0.0800 
 29 H        4.1210     1.5310    -1.9860 H     1 <1>   0.0800 
 30 H        3.1220     0.2120    -1.4380 H     1 <1>   0.0800 
 31 H        4.4290     0.1750     0.7160 H     1 <1>   0.0800 
 32 H        5.4290     1.4620     0.0930 H     1 <1>   0.0800 
 33 H        0.9090     5.6040     0.6930 H     1 <1>   0.0800 
 34 H        1.4930     5.7040    -0.9550 H     1 <1>   0.0800 
 35 H        2.6110     5.8760     0.3790 H     1 <1>   0.0800 
 36 H       -2.7280    -4.8250     0.2390 H     1 <1>   0.1500 
 37 H        5.1880    -1.3090    -1.1330 H     1 <1>   0.0800 
 38 H        6.5370    -0.7220    -0.1910 H     1 <1>   0.0800 
 39 H        6.1930    -0.0140    -1.7480 H     1 <1>   0.0800 
 40 H        0.1090    -6.2240    -2.3360 H     1 <1>   0.1500 
@<TRIPOS>BOND
  1   1   2  2   
  2   2   3  am  
  3   2   4  1   
  4   3   5  1   
  5   3  21  1   
  6   4   6  1   
  7   4  22  1   
  8   4  23  1   
  9   5   7  1   
 10   5   8  2   
 11   6   9  1   
 12   6  24  1   
 13   6  25  1   
 14   7  10  1   
 15   7  11  1   
 16   8  12  1   
 17   8  26  1   
 18   9  13  1   
 19   9  27  1   
 20   9  28  1   
 21  10  12  2   
 22  11  14  1   
 23  11  29  1   
 24  11  30  1   
 25  12  15  1   
 26  13  16  1   
 27  13  17  1   
 28  14  18  1   
 29  14  31  1   
 30  14  32  1   
 31  15  33  1   
 32  15  34  1   
 33  15  35  1   
 34  16  19  2   
 35  17  20  2   
 36  17  36  1   
 37  18  37  1   
 38  18  38  1   
 39  18  39  1   
 40  19  20  1   
 41  19  40  1   
@<TRIPOS>SUBSTRUCTURE
  1 ****   3 GROUP 4 **** **** 0

# MOE 2024.06 (io_trps.svl 2023.06)
