@<TRIPOS>MOLECULE
NONAME
46 48 1 0 0 
SMALL
USER_CHARGES


@<TRIPOS>ATOM
  1 CL       2.1110     0.4840    -2.4070 Cl    1 <1>  -0.1230 
  2 C        3.7340     0.2160    -1.7930 C.2   1 <1>   0.1230 
  3 C        4.6040     1.1900    -1.2990 C.2   1 <1>   0.2030 
  4 C        4.3570    -0.9700    -1.6990 C.2   1 <1>  -0.3020 
  5 N        5.7250     0.5990    -0.9070 N.2   1 <1>  -0.7070 
  6 C        4.2800     2.6090    -1.2640 C.2   1 <1>   0.7160 
  7 N        5.5630    -0.7070    -1.1620 N.pl3 1 <1>   0.3140 
  8 O        3.8870     3.1450    -2.2890 O.2   1 <1>  -0.5700 
  9 N        4.3690     3.3890    -0.1150 N.am  1 <1>  -0.6600 
 10 C        6.6180    -1.6860    -0.8710 C.3   1 <1>   0.0160 
 11 C        4.8250     2.8270     1.2040 C.3   1 <1>   0.1400 
 12 C        3.9450     4.8200    -0.1410 C.3   1 <1>   0.1400 
 13 C        5.4870     3.8450     2.1500 C.3   1 <1>   0.1400 
 14 C        5.1560     5.7360    -0.3610 C.3   1 <1>  -0.1600 
 15 N        6.5080     4.6660     1.4370 N.am  1 <1>  -0.6600 
 16 C        6.0090     5.9550     0.8920 C.3   1 <1>   0.1400 
 17 C        7.7580     4.1390     1.1340 C.2   1 <1>   0.6300 
 18 O        8.0600     3.0750     1.6560 O.2   1 <1>  -0.5700 
 19 C        8.6920     4.7950     0.2100 C.2   1 <1>   0.6550 
 20 O        9.1940     5.8730     0.4940 O.2   1 <1>  -0.5700 
 21 C        8.9810     4.1780    -1.0640 C.2   1 <1>  -0.2370 
 22 N        9.9240     4.6010    -1.9740 N.pl3 1 <1>   0.0480 
 23 C        8.3650     3.0730    -1.6040 C.2   1 <1>  -0.1500 
 24 C        9.8770     3.7750    -3.0450 C.2   1 <1>  -0.3020 
 25 C       10.8590     5.7380    -1.8510 C.3   1 <1>   0.0160 
 26 C        8.9270     2.8240    -2.8490 C.2   1 <1>  -0.1500 
 27 H        4.0190    -1.9510    -1.9740 H     1 <1>   0.1500 
 28 H        6.2280    -2.4430    -0.2180 H     1 <1>   0.0800 
 29 H        7.4400    -1.1850    -0.3920 H     1 <1>   0.0800 
 30 H        6.9530    -2.1270    -1.7900 H     1 <1>   0.0800 
 31 H        5.5480     2.0500     1.0420 H     1 <1>   0.0800 
 32 H        3.9830     2.3830     1.7030 H     1 <1>   0.0800 
 33 H        3.4350     5.0740     0.7710 H     1 <1>   0.0800 
 34 H        3.2430     4.9760    -0.9440 H     1 <1>   0.0800 
 35 H        5.9570     3.3140     2.9600 H     1 <1>   0.0800 
 36 H        4.7380     4.4830     2.5830 H     1 <1>   0.0800 
 37 H        4.7920     6.6960    -0.6780 H     1 <1>   0.0800 
 38 H        5.7620     5.3490    -1.1630 H     1 <1>   0.0800 
 39 H        5.4220     6.4500     1.6470 H     1 <1>   0.0800 
 40 H        6.8300     6.6080     0.6560 H     1 <1>   0.0800 
 41 H        7.5790     2.4810    -1.1640 H     1 <1>   0.1500 
 42 H       10.5180     3.8950    -3.9000 H     1 <1>   0.1500 
 43 H       11.4390     5.6240    -0.9540 H     1 <1>   0.0800 
 44 H       10.2990     6.6530    -1.8020 H     1 <1>   0.0800 
 45 H       11.5150     5.7630    -2.7010 H     1 <1>   0.0800 
 46 H        8.6430     2.0230    -3.5100 H     1 <1>   0.1500 
@<TRIPOS>BOND
  1   1   2  1   
  2   2   3  1   
  3   2   4  2   
  4   3   5  2   
  5   3   6  1   
  6   4   7  1   
  7   4  27  1   
  8   5   7  1   
  9   6   8  2   
 10   6   9  am  
 11   7  10  1   
 12   9  11  1   
 13   9  12  1   
 14  10  28  1   
 15  10  29  1   
 16  10  30  1   
 17  11  13  1   
 18  11  31  1   
 19  11  32  1   
 20  12  14  1   
 21  12  33  1   
 22  12  34  1   
 23  13  15  1   
 24  13  35  1   
 25  13  36  1   
 26  14  16  1   
 27  14  37  1   
 28  14  38  1   
 29  15  16  1   
 30  15  17  am  
 31  16  39  1   
 32  16  40  1   
 33  17  18  2   
 34  17  19  1   
 35  19  20  2   
 36  19  21  1   
 37  21  22  1   
 38  21  23  2   
 39  22  24  1   
 40  22  25  1   
 41  23  26  1   
 42  23  41  1   
 43  24  26  2   
 44  24  42  1   
 45  25  43  1   
 46  25  44  1   
 47  25  45  1   
 48  26  46  1   
@<TRIPOS>SUBSTRUCTURE
  1 ****  23 GROUP 4 **** **** 0

# MOE 2024.06 (io_trps.svl 2023.06)
