@<TRIPOS>MOLECULE
NONAME
51 53 1 0 0 
SMALL
USER_CHARGES


@<TRIPOS>ATOM
  1 F        0.4010     0.5820    -1.6560 F     1 <1>  -0.1900 
  2 C        1.6170     0.5770    -1.1740 C.ar  1 <1>   0.1900 
  3 C        1.8600    -0.0440     0.0410 C.ar  1 <1>  -0.1440 
  4 C        2.6090     1.1980    -1.9080 C.ar  1 <1>  -0.1500 
  5 C        3.1560    -0.0200     0.5400 C.ar  1 <1>   0.0830 
  6 C        0.7560    -0.7150     0.8360 C.3   1 <1>   0.4860 
  7 C        3.8990     1.2020    -1.4080 C.ar  1 <1>  -0.1500 
  8 O        3.3630    -0.6040     1.7480 O.3   1 <1>  -0.3630 
  9 C        4.1720     0.5970    -0.1910 C.ar  1 <1>  -0.1500 
 10 N        0.0370    -1.7130     0.0010 N.4   1 <1>  -0.9590 
 11 C        4.5850    -0.4480     2.4410 C.3   1 <1>   0.0400 
 12 C        0.9510    -2.8560    -0.4350 C.3   1 <1>   0.3430 
 13 C       -1.2000    -2.1860     0.7090 C.3   1 <1>   0.3430 
 14 C        0.4470    -4.2410     0.1050 C.3   1 <1>  -0.1060 
 15 C       -1.9060    -3.2360    -0.1410 C.3   1 <1>  -0.1600 
 16 C       -0.0720    -5.5490     0.6960 C.2   1 <1>   0.9060 
 17 C       -0.8500    -4.0900    -0.8370 C.3   1 <1>   0.2000 
 18 C        1.7810    -4.3880     0.9770 C.3   1 <1>  -0.0170 
 19 O        0.1020    -6.6280     0.1150 O.co2 1 <1>  -0.9000 
 20 O       -0.6970    -5.4540     1.7580 O.co2 1 <1>  -0.9000 
 21 O       -1.4740    -5.2180    -1.3570 O.3   1 <1>  -0.6800 
 22 C        3.0430    -4.5240     0.1160 C.ar  1 <1>  -0.1430 
 23 C        4.1460    -3.7160     0.3480 C.ar  1 <1>  -0.1500 
 24 C        3.0920    -5.4540    -0.9110 C.ar  1 <1>  -0.1500 
 25 C        5.2720    -3.8170    -0.4500 C.ar  1 <1>  -0.1500 
 26 C        4.2160    -5.5580    -1.7100 C.ar  1 <1>  -0.1500 
 27 C        5.3060    -4.7370    -1.4830 C.ar  1 <1>  -0.1500 
 28 H        2.3790     1.6680    -2.8490 H     1 <1>   0.1500 
 29 H        0.0670     0.0410     1.1740 H     1 <1>   0.0800 
 30 H        1.1690    -1.2030     1.7040 H     1 <1>   0.0800 
 31 H        4.6910     1.6780    -1.9640 H     1 <1>   0.1500 
 32 H        5.1840     0.6190     0.1700 H     1 <1>   0.1500 
 33 H       -0.2520    -1.2130    -0.8510 H     1 <1>   0.4500 
 34 H        4.4940    -0.9300     3.3980 H     1 <1>   0.0800 
 35 H        4.7800     0.6010     2.5790 H     1 <1>   0.0800 
 36 H        5.3740    -0.9130     1.8760 H     1 <1>   0.0800 
 37 H        1.0200    -2.8860    -1.5100 H     1 <1>   0.0800 
 38 H        1.9460    -2.5970    -0.1190 H     1 <1>   0.0800 
 39 H       -0.9190    -2.6480     1.6450 H     1 <1>   0.0800 
 40 H       -1.8670    -1.3670     0.9190 H     1 <1>   0.0800 
 41 H       -2.5430    -2.7690    -0.8690 H     1 <1>   0.0800 
 42 H       -2.5110    -3.8480     0.5060 H     1 <1>   0.0800 
 43 H       -0.6220    -3.5780    -1.7590 H     1 <1>   0.0800 
 44 H        1.8760    -3.5500     1.6480 H     1 <1>   0.0800 
 45 H        1.8480    -5.2290     1.6590 H     1 <1>   0.0800 
 46 H       -1.0660    -6.0290    -0.9220 H     1 <1>   0.4000 
 47 H        4.1350    -3.0080     1.1550 H     1 <1>   0.1500 
 48 H        2.2540    -6.1100    -1.0910 H     1 <1>   0.1500 
 49 H        6.1230    -3.1860    -0.2670 H     1 <1>   0.1500 
 50 H        4.2400    -6.2840    -2.5040 H     1 <1>   0.1500 
 51 H        6.1800    -4.8190    -2.1050 H     1 <1>   0.1500 
@<TRIPOS>BOND
  1   1   2  1   
  2   2   3  ar  
  3   2   4  ar  
  4   3   5  ar  
  5   3   6  1   
  6   4   7  ar  
  7   4  28  1   
  8   5   8  1   
  9   5   9  ar  
 10   6  10  1   
 11   6  29  1   
 12   6  30  1   
 13   7   9  ar  
 14   7  31  1   
 15   8  11  1   
 16   9  32  1   
 17  10  12  1   
 18  10  13  1   
 19  10  33  1   
 20  11  34  1   
 21  11  35  1   
 22  11  36  1   
 23  12  14  1   
 24  12  37  1   
 25  12  38  1   
 26  13  15  1   
 27  13  39  1   
 28  13  40  1   
 29  14  16  1   
 30  14  17  1   
 31  14  18  1   
 32  15  17  1   
 33  15  41  1   
 34  15  42  1   
 35  16  19  ar  
 36  16  20  ar  
 37  17  21  1   
 38  17  43  1   
 39  18  22  1   
 40  18  44  1   
 41  18  45  1   
 42  21  46  1   
 43  22  23  ar  
 44  22  24  ar  
 45  23  25  ar  
 46  23  47  1   
 47  24  26  ar  
 48  24  48  1   
 49  25  27  ar  
 50  25  49  1   
 51  26  27  ar  
 52  26  50  1   
 53  27  51  1   
@<TRIPOS>SUBSTRUCTURE
  1 ****  12 GROUP 4 **** **** 0

# MOE 2024.06 (io_trps.svl 2023.06)
