@<TRIPOS>MOLECULE
NONAME
50 53 1 0 0 
SMALL
USER_CHARGES


@<TRIPOS>ATOM
  1 O       -1.1430     0.0000     1.1100 O.2   1 <1>  -0.5700 
  2 C       -2.0870     0.4720     0.5040 C.2   1 <1>   0.5440 
  3 N       -2.1780     1.8430     0.3790 N.am  1 <1>  -0.6600 
  4 C       -3.0870    -0.4120    -0.0430 C.ar  1 <1>   0.0860 
  5 C       -1.0370     2.7480     0.7190 C.3   1 <1>   0.1400 
  6 C       -3.4700     2.5750     0.2050 C.3   1 <1>   0.1400 
  7 C       -3.5970    -1.4560     0.7200 C.ar  1 <1>   0.1600 
  8 C       -3.5870    -0.2780    -1.3340 C.ar  1 <1>  -0.1500 
  9 C       -1.4200     3.6920     1.8700 C.3   1 <1>   0.1200 
 10 C       -3.7090     3.5380     1.3810 C.3   1 <1>   0.1200 
 11 N       -4.5420    -2.3000     0.3480 N.ar  1 <1>  -0.6200 
 12 C       -4.5660    -1.1520    -1.7410 C.ar  1 <1>  -0.1500 
 13 O       -2.6050     4.3770     1.5700 O.3   1 <1>  -0.5600 
 14 C       -5.0400    -2.1370    -0.8750 C.ar  1 <1>   0.4100 
 15 N       -6.0650    -2.9790    -1.2640 N.pl3 1 <1>  -0.8380 
 16 C       -6.2170    -4.3180    -0.6310 C.3   1 <1>   0.2090 
 17 C       -7.3190    -2.4130    -1.8270 C.3   1 <1>   0.2090 
 18 C       -7.2810    -4.2550     0.4680 C.3   1 <1>  -0.1600 
 19 C       -8.3810    -2.3380    -0.7290 C.3   1 <1>  -0.1600 
 20 C       -8.6120    -3.7070    -0.0670 C.3   1 <1>   0.1000 
 21 C       -9.6560    -3.6300     1.0490 C.2   1 <1>   0.0070 
 22 N       -9.9750    -2.5550     1.6900 N.2   1 <1>  -0.3380 
 23 N      -10.3620    -4.6790     1.4880 N.pl3 1 <1>   0.0480 
 24 N      -10.9130    -2.8830     2.5780 N.2   1 <1>  -0.3380 
 25 C      -11.1260    -4.1440     2.4420 C.2   1 <1>   0.0360 
 26 C      -10.3380    -6.0890     1.0550 C.3   1 <1>   0.0160 
 27 H       -0.7800     3.3320    -0.1460 H     1 <1>   0.0800 
 28 H       -0.1670     2.1790     1.0000 H     1 <1>   0.0800 
 29 H       -4.2950     1.8880     0.1490 H     1 <1>   0.0800 
 30 H       -3.4380     3.1380    -0.7120 H     1 <1>   0.0800 
 31 H       -3.1920    -1.5910     1.7090 H     1 <1>   0.1500 
 32 H       -3.2090     0.4880    -1.9880 H     1 <1>   0.1500 
 33 H       -0.6470     4.4230     2.0240 H     1 <1>   0.0800 
 34 H       -1.5600     3.1370     2.7810 H     1 <1>   0.0800 
 35 H       -3.8840     2.9890     2.2900 H     1 <1>   0.0800 
 36 H       -4.5640     4.1600     1.1840 H     1 <1>   0.0800 
 37 H       -4.9730    -1.0930    -2.7310 H     1 <1>   0.1500 
 38 H       -5.2780    -4.6440    -0.2160 H     1 <1>   0.0800 
 39 H       -6.5060    -5.0290    -1.3860 H     1 <1>   0.0800 
 40 H       -7.6600    -3.0410    -2.6320 H     1 <1>   0.0800 
 41 H       -7.1480    -1.4260    -2.2190 H     1 <1>   0.0800 
 42 H       -6.9230    -3.6170     1.2580 H     1 <1>   0.0800 
 43 H       -7.4190    -5.2370     0.8800 H     1 <1>   0.0800 
 44 H       -9.3040    -1.9770    -1.1460 H     1 <1>   0.0800 
 45 H       -8.0550    -1.6270     0.0110 H     1 <1>   0.0800 
 46 H       -8.9790    -4.3750    -0.8260 H     1 <1>   0.0800 
 47 H      -11.8320    -4.7100     3.0210 H     1 <1>   0.1500 
 48 H      -10.4560    -6.1390    -0.0110 H     1 <1>   0.0800 
 49 H      -11.1410    -6.6250     1.5270 H     1 <1>   0.0800 
 50 H       -9.4010    -6.5330     1.3380 H     1 <1>   0.0800 
@<TRIPOS>BOND
  1   1   2  2   
  2   2   3  am  
  3   2   4  1   
  4   3   5  1   
  5   3   6  1   
  6   4   7  ar  
  7   4   8  ar  
  8   5   9  1   
  9   5  27  1   
 10   5  28  1   
 11   6  10  1   
 12   6  29  1   
 13   6  30  1   
 14   7  11  ar  
 15   7  31  1   
 16   8  12  ar  
 17   8  32  1   
 18   9  13  1   
 19   9  33  1   
 20   9  34  1   
 21  10  13  1   
 22  10  35  1   
 23  10  36  1   
 24  11  14  ar  
 25  12  14  ar  
 26  12  37  1   
 27  14  15  1   
 28  15  16  1   
 29  15  17  1   
 30  16  18  1   
 31  16  38  1   
 32  16  39  1   
 33  17  19  1   
 34  17  40  1   
 35  17  41  1   
 36  18  20  1   
 37  18  42  1   
 38  18  43  1   
 39  19  20  1   
 40  19  44  1   
 41  19  45  1   
 42  20  21  1   
 43  20  46  1   
 44  21  22  2   
 45  21  23  1   
 46  22  24  1   
 47  23  25  1   
 48  23  26  1   
 49  24  25  2   
 50  25  47  1   
 51  26  48  1   
 52  26  49  1   
 53  26  50  1   
@<TRIPOS>SUBSTRUCTURE
  1 ****  11 GROUP 4 **** **** 0

# MOE 2024.06 (io_trps.svl 2023.06)
