@<TRIPOS>MOLECULE
NONAME
51 53 1 0 0 
SMALL
USER_CHARGES


@<TRIPOS>ATOM
  1 O       -1.4000    -0.4320    -0.0350 O.2   1 <1>  -0.5700 
  2 C       -2.0810     0.2940    -0.7310 C.2   1 <1>   0.5690 
  3 N       -2.9650    -0.2680    -1.6310 N.am  1 <1>  -0.6600 
  4 C       -1.9920     1.8350    -0.5010 C.3   1 <1>   0.3950 
  5 C       -3.2100    -1.7380    -1.5860 C.3   1 <1>   0.3200 
  6 C       -3.9230     0.4950    -2.4890 C.3   1 <1>   0.1400 
  7 N       -0.6330     2.3690    -0.1770 N.3   1 <1>  -0.8100 
  8 C       -2.9580     2.1900     0.6250 C.ar  1 <1>  -0.1430 
  9 C       -4.2290    -2.0030    -0.4980 C.2   1 <1>  -0.3320 
 10 C       -5.2740     0.6840    -1.7860 C.3   1 <1>   0.1200 
 11 C       -0.6320     3.8420    -0.0150 C.3   1 <1>   0.1100 
 12 C        0.3700     1.9800    -1.1930 C.3   1 <1>   0.1100 
 13 C       -2.7440     1.6790     1.8980 C.ar  1 <1>   0.1600 
 14 C       -4.0580     2.9970     0.4090 C.ar  1 <1>  -0.1500 
 15 N       -4.0150    -1.6520     0.7830 N.pl3 1 <1>   0.0330 
 16 C       -5.4600    -2.5580    -0.5350 C.2   1 <1>   0.0770 
 17 O       -5.8890     1.8160    -2.3000 O.3   1 <1>  -0.6800 
 18 C        0.7850     4.3760     0.2550 C.3   1 <1>   0.1200 
 19 C        1.7500     2.5820    -0.8780 C.3   1 <1>   0.1200 
 20 N       -3.5390     1.8750     2.9390 N.ar  1 <1>  -0.6200 
 21 C       -4.8880     3.2230     1.4860 C.ar  1 <1>  -0.1500 
 22 C       -5.1430    -1.9880     1.4400 C.2   1 <1>   0.0060 
 23 N       -6.0340    -2.5400     0.6830 N.2   1 <1>  -0.5650 
 24 O        1.6600     3.9720    -0.7580 O.3   1 <1>  -0.5600 
 25 C       -4.5900     2.6450     2.7080 C.ar  1 <1>   0.1600 
 26 C       -5.3220    -1.7250     2.9190 C.3   1 <1>  -0.0600 
 27 H       -2.3140     2.3320    -1.3940 H     1 <1>   0.0800 
 28 H       -2.2950    -2.2650    -1.3690 H     1 <1>   0.0800 
 29 H       -3.5760    -2.0850    -2.5360 H     1 <1>   0.0800 
 30 H       -4.0800    -0.0370    -3.4110 H     1 <1>   0.0800 
 31 H       -3.5130     1.4540    -2.7450 H     1 <1>   0.0800 
 32 H       -5.1470     0.8230    -0.7270 H     1 <1>   0.0800 
 33 H       -5.9160    -0.1620    -1.9620 H     1 <1>   0.0800 
 34 H       -1.2600     4.1200     0.8130 H     1 <1>   0.0800 
 35 H       -1.0170     4.3130    -0.9030 H     1 <1>   0.0800 
 36 H        0.0600     2.3150    -2.1690 H     1 <1>   0.0800 
 37 H        0.4690     0.9090    -1.2180 H     1 <1>   0.0800 
 38 H       -1.8670     1.0730     2.0650 H     1 <1>   0.1500 
 39 H       -4.2720     3.4270    -0.5550 H     1 <1>   0.1500 
 40 H       -3.1690    -1.2020     1.1580 H     1 <1>   0.2700 
 41 H       -5.9800    -2.9680    -1.3850 H     1 <1>   0.1500 
 42 H       -6.7860     1.9130    -1.9210 H     1 <1>   0.4000 
 43 H        1.1530     4.0090     1.1980 H     1 <1>   0.0800 
 44 H        0.7820     5.4510     0.2780 H     1 <1>   0.0800 
 45 H        2.4430     2.3650    -1.6710 H     1 <1>   0.0800 
 46 H        2.1360     2.1790     0.0420 H     1 <1>   0.0800 
 47 H       -5.7620     3.8410     1.3820 H     1 <1>   0.1500 
 48 H       -5.2500     2.8260     3.5390 H     1 <1>   0.1500 
 49 H       -5.1800    -0.6800     3.1260 H     1 <1>   0.0800 
 50 H       -4.6090    -2.2980     3.4830 H     1 <1>   0.0800 
 51 H       -6.3130    -2.0080     3.2220 H     1 <1>   0.0800 
@<TRIPOS>BOND
  1   1   2  2   
  2   2   3  am  
  3   2   4  1   
  4   3   5  1   
  5   3   6  1   
  6   4   7  1   
  7   4   8  1   
  8   4  27  1   
  9   5   9  1   
 10   5  28  1   
 11   5  29  1   
 12   6  10  1   
 13   6  30  1   
 14   6  31  1   
 15   7  11  1   
 16   7  12  1   
 17   8  13  ar  
 18   8  14  ar  
 19   9  15  1   
 20   9  16  2   
 21  10  17  1   
 22  10  32  1   
 23  10  33  1   
 24  11  18  1   
 25  11  34  1   
 26  11  35  1   
 27  12  19  1   
 28  12  36  1   
 29  12  37  1   
 30  13  20  ar  
 31  13  38  1   
 32  14  21  ar  
 33  14  39  1   
 34  15  22  1   
 35  15  40  1   
 36  16  23  1   
 37  16  41  1   
 38  17  42  1   
 39  18  24  1   
 40  18  43  1   
 41  18  44  1   
 42  19  24  1   
 43  19  45  1   
 44  19  46  1   
 45  20  25  ar  
 46  21  25  ar  
 47  21  47  1   
 48  22  23  2   
 49  22  26  1   
 50  25  48  1   
 51  26  49  1   
 52  26  50  1   
 53  26  51  1   
@<TRIPOS>SUBSTRUCTURE
  1 ****   2 GROUP 4 **** **** 0

# MOE 2024.06 (io_trps.svl 2023.06)
