@<TRIPOS>MOLECULE
NONAME
58 60 1 0 0 
SMALL
USER_CHARGES


@<TRIPOS>ATOM
  1 O        0.9850     0.5050    -3.7710 O.2   1 <1>  -0.5700 
  2 C        1.8370    -0.0640    -3.1300 C.2   1 <1>   0.5690 
  3 N        2.9360     0.5920    -2.6780 N.am  1 <1>  -0.7300 
  4 C        1.6780    -1.5570    -2.8120 C.3   1 <1>   0.1710 
  5 C        3.0040     2.0500    -2.5010 C.3   1 <1>   0.2840 
  6 N        1.2060    -1.8760    -1.4300 N.3   1 <1>  -0.8100 
  7 C        3.3050     2.3000    -1.0300 C.ar  1 <1>  -0.1440 
  8 C        0.6800    -3.2610    -1.3630 C.3   1 <1>   0.1100 
  9 C        2.1640    -1.5650    -0.3640 C.3   1 <1>   0.1100 
 10 C        2.3040     2.3070    -0.0600 C.ar  1 <1>  -0.1440 
 11 C        4.6240     2.5040    -0.6500 C.ar  1 <1>  -0.1500 
 12 C        0.3900    -3.7820     0.0770 C.3   1 <1>   0.0000 
 13 C        1.4650    -1.6270     1.0010 C.3   1 <1>  -0.1600 
 14 C        2.6430     2.5150     1.2680 C.ar  1 <1>  -0.1500 
 15 C        0.8370     2.0880    -0.4140 C.3   1 <1>  -0.0970 
 16 C        4.9530     2.7120     0.6770 C.ar  1 <1>  -0.1500 
 17 C        0.2290    -2.5390     0.9900 C.3   1 <1>   0.2000 
 18 C       -0.9630    -4.5350     0.0760 C.3   1 <1>   0.1200 
 19 C        1.5350    -4.7020     0.6140 C.3   1 <1>  -0.0170 
 20 C        3.9600     2.7170     1.6380 C.ar  1 <1>  -0.1500 
 21 O       -0.0620    -2.8970     2.2990 O.3   1 <1>  -0.6800 
 22 O       -1.0170    -5.4910    -0.9330 O.3   1 <1>  -0.6800 
 23 C        1.7740    -6.0080    -0.1410 C.ar  1 <1>  -0.1440 
 24 C        1.1260    -7.1700     0.2530 C.ar  1 <1>  -0.1500 
 25 C        2.6550    -6.0570    -1.2110 C.ar  1 <1>  -0.1500 
 26 C        1.3340    -8.3550    -0.4300 C.ar  1 <1>  -0.1500 
 27 C        2.8640    -7.2410    -1.8950 C.ar  1 <1>  -0.1500 
 28 C        2.2010    -8.3910    -1.5060 C.ar  1 <1>  -0.1500 
 29 H        3.5900     0.0920    -2.0780 H     1 <1>   0.3700 
 30 H        2.6130    -2.0540    -2.9970 H     1 <1>   0.0800 
 31 H        0.9610    -1.9440    -3.5160 H     1 <1>   0.0800 
 32 H        3.7860     2.4500    -3.1220 H     1 <1>   0.0800 
 33 H        2.0770     2.5140    -2.7900 H     1 <1>   0.0800 
 34 H       -0.2400    -3.2670    -1.9250 H     1 <1>   0.0800 
 35 H        1.3480    -3.9300    -1.8690 H     1 <1>   0.0800 
 36 H        2.9850    -2.2600    -0.4040 H     1 <1>   0.0800 
 37 H        2.5610    -0.5730    -0.4820 H     1 <1>   0.0800 
 38 H        5.4080     2.5010    -1.3880 H     1 <1>   0.1500 
 39 H        1.1480    -0.6340     1.2650 H     1 <1>   0.0800 
 40 H        2.1820    -1.9480     1.7330 H     1 <1>   0.0800 
 41 H        1.8810     2.5240     2.0270 H     1 <1>   0.1500 
 42 H        0.2130     2.1610     0.4580 H     1 <1>   0.0800 
 43 H        0.6950     1.1120    -0.8410 H     1 <1>   0.0800 
 44 H        0.5090     2.8270    -1.1210 H     1 <1>   0.0800 
 45 H        5.9790     2.8710     0.9610 H     1 <1>   0.1500 
 46 H       -0.6090    -1.9640     0.6290 H     1 <1>   0.0800 
 47 H       -1.7750    -3.8480    -0.0960 H     1 <1>   0.0800 
 48 H       -1.1290    -5.0270     1.0180 H     1 <1>   0.0800 
 49 H        2.4630    -4.1640     0.6290 H     1 <1>   0.0800 
 50 H        1.3230    -4.9620     1.6350 H     1 <1>   0.0800 
 51 H        4.2110     2.8800     2.6710 H     1 <1>   0.1500 
 52 H        0.7470    -3.1880     2.7580 H     1 <1>   0.4000 
 53 H       -0.2310    -6.0810    -0.8770 H     1 <1>   0.4000 
 54 H        0.4520    -7.1620     1.0940 H     1 <1>   0.1500 
 55 H        3.1860    -5.1740    -1.5190 H     1 <1>   0.1500 
 56 H        0.8210    -9.2510    -0.1220 H     1 <1>   0.1500 
 57 H        3.5450    -7.2700    -2.7280 H     1 <1>   0.1500 
 58 H        2.3610    -9.3130    -2.0390 H     1 <1>   0.1500 
@<TRIPOS>BOND
  1   1   2  2   
  2   2   3  am  
  3   2   4  1   
  4   3   5  1   
  5   3  29  1   
  6   4   6  1   
  7   4  30  1   
  8   4  31  1   
  9   5   7  1   
 10   5  32  1   
 11   5  33  1   
 12   6   8  1   
 13   6   9  1   
 14   7  10  ar  
 15   7  11  ar  
 16   8  12  1   
 17   8  34  1   
 18   8  35  1   
 19   9  13  1   
 20   9  36  1   
 21   9  37  1   
 22  10  14  ar  
 23  10  15  1   
 24  11  16  ar  
 25  11  38  1   
 26  12  17  1   
 27  12  18  1   
 28  12  19  1   
 29  13  17  1   
 30  13  39  1   
 31  13  40  1   
 32  14  20  ar  
 33  14  41  1   
 34  15  42  1   
 35  15  43  1   
 36  15  44  1   
 37  16  20  ar  
 38  16  45  1   
 39  17  21  1   
 40  17  46  1   
 41  18  22  1   
 42  18  47  1   
 43  18  48  1   
 44  19  23  1   
 45  19  49  1   
 46  19  50  1   
 47  20  51  1   
 48  21  52  1   
 49  22  53  1   
 50  23  24  ar  
 51  23  25  ar  
 52  24  26  ar  
 53  24  54  1   
 54  25  27  ar  
 55  25  55  1   
 56  26  28  ar  
 57  26  56  1   
 58  27  28  ar  
 59  27  57  1   
 60  28  58  1   
@<TRIPOS>SUBSTRUCTURE
  1 ****   9 GROUP 4 **** **** 0

# MOE 2024.06 (io_trps.svl 2023.06)
