@<TRIPOS>MOLECULE
NONAME
51 53 1 0 0 
SMALL
USER_CHARGES


@<TRIPOS>ATOM
  1 O        1.7590    -0.3500    -0.1720 O.2   1 <1>  -0.5700 
  2 C        2.0920    -0.6760     0.9440 C.2   1 <1>   0.5690 
  3 N        2.7230     0.1980     1.7710 N.am  1 <1>  -0.7300 
  4 C        1.8340    -2.0980     1.4400 C.3   1 <1>  -0.0190 
  5 C        3.0100     1.6060     1.4080 C.3   1 <1>   0.1400 
  6 C        2.9850    -3.0360     1.0330 C.3   1 <1>  -0.1600 
  7 C        0.4890    -2.6610     0.9380 C.3   1 <1>  -0.1600 
  8 C        4.2450     1.6790     0.5050 C.3   1 <1>   0.0200 
  9 C        2.7340    -4.4740     1.4950 C.3   1 <1>   0.1400 
 10 C        0.2710    -4.1030     1.4050 C.3   1 <1>   0.1400 
 11 C        4.2020     2.9440    -0.3280 C.2   1 <1>   0.0060 
 12 N        1.4210    -4.9420     0.9680 N.am  1 <1>  -0.6600 
 13 N        4.8580     4.0120    -0.0510 N.2   1 <1>  -0.5650 
 14 N        3.4690     3.0950    -1.4420 N.pl3 1 <1>   0.3140 
 15 C        1.3490    -6.0350     0.1320 C.2   1 <1>   0.5690 
 16 C        4.4880     4.8180    -1.0530 C.2   1 <1>   0.3660 
 17 N        3.6580     4.3190    -1.9080 N.2   1 <1>  -0.7070 
 18 C        2.5650     2.1370    -2.1010 C.3   1 <1>   0.0160 
 19 O        2.3430    -6.6600    -0.1610 O.2   1 <1>  -0.5700 
 20 C        0.0070    -6.4960    -0.4600 C.3   1 <1>  -0.0190 
 21 C       -0.0070    -7.9060    -1.0640 C.3   1 <1>  -0.1600 
 22 C       -0.4810    -5.6270    -1.6240 C.3   1 <1>  -0.1600 
 23 C       -1.2540    -7.9360    -1.9470 C.3   1 <1>  -0.1600 
 24 C       -1.4910    -6.4880    -2.3900 C.3   1 <1>  -0.1600 
 25 H        3.0320    -0.1000     2.6980 H     1 <1>   0.3700 
 26 H        1.7920    -2.0670     2.5140 H     1 <1>   0.0800 
 27 H        3.1630     2.2000     2.2930 H     1 <1>   0.0800 
 28 H        2.1560     2.0040     0.8860 H     1 <1>   0.0800 
 29 H        3.9100    -2.6870     1.4550 H     1 <1>   0.0800 
 30 H        3.0930    -3.0330    -0.0390 H     1 <1>   0.0800 
 31 H        0.4630    -2.6410    -0.1380 H     1 <1>   0.0800 
 32 H       -0.3170    -2.0440     1.2950 H     1 <1>   0.0800 
 33 H        4.2840     0.8320    -0.1550 H     1 <1>   0.0800 
 34 H        5.1330     1.6780     1.1100 H     1 <1>   0.0800 
 35 H        2.7170    -4.5230     2.5700 H     1 <1>   0.0800 
 36 H        3.5360    -5.1050     1.1500 H     1 <1>   0.0800 
 37 H       -0.6600    -4.4650     1.0110 H     1 <1>   0.0800 
 38 H        0.2060    -4.1340     2.4790 H     1 <1>   0.0800 
 39 H        4.8720     5.8230    -1.1210 H     1 <1>   0.1500 
 40 H        3.0520     1.1840    -2.1910 H     1 <1>   0.0800 
 41 H        2.3130     2.5050    -3.0780 H     1 <1>   0.0800 
 42 H        1.6710     2.0310    -1.5160 H     1 <1>   0.0800 
 43 H       -0.7330    -6.4900     0.3180 H     1 <1>   0.0800 
 44 H       -0.0210    -8.6690    -0.3070 H     1 <1>   0.0800 
 45 H        0.8630    -8.0460    -1.6850 H     1 <1>   0.0800 
 46 H        0.3540    -5.4050    -2.2680 H     1 <1>   0.0800 
 47 H       -0.9160    -4.7020    -1.2910 H     1 <1>   0.0800 
 48 H       -2.0960    -8.2770    -1.3690 H     1 <1>   0.0800 
 49 H       -1.1200    -8.5940    -2.7880 H     1 <1>   0.0800 
 50 H       -1.3450    -6.3800    -3.4510 H     1 <1>   0.0800 
 51 H       -2.4970    -6.1920    -2.1460 H     1 <1>   0.0800 
@<TRIPOS>BOND
  1   1   2  2   
  2   2   3  am  
  3   2   4  1   
  4   3   5  1   
  5   3  25  1   
  6   4   6  1   
  7   4   7  1   
  8   4  26  1   
  9   5   8  1   
 10   5  27  1   
 11   5  28  1   
 12   6   9  1   
 13   6  29  1   
 14   6  30  1   
 15   7  10  1   
 16   7  31  1   
 17   7  32  1   
 18   8  11  1   
 19   8  33  1   
 20   8  34  1   
 21   9  12  1   
 22   9  35  1   
 23   9  36  1   
 24  10  12  1   
 25  10  37  1   
 26  10  38  1   
 27  11  13  2   
 28  11  14  1   
 29  12  15  am  
 30  13  16  1   
 31  14  17  1   
 32  14  18  1   
 33  15  19  2   
 34  15  20  1   
 35  16  17  2   
 36  16  39  1   
 37  18  40  1   
 38  18  41  1   
 39  18  42  1   
 40  20  21  1   
 41  20  22  1   
 42  20  43  1   
 43  21  23  1   
 44  21  44  1   
 45  21  45  1   
 46  22  24  1   
 47  22  46  1   
 48  22  47  1   
 49  23  24  1   
 50  23  48  1   
 51  23  49  1   
 52  24  50  1   
 53  24  51  1   
@<TRIPOS>SUBSTRUCTURE
  1 ****   1 GROUP 4 **** **** 0

# MOE 2024.06 (io_trps.svl 2023.06)
