@<TRIPOS>MOLECULE
NONAME
45 48 1 0 0 
SMALL
USER_CHARGES


@<TRIPOS>ATOM
  1 F        1.1470     0.3910    -0.1640 F     1 <1>  -0.1900 
  2 C        1.3480     1.6620    -0.4020 C.ar  1 <1>   0.1900 
  3 C        0.8770     2.5910     0.4920 C.ar  1 <1>  -0.1500 
  4 C        2.0380     2.0060    -1.5680 C.ar  1 <1>  -0.1500 
  5 C        1.1070     3.9430     0.2110 C.ar  1 <1>   0.0000 
  6 C        2.2650     3.3350    -1.8450 C.ar  1 <1>  -0.1500 
  7 C        1.7960     4.3000    -0.9460 C.ar  1 <1>  -0.1520 
  8 C        0.7870     5.1440     0.8670 C.2   1 <1>  -0.1500 
  9 N        1.8840     5.6660    -0.9810 N.pl3 1 <1>   0.0330 
 10 C        1.2730     6.1890     0.1360 C.2   1 <1>  -0.2370 
 11 C        1.1920     7.6000     0.4050 C.2   1 <1>   0.7150 
 12 O        0.3240     8.0360     1.1370 O.2   1 <1>  -0.5700 
 13 N        2.1220     8.4230    -0.1560 N.am  1 <1>  -0.4930 
 14 C        2.2890     9.8250    -0.0680 C.2   1 <1>   0.0630 
 15 C        3.5560    10.4120     0.0010 C.2   1 <1>   0.3720 
 16 C        1.4220    10.8600    -0.0440 C.2   1 <1>  -0.3320 
 17 N        3.5020    11.7030     0.0850 N.2   1 <1>  -0.7070 
 18 N        4.7560     9.6720    -0.0070 N.pl3 1 <1>  -0.8210 
 19 N        2.1790    11.9820     0.0650 N.pl3 1 <1>   0.3140 
 20 C       -0.0980    10.8610    -0.1240 C.3   1 <1>  -0.0600 
 21 C        5.3660     9.6370     1.3510 C.3   1 <1>   0.2090 
 22 C        5.7690    10.2270    -0.9500 C.3   1 <1>   0.2090 
 23 C        1.7020    13.3670     0.1570 C.3   1 <1>   0.0160 
 24 C        6.8600     9.8380     1.1480 C.3   1 <1>  -0.1600 
 25 C        6.9380    10.7020    -0.0990 C.3   1 <1>  -0.1600 
 26 H        0.3490     2.3020     1.3800 H     1 <1>   0.1500 
 27 H        2.3780     1.2260    -2.2250 H     1 <1>   0.1500 
 28 H        2.7930     3.6340    -2.7340 H     1 <1>   0.1500 
 29 H        0.2440     5.2050     1.7950 H     1 <1>   0.1500 
 30 H        2.2860     6.2070    -1.7540 H     1 <1>   0.2700 
 31 H        3.0240     7.9850    -0.3390 H     1 <1>   0.3700 
 32 H       -0.4580     9.9010    -0.4440 H     1 <1>   0.0800 
 33 H       -0.4400    11.5960    -0.8300 H     1 <1>   0.0800 
 34 H       -0.5170    11.0760     0.8430 H     1 <1>   0.0800 
 35 H        5.1590     8.6970     1.8320 H     1 <1>   0.0800 
 36 H        4.9700    10.4360     1.9570 H     1 <1>   0.0800 
 37 H        5.3710    11.0330    -1.5450 H     1 <1>   0.0800 
 38 H        6.0900     9.4390    -1.6080 H     1 <1>   0.0800 
 39 H        0.9720    13.4380     0.9410 H     1 <1>   0.0800 
 40 H        1.2660    13.6520    -0.7810 H     1 <1>   0.0800 
 41 H        2.5330    14.0110     0.3800 H     1 <1>   0.0800 
 42 H        7.3230     8.8840     0.9690 H     1 <1>   0.0800 
 43 H        7.3190    10.3040     2.0010 H     1 <1>   0.0800 
 44 H        6.7770    11.7340     0.1600 H     1 <1>   0.0800 
 45 H        7.8770    10.6070    -0.6140 H     1 <1>   0.0800 
@<TRIPOS>BOND
  1   1   2  1   
  2   2   3  ar  
  3   2   4  ar  
  4   3   5  ar  
  5   3  26  1   
  6   4   6  ar  
  7   4  27  1   
  8   5   7  ar  
  9   5   8  1   
 10   6   7  ar  
 11   6  28  1   
 12   7   9  1   
 13   8  10  2   
 14   8  29  1   
 15   9  10  1   
 16   9  30  1   
 17  10  11  1   
 18  11  12  2   
 19  11  13  am  
 20  13  14  1   
 21  13  31  1   
 22  14  15  1   
 23  14  16  2   
 24  15  17  2   
 25  15  18  1   
 26  16  19  1   
 27  16  20  1   
 28  17  19  1   
 29  18  21  1   
 30  18  22  1   
 31  19  23  1   
 32  20  32  1   
 33  20  33  1   
 34  20  34  1   
 35  21  24  1   
 36  21  35  1   
 37  21  36  1   
 38  22  25  1   
 39  22  37  1   
 40  22  38  1   
 41  23  39  1   
 42  23  40  1   
 43  23  41  1   
 44  24  25  1   
 45  24  42  1   
 46  24  43  1   
 47  25  44  1   
 48  25  45  1   
@<TRIPOS>SUBSTRUCTURE
  1 ****  13 GROUP 4 **** **** 0

# MOE 2024.06 (io_trps.svl 2023.06)
