@<TRIPOS>MOLECULE
NONAME
46 47 1 0 0 
SMALL
USER_CHARGES


@<TRIPOS>ATOM
  1 S       -3.8310    -0.4200    -0.8610 S.3   1 <1>  -0.0800 
  2 C       -3.0430    -1.2820     0.4460 C.2   1 <1>  -0.1100 
  3 C       -2.8720    -1.2670    -2.0590 C.2   1 <1>  -0.1100 
  4 C       -2.1340    -2.1530    -0.0360 C.2   1 <1>  -0.1810 
  5 C       -2.0310    -2.1350    -1.4680 C.2   1 <1>  -0.1500 
  6 C       -1.2820    -3.0860     0.7970 C.3   1 <1>   0.5240 
  7 N       -1.7690    -4.4700     0.5580 N.4   1 <1>  -0.9590 
  8 C       -3.1430    -4.6640     1.1150 C.3   1 <1>   0.4810 
  9 C       -0.8160    -5.5240     1.0050 C.3   1 <1>   0.3430 
 10 C       -3.7220    -5.9690     0.5770 C.2   1 <1>  -0.0380 
 11 C        0.4260    -5.5370     0.1120 C.3   1 <1>  -0.1600 
 12 N       -3.6160    -7.0870     1.3850 N.pl3 1 <1>  -0.6000 
 13 C       -4.3140    -6.0720    -0.6520 C.2   1 <1>  -0.1240 
 14 C        1.3330    -6.7210     0.4710 C.3   1 <1>  -0.1600 
 15 C       -4.0730    -8.3150     0.9690 C.2   1 <1>  -0.0500 
 16 C       -4.7860    -7.3420    -1.1160 C.2   1 <1>   0.5410 
 17 C       -4.5150    -4.8880    -1.6040 C.3   1 <1>  -0.1020 
 18 C        2.5750    -6.7480    -0.4240 C.3   1 <1>  -0.2400 
 19 C       -4.6470    -8.4670    -0.2510 C.2   1 <1>  -0.1240 
 20 O       -5.2800    -7.4610    -2.2360 O.2   1 <1>  -0.5700 
 21 C       -5.1560    -9.8260    -0.7190 C.3   1 <1>  -0.1020 
 22 H       -3.3610    -1.0310     1.4440 H     1 <1>   0.1500 
 23 H       -3.0400    -1.0130    -3.0920 H     1 <1>   0.1500 
 24 H       -1.3340    -2.7580    -2.0040 H     1 <1>   0.1500 
 25 H       -1.3610    -2.8340     1.8420 H     1 <1>   0.0800 
 26 H       -0.2530    -2.9840     0.4950 H     1 <1>   0.0800 
 27 H       -1.8790    -4.5710    -0.4580 H     1 <1>   0.4500 
 28 H       -3.7820    -3.8500     0.8160 H     1 <1>   0.0800 
 29 H       -3.1180    -4.6880     2.1920 H     1 <1>   0.0800 
 30 H       -1.2860    -6.4910     0.9310 H     1 <1>   0.0800 
 31 H       -0.5320    -5.3660     2.0330 H     1 <1>   0.0800 
 32 H        0.9890    -4.6290     0.2330 H     1 <1>   0.0800 
 33 H        0.1290    -5.6330    -0.9180 H     1 <1>   0.0800 
 34 H       -3.2600    -7.0290     2.3490 H     1 <1>   0.4000 
 35 H        0.7970    -7.6480     0.3470 H     1 <1>   0.0800 
 36 H        1.6470    -6.6510     1.4990 H     1 <1>   0.0800 
 37 H       -3.9640    -9.1450     1.6500 H     1 <1>   0.1500 
 38 H       -5.5490    -4.8390    -1.8990 H     1 <1>   0.0800 
 39 H       -3.9290    -5.0330    -2.4950 H     1 <1>   0.0800 
 40 H       -4.2600    -3.9400    -1.1740 H     1 <1>   0.0800 
 41 H        2.2990    -6.8480    -1.4590 H     1 <1>   0.0800 
 42 H        3.1990    -7.5850    -0.1610 H     1 <1>   0.0800 
 43 H        3.1530    -5.8480    -0.3040 H     1 <1>   0.0800 
 44 H       -4.6480   -10.1170    -1.6210 H     1 <1>   0.0800 
 45 H       -6.2110    -9.7690    -0.9270 H     1 <1>   0.0800 
 46 H       -4.9940   -10.5830     0.0270 H     1 <1>   0.0800 
@<TRIPOS>BOND
  1   1   2  1   
  2   1   3  1   
  3   2   4  2   
  4   2  22  1   
  5   3   5  2   
  6   3  23  1   
  7   4   5  1   
  8   4   6  1   
  9   5  24  1   
 10   6   7  1   
 11   6  25  1   
 12   6  26  1   
 13   7   8  1   
 14   7   9  1   
 15   7  27  1   
 16   8  10  1   
 17   8  28  1   
 18   8  29  1   
 19   9  11  1   
 20   9  30  1   
 21   9  31  1   
 22  10  12  1   
 23  10  13  2   
 24  11  14  1   
 25  11  32  1   
 26  11  33  1   
 27  12  15  1   
 28  12  34  1   
 29  13  16  1   
 30  13  17  1   
 31  14  18  1   
 32  14  35  1   
 33  14  36  1   
 34  15  19  2   
 35  15  37  1   
 36  16  19  1   
 37  16  20  2   
 38  17  38  1   
 39  17  39  1   
 40  17  40  1   
 41  18  41  1   
 42  18  42  1   
 43  18  43  1   
 44  19  21  1   
 45  21  44  1   
 46  21  45  1   
 47  21  46  1   
@<TRIPOS>SUBSTRUCTURE
  1 ****   7 GROUP 4 **** **** 0

# MOE 2024.06 (io_trps.svl 2023.06)
