@<TRIPOS>MOLECULE
NONAME
50 52 1 0 0 
SMALL
USER_CHARGES


@<TRIPOS>ATOM
  1 O       -0.3870     0.4640     0.5900 O.2   1 <1>  -0.5700 
  2 C       -1.4490     1.0250     0.4020 C.2   1 <1>   0.5440 
  3 N       -2.5690     0.2570     0.1780 N.am  1 <1>  -0.6600 
  4 C       -1.5100     2.4740     0.4070 C.ar  1 <1>   0.0860 
  5 C       -3.7910     0.7310    -0.5200 C.3   1 <1>   0.1400 
  6 C       -2.5190    -1.2270     0.1880 C.3   1 <1>   0.1400 
  7 C       -0.6060     3.2320    -0.3320 C.ar  1 <1>  -0.1500 
  8 C       -2.4640     3.1650     1.1510 C.ar  1 <1>  -0.1500 
  9 C       -4.3730    -0.5180    -1.1800 C.3   1 <1>   0.2000 
 10 C       -3.8860    -1.6840    -0.3250 C.3   1 <1>  -0.0800 
 11 C       -0.6460     4.6140    -0.3520 C.ar  1 <1>   0.0830 
 12 C       -2.5290     4.5460     1.1410 C.ar  1 <1>  -0.1500 
 13 O       -5.7580    -0.4860    -1.2060 O.3   1 <1>  -0.6800 
 14 C       -3.8420    -3.0180    -1.0860 C.3   1 <1>   0.0210 
 15 O        0.3070     5.2080    -1.1230 O.3   1 <1>  -0.3630 
 16 C       -1.6300     5.2940     0.3840 C.ar  1 <1>   0.0830 
 17 C       -3.2680    -4.1180    -0.2150 C.2   1 <1>   0.1080 
 18 C        0.8730     6.4450    -0.7480 C.3   1 <1>   0.3200 
 19 O       -1.6990     6.6530     0.3360 O.3   1 <1>  -0.3630 
 20 N       -3.8460    -4.5280     0.8710 N.2   1 <1>  -0.7070 
 21 C       -2.0770    -4.7920    -0.4630 C.2   1 <1>  -0.1500 
 22 C        2.2050     6.5780    -1.4080 C.1   1 <1>  -0.2000 
 23 C       -2.7250     7.3860     0.9700 C.3   1 <1>   0.0400 
 24 N       -3.0310    -5.4870     1.3490 N.pl3 1 <1>   0.3000 
 25 C       -1.9510    -5.6640     0.5590 C.2   1 <1>  -0.3320 
 26 C        3.2670     6.6850    -1.9330 C.1   1 <1>  -0.1770 
 27 C       -0.8490    -6.6700     0.8340 C.3   1 <1>  -0.0600 
 28 H       -4.4780     1.1310     0.2050 H     1 <1>   0.0800 
 29 H       -3.5480     1.4760    -1.2580 H     1 <1>   0.0800 
 30 H       -1.7300    -1.5570    -0.4660 H     1 <1>   0.0800 
 31 H       -2.3300    -1.5960     1.1820 H     1 <1>   0.0800 
 32 H        0.1520     2.7240    -0.9020 H     1 <1>   0.1500 
 33 H       -3.1600     2.6030     1.7500 H     1 <1>   0.1500 
 34 H       -4.0140    -0.5930    -2.1930 H     1 <1>   0.0800 
 35 H       -4.5230    -1.7930     0.5350 H     1 <1>   0.0800 
 36 H       -3.2890     5.0200     1.7340 H     1 <1>   0.1500 
 37 H       -6.1150    -0.6070    -0.3050 H     1 <1>   0.4000 
 38 H       -3.2450    -2.9190    -1.9750 H     1 <1>   0.0800 
 39 H       -4.8380    -3.2970    -1.3800 H     1 <1>   0.0800 
 40 H        0.2180     7.2320    -1.0760 H     1 <1>   0.0800 
 41 H        0.9800     6.4680     0.3220 H     1 <1>   0.0800 
 42 H       -1.4170    -4.6310    -1.2960 H     1 <1>   0.1500 
 43 H       -2.5790     8.4270     0.7460 H     1 <1>   0.0800 
 44 H       -2.6620     7.2300     2.0330 H     1 <1>   0.0800 
 45 H       -3.6760     7.0610     0.5870 H     1 <1>   0.0800 
 46 H       -3.2400    -6.0000     2.2140 H     1 <1>   0.2700 
 47 H        4.2260     6.7740    -2.4110 H     1 <1>   0.1770 
 48 H       -0.1020    -6.6190     0.0610 H     1 <1>   0.0800 
 49 H       -1.2510    -7.6670     0.8560 H     1 <1>   0.0800 
 50 H       -0.3790    -6.4580     1.7780 H     1 <1>   0.0800 
@<TRIPOS>BOND
  1   1   2  2   
  2   2   3  am  
  3   2   4  1   
  4   3   5  1   
  5   3   6  1   
  6   4   7  ar  
  7   4   8  ar  
  8   5   9  1   
  9   5  28  1   
 10   5  29  1   
 11   6  10  1   
 12   6  30  1   
 13   6  31  1   
 14   7  11  ar  
 15   7  32  1   
 16   8  12  ar  
 17   8  33  1   
 18   9  10  1   
 19   9  13  1   
 20   9  34  1   
 21  10  14  1   
 22  10  35  1   
 23  11  15  1   
 24  11  16  ar  
 25  12  16  ar  
 26  12  36  1   
 27  13  37  1   
 28  14  17  1   
 29  14  38  1   
 30  14  39  1   
 31  15  18  1   
 32  16  19  1   
 33  17  20  2   
 34  17  21  1   
 35  18  22  1   
 36  18  40  1   
 37  18  41  1   
 38  19  23  1   
 39  20  24  1   
 40  21  25  2   
 41  21  42  1   
 42  22  26  3   
 43  23  43  1   
 44  23  44  1   
 45  23  45  1   
 46  24  25  1   
 47  24  46  1   
 48  25  27  1   
 49  26  47  1   
 50  27  48  1   
 51  27  49  1   
 52  27  50  1   
@<TRIPOS>SUBSTRUCTURE
  1 ****   2 GROUP 4 **** **** 0

# MOE 2024.06 (io_trps.svl 2023.06)
