@<TRIPOS>MOLECULE
NONAME
48 51 1 0 0 
SMALL
USER_CHARGES


@<TRIPOS>ATOM
  1 O        2.8940    -1.3540    -2.3070 O.2   1 <1>  -0.5700 
  2 C        2.1130    -1.6680    -1.4220 C.2   1 <1>   0.5440 
  3 N        1.4980    -0.6360    -0.7340 N.am  1 <1>  -0.6600 
  4 C        1.9120    -3.0910    -1.1340 C.ar  1 <1>   0.3960 
  5 C        1.8060     0.7890    -0.9880 C.3   1 <1>   0.1400 
  6 C        0.6030    -0.7780     0.4370 C.3   1 <1>   0.1400 
  7 N        0.7410    -3.5560    -0.6630 N.ar  1 <1>  -0.6200 
  8 C        2.9870    -3.9540    -1.3750 C.ar  1 <1>   0.1600 
  9 C        1.3830     1.5090     0.2860 C.3   1 <1>  -0.1600 
 10 C        0.2580     0.6480     0.8540 C.3   1 <1>  -0.1600 
 11 C        0.7190    -4.8630    -0.4630 C.ar  1 <1>   0.4100 
 12 N        2.9940    -5.2640    -1.1670 N.ar  1 <1>  -0.6200 
 13 N       -0.4730    -5.4070    -0.0090 N.pl3 1 <1>  -0.8380 
 14 C        1.8350    -5.6800    -0.7050 C.ar  1 <1>   0.1600 
 15 C       -1.2060    -6.3320    -0.9280 C.3   1 <1>   0.2090 
 16 C       -1.4060    -4.5550     0.7960 C.3   1 <1>   0.2090 
 17 C       -2.2460    -7.1900    -0.1770 C.3   1 <1>   0.2090 
 18 C       -2.4390    -5.4080     1.5580 C.3   1 <1>   0.2090 
 19 N       -3.1840    -6.3460     0.6440 N.pl3 1 <1>  -0.8380 
 20 C       -4.5380    -6.4380     0.5820 C.ar  1 <1>   0.1000 
 21 C       -5.3640    -5.3130     0.7120 C.ar  1 <1>  -0.1500 
 22 C       -5.1810    -7.6680     0.3870 C.ar  1 <1>  -0.1500 
 23 C       -6.7290    -5.4260     0.6530 C.ar  1 <1>   0.2110 
 24 C       -6.5480    -7.7530     0.3310 C.ar  1 <1>   0.2110 
 25 N       -7.3090    -6.6380     0.4650 N.ar  1 <1>  -0.1790 
 26 H        1.2240     1.1270    -1.8280 H     1 <1>   0.0800 
 27 H        2.8540     0.9320    -1.1950 H     1 <1>   0.0800 
 28 H        1.1280    -1.2900     1.2260 H     1 <1>   0.0800 
 29 H       -0.2860    -1.3250     0.1740 H     1 <1>   0.0800 
 30 H        3.8970    -3.5270    -1.7620 H     1 <1>   0.1500 
 31 H        1.0700     2.5190     0.0890 H     1 <1>   0.0800 
 32 H        2.2140     1.5250     0.9690 H     1 <1>   0.0800 
 33 H        0.1690     0.7420     1.9220 H     1 <1>   0.0800 
 34 H       -0.6770     0.9270     0.4000 H     1 <1>   0.0800 
 35 H        1.7330    -6.7270    -0.4920 H     1 <1>   0.1500 
 36 H       -0.5090    -6.9820    -1.4280 H     1 <1>   0.0800 
 37 H       -1.7110    -5.7500    -1.6800 H     1 <1>   0.0800 
 38 H       -1.9200    -3.8740     0.1400 H     1 <1>   0.0800 
 39 H       -0.8370    -3.9730     1.5010 H     1 <1>   0.0800 
 40 H       -1.7290    -7.8750     0.4720 H     1 <1>   0.0800 
 41 H       -2.7990    -7.7630    -0.8990 H     1 <1>   0.0800 
 42 H       -3.1200    -4.7640     2.0810 H     1 <1>   0.0800 
 43 H       -1.9160    -5.9890     2.2970 H     1 <1>   0.0800 
 44 H       -4.9100    -4.3490     0.8450 H     1 <1>   0.1500 
 45 H       -4.5820    -8.5560     0.2960 H     1 <1>   0.1500 
 46 H       -7.3600    -4.5570     0.7510 H     1 <1>   0.1500 
 47 H       -7.0380    -8.7030     0.1850 H     1 <1>   0.1500 
 48 H       -8.3320    -6.7120     0.4230 H     1 <1>   0.4570 
@<TRIPOS>BOND
  1   1   2  2   
  2   2   3  am  
  3   2   4  1   
  4   3   5  1   
  5   3   6  1   
  6   4   7  ar  
  7   4   8  ar  
  8   5   9  1   
  9   5  26  1   
 10   5  27  1   
 11   6  10  1   
 12   6  28  1   
 13   6  29  1   
 14   7  11  ar  
 15   8  12  ar  
 16   8  30  1   
 17   9  10  1   
 18   9  31  1   
 19   9  32  1   
 20  10  33  1   
 21  10  34  1   
 22  11  13  1   
 23  11  14  ar  
 24  12  14  ar  
 25  13  15  1   
 26  13  16  1   
 27  14  35  1   
 28  15  17  1   
 29  15  36  1   
 30  15  37  1   
 31  16  18  1   
 32  16  38  1   
 33  16  39  1   
 34  17  19  1   
 35  17  40  1   
 36  17  41  1   
 37  18  19  1   
 38  18  42  1   
 39  18  43  1   
 40  19  20  1   
 41  20  21  ar  
 42  20  22  ar  
 43  21  23  ar  
 44  21  44  1   
 45  22  24  ar  
 46  22  45  1   
 47  23  25  ar  
 48  23  46  1   
 49  24  25  ar  
 50  24  47  1   
 51  25  48  1   
@<TRIPOS>SUBSTRUCTURE
  1 ****  16 GROUP 4 **** **** 0

# MOE 2024.06 (io_trps.svl 2023.06)
