@<TRIPOS>MOLECULE
NONAME
54 56 1 0 0 
SMALL
USER_CHARGES


@<TRIPOS>ATOM
  1 O        3.1840    -2.2140    -3.3580 O.2   1 <1>  -0.5700 
  2 C        2.8330    -2.2860    -2.1930 C.2   1 <1>   0.5440 
  3 N        2.9900    -1.1780    -1.3840 N.am  1 <1>  -0.6600 
  4 C        2.3110    -3.5390    -1.6870 C.ar  1 <1>   0.0860 
  5 C        3.1590     0.1800    -1.9800 C.3   1 <1>   0.1400 
  6 C        2.9220    -1.2740     0.1030 C.3   1 <1>   0.1400 
  7 C        1.0160    -3.6500    -1.1650 C.ar  1 <1>   0.0830 
  8 C        3.1070    -4.6830    -1.7040 C.ar  1 <1>  -0.1500 
  9 C        2.3730     1.2300    -1.1810 C.3   1 <1>  -0.0800 
 10 C        3.5240    -0.0270     0.7530 C.3   1 <1>  -0.1600 
 11 O        0.2340    -2.5450    -1.1690 O.3   1 <1>  -0.3630 
 12 C        0.5560    -4.8650    -0.6650 C.ar  1 <1>  -0.1500 
 13 C        2.6510    -5.8890    -1.2060 C.ar  1 <1>  -0.1500 
 14 C        2.7650     1.2400     0.3270 C.3   1 <1>   0.2800 
 15 C        2.5050     2.6120    -1.8620 C.3   1 <1>  -0.1600 
 16 C       -0.8230    -2.3670    -0.2520 C.3   1 <1>   0.1200 
 17 C        1.3730    -5.9800    -0.6820 C.ar  1 <1>  -0.1500 
 18 O        1.5940     1.2660     1.0650 O.3   1 <1>  -0.6800 
 19 C        3.5600     2.5010     0.7120 C.3   1 <1>  -0.1600 
 20 C        2.0120     3.7310    -0.9380 C.3   1 <1>  -0.1600 
 21 C       -1.1100    -0.8730    -0.1600 C.3   1 <1>   0.1200 
 22 C        2.8390     3.8180     0.3570 C.3   1 <1>  -0.1600 
 23 O       -2.0860    -0.6670     0.8110 O.3   1 <1>  -0.5600 
 24 C       -2.3060     0.6750     1.0890 C.3   1 <1>   0.1200 
 25 C       -3.3840     0.7520     2.1630 C.3   1 <1>  -0.2400 
 26 H        4.2070     0.4260    -1.9910 H     1 <1>   0.0800 
 27 H        2.8080     0.1740    -2.9980 H     1 <1>   0.0800 
 28 H        1.8950    -1.3700     0.4060 H     1 <1>   0.0800 
 29 H        3.4570    -2.1490     0.4300 H     1 <1>   0.0800 
 30 H        4.0980    -4.6140    -2.1200 H     1 <1>   0.1500 
 31 H        1.3390     0.9410    -1.2550 H     1 <1>   0.0800 
 32 H        4.5530     0.0410     0.4510 H     1 <1>   0.0800 
 33 H        3.5110    -0.1290     1.8230 H     1 <1>   0.0800 
 34 H       -0.4380    -4.9570    -0.2700 H     1 <1>   0.1500 
 35 H        3.2870    -6.7580    -1.2280 H     1 <1>   0.1500 
 36 H        3.5320     2.8020    -2.1220 H     1 <1>   0.0800 
 37 H        1.9310     2.6160    -2.7730 H     1 <1>   0.0800 
 38 H       -1.6830    -2.9020    -0.6120 H     1 <1>   0.0800 
 39 H       -0.5120    -2.7370     0.7090 H     1 <1>   0.0800 
 40 H        1.0160    -6.9190    -0.2960 H     1 <1>   0.1500 
 41 H        1.8020     1.5020     1.9860 H     1 <1>   0.4000 
 42 H        3.8070     2.4880     1.7590 H     1 <1>   0.0800 
 43 H        4.4920     2.4770     0.1740 H     1 <1>   0.0800 
 44 H        2.0430     4.6760    -1.4520 H     1 <1>   0.0800 
 45 H        0.9840     3.5330    -0.6840 H     1 <1>   0.0800 
 46 H       -1.4730    -0.4990    -1.1010 H     1 <1>   0.0800 
 47 H       -0.2170    -0.3480     0.1320 H     1 <1>   0.0800 
 48 H        2.1820     4.0970     1.1630 H     1 <1>   0.0800 
 49 H        3.5770     4.5970     0.2600 H     1 <1>   0.0800 
 50 H       -1.3860     1.1140     1.4400 H     1 <1>   0.0800 
 51 H       -2.6290     1.1690     0.1880 H     1 <1>   0.0800 
 52 H       -3.0550     0.2440     3.0510 H     1 <1>   0.0800 
 53 H       -4.2920     0.3000     1.8060 H     1 <1>   0.0800 
 54 H       -3.5820     1.7790     2.4070 H     1 <1>   0.0800 
@<TRIPOS>BOND
  1   1   2  2   
  2   2   3  am  
  3   2   4  1   
  4   3   5  1   
  5   3   6  1   
  6   4   7  ar  
  7   4   8  ar  
  8   5   9  1   
  9   5  26  1   
 10   5  27  1   
 11   6  10  1   
 12   6  28  1   
 13   6  29  1   
 14   7  11  1   
 15   7  12  ar  
 16   8  13  ar  
 17   8  30  1   
 18   9  14  1   
 19   9  15  1   
 20   9  31  1   
 21  10  14  1   
 22  10  32  1   
 23  10  33  1   
 24  11  16  1   
 25  12  17  ar  
 26  12  34  1   
 27  13  17  ar  
 28  13  35  1   
 29  14  18  1   
 30  14  19  1   
 31  15  20  1   
 32  15  36  1   
 33  15  37  1   
 34  16  21  1   
 35  16  38  1   
 36  16  39  1   
 37  17  40  1   
 38  18  41  1   
 39  19  22  1   
 40  19  42  1   
 41  19  43  1   
 42  20  22  1   
 43  20  44  1   
 44  20  45  1   
 45  21  23  1   
 46  21  46  1   
 47  21  47  1   
 48  22  48  1   
 49  22  49  1   
 50  23  24  1   
 51  24  25  1   
 52  24  50  1   
 53  24  51  1   
 54  25  52  1   
 55  25  53  1   
 56  25  54  1   
@<TRIPOS>SUBSTRUCTURE
  1 ****   6 GROUP 4 **** **** 0

# MOE 2024.06 (io_trps.svl 2023.06)
