@<TRIPOS>MOLECULE
NONAME
51 53 1 0 0 
SMALL
USER_CHARGES


@<TRIPOS>ATOM
  1 S        1.5430     0.3790     1.7050 S.o2  1 <1>   1.3330 
  2 O        2.4780     1.4610     1.9090 O.2   1 <1>  -0.6500 
  3 O        1.0470    -0.3620     2.8380 O.2   1 <1>  -0.6500 
  4 N        2.2970    -0.7400     0.6200 N.am  1 <1>  -0.6930 
  5 C        0.1610     0.9720     0.7520 C.3   1 <1>  -0.1350 
  6 C        1.6940    -1.9380     0.2470 C.ar  1 <1>   0.1990 
  7 C        3.5220    -0.2640    -0.0930 C.3   1 <1>   0.2570 
  8 C        1.3330    -2.1760    -1.0750 C.ar  1 <1>  -0.1500 
  9 C        1.4390    -2.9280     1.1880 C.ar  1 <1>  -0.1500 
 10 C        3.3160     1.0010    -0.9490 C.2   1 <1>   0.5690 
 11 C        0.7390    -3.3690    -1.4450 C.ar  1 <1>  -0.1500 
 12 C        0.8440    -4.1210     0.8220 C.ar  1 <1>  -0.1500 
 13 O        2.3980     0.9680    -1.7380 O.2   1 <1>  -0.5700 
 14 N        4.1420     2.1010    -0.8230 N.am  1 <1>  -0.6600 
 15 C        0.4920    -4.3500    -0.4980 C.ar  1 <1>  -0.1430 
 16 C        3.7580     3.5420    -1.0640 C.3   1 <1>   0.2200 
 17 C        5.5090     2.0410    -0.2150 C.3   1 <1>   0.1400 
 18 C       -0.1620    -5.6590    -0.9010 C.3   1 <1>  -0.0970 
 19 C        3.9020     4.3330     0.2640 C.3   1 <1>   0.2000 
 20 C        2.3610     3.7850    -1.6640 C.3   1 <1>  -0.1600 
 21 C        5.5640     2.8920     1.0640 C.3   1 <1>   0.1200 
 22 O        5.2010     4.2090     0.7730 O.3   1 <1>  -0.5600 
 23 C        3.6220     5.8270     0.0790 C.3   1 <1>  -0.1600 
 24 C        2.0720     5.2830    -1.8470 C.3   1 <1>  -0.1600 
 25 C        2.2320     6.0540    -0.5310 C.3   1 <1>  -0.1600 
 26 H        0.4980     1.4450    -0.1480 H     1 <1>   0.0800 
 27 H       -0.4010     1.6820     1.3240 H     1 <1>   0.0800 
 28 H       -0.4810     0.1550     0.4890 H     1 <1>   0.0800 
 29 H        4.2640    -0.0870     0.6590 H     1 <1>   0.0800 
 30 H        3.8850    -1.0460    -0.7340 H     1 <1>   0.0800 
 31 H        1.5110    -1.4210    -1.8190 H     1 <1>   0.1500 
 32 H        1.7100    -2.7590     2.2150 H     1 <1>   0.1500 
 33 H        0.4670    -3.5300    -2.4730 H     1 <1>   0.1500 
 34 H        0.6550    -4.8700     1.5710 H     1 <1>   0.1500 
 35 H        4.4680     3.9550    -1.7600 H     1 <1>   0.0800 
 36 H        5.8120     1.0340    -0.0010 H     1 <1>   0.0800 
 37 H        6.2200     2.4390    -0.9190 H     1 <1>   0.0800 
 38 H        0.0790    -5.9030    -1.9200 H     1 <1>   0.0800 
 39 H       -1.2300    -5.5750    -0.8070 H     1 <1>   0.0800 
 40 H        0.1810    -6.4600    -0.2710 H     1 <1>   0.0800 
 41 H        3.2160     3.9340     0.9930 H     1 <1>   0.0800 
 42 H        2.2960     3.3080    -2.6260 H     1 <1>   0.0800 
 43 H        1.6140     3.3650    -1.0150 H     1 <1>   0.0800 
 44 H        6.5630     2.9090     1.4610 H     1 <1>   0.0800 
 45 H        4.8960     2.5040     1.8160 H     1 <1>   0.0800 
 46 H        3.6790     6.3180     1.0340 H     1 <1>   0.0800 
 47 H        4.3690     6.2500    -0.5690 H     1 <1>   0.0800 
 48 H        2.7480     5.6880    -2.5810 H     1 <1>   0.0800 
 49 H        1.0700     5.4120    -2.2200 H     1 <1>   0.0800 
 50 H        1.4790     5.7280     0.1670 H     1 <1>   0.0800 
 51 H        2.0830     7.1050    -0.7070 H     1 <1>   0.0800 
@<TRIPOS>BOND
  1   1   2  2   
  2   1   3  2   
  3   1   4  am  
  4   1   5  1   
  5   4   6  1   
  6   4   7  1   
  7   5  26  1   
  8   5  27  1   
  9   5  28  1   
 10   6   8  ar  
 11   6   9  ar  
 12   7  10  1   
 13   7  29  1   
 14   7  30  1   
 15   8  11  ar  
 16   8  31  1   
 17   9  12  ar  
 18   9  32  1   
 19  10  13  2   
 20  10  14  am  
 21  11  15  ar  
 22  11  33  1   
 23  12  15  ar  
 24  12  34  1   
 25  14  16  1   
 26  14  17  1   
 27  15  18  1   
 28  16  19  1   
 29  16  20  1   
 30  16  35  1   
 31  17  21  1   
 32  17  36  1   
 33  17  37  1   
 34  18  38  1   
 35  18  39  1   
 36  18  40  1   
 37  19  22  1   
 38  19  23  1   
 39  19  41  1   
 40  20  24  1   
 41  20  42  1   
 42  20  43  1   
 43  21  22  1   
 44  21  44  1   
 45  21  45  1   
 46  23  25  1   
 47  23  46  1   
 48  23  47  1   
 49  24  25  1   
 50  24  48  1   
 51  24  49  1   
 52  25  50  1   
 53  25  51  1   
@<TRIPOS>SUBSTRUCTURE
  1 ****  10 GROUP 4 **** **** 0

# MOE 2024.06 (io_trps.svl 2023.06)
