@<TRIPOS>MOLECULE
NONAME
51 52 1 0 0 
SMALL
USER_CHARGES


@<TRIPOS>ATOM
  1 O       -0.6860    -0.0270     0.8060 O.2   1 <1>  -0.5700 
  2 C       -1.5410     0.6320     0.2580 C.2   1 <1>   0.5690 
  3 N       -2.5230     0.0150    -0.4870 N.am  1 <1>  -0.6600 
  4 C       -1.4220     2.1510     0.4570 C.3   1 <1>  -0.0190 
  5 C       -3.5550     0.7040    -1.3300 C.3   1 <1>   0.2840 
  6 C       -2.5760    -1.4750    -0.5360 C.3   1 <1>   0.1400 
  7 C       -2.6380     2.8100     1.1430 C.3   1 <1>  -0.1600 
  8 C       -0.9650     2.9110    -0.8130 C.3   1 <1>  -0.1600 
  9 C       -4.9900     0.4070    -0.8900 C.ar  1 <1>   0.1660 
 10 C       -3.2880    -2.0260     0.7050 C.3   1 <1>  -0.1600 
 11 C       -2.3510     4.2690     1.5580 C.3   1 <1>   0.2000 
 12 C       -1.3220     4.4100    -0.7820 C.3   1 <1>  -0.1600 
 13 N       -5.4620     1.0830     0.1510 N.ar  1 <1>  -0.6200 
 14 C       -5.7280    -0.5390    -1.5900 C.ar  1 <1>  -0.1500 
 15 C       -3.4180    -3.5520     0.6390 C.3   1 <1>  -0.1600 
 16 O       -3.5530     5.0000     1.4970 O.3   1 <1>  -0.5600 
 17 C       -1.2950     4.9560     0.6480 C.3   1 <1>   0.2000 
 18 C       -6.7040     0.7980     0.5100 C.ar  1 <1>   0.1600 
 19 C       -7.0200    -0.8230    -1.2060 C.ar  1 <1>  -0.1500 
 20 C       -4.1360    -4.0940     1.8770 C.3   1 <1>  -0.2400 
 21 C       -4.4830     4.7110     2.4960 C.3   1 <1>   0.0400 
 22 O       -1.5570     6.3100     0.5910 O.3   1 <1>  -0.6800 
 23 C       -7.5120    -0.1300    -0.1220 C.ar  1 <1>  -0.1500 
 24 H       -0.6180     2.2690     1.1640 H     1 <1>   0.0800 
 25 H       -3.4160     1.7660    -1.3280 H     1 <1>   0.0800 
 26 H       -3.4270     0.3820    -2.3480 H     1 <1>   0.0800 
 27 H       -3.0860    -1.7970    -1.4260 H     1 <1>   0.0800 
 28 H       -1.5730    -1.8690    -0.5750 H     1 <1>   0.0800 
 29 H       -2.9070     2.2360     2.0120 H     1 <1>   0.0800 
 30 H       -3.4750     2.8130     0.4750 H     1 <1>   0.0800 
 31 H        0.1040     2.8060    -0.8930 H     1 <1>   0.0800 
 32 H       -1.3830     2.4730    -1.7000 H     1 <1>   0.0800 
 33 H       -2.7230    -1.7540     1.5800 H     1 <1>   0.0800 
 34 H       -4.2670    -1.5910     0.7880 H     1 <1>   0.0800 
 35 H       -1.9840     4.2990     2.5700 H     1 <1>   0.0800 
 36 H       -2.3130     4.5450    -1.1810 H     1 <1>   0.0800 
 37 H       -0.6310     4.9580    -1.3980 H     1 <1>   0.0800 
 38 H       -5.2980    -1.0540    -2.4290 H     1 <1>   0.1500 
 39 H       -3.9710    -3.8320    -0.2410 H     1 <1>   0.0800 
 40 H       -2.4380    -3.9950     0.5760 H     1 <1>   0.0800 
 41 H       -0.3080     4.8280     1.0590 H     1 <1>   0.0800 
 42 H       -7.0990     1.3350     1.3550 H     1 <1>   0.1500 
 43 H       -7.6170    -1.5520    -1.7260 H     1 <1>   0.1500 
 44 H       -5.1250    -3.6770     1.9500 H     1 <1>   0.0800 
 45 H       -3.5880    -3.8430     2.7680 H     1 <1>   0.0800 
 46 H       -4.2190    -5.1650     1.8170 H     1 <1>   0.0800 
 47 H       -5.3110     5.3880     2.3860 H     1 <1>   0.0800 
 48 H       -4.0270     4.8510     3.4600 H     1 <1>   0.0800 
 49 H       -4.8310     3.6990     2.3820 H     1 <1>   0.0800 
 50 H       -2.5260     6.3940     0.7490 H     1 <1>   0.4000 
 51 H       -8.5120    -0.3040     0.2310 H     1 <1>   0.1500 
@<TRIPOS>BOND
  1   1   2  2   
  2   2   3  am  
  3   2   4  1   
  4   3   5  1   
  5   3   6  1   
  6   4   7  1   
  7   4   8  1   
  8   4  24  1   
  9   5   9  1   
 10   5  25  1   
 11   5  26  1   
 12   6  10  1   
 13   6  27  1   
 14   6  28  1   
 15   7  11  1   
 16   7  29  1   
 17   7  30  1   
 18   8  12  1   
 19   8  31  1   
 20   8  32  1   
 21   9  13  ar  
 22   9  14  ar  
 23  10  15  1   
 24  10  33  1   
 25  10  34  1   
 26  11  16  1   
 27  11  17  1   
 28  11  35  1   
 29  12  17  1   
 30  12  36  1   
 31  12  37  1   
 32  13  18  ar  
 33  14  19  ar  
 34  14  38  1   
 35  15  20  1   
 36  15  39  1   
 37  15  40  1   
 38  16  21  1   
 39  17  22  1   
 40  17  41  1   
 41  18  23  ar  
 42  18  42  1   
 43  19  23  ar  
 44  19  43  1   
 45  20  44  1   
 46  20  45  1   
 47  20  46  1   
 48  21  47  1   
 49  21  48  1   
 50  21  49  1   
 51  22  50  1   
 52  23  51  1   
@<TRIPOS>SUBSTRUCTURE
  1 ****   5 GROUP 4 **** **** 0

# MOE 2024.06 (io_trps.svl 2023.06)
