@<TRIPOS>MOLECULE
NONAME
45 46 1 0 0 
SMALL
USER_CHARGES


@<TRIPOS>ATOM
  1 O       -1.2480     0.3930     2.2110 O.2   1 <1>  -0.5700 
  2 C       -1.8220     0.7670     1.2170 C.2   1 <1>   0.5690 
  3 N       -2.3280    -0.1170     0.2960 N.am  1 <1>  -0.6600 
  4 C       -1.9470     2.2720     1.0280 C.3   1 <1>  -0.0990 
  5 C       -2.1490    -1.5820     0.5020 C.3   1 <1>   0.3200 
  6 C       -3.0100     0.2750    -0.9740 C.3   1 <1>   0.1400 
  7 C       -0.7670     2.8510     0.2280 C.3   1 <1>  -0.1600 
  8 C       -3.4730    -2.2150     0.8800 C.2   1 <1>  -0.3320 
  9 C       -4.5170     0.4800    -0.7700 C.3   1 <1>   0.1200 
 10 C       -0.9320     4.3520    -0.0570 C.3   1 <1>  -0.0800 
 11 N       -4.3010    -2.8950     0.0580 N.pl3 1 <1>   0.0480 
 12 C       -4.0580    -2.2140     2.0980 C.2   1 <1>   0.0770 
 13 O       -5.1170     0.6440    -2.0120 O.3   1 <1>  -0.6800 
 14 C        0.2250     4.9220    -0.8710 C.3   1 <1>  -0.1600 
 15 C       -0.9480     5.2270     1.1960 C.3   1 <1>  -0.1600 
 16 C       -5.3390    -3.2560     0.8460 C.2   1 <1>   0.0360 
 17 C       -4.1610    -3.1760    -1.3820 C.3   1 <1>   0.0160 
 18 N       -5.2330    -2.8690     2.0750 N.2   1 <1>  -0.5650 
 19 C        0.1600     6.4300    -0.6340 C.3   1 <1>  -0.1600 
 20 C       -0.5290     6.6200     0.7220 C.3   1 <1>  -0.1600 
 21 H       -1.9670     2.7220     2.0040 H     1 <1>   0.0800 
 22 H       -2.8770     2.5130     0.5530 H     1 <1>   0.0800 
 23 H       -1.4420    -1.7660     1.2940 H     1 <1>   0.0800 
 24 H       -1.7470    -2.0310    -0.3880 H     1 <1>   0.0800 
 25 H       -2.8560    -0.4980    -1.7060 H     1 <1>   0.0800 
 26 H       -2.5750     1.1790    -1.3570 H     1 <1>   0.0800 
 27 H       -0.6770     2.3280    -0.7080 H     1 <1>   0.0800 
 28 H        0.1430     2.6820     0.7790 H     1 <1>   0.0800 
 29 H       -4.7230     1.3490    -0.1720 H     1 <1>   0.0800 
 30 H       -4.9670    -0.3780    -0.3050 H     1 <1>   0.0800 
 31 H       -1.8450     4.5190    -0.6050 H     1 <1>   0.0800 
 32 H       -3.6840    -1.7610     3.0030 H     1 <1>   0.1500 
 33 H       -4.9820     1.5500    -2.3510 H     1 <1>   0.4000 
 34 H        0.1460     4.6760    -1.9160 H     1 <1>   0.0800 
 35 H        1.1590     4.5470    -0.4900 H     1 <1>   0.0800 
 36 H       -0.2200     4.8630     1.9020 H     1 <1>   0.0800 
 37 H       -1.9160     5.2410     1.6670 H     1 <1>   0.0800 
 38 H       -6.1760    -3.8150     0.4650 H     1 <1>   0.1500 
 39 H       -3.1470    -3.4590    -1.5990 H     1 <1>   0.0800 
 40 H       -4.4230    -2.2980    -1.9430 H     1 <1>   0.0800 
 41 H       -4.8180    -3.9810    -1.6560 H     1 <1>   0.0800 
 42 H       -0.4330     6.8930    -1.4040 H     1 <1>   0.0800 
 43 H        1.1440     6.8670    -0.6430 H     1 <1>   0.0800 
 44 H        0.1340     7.0780     1.4350 H     1 <1>   0.0800 
 45 H       -1.3960     7.2480     0.6030 H     1 <1>   0.0800 
@<TRIPOS>BOND
  1   1   2  2   
  2   2   3  am  
  3   2   4  1   
  4   3   5  1   
  5   3   6  1   
  6   4   7  1   
  7   4  21  1   
  8   4  22  1   
  9   5   8  1   
 10   5  23  1   
 11   5  24  1   
 12   6   9  1   
 13   6  25  1   
 14   6  26  1   
 15   7  10  1   
 16   7  27  1   
 17   7  28  1   
 18   8  11  1   
 19   8  12  2   
 20   9  13  1   
 21   9  29  1   
 22   9  30  1   
 23  10  14  1   
 24  10  15  1   
 25  10  31  1   
 26  11  16  1   
 27  11  17  1   
 28  12  18  1   
 29  12  32  1   
 30  13  33  1   
 31  14  19  1   
 32  14  34  1   
 33  14  35  1   
 34  15  20  1   
 35  15  36  1   
 36  15  37  1   
 37  16  18  2   
 38  16  38  1   
 39  17  39  1   
 40  17  40  1   
 41  17  41  1   
 42  19  20  1   
 43  19  42  1   
 44  19  43  1   
 45  20  44  1   
 46  20  45  1   
@<TRIPOS>SUBSTRUCTURE
  1 ****   3 GROUP 4 **** **** 0

# MOE 2024.06 (io_trps.svl 2023.06)
