@<TRIPOS>MOLECULE
NONAME
41 43 1 0 0 
SMALL
USER_CHARGES


@<TRIPOS>ATOM
  1 CL       0.3430    -1.4040     2.9860 Cl    1 <1>  -0.1770 
  2 C       -0.6200    -2.5900     2.1440 C.ar  1 <1>   0.1770 
  3 C       -0.0250    -3.7500     1.6880 C.ar  1 <1>  -0.1500 
  4 C       -1.9660    -2.3570     1.9410 C.ar  1 <1>  -0.1500 
  5 C       -0.7930    -4.6870     1.0210 C.ar  1 <1>  -0.1500 
  6 C       -2.7240    -3.3000     1.2700 C.ar  1 <1>  -0.1500 
  7 C       -2.1590    -4.4880     0.7980 C.ar  1 <1>   0.0530 
  8 C       -2.9430    -5.4780     0.0980 C.2   1 <1>   0.0870 
  9 O       -2.3690    -6.2960    -0.7510 O.3   1 <1>  -0.0190 
 10 C       -4.2590    -5.8070     0.1220 C.2   1 <1>  -0.2330 
 11 N       -3.2130    -7.1290    -1.3010 N.2   1 <1>  -0.4100 
 12 C       -4.3680    -6.8370    -0.8160 C.2   1 <1>   0.3720 
 13 C       -5.2880    -5.3060     0.9640 C.2   1 <1>   1.0330 
 14 N       -5.5090    -7.5370    -1.2480 N.pl3 1 <1>  -0.8210 
 15 O       -5.9270    -4.2870     0.6660 O.co2 1 <1>  -0.9000 
 16 O       -5.6270    -5.9510     1.9730 O.co2 1 <1>  -0.9000 
 17 C       -5.4480    -9.0150    -1.2460 C.3   1 <1>   0.2090 
 18 C       -6.9060    -7.0760    -1.0310 C.3   1 <1>   0.2090 
 19 C       -6.7820    -9.4940    -0.6490 C.3   1 <1>   0.4230 
 20 C       -7.7450    -8.3520    -0.9870 C.3   1 <1>  -0.1600 
 21 N       -6.6990    -9.7870     0.8360 N.4   1 <1>  -0.9590 
 22 C       -7.9710   -10.3430     1.3840 C.3   1 <1>   0.2630 
 23 C       -6.2680    -8.6060     1.6600 C.3   1 <1>   0.2630 
 24 H        1.0240    -3.9130     1.8550 H     1 <1>   0.1500 
 25 H       -2.4170    -1.4500     2.3010 H     1 <1>   0.1500 
 26 H       -0.3310    -5.5920     0.6670 H     1 <1>   0.1500 
 27 H       -3.7700    -3.1060     1.1080 H     1 <1>   0.1500 
 28 H       -5.3620    -9.3440    -2.2660 H     1 <1>   0.0800 
 29 H       -4.6010    -9.3760    -0.6880 H     1 <1>   0.0800 
 30 H       -7.0220    -6.5500    -0.1050 H     1 <1>   0.0800 
 31 H       -7.2110    -6.4240    -1.8340 H     1 <1>   0.0800 
 32 H       -7.0880   -10.3930    -1.1570 H     1 <1>   0.0800 
 33 H       -8.1370    -8.5130    -1.9750 H     1 <1>   0.0800 
 34 H       -8.5730    -8.2550    -0.3100 H     1 <1>   0.0800 
 35 H       -5.9600   -10.4910     0.9560 H     1 <1>   0.4500 
 36 H       -8.7550    -9.6050     1.3320 H     1 <1>   0.0800 
 37 H       -7.8380   -10.6250     2.4160 H     1 <1>   0.0800 
 38 H       -8.2740   -11.2130     0.8240 H     1 <1>   0.0800 
 39 H       -7.0030    -7.8180     1.6190 H     1 <1>   0.0800 
 40 H       -5.3380    -8.2020     1.2940 H     1 <1>   0.0800 
 41 H       -6.1300    -8.8820     2.6910 H     1 <1>   0.0800 
@<TRIPOS>BOND
  1   1   2  1   
  2   2   3  ar  
  3   2   4  ar  
  4   3   5  ar  
  5   3  24  1   
  6   4   6  ar  
  7   4  25  1   
  8   5   7  ar  
  9   5  26  1   
 10   6   7  ar  
 11   6  27  1   
 12   7   8  1   
 13   8   9  1   
 14   8  10  2   
 15   9  11  1   
 16  10  12  1   
 17  10  13  1   
 18  11  12  2   
 19  12  14  1   
 20  13  15  ar  
 21  13  16  ar  
 22  14  17  1   
 23  14  18  1   
 24  17  19  1   
 25  17  28  1   
 26  17  29  1   
 27  18  20  1   
 28  18  30  1   
 29  18  31  1   
 30  19  20  1   
 31  19  21  1   
 32  19  32  1   
 33  20  33  1   
 34  20  34  1   
 35  21  22  1   
 36  21  23  1   
 37  21  35  1   
 38  22  36  1   
 39  22  37  1   
 40  22  38  1   
 41  23  39  1   
 42  23  40  1   
 43  23  41  1   
@<TRIPOS>SUBSTRUCTURE
  1 ****  10 GROUP 4 **** **** 0

# MOE 2024.06 (io_trps.svl 2023.06)
