@<TRIPOS>MOLECULE
NONAME
44 46 1 0 0 
SMALL
USER_CHARGES


@<TRIPOS>ATOM
  1 O        1.1070    -0.3360    -1.8100 O.2   1 <1>  -0.5700 
  2 C        1.7640    -0.4650    -0.8080 C.2   1 <1>   0.5690 
  3 N        2.5050     0.5410    -0.2630 N.am  1 <1>  -0.4940 
  4 C        1.7890    -1.8220    -0.1020 C.3   1 <1>  -0.0190 
  5 C        2.6360     1.8540    -0.6630 C.2   1 <1>   0.5420 
  6 C        2.4150    -2.9080    -0.9970 C.3   1 <1>  -0.1600 
  7 C        0.3780    -2.2440     0.3540 C.3   1 <1>  -0.1600 
  8 O        3.4650     2.5990    -0.0100 O.3   1 <1>  -0.2800 
  9 N        2.0510     2.5020    -1.6060 N.2   1 <1>  -0.3380 
 10 C        2.4350    -4.2740    -0.2970 C.3   1 <1>  -0.1600 
 11 C        0.3970    -3.6100     1.0560 C.3   1 <1>  -0.1600 
 12 C        3.3740     3.7720    -0.5760 C.2   1 <1>   0.4250 
 13 N        2.5290     3.7430    -1.5500 N.2   1 <1>  -0.3380 
 14 C        1.0290    -4.6830     0.1600 C.3   1 <1>  -0.1600 
 15 C        4.1860     4.8620    -0.0990 C.ar  1 <1>   0.0530 
 16 C        3.6360     6.0980     0.2640 C.ar  1 <1>   0.0820 
 17 C        5.5690     4.7020     0.0130 C.ar  1 <1>  -0.1500 
 18 O        2.2890     6.2310     0.1840 O.3   1 <1>  -0.3630 
 19 C        4.4580     7.1320     0.7050 C.ar  1 <1>  -0.1500 
 20 C        6.3810     5.7290     0.4550 C.ar  1 <1>  -0.1500 
 21 C        1.6400     7.4740     0.3100 C.3   1 <1>   0.1200 
 22 C        5.8250     6.9470     0.7990 C.ar  1 <1>  -0.1500 
 23 C        0.1580     7.2560     0.0230 C.3   1 <1>  -0.2400 
 24 H        3.0440     0.3120     0.5640 H     1 <1>   0.3700 
 25 H        2.4000    -1.7340     0.7790 H     1 <1>   0.0800 
 26 H        3.4180    -2.6260    -1.2650 H     1 <1>   0.0800 
 27 H        1.8440    -2.9870    -1.9080 H     1 <1>   0.0800 
 28 H       -0.2700    -2.2980    -0.5060 H     1 <1>   0.0800 
 29 H       -0.0270    -1.5020     1.0200 H     1 <1>   0.0800 
 30 H        3.0900    -4.2320     0.5570 H     1 <1>   0.0800 
 31 H        2.8230    -5.0180    -0.9710 H     1 <1>   0.0800 
 32 H       -0.6090    -3.8990     1.3060 H     1 <1>   0.0800 
 33 H        0.9560    -3.5360     1.9730 H     1 <1>   0.0800 
 34 H        1.0800    -5.6160     0.6950 H     1 <1>   0.0800 
 35 H        0.4060    -4.8340    -0.7050 H     1 <1>   0.0800 
 36 H        6.0110     3.7590    -0.2560 H     1 <1>   0.1500 
 37 H        4.0530     8.0860     0.9860 H     1 <1>   0.1500 
 38 H        7.4450     5.5840     0.5300 H     1 <1>   0.1500 
 39 H        2.0690     8.1570    -0.4030 H     1 <1>   0.0800 
 40 H        1.7850     7.8360     1.3130 H     1 <1>   0.0800 
 41 H        6.4570     7.7490     1.1420 H     1 <1>   0.1500 
 42 H        0.0290     6.8690    -0.9720 H     1 <1>   0.0800 
 43 H       -0.3720     8.1880     0.1020 H     1 <1>   0.0800 
 44 H       -0.2570     6.5620     0.7320 H     1 <1>   0.0800 
@<TRIPOS>BOND
  1   1   2  2   
  2   2   3  am  
  3   2   4  1   
  4   3   5  1   
  5   3  24  1   
  6   4   6  1   
  7   4   7  1   
  8   4  25  1   
  9   5   8  1   
 10   5   9  2   
 11   6  10  1   
 12   6  26  1   
 13   6  27  1   
 14   7  11  1   
 15   7  28  1   
 16   7  29  1   
 17   8  12  1   
 18   9  13  1   
 19  10  14  1   
 20  10  30  1   
 21  10  31  1   
 22  11  14  1   
 23  11  32  1   
 24  11  33  1   
 25  12  13  2   
 26  12  15  1   
 27  14  34  1   
 28  14  35  1   
 29  15  16  ar  
 30  15  17  ar  
 31  16  18  1   
 32  16  19  ar  
 33  17  20  ar  
 34  17  36  1   
 35  18  21  1   
 36  19  22  ar  
 37  19  37  1   
 38  20  22  ar  
 39  20  38  1   
 40  21  23  1   
 41  21  39  1   
 42  21  40  1   
 43  22  41  1   
 44  23  42  1   
 45  23  43  1   
 46  23  44  1   
@<TRIPOS>SUBSTRUCTURE
  1 ****   5 GROUP 4 **** **** 0

# MOE 2024.06 (io_trps.svl 2023.06)
