@<TRIPOS>MOLECULE
NONAME
45 47 1 0 0 
SMALL
USER_CHARGES


@<TRIPOS>ATOM
  1 F        1.8190     0.0330    -1.3290 F     1 <1>  -0.3400 
  2 C        2.4410     0.0850    -0.1550 C.3   1 <1>   1.1640 
  3 F        1.4910    -0.0050     0.7730 F     1 <1>  -0.3400 
  4 F        2.9170     1.3250    -0.0550 F     1 <1>  -0.3400 
  5 C        3.5380    -1.0000     0.0000 C.ar  1 <1>   0.1660 
  6 N        3.2070    -2.2850    -0.0320 N.ar  1 <1>  -0.6200 
  7 C        4.8520    -0.6370     0.1670 C.ar  1 <1>  -0.1500 
  8 C        4.1930    -3.1680     0.0940 C.ar  1 <1>   0.7200 
  9 C        5.7990    -1.6290     0.2980 C.ar  1 <1>   0.4100 
 10 N        5.4790    -2.8950     0.2540 N.ar  1 <1>  -0.6200 
 11 N        3.8360    -4.5030     0.0570 N.pl3 1 <1>  -0.8380 
 12 N        7.1260    -1.3150     0.4670 N.pl3 1 <1>  -0.8380 
 13 C        2.5110    -4.9580    -0.4480 C.3   1 <1>   0.1290 
 14 C        4.7620    -5.5780     0.5120 C.3   1 <1>   0.1290 
 15 C        7.5850    -0.3950     1.5540 C.3   1 <1>   0.2090 
 16 C        8.1320    -1.8530    -0.4890 C.3   1 <1>   0.2090 
 17 C        8.2760     0.9080     1.0690 C.3   1 <1>   0.2200 
 18 C        8.8670    -0.7550    -1.2770 C.3   1 <1>  -0.0190 
 19 N        7.8480     1.3310    -0.3040 N.am  1 <1>  -0.6600 
 20 C        9.8130     0.8240     1.1600 C.3   1 <1>   0.1200 
 21 C        8.0770     0.5390    -1.4020 C.2   1 <1>   0.5690 
 22 C       10.2870    -0.4820    -0.7600 C.3   1 <1>   0.1200 
 23 C        7.1320     2.6340    -0.4020 C.3   1 <1>   0.0600 
 24 O       10.3300    -0.3600     0.6280 O.3   1 <1>  -0.5600 
 25 O        7.7010     0.8590    -2.5060 O.2   1 <1>  -0.5700 
 26 H        5.1750     0.3840     0.1860 H     1 <1>   0.1500 
 27 H        2.6030    -5.9230    -0.9140 H     1 <1>   0.0800 
 28 H        2.1270    -4.2660    -1.1790 H     1 <1>   0.0800 
 29 H        1.8170    -5.0220     0.3710 H     1 <1>   0.0800 
 30 H        4.2040    -6.3910     0.9390 H     1 <1>   0.0800 
 31 H        5.4380    -5.2020     1.2620 H     1 <1>   0.0800 
 32 H        5.3350    -5.9370    -0.3250 H     1 <1>   0.0800 
 33 H        6.7340    -0.1210     2.1520 H     1 <1>   0.0800 
 34 H        8.2530    -0.9350     2.2030 H     1 <1>   0.0800 
 35 H        8.8350    -2.4680     0.0470 H     1 <1>   0.0800 
 36 H        7.6240    -2.4900    -1.1940 H     1 <1>   0.0800 
 37 H        7.9880     1.6840     1.7540 H     1 <1>   0.0800 
 38 H        8.9930    -1.1300    -2.2750 H     1 <1>   0.0800 
 39 H       10.1010     0.8400     2.1960 H     1 <1>   0.0800 
 40 H       10.2750     1.6650     0.6710 H     1 <1>   0.0800 
 41 H       10.7020     0.4050    -1.2080 H     1 <1>   0.0800 
 42 H       10.9210    -1.3140    -1.0140 H     1 <1>   0.0800 
 43 H        6.2630     2.6230     0.2320 H     1 <1>   0.0800 
 44 H        6.8140     2.8200    -1.4140 H     1 <1>   0.0800 
 45 H        7.7860     3.4320    -0.0980 H     1 <1>   0.0800 
@<TRIPOS>BOND
  1   1   2  1   
  2   2   3  1   
  3   2   4  1   
  4   2   5  1   
  5   5   6  ar  
  6   5   7  ar  
  7   6   8  ar  
  8   7   9  ar  
  9   7  26  1   
 10   8  10  ar  
 11   8  11  1   
 12   9  10  ar  
 13   9  12  1   
 14  11  13  1   
 15  11  14  1   
 16  12  15  1   
 17  12  16  1   
 18  13  27  1   
 19  13  28  1   
 20  13  29  1   
 21  14  30  1   
 22  14  31  1   
 23  14  32  1   
 24  15  17  1   
 25  15  33  1   
 26  15  34  1   
 27  16  18  1   
 28  16  35  1   
 29  16  36  1   
 30  17  19  1   
 31  17  20  1   
 32  17  37  1   
 33  18  21  1   
 34  18  22  1   
 35  18  38  1   
 36  19  21  am  
 37  19  23  1   
 38  20  24  1   
 39  20  39  1   
 40  20  40  1   
 41  21  25  2   
 42  22  24  1   
 43  22  41  1   
 44  22  42  1   
 45  23  43  1   
 46  23  44  1   
 47  23  45  1   
@<TRIPOS>SUBSTRUCTURE
  1 ****   9 GROUP 4 **** **** 0

# MOE 2024.06 (io_trps.svl 2023.06)
