@<TRIPOS>MOLECULE
NONAME
53 55 1 0 0 
SMALL
USER_CHARGES


@<TRIPOS>ATOM
  1 O        2.6980     0.2700     2.4470 O.3   1 <1>  -0.6800 
  2 C        2.1070     0.4890     1.2140 C.3   1 <1>   0.2000 
  3 C        3.0900     0.0620     0.0920 C.3   1 <1>   0.0000 
  4 C        1.7650     1.9850     1.1720 C.3   1 <1>  -0.1600 
  5 C        4.3090     1.0070     0.1640 C.3   1 <1>   0.3430 
  6 C        2.3920     0.1910    -1.2880 C.3   1 <1>   0.1200 
  7 C        3.5430    -1.4240     0.2710 C.3   1 <1>  -0.0170 
  8 C        3.0300     2.8470     1.1640 C.3   1 <1>   0.3430 
  9 N        3.9300     2.4490     0.0380 N.4   1 <1>  -0.9590 
 10 O        3.3440     0.2090    -2.2970 O.3   1 <1>  -0.6800 
 11 C        5.0200    -1.5850     0.6130 C.ar  1 <1>  -0.1440 
 12 C        5.1710     3.2640    -0.0240 C.3   1 <1>   0.3430 
 13 C        5.9570    -1.7230    -0.4000 C.ar  1 <1>  -0.1500 
 14 C        5.4420    -1.5790     1.9340 C.ar  1 <1>  -0.1500 
 15 C        4.8550     4.6840    -0.4890 C.3   1 <1>  -0.1600 
 16 C        7.3010    -1.8440    -0.0970 C.ar  1 <1>  -0.1500 
 17 C        6.7870    -1.6990     2.2370 C.ar  1 <1>  -0.1500 
 18 C        6.1420     5.4970    -0.6770 C.3   1 <1>   0.0960 
 19 C        7.7180    -1.8300     1.2220 C.ar  1 <1>  -0.1500 
 20 N        5.7990     6.8660    -1.0980 N.pl3 1 <1>   0.0480 
 21 C        5.5580     7.9240    -0.2800 C.2   1 <1>  -0.3020 
 22 C        5.6160     7.2950    -2.3750 C.2   1 <1>  -0.3020 
 23 C        5.2290     9.0090    -1.0270 C.2   1 <1>  -0.1500 
 24 C        5.2660     8.6080    -2.3650 C.2   1 <1>  -0.1500 
 25 H        2.0230     0.1750     3.1520 H     1 <1>   0.4000 
 26 H        1.2100    -0.1090     1.1710 H     1 <1>   0.0800 
 27 H        1.1660     2.2210     0.3130 H     1 <1>   0.0800 
 28 H        1.1720     2.2400     2.0320 H     1 <1>   0.0800 
 29 H        4.9970     0.7410    -0.6230 H     1 <1>   0.0800 
 30 H        4.8100     0.8510     1.1060 H     1 <1>   0.0800 
 31 H        1.8230     1.0980    -1.3810 H     1 <1>   0.0800 
 32 H        1.7280    -0.6410    -1.4590 H     1 <1>   0.0800 
 33 H        2.9580    -1.9110     1.0310 H     1 <1>   0.0800 
 34 H        3.3640    -1.9850    -0.6310 H     1 <1>   0.0800 
 35 H        3.5490     2.7120     2.1000 H     1 <1>   0.0800 
 36 H        2.7560     3.8850     1.0750 H     1 <1>   0.0800 
 37 H        3.4400     2.5400    -0.8610 H     1 <1>   0.4500 
 38 H        2.9360     0.0300    -3.1730 H     1 <1>   0.4000 
 39 H        5.6480     3.2860     0.9430 H     1 <1>   0.0800 
 40 H        5.8570     2.8130    -0.7250 H     1 <1>   0.0800 
 41 H        5.6440    -1.7400    -1.4310 H     1 <1>   0.1500 
 42 H        4.7280    -1.4810     2.7330 H     1 <1>   0.1500 
 43 H        4.2430     5.1850     0.2400 H     1 <1>   0.0800 
 44 H        4.3320     4.6480    -1.4290 H     1 <1>   0.0800 
 45 H        8.0250    -1.9550    -0.8870 H     1 <1>   0.1500 
 46 H        7.1100    -1.6960     3.2650 H     1 <1>   0.1500 
 47 H        6.7680     5.0550    -1.4330 H     1 <1>   0.0800 
 48 H        6.6980     5.5540     0.2420 H     1 <1>   0.0800 
 49 H        8.7630    -1.9280     1.4590 H     1 <1>   0.1500 
 50 H        5.6330     7.8590     0.7910 H     1 <1>   0.1500 
 51 H        5.7440     6.6540    -3.2280 H     1 <1>   0.1500 
 52 H        4.9830    10.0000    -0.6850 H     1 <1>   0.1500 
 53 H        5.0530     9.2430    -3.2080 H     1 <1>   0.1500 
@<TRIPOS>BOND
  1   1   2  1   
  2   1  25  1   
  3   2   3  1   
  4   2   4  1   
  5   2  26  1   
  6   3   5  1   
  7   3   6  1   
  8   3   7  1   
  9   4   8  1   
 10   4  27  1   
 11   4  28  1   
 12   5   9  1   
 13   5  29  1   
 14   5  30  1   
 15   6  10  1   
 16   6  31  1   
 17   6  32  1   
 18   7  11  1   
 19   7  33  1   
 20   7  34  1   
 21   8   9  1   
 22   8  35  1   
 23   8  36  1   
 24   9  12  1   
 25   9  37  1   
 26  10  38  1   
 27  11  13  ar  
 28  11  14  ar  
 29  12  15  1   
 30  12  39  1   
 31  12  40  1   
 32  13  16  ar  
 33  13  41  1   
 34  14  17  ar  
 35  14  42  1   
 36  15  18  1   
 37  15  43  1   
 38  15  44  1   
 39  16  19  ar  
 40  16  45  1   
 41  17  19  ar  
 42  17  46  1   
 43  18  20  1   
 44  18  47  1   
 45  18  48  1   
 46  19  49  1   
 47  20  21  1   
 48  20  22  1   
 49  21  23  2   
 50  21  50  1   
 51  22  24  2   
 52  22  51  1   
 53  23  24  1   
 54  23  52  1   
 55  24  53  1   
@<TRIPOS>SUBSTRUCTURE
  1 ****   9 GROUP 4 **** **** 0

# MOE 2024.06 (io_trps.svl 2023.06)
