@<TRIPOS>MOLECULE
NONAME
48 49 1 0 0 
SMALL
USER_CHARGES


@<TRIPOS>ATOM
  1 O        0.0350     0.1360    -0.1750 O.2   1 <1>  -0.5700 
  2 C       -0.9840     0.7220    -0.4500 C.2   1 <1>   0.5690 
  3 N       -2.0420     0.1010    -1.0200 N.am  1 <1>  -0.7300 
  4 C       -1.0870     2.2120    -0.1390 C.3   1 <1>  -0.0190 
  5 C       -2.1780    -1.3450    -1.2600 C.3   1 <1>   0.2840 
  6 C       -2.2950     2.5280     0.7660 C.3   1 <1>  -0.1600 
  7 C       -1.1120     3.0710    -1.4260 C.3   1 <1>  -0.1600 
  8 C       -3.5770    -1.7780    -0.8310 C.ar  1 <1>  -0.1440 
  9 C       -2.3110     4.0030     1.2190 C.3   1 <1>   0.2000 
 10 C       -1.7280     4.4710    -1.2250 C.3   1 <1>  -0.1600 
 11 C       -3.7500    -2.6510     0.2400 C.ar  1 <1>   0.0820 
 12 C       -4.6920    -1.2970    -1.5150 C.ar  1 <1>   0.0820 
 13 O       -3.6520     4.4080     1.3480 O.3   1 <1>  -0.5600 
 14 C       -1.5860     4.9470     0.2230 C.3   1 <1>   0.2000 
 15 O       -2.6390    -3.1010     0.8830 O.3   1 <1>  -0.3630 
 16 C       -5.0330    -3.0370     0.6210 C.ar  1 <1>  -0.1500 
 17 O       -4.4840    -0.4410    -2.5530 O.3   1 <1>  -0.3630 
 18 C       -5.9700    -1.6910    -1.1240 C.ar  1 <1>  -0.1500 
 19 C       -4.2840     3.9990     2.5220 C.3   1 <1>   0.0400 
 20 O       -2.1360     6.2090     0.3130 O.3   1 <1>  -0.6800 
 21 C       -2.7130    -3.9010     2.0410 C.3   1 <1>   0.0400 
 22 C       -6.1350    -2.5580    -0.0600 C.ar  1 <1>  -0.1500 
 23 C       -5.5420     0.0160    -3.3680 C.3   1 <1>   0.0400 
 24 H       -2.8910     0.6170    -1.2590 H     1 <1>   0.3700 
 25 H       -0.2000     2.4710     0.4130 H     1 <1>   0.0800 
 26 H       -2.0500    -1.5400    -2.3110 H     1 <1>   0.0800 
 27 H       -1.4070    -1.8770    -0.7290 H     1 <1>   0.0800 
 28 H       -2.2660     1.8910     1.6320 H     1 <1>   0.0800 
 29 H       -3.1990     2.3150     0.2210 H     1 <1>   0.0800 
 30 H       -0.1000     3.1730    -1.7800 H     1 <1>   0.0800 
 31 H       -1.6670     2.5680    -2.1990 H     1 <1>   0.0800 
 32 H       -1.8250     4.1020     2.1750 H     1 <1>   0.0800 
 33 H       -2.7770     4.4280    -1.4660 H     1 <1>   0.0800 
 34 H       -1.2570     5.1720    -1.8900 H     1 <1>   0.0800 
 35 H       -0.5410     5.0230     0.4720 H     1 <1>   0.0800 
 36 H       -5.1940    -3.7100     1.4400 H     1 <1>   0.1500 
 37 H       -6.8470    -1.3370    -1.6300 H     1 <1>   0.1500 
 38 H       -5.2890     4.3820     2.5110 H     1 <1>   0.0800 
 39 H       -3.7540     4.3990     3.3690 H     1 <1>   0.0800 
 40 H       -4.3100     2.9240     2.5630 H     1 <1>   0.0800 
 41 H       -3.0750     6.0700     0.5740 H     1 <1>   0.4000 
 42 H       -1.7110    -4.0830     2.3840 H     1 <1>   0.0800 
 43 H       -3.1890    -4.8330     1.7930 H     1 <1>   0.0800 
 44 H       -3.2670    -3.3710     2.7960 H     1 <1>   0.0800 
 45 H       -7.1240    -2.8600     0.2380 H     1 <1>   0.1500 
 46 H       -5.1260     0.6370    -4.1400 H     1 <1>   0.0800 
 47 H       -6.2250     0.5900    -2.7660 H     1 <1>   0.0800 
 48 H       -6.0350    -0.8330    -3.8080 H     1 <1>   0.0800 
@<TRIPOS>BOND
  1   1   2  2   
  2   2   3  am  
  3   2   4  1   
  4   3   5  1   
  5   3  24  1   
  6   4   6  1   
  7   4   7  1   
  8   4  25  1   
  9   5   8  1   
 10   5  26  1   
 11   5  27  1   
 12   6   9  1   
 13   6  28  1   
 14   6  29  1   
 15   7  10  1   
 16   7  30  1   
 17   7  31  1   
 18   8  11  ar  
 19   8  12  ar  
 20   9  13  1   
 21   9  14  1   
 22   9  32  1   
 23  10  14  1   
 24  10  33  1   
 25  10  34  1   
 26  11  15  1   
 27  11  16  ar  
 28  12  17  1   
 29  12  18  ar  
 30  13  19  1   
 31  14  20  1   
 32  14  35  1   
 33  15  21  1   
 34  16  22  ar  
 35  16  36  1   
 36  17  23  1   
 37  18  22  ar  
 38  18  37  1   
 39  19  38  1   
 40  19  39  1   
 41  19  40  1   
 42  20  41  1   
 43  21  42  1   
 44  21  43  1   
 45  21  44  1   
 46  22  45  1   
 47  23  46  1   
 48  23  47  1   
 49  23  48  1   
@<TRIPOS>SUBSTRUCTURE
  1 ****   3 GROUP 4 **** **** 0

# MOE 2024.06 (io_trps.svl 2023.06)
