@<TRIPOS>MOLECULE
NONAME
42 44 1 0 0 
SMALL
USER_CHARGES


@<TRIPOS>ATOM
  1 O        0.9720    -0.1140     0.8810 O.3   1 <1>  -0.3690 
  2 C        0.6030    -1.3720     0.5290 C.ar  1 <1>   0.0740 
  3 C        2.3120     0.2840     0.7090 C.3   1 <1>   0.1110 
  4 C        1.4140    -2.1750    -0.2710 C.ar  1 <1>  -0.1520 
  5 C       -0.6170    -1.8420     0.9800 C.ar  1 <1>  -0.1580 
  6 C        2.7990    -0.1330    -0.6880 C.3   1 <1>  -0.0890 
  7 C        0.9870    -3.4510    -0.6010 C.ar  1 <1>  -0.1580 
  8 C        2.7500    -1.6640    -0.7810 C.3   1 <1>  -0.0260 
  9 C       -1.0440    -3.1170     0.6490 C.ar  1 <1>   0.0740 
 10 C        4.2080     0.3880    -0.9950 C.3   1 <1>   0.1590 
 11 C       -0.2330    -3.9230    -0.1460 C.ar  1 <1>  -0.1580 
 12 O       -2.2520    -3.5050     1.1310 O.3   1 <1>  -0.3690 
 13 N        4.2010     1.8720    -1.0340 N.pl3 1 <1>  -0.7180 
 14 C       -2.7760    -4.7820     0.8450 C.3   1 <1>   0.0310 
 15 C        5.0030     2.7270    -0.3810 C.cat 1 <1>   1.0690 
 16 N        6.0230     2.3920     0.3720 N.pl3 1 <1>  -0.7040 
 17 N        4.9220     4.0570    -0.3650 N.pl3 1 <1>  -0.4630 
 18 C        6.5570     3.5530     0.8400 C.2   1 <1>   0.4790 
 19 N        5.9180     4.5760     0.4160 N.2   1 <1>  -0.2670 
 20 C        3.9590     4.9710    -1.0280 C.3   1 <1>   0.2670 
 21 C        7.7650     3.5720     1.7510 C.3   1 <1>  -0.0810 
 22 H        2.8930    -0.1880     1.4820 H     1 <1>   0.0710 
 23 H        2.3420     1.3500     0.8420 H     1 <1>   0.0710 
 24 H       -1.2380    -1.2160     1.5920 H     1 <1>   0.1420 
 25 H        2.1170     0.2650    -1.4190 H     1 <1>   0.0710 
 26 H        1.6020    -4.0850    -1.2150 H     1 <1>   0.1420 
 27 H        2.8910    -1.9760    -1.8010 H     1 <1>   0.0710 
 28 H        3.5280    -2.1020    -0.1800 H     1 <1>   0.0710 
 29 H        4.5230     0.0140    -1.9560 H     1 <1>   0.0710 
 30 H        4.8980     0.0270    -0.2510 H     1 <1>   0.0710 
 31 H       -0.5330    -4.9150    -0.4200 H     1 <1>   0.1420 
 32 H        3.4610     2.2610    -1.6190 H     1 <1>   0.4440 
 33 H       -3.7330    -4.8650     1.3260 H     1 <1>   0.0710 
 34 H       -2.1050    -5.5280     1.2330 H     1 <1>   0.0710 
 35 H       -2.8900    -4.8810    -0.2190 H     1 <1>   0.0710 
 36 H        6.3560     1.4530     0.5580 H     1 <1>   0.4440 
 37 H        3.1900     4.4180    -1.5370 H     1 <1>   0.0710 
 38 H        4.4800     5.5870    -1.7400 H     1 <1>   0.0710 
 39 H        3.5020     5.6070    -0.2900 H     1 <1>   0.0710 
 40 H        7.5520     3.0370     2.6590 H     1 <1>   0.0710 
 41 H        8.0210     4.5860     2.0020 H     1 <1>   0.0710 
 42 H        8.6060     3.1170     1.2600 H     1 <1>   0.0710 
@<TRIPOS>BOND
  1   1   2  1   
  2   1   3  1   
  3   2   4  ar  
  4   2   5  ar  
  5   3   6  1   
  6   3  22  1   
  7   3  23  1   
  8   4   7  ar  
  9   4   8  1   
 10   5   9  ar  
 11   5  24  1   
 12   6   8  1   
 13   6  10  1   
 14   6  25  1   
 15   7  11  ar  
 16   7  26  1   
 17   8  27  1   
 18   8  28  1   
 19   9  11  ar  
 20   9  12  1   
 21  10  13  1   
 22  10  29  1   
 23  10  30  1   
 24  11  31  1   
 25  12  14  1   
 26  13  15  ar  
 27  13  32  1   
 28  14  33  1   
 29  14  34  1   
 30  14  35  1   
 31  15  16  ar  
 32  15  17  ar  
 33  16  18  1   
 34  16  36  1   
 35  17  19  1   
 36  17  20  1   
 37  18  19  2   
 38  18  21  1   
 39  20  37  1   
 40  20  38  1   
 41  20  39  1   
 42  21  40  1   
 43  21  41  1   
 44  21  42  1   
@<TRIPOS>SUBSTRUCTURE
  1 ****   3 GROUP 4 **** **** 0

# MOE 2024.06 (io_trps.svl 2023.06)
