@<TRIPOS>MOLECULE
NONAME
54 56 1 0 0 
SMALL
USER_CHARGES


@<TRIPOS>ATOM
  1 O        0.0730     0.5320     1.1650 O.2   1 <1>  -0.5700 
  2 C       -1.0260     0.8380     0.7610 C.2   1 <1>   0.5690 
  3 N       -2.0020    -0.0630     0.4750 N.am  1 <1>  -0.4930 
  4 C       -1.2900     2.3360     0.5410 C.3   1 <1>   0.4040 
  5 C       -1.9770    -1.4480     0.5480 C.2   1 <1>   0.3520 
  6 N       -0.0310     3.1390     0.3110 N.4   1 <1>  -0.9590 
  7 N       -3.0270    -2.0870     0.1530 N.2   1 <1>  -0.7070 
  8 C       -0.9690    -2.2970     0.9950 C.2   1 <1>  -0.1500 
  9 C       -0.2530     4.5870     0.5850 C.3   1 <1>   0.4230 
 10 C        0.6250     2.7560    -0.9800 C.3   1 <1>   0.4860 
 11 N       -2.7210    -3.3900     0.3370 N.pl3 1 <1>   0.3140 
 12 C       -1.4810    -3.5360     0.8450 C.2   1 <1>  -0.3020 
 13 C       -0.7680     5.3600    -0.6380 C.3   1 <1>  -0.1600 
 14 C        0.9970     5.2450     1.1800 C.3   1 <1>  -0.1600 
 15 C        2.1110     3.0300    -0.9020 C.ar  1 <1>  -0.1440 
 16 C       -3.6720    -4.4570     0.0050 C.3   1 <1>   0.0160 
 17 C       -1.0680     6.8180    -0.2600 C.3   1 <1>  -0.1600 
 18 C        0.7020     6.7030     1.5630 C.3   1 <1>  -0.1600 
 19 C        2.9020     2.3270    -0.0030 C.ar  1 <1>  -0.1500 
 20 C        2.6930     3.9810    -1.7270 C.ar  1 <1>  -0.1500 
 21 C        0.1630     7.4930     0.3620 C.3   1 <1>  -0.1600 
 22 C        4.2590     2.5850     0.0900 C.ar  1 <1>  -0.1430 
 23 C        4.0480     4.2400    -1.6350 C.ar  1 <1>  -0.1500 
 24 C        4.8270     3.5470    -0.7270 C.ar  1 <1>  -0.1500 
 25 C        5.1280     1.8230     1.0750 C.3   1 <1>  -0.0970 
 26 H       -2.9190     0.2320     0.1450 H     1 <1>   0.3700 
 27 H       -1.7890     2.7040     1.4210 H     1 <1>   0.0800 
 28 H       -1.9560     2.4580    -0.2960 H     1 <1>   0.0800 
 29 H        0.6390     2.8020     1.0220 H     1 <1>   0.4500 
 30 H       -0.0060    -2.0060     1.3720 H     1 <1>   0.1500 
 31 H       -1.0130     4.6650     1.3450 H     1 <1>   0.0800 
 32 H        0.1880     3.2910    -1.8060 H     1 <1>   0.0800 
 33 H        0.4970     1.7010    -1.1590 H     1 <1>   0.0800 
 34 H       -1.0420    -4.4920     1.0680 H     1 <1>   0.1500 
 35 H       -1.6670     4.9080    -1.0160 H     1 <1>   0.0800 
 36 H       -0.0260     5.3700    -1.4160 H     1 <1>   0.0800 
 37 H        1.8040     5.2480     0.4730 H     1 <1>   0.0800 
 38 H        1.3150     4.7110     2.0580 H     1 <1>   0.0800 
 39 H       -4.5640    -4.3220     0.5880 H     1 <1>   0.0800 
 40 H       -3.2350    -5.4130     0.2240 H     1 <1>   0.0800 
 41 H       -3.9130    -4.3970    -1.0400 H     1 <1>   0.0800 
 42 H       -1.8840     6.8540     0.4420 H     1 <1>   0.0800 
 43 H       -1.3690     7.3670    -1.1370 H     1 <1>   0.0800 
 44 H        1.6050     7.1710     1.9210 H     1 <1>   0.0800 
 45 H       -0.0180     6.7330     2.3630 H     1 <1>   0.0800 
 46 H        2.4720     1.5660     0.6290 H     1 <1>   0.1500 
 47 H        2.1080     4.5310    -2.4430 H     1 <1>   0.1500 
 48 H       -0.0940     8.4910     0.6760 H     1 <1>   0.0800 
 49 H        0.9380     7.5800    -0.3830 H     1 <1>   0.0800 
 50 H        4.5020     4.9810    -2.2720 H     1 <1>   0.1500 
 51 H        5.8810     3.7560    -0.6620 H     1 <1>   0.1500 
 52 H        4.6260     0.9410     1.4310 H     1 <1>   0.0800 
 53 H        5.3640     2.4500     1.9160 H     1 <1>   0.0800 
 54 H        6.0450     1.5210     0.6010 H     1 <1>   0.0800 
@<TRIPOS>BOND
  1   1   2  2   
  2   2   3  am  
  3   2   4  1   
  4   3   5  1   
  5   3  26  1   
  6   4   6  1   
  7   4  27  1   
  8   4  28  1   
  9   5   7  2   
 10   5   8  1   
 11   6   9  1   
 12   6  10  1   
 13   6  29  1   
 14   7  11  1   
 15   8  12  2   
 16   8  30  1   
 17   9  13  1   
 18   9  14  1   
 19   9  31  1   
 20  10  15  1   
 21  10  32  1   
 22  10  33  1   
 23  11  12  1   
 24  11  16  1   
 25  12  34  1   
 26  13  17  1   
 27  13  35  1   
 28  13  36  1   
 29  14  18  1   
 30  14  37  1   
 31  14  38  1   
 32  15  19  ar  
 33  15  20  ar  
 34  16  39  1   
 35  16  40  1   
 36  16  41  1   
 37  17  21  1   
 38  17  42  1   
 39  17  43  1   
 40  18  21  1   
 41  18  44  1   
 42  18  45  1   
 43  19  22  ar  
 44  19  46  1   
 45  20  23  ar  
 46  20  47  1   
 47  21  48  1   
 48  21  49  1   
 49  22  24  ar  
 50  22  25  1   
 51  23  24  ar  
 52  23  50  1   
 53  24  51  1   
 54  25  52  1   
 55  25  53  1   
 56  25  54  1   
@<TRIPOS>SUBSTRUCTURE
  1 ****   6 GROUP 4 **** **** 0

# MOE 2024.06 (io_trps.svl 2023.06)
