@<TRIPOS>MOLECULE
NONAME
47 49 1 0 0 
SMALL
USER_CHARGES


@<TRIPOS>ATOM
  1 O       -0.8140     0.5170    -1.4670 O.2   1 <1>  -0.5700 
  2 C       -1.2760     1.4500    -0.8570 C.2   1 <1>   0.5690 
  3 N       -2.4200     1.4570    -0.1180 N.am  1 <1>  -0.4770 
  4 C       -0.5920     2.7890    -0.8190 C.3   1 <1>  -0.0990 
  5 C       -3.2890     0.3740     0.1550 C.ar  1 <1>   0.1170 
  6 C       -2.6370     2.7810     0.5000 C.3   1 <1>   0.1400 
  7 C       -1.2880     3.4960     0.3530 C.3   1 <1>  -0.0190 
  8 C       -4.6870     0.4900     0.1090 C.ar  1 <1>   0.0830 
  9 C       -2.7520    -0.8600     0.5060 C.ar  1 <1>  -0.1500 
 10 C       -1.4440     4.9940     0.1520 C.2   1 <1>   0.5690 
 11 O       -5.2990     1.6400    -0.2650 O.3   1 <1>  -0.3630 
 12 C       -5.4990    -0.5800     0.4450 C.ar  1 <1>  -0.1500 
 13 C       -3.5650    -1.9340     0.8280 C.ar  1 <1>  -0.1500 
 14 O       -2.1520     5.3960    -0.7390 O.2   1 <1>  -0.5700 
 15 N       -0.7770     5.8410     0.9780 N.am  1 <1>  -0.7300 
 16 C       -5.3280     1.8850    -1.6540 C.3   1 <1>   0.0400 
 17 C       -4.9410    -1.7940     0.8040 C.ar  1 <1>  -0.1500 
 18 C       -0.8520     7.3160     0.9170 C.3   1 <1>   0.1400 
 19 C        0.5060     7.8670     0.4870 C.3   1 <1>  -0.1600 
 20 C        0.4810     9.3980     0.3950 C.3   1 <1>   0.0200 
 21 C        1.8520     9.9340     0.0310 C.2   1 <1>   0.0060 
 22 N        2.7060    10.3580     0.9040 N.2   1 <1>  -0.5650 
 23 N        2.2990    10.0110    -1.2420 N.pl3 1 <1>   0.0330 
 24 C        3.7670    10.7320     0.1640 C.2   1 <1>   0.0770 
 25 C        3.5370    10.5270    -1.1500 C.2   1 <1>  -0.3020 
 26 H       -0.7750     3.2920    -1.7510 H     1 <1>   0.0800 
 27 H        0.4640     2.6800    -0.6580 H     1 <1>   0.0800 
 28 H       -2.9270     2.6800     1.5310 H     1 <1>   0.0800 
 29 H       -3.4080     3.3020    -0.0420 H     1 <1>   0.0800 
 30 H       -0.7240     3.3130     1.2500 H     1 <1>   0.0800 
 31 H       -1.6840    -0.9820     0.5280 H     1 <1>   0.1500 
 32 H       -6.5670    -0.4590     0.4200 H     1 <1>   0.1500 
 33 H       -3.1240    -2.8780     1.0970 H     1 <1>   0.1500 
 34 H       -0.1560     5.4700     1.6990 H     1 <1>   0.3700 
 35 H       -5.8270     2.8230    -1.8210 H     1 <1>   0.0800 
 36 H       -5.8650     1.0880    -2.1360 H     1 <1>   0.0800 
 37 H       -4.3200     1.9340    -2.0270 H     1 <1>   0.0800 
 38 H       -5.5740    -2.6260     1.0610 H     1 <1>   0.1500 
 39 H       -1.1220     7.6990     1.8870 H     1 <1>   0.0800 
 40 H       -1.6110     7.6160     0.2120 H     1 <1>   0.0800 
 41 H        0.7690     7.4580    -0.4720 H     1 <1>   0.0800 
 42 H        1.2560     7.5780     1.2030 H     1 <1>   0.0800 
 43 H        0.1970     9.8120     1.3470 H     1 <1>   0.0800 
 44 H       -0.2400     9.7190    -0.3360 H     1 <1>   0.0800 
 45 H        1.7980     9.7350    -2.0910 H     1 <1>   0.2700 
 46 H        4.6540    11.1360     0.6260 H     1 <1>   0.1500 
 47 H        4.1690    10.7160    -1.9990 H     1 <1>   0.1500 
@<TRIPOS>BOND
  1   1   2  2   
  2   2   3  am  
  3   2   4  1   
  4   3   5  1   
  5   3   6  1   
  6   4   7  1   
  7   4  26  1   
  8   4  27  1   
  9   5   8  ar  
 10   5   9  ar  
 11   6   7  1   
 12   6  28  1   
 13   6  29  1   
 14   7  10  1   
 15   7  30  1   
 16   8  11  1   
 17   8  12  ar  
 18   9  13  ar  
 19   9  31  1   
 20  10  14  2   
 21  10  15  am  
 22  11  16  1   
 23  12  17  ar  
 24  12  32  1   
 25  13  17  ar  
 26  13  33  1   
 27  15  18  1   
 28  15  34  1   
 29  16  35  1   
 30  16  36  1   
 31  16  37  1   
 32  17  38  1   
 33  18  19  1   
 34  18  39  1   
 35  18  40  1   
 36  19  20  1   
 37  19  41  1   
 38  19  42  1   
 39  20  21  1   
 40  20  43  1   
 41  20  44  1   
 42  21  22  2   
 43  21  23  1   
 44  22  24  1   
 45  23  25  1   
 46  23  45  1   
 47  24  25  2   
 48  24  46  1   
 49  25  47  1   
@<TRIPOS>SUBSTRUCTURE
  1 ****   7 GROUP 4 **** **** 0

# MOE 2024.06 (io_trps.svl 2023.06)
