@<TRIPOS>MOLECULE
NONAME
53 55 1 0 0 
SMALL
USER_CHARGES


@<TRIPOS>ATOM
  1 F       -0.3590     0.8630    -0.8530 F     1 <1>  -0.1900 
  2 C       -1.6160     1.0330    -0.5290 C.ar  1 <1>   0.1900 
  3 C       -2.2960     2.2270    -0.7980 C.ar  1 <1>   0.0830 
  4 C       -2.2390    -0.0290     0.0970 C.ar  1 <1>  -0.1500 
  5 O       -1.7940     3.3400    -1.4050 O.3   1 <1>  -0.3630 
  6 C       -3.6250     2.3090    -0.4130 C.ar  1 <1>  -0.1500 
  7 C       -3.5650     0.0880     0.4680 C.ar  1 <1>  -0.1500 
  8 C       -0.4710     3.4240    -1.8870 C.3   1 <1>   0.0400 
  9 C       -4.2890     1.2550     0.2180 C.ar  1 <1>   0.0530 
 10 C       -5.6690     1.3940     0.6100 C.2   1 <1>   0.0870 
 11 O       -6.0710     2.5250     1.1340 O.3   1 <1>  -0.0190 
 12 C       -6.7520     0.5670     0.5740 C.2   1 <1>  -0.0860 
 13 N       -7.3330     2.5170     1.4650 N.2   1 <1>  -0.4100 
 14 C       -7.7660     1.3510     1.1420 C.2   1 <1>   0.3720 
 15 C       -6.8990    -0.7700     0.0770 C.2   1 <1>   0.7160 
 16 N       -9.0980     0.9580     1.3440 N.pl3 1 <1>  -0.8210 
 17 O       -6.0180    -1.2950    -0.5780 O.2   1 <1>  -0.5700 
 18 N       -8.0470    -1.4590     0.3350 N.am  1 <1>  -0.5790 
 19 C      -10.0570     1.7480     0.5230 C.3   1 <1>   0.1290 
 20 C       -9.4910     0.9690     2.7810 C.3   1 <1>   0.1290 
 21 C       -8.4620    -2.8040    -0.1160 C.3   1 <1>   0.0540 
 22 C       -9.3690    -2.7590    -1.3900 C.3   1 <1>   0.0950 
 23 C       -8.7320    -3.7460     1.0160 C.3   1 <1>  -0.2000 
 24 C       -7.5050    -3.9200     0.1690 C.3   1 <1>  -0.2000 
 25 C       -8.5980    -2.1280    -2.5620 C.3   1 <1>  -0.2400 
 26 C       -9.8460    -4.1510    -1.8510 C.3   1 <1>  -0.2400 
 27 C      -10.6210    -1.9100    -1.1100 C.3   1 <1>  -0.2400 
 28 H       -1.6920    -0.9350     0.2890 H     1 <1>   0.1500 
 29 H       -4.1590     3.2200    -0.6130 H     1 <1>   0.1500 
 30 H       -4.0490    -0.7400     0.9580 H     1 <1>   0.1500 
 31 H       -0.3380     4.3930    -2.3320 H     1 <1>   0.0800 
 32 H       -0.3200     2.6590    -2.6280 H     1 <1>   0.0800 
 33 H        0.2100     3.3040    -1.0640 H     1 <1>   0.0800 
 34 H       -8.7860    -0.8930     0.7730 H     1 <1>   0.3700 
 35 H       -9.7420     1.7480    -0.5070 H     1 <1>   0.0800 
 36 H      -10.0950     2.7660     0.8720 H     1 <1>   0.0800 
 37 H      -11.0400     1.3140     0.5830 H     1 <1>   0.0800 
 38 H       -8.7600     0.4350     3.3650 H     1 <1>   0.0800 
 39 H      -10.4480     0.4920     2.9060 H     1 <1>   0.0800 
 40 H       -9.5480     1.9810     3.1440 H     1 <1>   0.0800 
 41 H       -9.4910    -4.5020     0.9430 H     1 <1>   0.1000 
 42 H       -8.6060    -3.3960     2.0250 H     1 <1>   0.1000 
 43 H       -6.5430    -3.6730     0.5820 H     1 <1>   0.1000 
 44 H       -7.4550    -4.7730    -0.4810 H     1 <1>   0.1000 
 45 H       -7.6840    -2.6690    -2.7350 H     1 <1>   0.0800 
 46 H       -8.3440    -1.1060    -2.3520 H     1 <1>   0.0800 
 47 H       -9.1850    -2.1470    -3.4630 H     1 <1>   0.0800 
 48 H       -9.0110    -4.7780    -2.1030 H     1 <1>   0.0800 
 49 H      -10.4630    -4.0640    -2.7270 H     1 <1>   0.0800 
 50 H      -10.4270    -4.6350    -1.0890 H     1 <1>   0.0800 
 51 H      -10.3550    -0.8940    -0.8860 H     1 <1>   0.0800 
 52 H      -11.1630    -2.3140    -0.2730 H     1 <1>   0.0800 
 53 H      -11.2720    -1.9010    -1.9660 H     1 <1>   0.0800 
@<TRIPOS>BOND
  1   1   2  1   
  2   2   3  ar  
  3   2   4  ar  
  4   3   5  1   
  5   3   6  ar  
  6   4   7  ar  
  7   4  28  1   
  8   5   8  1   
  9   6   9  ar  
 10   6  29  1   
 11   7   9  ar  
 12   7  30  1   
 13   8  31  1   
 14   8  32  1   
 15   8  33  1   
 16   9  10  1   
 17  10  11  1   
 18  10  12  2   
 19  11  13  1   
 20  12  14  1   
 21  12  15  1   
 22  13  14  2   
 23  14  16  1   
 24  15  17  2   
 25  15  18  am  
 26  16  19  1   
 27  16  20  1   
 28  18  21  1   
 29  18  34  1   
 30  19  35  1   
 31  19  36  1   
 32  19  37  1   
 33  20  38  1   
 34  20  39  1   
 35  20  40  1   
 36  21  22  1   
 37  21  23  1   
 38  21  24  1   
 39  22  25  1   
 40  22  26  1   
 41  22  27  1   
 42  23  24  1   
 43  23  41  1   
 44  23  42  1   
 45  24  43  1   
 46  24  44  1   
 47  25  45  1   
 48  25  46  1   
 49  25  47  1   
 50  26  48  1   
 51  26  49  1   
 52  26  50  1   
 53  27  51  1   
 54  27  52  1   
 55  27  53  1   
@<TRIPOS>SUBSTRUCTURE
  1 ****  12 GROUP 4 **** **** 0

# MOE 2024.06 (io_trps.svl 2023.06)
