@<TRIPOS>MOLECULE
NONAME
52 54 1 0 0 
SMALL
USER_CHARGES


@<TRIPOS>ATOM
  1 O       -2.4100     0.7260     2.0020 O.2   1 <1>  -0.5700 
  2 C       -2.3560     1.1250     0.8510 C.2   1 <1>   0.6900 
  3 N       -1.2590     1.8380     0.4320 N.am  1 <1>  -0.6600 
  4 N       -3.3880     0.8520    -0.0110 N.am  1 <1>  -0.6600 
  5 C       -1.3880     3.0320    -0.4450 C.3   1 <1>   0.1400 
  6 C        0.0560     1.6670     1.1090 C.3   1 <1>   0.1400 
  7 C       -3.1720     0.5540    -1.4450 C.3   1 <1>   0.1400 
  8 C       -4.6330     0.2090     0.4680 C.3   1 <1>   0.1400 
  9 C       -1.0130     4.2950     0.3320 C.3   1 <1>  -0.1600 
 10 C        0.4170     2.9340     1.8850 C.3   1 <1>  -0.1600 
 11 C       -4.1830    -0.5370    -1.7780 C.3   1 <1>  -0.1600 
 12 C       -5.3200    -0.3140    -0.7880 C.3   1 <1>  -0.1600 
 13 C        0.3680     4.1530     0.9690 C.3   1 <1>   0.2890 
 14 N        0.6530     5.3570     1.7620 N.pl3 1 <1>  -0.8690 
 15 C        1.2720     6.4390     1.2260 C.ar  1 <1>   0.4100 
 16 N        0.6030     7.5690     1.3640 N.ar  1 <1>  -0.6200 
 17 C        2.5070     6.3550     0.5890 C.ar  1 <1>  -0.1500 
 18 C        1.1720     8.6450     0.8470 C.ar  1 <1>   0.1600 
 19 C        3.0840     7.4840     0.0590 C.ar  1 <1>  -0.1500 
 20 C        2.4010     8.6920     0.1890 C.ar  1 <1>   0.0860 
 21 C        2.9120     9.9450    -0.3200 C.2   1 <1>   0.5440 
 22 O        2.1560    10.8660    -0.5620 O.2   1 <1>  -0.5700 
 23 N        4.2520    10.1290    -0.5280 N.am  1 <1>  -0.7300 
 24 C        4.8650    11.3590    -1.0670 C.3   1 <1>   0.1400 
 25 C        6.0470    10.9680    -1.9460 C.3   1 <1>  -0.2400 
 26 H       -2.4010     3.1300    -0.7960 H     1 <1>   0.0800 
 27 H       -0.7420     2.9140    -1.2980 H     1 <1>   0.0800 
 28 H        0.8060     1.4630     0.3650 H     1 <1>   0.0800 
 29 H        0.0210     0.8260     1.7830 H     1 <1>   0.0800 
 30 H       -2.1620     0.2260    -1.6260 H     1 <1>   0.0800 
 31 H       -3.3780     1.4380    -2.0220 H     1 <1>   0.0800 
 32 H       -5.2460     0.9190     0.9950 H     1 <1>   0.0800 
 33 H       -4.3820    -0.6070     1.1250 H     1 <1>   0.0800 
 34 H       -1.7530     4.4630     1.0930 H     1 <1>   0.0800 
 35 H       -1.0160     5.1370    -0.3370 H     1 <1>   0.0800 
 36 H        1.4040     2.8310     2.2960 H     1 <1>   0.0800 
 37 H       -0.2800     3.0510     2.6960 H     1 <1>   0.0800 
 38 H       -3.7290    -1.4970    -1.6040 H     1 <1>   0.0800 
 39 H       -4.5100    -0.4820    -2.8010 H     1 <1>   0.0800 
 40 H       -5.9900     0.4420    -1.1600 H     1 <1>   0.0800 
 41 H       -5.8780    -1.2130    -0.5920 H     1 <1>   0.0800 
 42 H        1.1070     4.0430     0.1930 H     1 <1>   0.0800 
 43 H       -0.1570     5.6440     2.3160 H     1 <1>   0.4000 
 44 H        2.9960     5.4020     0.5270 H     1 <1>   0.1500 
 45 H        0.6290     9.5700     0.9510 H     1 <1>   0.1500 
 46 H        4.0320     7.4330    -0.4460 H     1 <1>   0.1500 
 47 H        4.9120     9.4270    -0.1960 H     1 <1>   0.3700 
 48 H        5.1930    11.9810    -0.2520 H     1 <1>   0.0800 
 49 H        4.1400    11.9080    -1.6460 H     1 <1>   0.0800 
 50 H        6.7890    10.4440    -1.3710 H     1 <1>   0.0800 
 51 H        6.4970    11.8540    -2.3560 H     1 <1>   0.0800 
 52 H        5.7140    10.3500    -2.7600 H     1 <1>   0.0800 
@<TRIPOS>BOND
  1   1   2  2   
  2   2   3  am  
  3   2   4  am  
  4   3   5  1   
  5   3   6  1   
  6   4   7  1   
  7   4   8  1   
  8   5   9  1   
  9   5  26  1   
 10   5  27  1   
 11   6  10  1   
 12   6  28  1   
 13   6  29  1   
 14   7  11  1   
 15   7  30  1   
 16   7  31  1   
 17   8  12  1   
 18   8  32  1   
 19   8  33  1   
 20   9  13  1   
 21   9  34  1   
 22   9  35  1   
 23  10  13  1   
 24  10  36  1   
 25  10  37  1   
 26  11  12  1   
 27  11  38  1   
 28  11  39  1   
 29  12  40  1   
 30  12  41  1   
 31  13  14  1   
 32  13  42  1   
 33  14  15  1   
 34  14  43  1   
 35  15  16  ar  
 36  15  17  ar  
 37  16  18  ar  
 38  17  19  ar  
 39  17  44  1   
 40  18  20  ar  
 41  18  45  1   
 42  19  20  ar  
 43  19  46  1   
 44  20  21  1   
 45  21  22  2   
 46  21  23  am  
 47  23  24  1   
 48  23  47  1   
 49  24  25  1   
 50  24  48  1   
 51  24  49  1   
 52  25  50  1   
 53  25  51  1   
 54  25  52  1   
@<TRIPOS>SUBSTRUCTURE
  1 ****  13 GROUP 4 **** **** 0

# MOE 2024.06 (io_trps.svl 2023.06)
