@<TRIPOS>MOLECULE
NONAME
59 61 1 0 0 
SMALL
USER_CHARGES


@<TRIPOS>ATOM
  1 O        0.8850    -0.3270     0.5190 O.3   1 <1>  -0.3630 
  2 C        0.3400    -1.4070    -0.0970 C.ar  1 <1>   0.0830 
  3 C        0.2370     0.9260     0.5580 C.3   1 <1>   0.0400 
  4 C        1.0830    -2.5860    -0.1330 C.ar  1 <1>  -0.1440 
  5 C       -0.9210    -1.3730    -0.6860 C.ar  1 <1>  -0.1500 
  6 C        0.5550    -3.7030    -0.7580 C.ar  1 <1>  -0.1500 
  7 C        2.4730    -2.6940     0.4920 C.3   1 <1>   0.1220 
  8 C       -1.4420    -2.5000    -1.2950 C.ar  1 <1>  -0.1500 
  9 C       -0.7090    -3.6760    -1.3250 C.ar  1 <1>  -0.1440 
 10 C        2.5130    -3.8330     1.5000 C.2   1 <1>  -0.2880 
 11 C       -1.2830    -4.9320    -1.9420 C.3   1 <1>   0.4860 
 12 C        3.2850    -4.9200     1.4130 C.2   1 <1>  -0.3000 
 13 N       -1.5460    -5.8860    -0.8260 N.4   1 <1>  -0.9590 
 14 C       -1.7800    -7.2880    -1.3260 C.3   1 <1>   0.3430 
 15 C       -2.6760    -5.3870     0.0150 C.3   1 <1>   0.3430 
 16 C       -2.1040    -8.3100    -0.1890 C.3   1 <1>   0.4230 
 17 C       -2.9050    -6.3430     1.1900 C.3   1 <1>  -0.1600 
 18 N       -2.3010    -9.7580    -0.6390 N.4   1 <1>  -0.9590 
 19 C       -3.2250    -7.8030     0.7670 C.3   1 <1>   0.0000 
 20 C       -2.9440   -10.6350     0.4000 C.3   1 <1>   0.3430 
 21 C       -3.0420    -9.9260    -1.9360 C.3   1 <1>   0.2630 
 22 C       -3.2170    -8.6900     2.0450 C.3   1 <1>  -0.1600 
 23 C       -4.6520    -7.8570     0.1480 C.3   1 <1>   0.1200 
 24 C       -2.6700   -10.1140     1.8120 C.3   1 <1>  -0.1600 
 25 O       -4.6830    -7.3010    -1.1230 O.3   1 <1>  -0.6800 
 26 H        0.8760     1.6160     1.0770 H     1 <1>   0.0800 
 27 H       -0.6940     0.8230     1.0880 H     1 <1>   0.0800 
 28 H        0.0740     1.2670    -0.4490 H     1 <1>   0.0800 
 29 H       -1.5110    -0.4760    -0.6800 H     1 <1>   0.1500 
 30 H        1.1540    -4.5980    -0.7900 H     1 <1>   0.1500 
 31 H        3.1930    -2.8670    -0.2880 H     1 <1>   0.0800 
 32 H        2.7580    -1.7850     0.9910 H     1 <1>   0.0800 
 33 H       -2.4210    -2.4420    -1.7420 H     1 <1>   0.1500 
 34 H        1.8400    -3.6620     2.3250 H     1 <1>   0.1500 
 35 H       -0.5640    -5.3440    -2.6320 H     1 <1>   0.0800 
 36 H       -2.1920    -4.7100    -2.4770 H     1 <1>   0.0800 
 37 H        3.3020    -5.7050     2.1500 H     1 <1>   0.1500 
 38 H        3.9740    -5.1140     0.6080 H     1 <1>   0.1500 
 39 H       -0.6990    -5.8330    -0.2400 H     1 <1>   0.4500 
 40 H       -2.6020    -7.2710    -2.0210 H     1 <1>   0.0800 
 41 H       -0.9030    -7.6240    -1.8530 H     1 <1>   0.0800 
 42 H       -2.4460    -4.4030     0.3960 H     1 <1>   0.0800 
 43 H       -3.5740    -5.3120    -0.5770 H     1 <1>   0.0800 
 44 H       -1.2170    -8.3200     0.4230 H     1 <1>   0.0800 
 45 H       -2.0250    -6.3120     1.8100 H     1 <1>   0.0800 
 46 H       -3.7130    -5.9560     1.7870 H     1 <1>   0.0800 
 47 H       -1.3600   -10.1590    -0.7790 H     1 <1>   0.4500 
 48 H       -4.0110   -10.6600     0.2480 H     1 <1>   0.0800 
 49 H       -2.5780   -11.6460     0.3070 H     1 <1>   0.0800 
 50 H       -4.0390    -9.5240    -1.8580 H     1 <1>   0.0800 
 51 H       -3.1180   -10.9720    -2.1900 H     1 <1>   0.0800 
 52 H       -2.5290    -9.4230    -2.7400 H     1 <1>   0.0800 
 53 H       -2.6160    -8.2450     2.8210 H     1 <1>   0.0800 
 54 H       -4.2140    -8.7550     2.4490 H     1 <1>   0.0800 
 55 H       -5.3490    -7.3130     0.7660 H     1 <1>   0.0800 
 56 H       -5.0090    -8.8690     0.0670 H     1 <1>   0.0800 
 57 H       -3.1200   -10.7830     2.5270 H     1 <1>   0.0800 
 58 H       -1.6090   -10.1390     1.9930 H     1 <1>   0.0800 
 59 H       -5.6170    -7.1980    -1.4250 H     1 <1>   0.4000 
@<TRIPOS>BOND
  1   1   2  1   
  2   1   3  1   
  3   2   4  ar  
  4   2   5  ar  
  5   3  26  1   
  6   3  27  1   
  7   3  28  1   
  8   4   6  ar  
  9   4   7  1   
 10   5   8  ar  
 11   5  29  1   
 12   6   9  ar  
 13   6  30  1   
 14   7  10  1   
 15   7  31  1   
 16   7  32  1   
 17   8   9  ar  
 18   8  33  1   
 19   9  11  1   
 20  10  12  2   
 21  10  34  1   
 22  11  13  1   
 23  11  35  1   
 24  11  36  1   
 25  12  37  1   
 26  12  38  1   
 27  13  14  1   
 28  13  15  1   
 29  13  39  1   
 30  14  16  1   
 31  14  40  1   
 32  14  41  1   
 33  15  17  1   
 34  15  42  1   
 35  15  43  1   
 36  16  18  1   
 37  16  19  1   
 38  16  44  1   
 39  17  19  1   
 40  17  45  1   
 41  17  46  1   
 42  18  20  1   
 43  18  21  1   
 44  18  47  1   
 45  19  22  1   
 46  19  23  1   
 47  20  24  1   
 48  20  48  1   
 49  20  49  1   
 50  21  50  1   
 51  21  51  1   
 52  21  52  1   
 53  22  24  1   
 54  22  53  1   
 55  22  54  1   
 56  23  25  1   
 57  23  55  1   
 58  23  56  1   
 59  24  57  1   
 60  24  58  1   
 61  25  59  1   
@<TRIPOS>SUBSTRUCTURE
  1 ****  13 GROUP 4 **** **** 0

# MOE 2024.06 (io_trps.svl 2023.06)
