@<TRIPOS>MOLECULE
NONAME
55 57 1 0 0 
SMALL
USER_CHARGES


@<TRIPOS>ATOM
  1 O       -0.3350     0.8920    -0.0070 O.2   1 <1>  -0.5700 
  2 C       -0.3730     2.1000    -0.0430 C.2   1 <1>   0.5690 
  3 N       -1.2530     2.8320     0.7080 N.am  1 <1>  -0.6600 
  4 C        0.5860     2.8250    -0.9860 C.3   1 <1>   0.1810 
  5 C       -1.3120     4.3280     0.6070 C.3   1 <1>   0.3640 
  6 C       -2.1800     2.2010     1.6920 C.3   1 <1>   0.0600 
  7 O        0.8590     4.1390    -0.5670 O.3   1 <1>  -0.5600 
  8 C       -2.7480     4.7980     0.3160 C.ar  1 <1>  -0.1430 
  9 C       -0.2950     4.9530    -0.3880 C.3   1 <1>   0.2610 
 10 C       -3.5470     4.3290    -0.7330 C.ar  1 <1>  -0.1430 
 11 C       -3.2700     5.7620     1.1710 C.ar  1 <1>  -0.1500 
 12 C        0.1290     6.3410     0.1090 C.2   1 <1>   0.5690 
 13 C       -4.8340     4.8260    -0.8860 C.ar  1 <1>  -0.1500 
 14 C       -3.0940     3.2740    -1.7370 C.3   1 <1>  -0.0960 
 15 C       -4.5520     6.2520     1.0070 C.ar  1 <1>  -0.1500 
 16 O       -0.6790     7.2360     0.1700 O.2   1 <1>  -0.5700 
 17 N        1.4250     6.5390     0.4730 N.am  1 <1>  -0.7300 
 18 C       -5.3370     5.7810    -0.0250 C.ar  1 <1>  -0.1500 
 19 C        2.0060     7.8020     0.9980 C.3   1 <1>   0.1400 
 20 C        2.8380     8.5700    -0.0620 C.3   1 <1>   0.0000 
 21 C        3.4330     9.8360     0.6030 C.3   1 <1>  -0.1600 
 22 C        1.9440     9.0350    -1.2390 C.3   1 <1>  -0.1600 
 23 C        3.9600     7.6290    -0.5650 C.3   1 <1>   0.1200 
 24 C        2.3630    10.8940     0.9080 C.3   1 <1>   0.1200 
 25 C        0.9520    10.1240    -0.8100 C.3   1 <1>   0.1200 
 26 O        4.8430     8.2810    -1.4140 O.3   1 <1>  -0.6800 
 27 O        1.6610    11.1910    -0.2580 O.3   1 <1>  -0.5600 
 28 H        0.1710     2.8560    -1.9760 H     1 <1>   0.0800 
 29 H        1.5180     2.2910    -1.0180 H     1 <1>   0.0800 
 30 H       -1.0410     4.6960     1.5810 H     1 <1>   0.0800 
 31 H       -2.0570     2.6590     2.6570 H     1 <1>   0.0800 
 32 H       -1.9800     1.1470     1.7830 H     1 <1>   0.0800 
 33 H       -3.1990     2.3290     1.3700 H     1 <1>   0.0800 
 34 H       -0.7570     5.0800    -1.3490 H     1 <1>   0.0800 
 35 H       -2.6760     6.1550     1.9780 H     1 <1>   0.1500 
 36 H       -5.4620     4.4710    -1.6840 H     1 <1>   0.1500 
 37 H       -3.7810     3.2090    -2.5620 H     1 <1>   0.0800 
 38 H       -3.0540     2.3090    -1.2660 H     1 <1>   0.0800 
 39 H       -2.1310     3.5130    -2.1400 H     1 <1>   0.0800 
 40 H       -4.9340     7.0010     1.6780 H     1 <1>   0.1500 
 41 H        2.0580     5.7400     0.3540 H     1 <1>   0.3700 
 42 H       -6.3370     6.1570    -0.1580 H     1 <1>   0.1500 
 43 H        1.2070     8.4210     1.3670 H     1 <1>   0.0800 
 44 H        2.6330     7.5610     1.8400 H     1 <1>   0.0800 
 45 H        4.1550    10.2970    -0.0480 H     1 <1>   0.0800 
 46 H        3.9500     9.5750     1.5090 H     1 <1>   0.0800 
 47 H        1.4000     8.2070    -1.6540 H     1 <1>   0.0800 
 48 H        2.5460     9.4480    -2.0270 H     1 <1>   0.0800 
 49 H        3.5440     6.7980    -1.1080 H     1 <1>   0.0800 
 50 H        4.5350     7.2480     0.2620 H     1 <1>   0.0800 
 51 H        2.8250    11.8040     1.2490 H     1 <1>   0.0800 
 52 H        1.6640    10.5610     1.6550 H     1 <1>   0.0800 
 53 H        0.2400     9.7630    -0.0880 H     1 <1>   0.0800 
 54 H        0.4140    10.4970    -1.6640 H     1 <1>   0.0800 
 55 H        4.3520     8.7750    -2.0990 H     1 <1>   0.4000 
@<TRIPOS>BOND
  1   1   2  2   
  2   2   3  am  
  3   2   4  1   
  4   3   5  1   
  5   3   6  1   
  6   4   7  1   
  7   4  28  1   
  8   4  29  1   
  9   5   8  1   
 10   5   9  1   
 11   5  30  1   
 12   6  31  1   
 13   6  32  1   
 14   6  33  1   
 15   7   9  1   
 16   8  10  ar  
 17   8  11  ar  
 18   9  12  1   
 19   9  34  1   
 20  10  13  ar  
 21  10  14  1   
 22  11  15  ar  
 23  11  35  1   
 24  12  16  2   
 25  12  17  am  
 26  13  18  ar  
 27  13  36  1   
 28  14  37  1   
 29  14  38  1   
 30  14  39  1   
 31  15  18  ar  
 32  15  40  1   
 33  17  19  1   
 34  17  41  1   
 35  18  42  1   
 36  19  20  1   
 37  19  43  1   
 38  19  44  1   
 39  20  21  1   
 40  20  22  1   
 41  20  23  1   
 42  21  24  1   
 43  21  45  1   
 44  21  46  1   
 45  22  25  1   
 46  22  47  1   
 47  22  48  1   
 48  23  26  1   
 49  23  49  1   
 50  23  50  1   
 51  24  27  1   
 52  24  51  1   
 53  24  52  1   
 54  25  27  1   
 55  25  53  1   
 56  25  54  1   
 57  26  55  1   
@<TRIPOS>SUBSTRUCTURE
  1 ****  12 GROUP 4 **** **** 0

# MOE 2024.06 (io_trps.svl 2023.06)
