@<TRIPOS>MOLECULE
NONAME
47 49 1 0 0 
SMALL
USER_CHARGES


@<TRIPOS>ATOM
  1 O        1.9620     1.7160     1.0740 O.3   1 <1>  -0.0190 
  2 N        2.6560     0.6330     0.8960 N.2   1 <1>  -0.4100 
  3 C        0.8670     1.7210     0.3600 C.2   1 <1>  -0.0400 
  4 C        1.9840    -0.0870     0.0700 C.2   1 <1>   0.1080 
  5 C        0.8150     0.5640    -0.3160 C.2   1 <1>  -0.1500 
  6 C       -0.0620     2.9220     0.4060 C.3   1 <1>   0.0200 
  7 C        2.4140    -1.4540    -0.4140 C.3   1 <1>  -0.0590 
  8 C        0.5920     4.1480    -0.2650 C.3   1 <1>  -0.0800 
  9 C       -0.2290     5.4390    -0.2390 C.3   1 <1>   0.2000 
 10 C        1.9380     4.5440     0.3480 C.3   1 <1>   0.2090 
 11 O       -0.7620     5.6240     1.0290 O.3   1 <1>  -0.6800 
 12 C        0.8140     6.5300    -0.4960 C.3   1 <1>   0.2090 
 13 N        2.0820     6.0060     0.1050 N.pl3 1 <1>  -0.8380 
 14 C        3.1670     6.7870     0.3220 C.ar  1 <1>   0.7710 
 15 N        3.0990     8.0700     0.0160 N.ar  1 <1>  -0.6200 
 16 N        4.2740     6.2340     0.8420 N.ar  1 <1>  -0.1790 
 17 C        4.1550     8.8270     0.2500 C.ar  1 <1>   0.4100 
 18 C        5.3910     6.9650     1.0600 C.ar  1 <1>   0.2110 
 19 N        4.0170    10.1470    -0.0310 N.pl3 1 <1>  -0.8380 
 20 C        5.3630     8.2880     0.7620 C.ar  1 <1>  -0.1430 
 21 C        4.2200    11.2130     0.9900 C.3   1 <1>   0.1290 
 22 C        3.2910    10.6110    -1.2480 C.3   1 <1>   0.1290 
 23 C        6.6170     9.1430     0.9410 C.3   1 <1>  -0.0970 
 24 H        0.0730     0.1950    -1.0000 H     1 <1>   0.1500 
 25 H       -0.9780     2.6830    -0.1040 H     1 <1>   0.0800 
 26 H       -0.3040     3.1270     1.4350 H     1 <1>   0.0800 
 27 H        1.6510    -2.1770    -0.1900 H     1 <1>   0.0800 
 28 H        3.3250    -1.7490     0.0760 H     1 <1>   0.0800 
 29 H        2.5810    -1.4320    -1.4750 H     1 <1>   0.0800 
 30 H        0.7740     3.8990    -1.2960 H     1 <1>   0.0800 
 31 H       -1.0360     5.4480    -0.9530 H     1 <1>   0.0800 
 32 H        2.7360     3.9850    -0.1120 H     1 <1>   0.0800 
 33 H        1.9240     4.3590     1.4100 H     1 <1>   0.0800 
 34 H       -0.0630     5.9200     1.6440 H     1 <1>   0.4000 
 35 H        0.5160     7.4720    -0.0650 H     1 <1>   0.0800 
 36 H        0.9550     6.6570    -1.5560 H     1 <1>   0.0800 
 37 H        4.2210     5.2410     1.0410 H     1 <1>   0.4570 
 38 H        6.2660     6.4730     1.4540 H     1 <1>   0.1500 
 39 H        3.3300    11.8130     1.0760 H     1 <1>   0.0800 
 40 H        5.0410    11.8460     0.6990 H     1 <1>   0.0800 
 41 H        4.4270    10.7800     1.9520 H     1 <1>   0.0800 
 42 H        3.8030    11.4520    -1.6830 H     1 <1>   0.0800 
 43 H        2.2880    10.9010    -0.9880 H     1 <1>   0.0800 
 44 H        3.2450     9.8230    -1.9800 H     1 <1>   0.0800 
 45 H        7.4950     8.5320     1.0550 H     1 <1>   0.0800 
 46 H        6.5250     9.7670     1.8120 H     1 <1>   0.0800 
 47 H        6.7590     9.7720     0.0800 H     1 <1>   0.0800 
@<TRIPOS>BOND
  1   1   2  1   
  2   1   3  1   
  3   2   4  2   
  4   3   5  2   
  5   3   6  1   
  6   4   5  1   
  7   4   7  1   
  8   5  24  1   
  9   6   8  1   
 10   6  25  1   
 11   6  26  1   
 12   7  27  1   
 13   7  28  1   
 14   7  29  1   
 15   8   9  1   
 16   8  10  1   
 17   8  30  1   
 18   9  11  1   
 19   9  12  1   
 20   9  31  1   
 21  10  13  1   
 22  10  32  1   
 23  10  33  1   
 24  11  34  1   
 25  12  13  1   
 26  12  35  1   
 27  12  36  1   
 28  13  14  1   
 29  14  15  ar  
 30  14  16  ar  
 31  15  17  ar  
 32  16  18  ar  
 33  16  37  1   
 34  17  19  1   
 35  17  20  ar  
 36  18  20  ar  
 37  18  38  1   
 38  19  21  1   
 39  19  22  1   
 40  20  23  1   
 41  21  39  1   
 42  21  40  1   
 43  21  41  1   
 44  22  42  1   
 45  22  43  1   
 46  22  44  1   
 47  23  45  1   
 48  23  46  1   
 49  23  47  1   
@<TRIPOS>SUBSTRUCTURE
  1 ****  13 GROUP 4 **** **** 0

# MOE 2024.06 (io_trps.svl 2023.06)
