@<TRIPOS>MOLECULE
NONAME
31 31 1 0 0 
SMALL
USER_CHARGES


@<TRIPOS>ATOM
  1 O        2.9640     2.7500     0.4490 O.3   1 <1>  -0.5600 
  2 C        2.0470     1.7620     0.1350 C.3   1 <1>   0.1200 
  3 C        4.2890     2.3110     0.4920 C.3   1 <1>   0.0400 
  4 C        0.6640     2.4100     0.2410 C.3   1 <1>  -0.0800 
  5 C       -0.4130     1.3850    -0.1290 C.3   1 <1>   0.3430 
  6 C        0.6260     3.6850    -0.6150 C.3   1 <1>   0.3430 
  7 N       -1.7720     1.9710    -0.4010 N.4   1 <1>  -0.9590 
  8 N       -0.2090     4.7290     0.0440 N.4   1 <1>  -0.9060 
  9 C       -2.1930     3.1000     0.5180 C.3   1 <1>   0.3430 
 10 C       -2.7830     0.8590    -0.3210 C.3   1 <1>   0.2630 
 11 C       -1.7010     4.5140     0.0820 C.3   1 <1>   0.3430 
 12 H        2.1560     0.9530     0.8400 H     1 <1>   0.0800 
 13 H        2.2540     1.4090    -0.8630 H     1 <1>   0.0800 
 14 H        4.9160     3.1510     0.7350 H     1 <1>   0.0800 
 15 H        4.5720     1.9190    -0.4700 H     1 <1>   0.0800 
 16 H        4.3940     1.5560     1.2530 H     1 <1>   0.0800 
 17 H        0.5480     2.6650     1.2800 H     1 <1>   0.0800 
 18 H       -0.4850     0.6730     0.6790 H     1 <1>   0.0800 
 19 H       -0.0920     0.8370    -1.0030 H     1 <1>   0.0800 
 20 H        0.2650     3.4700    -1.6080 H     1 <1>   0.0800 
 21 H        1.6300     4.0700    -0.7150 H     1 <1>   0.0800 
 22 H       -1.8020     2.2960    -1.3810 H     1 <1>   0.4500 
 23 H       -0.0140     5.6280    -0.4270 H     1 <1>   0.4500 
 24 H        0.1650     4.8690     0.9970 H     1 <1>   0.4500 
 25 H       -1.8650     2.8970     1.5250 H     1 <1>   0.0800 
 26 H       -3.2710     3.1360     0.5430 H     1 <1>   0.0800 
 27 H       -2.8200     0.4500     0.6770 H     1 <1>   0.0800 
 28 H       -2.5270     0.0640    -1.0050 H     1 <1>   0.0800 
 29 H       -3.7670     1.2200    -0.5790 H     1 <1>   0.0800 
 30 H       -2.1100     4.7190    -0.8950 H     1 <1>   0.0800 
 31 H       -2.1340     5.2390     0.7540 H     1 <1>   0.0800 
@<TRIPOS>BOND
  1   1   2  1   
  2   1   3  1   
  3   2   4  1   
  4   2  12  1   
  5   2  13  1   
  6   3  14  1   
  7   3  15  1   
  8   3  16  1   
  9   4   5  1   
 10   4   6  1   
 11   4  17  1   
 12   5   7  1   
 13   5  18  1   
 14   5  19  1   
 15   6   8  1   
 16   6  20  1   
 17   6  21  1   
 18   7   9  1   
 19   7  10  1   
 20   7  22  1   
 21   8  11  1   
 22   8  23  1   
 23   8  24  1   
 24   9  11  1   
 25   9  25  1   
 26   9  26  1   
 27  10  27  1   
 28  10  28  1   
 29  10  29  1   
 30  11  30  1   
 31  11  31  1   
@<TRIPOS>SUBSTRUCTURE
  1 ****   4 GROUP 4 **** **** 0

# MOE 2024.06 (io_trps.svl 2023.06)
