@<TRIPOS>MOLECULE
NONAME
44 46 1 0 0 
SMALL
USER_CHARGES


@<TRIPOS>ATOM
  1 O        1.9090     2.7830    -0.6070 O.2   1 <1>  -0.5700 
  2 C        0.7570     2.6520    -0.2460 C.2   1 <1>   0.7800 
  3 O        0.3810     1.7340     0.6260 O.3   1 <1>  -0.4300 
  4 N       -0.2700     3.4390    -0.6280 N.am  1 <1>  -0.6600 
  5 C       -1.0080     1.8310     0.8910 C.3   1 <1>   0.1200 
  6 C       -1.5080     2.9860     0.0110 C.3   1 <1>   0.1400 
  7 C       -0.2570     4.3400    -1.8200 C.3   1 <1>   0.2010 
  8 C       -0.3030     5.8530    -1.5530 C.2   1 <1>   0.5690 
  9 O       -1.1440     6.4700    -2.1620 O.2   1 <1>  -0.5700 
 10 N        0.6150     6.5220    -0.7680 N.am  1 <1>  -0.6600 
 11 C        1.6090     5.9030     0.1610 C.3   1 <1>   0.1400 
 12 C        0.7490     8.0000    -0.8600 C.3   1 <1>   0.1400 
 13 C        2.9440     5.6010    -0.5390 C.3   1 <1>   0.3430 
 14 C        1.7390     8.3770    -1.9720 C.3   1 <1>  -0.1600 
 15 N        3.5360     6.8060    -1.2160 N.4   1 <1>  -0.9590 
 16 C        2.7520     7.2990    -2.3810 C.3   1 <1>   0.3430 
 17 C        4.9690     6.5700    -1.5210 C.3   1 <1>   0.5230 
 18 C        5.7480     6.8770    -0.2470 C.2   1 <1>   0.0070 
 19 N        5.2480     7.5540     0.7430 N.2   1 <1>  -0.5650 
 20 N        7.0250     6.4780    -0.0350 N.pl3 1 <1>   0.0330 
 21 C        6.2480     7.5990     1.6440 C.2   1 <1>   0.0770 
 22 C        7.3380     6.9480     1.1850 C.2   1 <1>  -0.3020 
 23 H       -1.1460     2.0390     1.9370 H     1 <1>   0.0800 
 24 H       -1.4780     0.8990     0.6320 H     1 <1>   0.0800 
 25 H       -2.2160     2.6360    -0.7210 H     1 <1>   0.0800 
 26 H       -1.9460     3.7720     0.6030 H     1 <1>   0.0800 
 27 H       -1.0980     4.0880    -2.4420 H     1 <1>   0.0800 
 28 H        0.6260     4.1390    -2.3970 H     1 <1>   0.0800 
 29 H        1.2110     5.0110     0.5990 H     1 <1>   0.0800 
 30 H        1.7960     6.5680     0.9860 H     1 <1>   0.0800 
 31 H        1.0890     8.3930     0.0830 H     1 <1>   0.0800 
 32 H       -0.2110     8.4490    -1.0580 H     1 <1>   0.0800 
 33 H        2.7930     4.8140    -1.2580 H     1 <1>   0.0800 
 34 H        3.6310     5.2330     0.2060 H     1 <1>   0.0800 
 35 H        2.2550     9.2790    -1.6960 H     1 <1>   0.0800 
 36 H        1.1590     8.6170    -2.8460 H     1 <1>   0.0800 
 37 H        3.5950     7.5470    -0.4920 H     1 <1>   0.4500 
 38 H        3.4150     7.7220    -3.1180 H     1 <1>   0.0800 
 39 H        2.2300     6.4750    -2.8400 H     1 <1>   0.0800 
 40 H        5.3000     7.2380    -2.2990 H     1 <1>   0.0800 
 41 H        5.1280     5.5520    -1.8350 H     1 <1>   0.0800 
 42 H        7.6440     5.9370    -0.6490 H     1 <1>   0.2700 
 43 H        6.1340     8.1040     2.5910 H     1 <1>   0.1500 
 44 H        8.2960     6.8010     1.6540 H     1 <1>   0.1500 
@<TRIPOS>BOND
  1   1   2  2   
  2   2   3  1   
  3   2   4  am  
  4   3   5  1   
  5   4   6  1   
  6   4   7  1   
  7   5   6  1   
  8   5  23  1   
  9   5  24  1   
 10   6  25  1   
 11   6  26  1   
 12   7   8  1   
 13   7  27  1   
 14   7  28  1   
 15   8   9  2   
 16   8  10  am  
 17  10  11  1   
 18  10  12  1   
 19  11  13  1   
 20  11  29  1   
 21  11  30  1   
 22  12  14  1   
 23  12  31  1   
 24  12  32  1   
 25  13  15  1   
 26  13  33  1   
 27  13  34  1   
 28  14  16  1   
 29  14  35  1   
 30  14  36  1   
 31  15  16  1   
 32  15  17  1   
 33  15  37  1   
 34  16  38  1   
 35  16  39  1   
 36  17  18  1   
 37  17  40  1   
 38  17  41  1   
 39  18  19  2   
 40  18  20  1   
 41  19  21  1   
 42  20  22  1   
 43  20  42  1   
 44  21  22  2   
 45  21  43  1   
 46  22  44  1   
@<TRIPOS>SUBSTRUCTURE
  1 ****  13 GROUP 4 **** **** 0

# MOE 2024.06 (io_trps.svl 2023.06)
