@<TRIPOS>MOLECULE
NONAME
43 47 1 0 0 
SMALL
USER_CHARGES


@<TRIPOS>ATOM
  1 O        0.5790    -0.4750     1.4240 O.2   1 <1>  -0.5700 
  2 C        1.3960    -0.7960     0.5820 C.2   1 <1>   0.5440 
  3 N        2.3170     0.1080     0.1350 N.am  1 <1>  -0.4930 
  4 C        1.3950    -2.1310     0.0420 C.ar  1 <1>   0.0860 
  5 C        2.4800     1.4780     0.4750 C.2   1 <1>   0.0630 
  6 C        0.2970    -2.6570    -0.6550 C.ar  1 <1>   0.0000 
  7 C        2.4620    -3.0060     0.1500 C.ar  1 <1>  -0.1440 
  8 C        3.4970     2.2680     0.0540 C.2   1 <1>  -0.0680 
  9 C        1.6680     2.3150     1.2460 C.2   1 <1>   0.1390 
 10 C        0.3750    -3.9320    -1.1650 C.ar  1 <1>   0.3970 
 11 C       -0.9900    -2.2500    -1.0540 C.2   1 <1>   0.1080 
 12 C        2.4090    -4.2740    -0.4050 C.ar  1 <1>   0.1660 
 13 C        3.7850    -2.7790     0.8510 C.3   1 <1>  -0.0160 
 14 N        3.2370     3.5060     0.5500 N.pl3 1 <1>   0.3140 
 15 N        4.6320     1.9610    -0.7370 N.pl3 1 <1>  -0.8530 
 16 N        2.1120     3.5370     1.3010 N.2   1 <1>  -0.7070 
 17 O       -0.7630    -4.1890    -1.7850 O.3   1 <1>  -0.0190 
 18 N        1.4020    -4.7820    -1.0740 N.ar  1 <1>  -0.5670 
 19 N       -1.5870    -3.1690    -1.7170 N.2   1 <1>  -0.4100 
 20 C       -1.6190    -0.9050    -0.7530 C.3   1 <1>  -0.0590 
 21 C        3.6820    -5.0370    -0.1420 C.3   1 <1>  -0.0170 
 22 C        4.4170    -4.1800     0.9040 C.3   1 <1>  -0.1600 
 23 C        4.1050     4.6710     0.3180 C.3   1 <1>   0.0960 
 24 C        5.6670     3.0280    -0.8510 C.3   1 <1>   0.2090 
 25 C        5.0110     4.4170    -0.9010 C.3   1 <1>  -0.1600 
 26 H        2.9210    -0.1790    -0.6340 H     1 <1>   0.3700 
 27 H        0.7690     1.9890     1.7410 H     1 <1>   0.1500 
 28 H        3.6470    -2.3740     1.8390 H     1 <1>   0.0800 
 29 H        4.3980    -2.1140     0.2680 H     1 <1>   0.0800 
 30 H        5.0630     1.0650    -0.4810 H     1 <1>   0.4000 
 31 H       -0.9590    -0.1100    -1.0480 H     1 <1>   0.0800 
 32 H       -1.8200    -0.8240     0.3000 H     1 <1>   0.0800 
 33 H       -2.5450    -0.8010    -1.2880 H     1 <1>   0.0800 
 34 H        4.2480    -5.1080    -1.0530 H     1 <1>   0.0800 
 35 H        3.4700    -6.0240     0.2310 H     1 <1>   0.0800 
 36 H        4.2440    -4.6020     1.8800 H     1 <1>   0.0800 
 37 H        5.4770    -4.1500     0.7220 H     1 <1>   0.0800 
 38 H        4.6960     4.8200     1.2020 H     1 <1>   0.0800 
 39 H        3.4860     5.5350     0.1600 H     1 <1>   0.0800 
 40 H        6.2410     2.8680    -1.7480 H     1 <1>   0.0800 
 41 H        6.3310     2.9680    -0.0050 H     1 <1>   0.0800 
 42 H        5.7720     5.1750    -0.9450 H     1 <1>   0.0800 
 43 H        4.4260     4.4920    -1.8010 H     1 <1>   0.0800 
@<TRIPOS>BOND
  1   1   2  2   
  2   2   3  am  
  3   2   4  1   
  4   3   5  1   
  5   3  26  1   
  6   4   6  ar  
  7   4   7  ar  
  8   5   8  2   
  9   5   9  1   
 10   6  10  ar  
 11   6  11  1   
 12   7  12  ar  
 13   7  13  1   
 14   8  14  1   
 15   8  15  1   
 16   9  16  2   
 17   9  27  1   
 18  10  17  1   
 19  10  18  ar  
 20  11  19  2   
 21  11  20  1   
 22  12  18  ar  
 23  12  21  1   
 24  13  22  1   
 25  13  28  1   
 26  13  29  1   
 27  14  16  1   
 28  14  23  1   
 29  15  24  1   
 30  15  30  1   
 31  17  19  1   
 32  20  31  1   
 33  20  32  1   
 34  20  33  1   
 35  21  22  1   
 36  21  34  1   
 37  21  35  1   
 38  22  36  1   
 39  22  37  1   
 40  23  25  1   
 41  23  38  1   
 42  23  39  1   
 43  24  25  1   
 44  24  40  1   
 45  24  41  1   
 46  25  42  1   
 47  25  43  1   
@<TRIPOS>SUBSTRUCTURE
  1 ****   3 GROUP 4 **** **** 0

# MOE 2024.06 (io_trps.svl 2023.06)
