@<TRIPOS>MOLECULE
NONAME
44 46 1 0 0 
SMALL
USER_CHARGES


@<TRIPOS>ATOM
  1 O        1.6720    -0.2580    -0.9360 O.2   1 <1>  -0.5700 
  2 C        2.2830    -1.0590    -0.2760 C.2   1 <1>   0.5690 
  3 N        3.2700    -0.7140     0.5930 N.am  1 <1>  -0.4940 
  4 C        1.9060    -2.5140    -0.3930 C.3   1 <1>  -0.0990 
  5 C        3.7430     0.5480     0.9700 C.2   1 <1>   0.2510 
  6 C        0.5570    -2.7520     0.2910 C.3   1 <1>   0.0960 
  7 N        4.2090     0.7380     2.1630 N.2   1 <1>  -0.3380 
  8 N        3.8050     1.6730     0.2210 N.pl3 1 <1>   0.3340 
  9 N        0.2400    -4.1920     0.2910 N.pl3 1 <1>   0.3140 
 10 N        4.5770     2.0150     2.2530 N.2   1 <1>  -0.3380 
 11 C        4.3380     2.5690     1.1020 C.2   1 <1>   0.3120 
 12 C        3.5860     2.0670    -1.0950 C.2   1 <1>  -0.1810 
 13 N        0.9210    -5.0110     1.1010 N.2   1 <1>  -0.7070 
 14 C       -0.6660    -4.8650    -0.4440 C.2   1 <1>  -0.3320 
 15 N        4.5920     3.8830     0.7740 N.2   1 <1>  -0.5760 
 16 C        3.8500     3.3550    -1.4260 C.2   1 <1>  -0.1360 
 17 C        0.4390    -6.1860     0.8740 C.2   1 <1>   0.1080 
 18 C       -0.5650    -6.1900    -0.1070 C.2   1 <1>  -0.0860 
 19 C       -1.6060    -4.1730    -1.4270 C.3   1 <1>  -0.0600 
 20 C        4.3510     4.2470    -0.4370 C.2   1 <1>   0.3750 
 21 C        0.9560    -7.4000     1.6190 C.3   1 <1>  -0.0590 
 22 C       -1.2460    -7.3720    -0.5770 C.2   1 <1>   0.5950 
 23 C        4.6150     5.6830    -0.8350 C.3   1 <1>  -0.1790 
 24 O       -1.4300    -8.3540     0.0970 O.2   1 <1>  -0.5700 
 25 C       -1.7450    -7.4390    -2.0030 C.3   1 <1>  -0.1790 
 26 H        3.6070    -1.4530     1.2110 H     1 <1>   0.3700 
 27 H        2.6640    -3.1260     0.0620 H     1 <1>   0.0800 
 28 H        1.8350    -2.7710    -1.4340 H     1 <1>   0.0800 
 29 H       -0.2190    -2.2060    -0.2110 H     1 <1>   0.0800 
 30 H        0.5980    -2.4240     1.3140 H     1 <1>   0.0800 
 31 H        3.2190     1.3320    -1.7870 H     1 <1>   0.1500 
 32 H        3.6960     3.7320    -2.4210 H     1 <1>   0.1500 
 33 H       -2.0860    -3.3350    -0.9550 H     1 <1>   0.0800 
 34 H       -2.3810    -4.8340    -1.7620 H     1 <1>   0.0800 
 35 H       -1.0560    -3.8220    -2.2830 H     1 <1>   0.0800 
 36 H        1.8010    -7.1300     2.2250 H     1 <1>   0.0800 
 37 H        1.2560    -8.1600     0.9220 H     1 <1>   0.0800 
 38 H        0.1830    -7.7900     2.2540 H     1 <1>   0.0800 
 39 H        3.7060     6.1400    -1.1800 H     1 <1>   0.0800 
 40 H        5.3500     5.7160    -1.6170 H     1 <1>   0.0800 
 41 H        4.9830     6.2400     0.0080 H     1 <1>   0.0800 
 42 H       -1.1740    -6.7820    -2.6320 H     1 <1>   0.0800 
 43 H       -2.7830    -7.1680    -2.0340 H     1 <1>   0.0800 
 44 H       -1.6390    -8.4430    -2.3710 H     1 <1>   0.0800 
@<TRIPOS>BOND
  1   1   2  2   
  2   2   3  am  
  3   2   4  1   
  4   3   5  1   
  5   3  26  1   
  6   4   6  1   
  7   4  27  1   
  8   4  28  1   
  9   5   7  2   
 10   5   8  1   
 11   6   9  1   
 12   6  29  1   
 13   6  30  1   
 14   7  10  1   
 15   8  11  1   
 16   8  12  1   
 17   9  13  1   
 18   9  14  1   
 19  10  11  2   
 20  11  15  1   
 21  12  16  2   
 22  12  31  1   
 23  13  17  2   
 24  14  18  2   
 25  14  19  1   
 26  15  20  2   
 27  16  20  1   
 28  16  32  1   
 29  17  18  1   
 30  17  21  1   
 31  18  22  1   
 32  19  33  1   
 33  19  34  1   
 34  19  35  1   
 35  20  23  1   
 36  21  36  1   
 37  21  37  1   
 38  21  38  1   
 39  22  24  2   
 40  22  25  1   
 41  23  39  1   
 42  23  40  1   
 43  23  41  1   
 44  25  42  1   
 45  25  43  1   
 46  25  44  1   
@<TRIPOS>SUBSTRUCTURE
  1 ****   2 GROUP 4 **** **** 0

# MOE 2024.06 (io_trps.svl 2023.06)
