@<TRIPOS>MOLECULE
NONAME
26 26 1 0 0 
SMALL
USER_CHARGES


@<TRIPOS>ATOM
  1 F       -1.0430     0.1890     1.2200 F     1 <1>  -0.3400 
  2 C       -1.4750     0.6080     0.0410 C.3   1 <1>   1.1640 
  3 F       -0.4700     1.2990    -0.4830 F     1 <1>  -0.3400 
  4 F       -1.6070    -0.4590    -0.7350 F     1 <1>  -0.3400 
  5 C       -2.7560     1.4410     0.1420 C.ar  1 <1>  -0.1440 
  6 C       -3.9900     0.8120     0.3570 C.ar  1 <1>   0.3960 
  7 C       -2.7020     2.8210     0.0120 C.ar  1 <1>  -0.1500 
  8 N       -5.1240     1.5350     0.4060 N.ar  1 <1>  -0.6200 
  9 C       -4.1170    -0.6290     0.5460 C.2   1 <1>   0.6340 
 10 C       -3.8720     3.5650     0.0780 C.ar  1 <1>   0.0860 
 11 C       -5.0440     2.8430     0.2730 C.ar  1 <1>   0.1600 
 12 O       -3.5230    -1.2400     1.4120 O.2   1 <1>  -0.5700 
 13 O       -4.9120    -1.3070    -0.2910 O.3   1 <1>  -0.4300 
 14 C       -3.8770     5.0060    -0.0510 C.2   1 <1>   0.6340 
 15 C       -5.0930    -2.7050    -0.1820 C.3   1 <1>   0.0400 
 16 O       -2.8670     5.6550    -0.2210 O.2   1 <1>  -0.5700 
 17 O       -5.0510     5.6400     0.0210 O.3   1 <1>  -0.4300 
 18 C       -5.1470     7.0470    -0.0960 C.3   1 <1>   0.0400 
 19 H       -1.7690     3.3410    -0.1430 H     1 <1>   0.1500 
 20 H       -5.9750     3.3850     0.3220 H     1 <1>   0.1500 
 21 H       -5.7720    -3.0210    -0.9530 H     1 <1>   0.0800 
 22 H       -5.5030    -2.9280     0.7880 H     1 <1>   0.0800 
 23 H       -4.1400    -3.1910    -0.3030 H     1 <1>   0.0800 
 24 H       -6.1810     7.3280    -0.0090 H     1 <1>   0.0800 
 25 H       -4.7620     7.3440    -1.0570 H     1 <1>   0.0800 
 26 H       -4.5710     7.5020     0.6900 H     1 <1>   0.0800 
@<TRIPOS>BOND
  1   1   2  1   
  2   2   3  1   
  3   2   4  1   
  4   2   5  1   
  5   5   6  ar  
  6   5   7  ar  
  7   6   8  ar  
  8   6   9  1   
  9   7  10  ar  
 10   7  19  1   
 11   8  11  ar  
 12   9  12  2   
 13   9  13  1   
 14  10  11  ar  
 15  10  14  1   
 16  11  20  1   
 17  13  15  1   
 18  14  16  2   
 19  14  17  1   
 20  15  21  1   
 21  15  22  1   
 22  15  23  1   
 23  17  18  1   
 24  18  24  1   
 25  18  25  1   
 26  18  26  1   
@<TRIPOS>SUBSTRUCTURE
  1 ****   5 GROUP 4 **** **** 0

# MOE 2024.06 (io_trps.svl 2023.06)
