@<TRIPOS>MOLECULE
NONAME
49 52 1 0 0 
SMALL
USER_CHARGES


@<TRIPOS>ATOM
  1 S       -0.7200     0.3520     0.5110 S.3   1 <1>  -0.0800 
  2 C        0.9180     0.0380    -0.0730 C.ar  1 <1>   0.0400 
  3 C       -0.9220    -1.3280     0.9990 C.2   1 <1>  -0.1100 
  4 C        1.2550    -1.2950     0.1220 C.ar  1 <1>   0.0000 
  5 C        1.7660     0.9660    -0.6460 C.ar  1 <1>  -0.1500 
  6 C        0.1850    -2.0480     0.7300 C.2   1 <1>  -0.1810 
  7 C        2.5270    -1.7010    -0.2830 C.ar  1 <1>  -0.1500 
  8 C        3.0190     0.5390    -1.0440 C.ar  1 <1>  -0.1500 
  9 C        0.3410    -3.5290     1.0050 C.3   1 <1>   0.5240 
 10 C        3.3950    -0.7890    -0.8610 C.ar  1 <1>  -0.1500 
 11 N       -0.7730    -4.2610     0.3550 N.4   1 <1>  -0.9590 
 12 C       -0.8810    -5.7250     0.7130 C.3   1 <1>   0.3430 
 13 C       -0.9570    -3.9760    -1.0930 C.3   1 <1>   0.3430 
 14 C       -1.9550    -6.5110    -0.1240 C.3   1 <1>   0.4230 
 15 C       -2.3330    -4.4930    -1.5610 C.3   1 <1>  -0.1600 
 16 N       -2.6010    -7.6570     0.6170 N.4   1 <1>  -0.9590 
 17 C       -3.0330    -5.5240    -0.6130 C.3   1 <1>  -0.1060 
 18 C       -3.5620    -8.4180    -0.2280 C.3   1 <1>   0.3430 
 19 C       -1.6990    -8.5720     1.3740 C.3   1 <1>   0.2630 
 20 C       -3.5620    -4.8590     0.6750 C.2   1 <1>   0.9060 
 21 C       -4.1490    -6.2440    -1.4140 C.3   1 <1>  -0.1600 
 22 C       -4.6840    -7.4910    -0.6960 C.3   1 <1>  -0.1600 
 23 O       -3.3310    -3.6630     0.8610 O.co2 1 <1>  -0.9000 
 24 O       -3.9060    -5.5880     1.6090 O.co2 1 <1>  -0.9000 
 25 H       -1.8760    -1.5870     1.4350 H     1 <1>   0.1500 
 26 H        1.4540     1.9880    -0.7740 H     1 <1>   0.1500 
 27 H        2.8520    -2.7150    -0.1530 H     1 <1>   0.1500 
 28 H        3.7080     1.2330    -1.4940 H     1 <1>   0.1500 
 29 H        0.3180    -3.6910     2.0700 H     1 <1>   0.0800 
 30 H        1.2840    -3.8780     0.6220 H     1 <1>   0.0800 
 31 H        4.3760    -1.1020    -1.1740 H     1 <1>   0.1500 
 32 H       -1.6360    -3.8070     0.7650 H     1 <1>   0.4500 
 33 H        0.0750    -6.2010     0.5830 H     1 <1>   0.0800 
 34 H       -1.1600    -5.7900     1.7530 H     1 <1>   0.0800 
 35 H       -0.9050    -2.9140    -1.2760 H     1 <1>   0.0800 
 36 H       -0.1720    -4.4510    -1.6590 H     1 <1>   0.0800 
 37 H       -1.4600    -6.9140    -0.9910 H     1 <1>   0.0800 
 38 H       -2.9840    -3.6440    -1.6890 H     1 <1>   0.0800 
 39 H       -2.1960    -4.9120    -2.5420 H     1 <1>   0.0800 
 40 H       -3.2220    -7.1450     1.3050 H     1 <1>   0.4500 
 41 H       -3.0530    -8.8350    -1.0820 H     1 <1>   0.0800 
 42 H       -3.9920    -9.2260     0.3410 H     1 <1>   0.0800 
 43 H       -1.0310    -9.0850     0.7010 H     1 <1>   0.0800 
 44 H       -2.2840    -9.3070     1.9040 H     1 <1>   0.0800 
 45 H       -1.1210    -8.0210     2.0970 H     1 <1>   0.0800 
 46 H       -4.9630    -5.5600    -1.5910 H     1 <1>   0.0800 
 47 H       -3.7730    -6.5520    -2.3750 H     1 <1>   0.0800 
 48 H       -5.3350    -8.0330    -1.3600 H     1 <1>   0.0800 
 49 H       -5.2790    -7.2000     0.1540 H     1 <1>   0.0800 
@<TRIPOS>BOND
  1   1   2  1   
  2   1   3  1   
  3   2   4  ar  
  4   2   5  ar  
  5   3   6  2   
  6   3  25  1   
  7   4   6  1   
  8   4   7  ar  
  9   5   8  ar  
 10   5  26  1   
 11   6   9  1   
 12   7  10  ar  
 13   7  27  1   
 14   8  10  ar  
 15   8  28  1   
 16   9  11  1   
 17   9  29  1   
 18   9  30  1   
 19  10  31  1   
 20  11  12  1   
 21  11  13  1   
 22  11  32  1   
 23  12  14  1   
 24  12  33  1   
 25  12  34  1   
 26  13  15  1   
 27  13  35  1   
 28  13  36  1   
 29  14  16  1   
 30  14  17  1   
 31  14  37  1   
 32  15  17  1   
 33  15  38  1   
 34  15  39  1   
 35  16  18  1   
 36  16  19  1   
 37  16  40  1   
 38  17  20  1   
 39  17  21  1   
 40  18  22  1   
 41  18  41  1   
 42  18  42  1   
 43  19  43  1   
 44  19  44  1   
 45  19  45  1   
 46  20  23  ar  
 47  20  24  ar  
 48  21  22  1   
 49  21  46  1   
 50  21  47  1   
 51  22  48  1   
 52  22  49  1   
@<TRIPOS>SUBSTRUCTURE
  1 ****  11 GROUP 4 **** **** 0

# MOE 2024.06 (io_trps.svl 2023.06)
