@<TRIPOS>MOLECULE
NONAME
54 56 1 0 0 
SMALL
USER_CHARGES


@<TRIPOS>ATOM
  1 CL       0.4360    -0.5470     0.2320 Cl    1 <1>  -0.1770 
  2 C       -1.0740    -1.1820    -0.3690 C.ar  1 <1>   0.1770 
  3 C       -1.3900    -2.5080    -0.1420 C.ar  1 <1>  -0.1500 
  4 C       -1.9300    -0.3470    -1.0620 C.ar  1 <1>  -0.1500 
  5 C       -2.5900    -3.0170    -0.6160 C.ar  1 <1>  -0.1440 
  6 C       -3.1270    -0.8550    -1.5380 C.ar  1 <1>  -0.1500 
  7 C       -3.4530    -2.1840    -1.3140 C.ar  1 <1>  -0.1500 
  8 C       -2.9520    -4.4720    -0.3660 C.3   1 <1>  -0.0160 
  9 C       -3.5020    -4.6520     1.0540 C.3   1 <1>  -0.0990 
 10 C       -3.9740    -6.0760     1.2810 C.2   1 <1>   0.5690 
 11 O       -3.1440    -6.8540     1.6870 O.2   1 <1>  -0.5700 
 12 N       -5.2730    -6.4650     1.0350 N.am  1 <1>  -0.6600 
 13 C       -6.3020    -5.5760     0.4120 C.3   1 <1>   0.2200 
 14 C       -5.6870    -7.8560     1.4100 C.3   1 <1>   0.0600 
 15 C       -7.3040    -5.0500     1.4370 C.3   1 <1>  -0.1600 
 16 C       -7.1630    -6.2410    -0.6640 C.3   1 <1>  -0.1600 
 17 C       -8.5250    -4.6340     0.6060 C.3   1 <1>  -0.0800 
 18 C       -8.4250    -5.3690    -0.7350 C.3   1 <1>  -0.0800 
 19 C       -9.8870    -5.0280     1.1980 C.3   1 <1>  -0.1600 
 20 C       -9.7470    -6.1380    -0.8940 C.3   1 <1>  -0.1600 
 21 C      -10.7590    -5.4090    -0.0030 C.3   1 <1>   0.4230 
 22 N      -11.2930    -4.1870    -0.6880 N.4   1 <1>  -0.9590 
 23 C      -12.1820    -3.3680     0.1990 C.3   1 <1>   0.2630 
 24 C      -12.0510    -4.5120    -1.9400 C.3   1 <1>   0.2630 
 25 H       -0.7010    -3.1290     0.4020 H     1 <1>   0.1500 
 26 H       -1.6610     0.6800    -1.2250 H     1 <1>   0.1500 
 27 H       -3.8040    -0.2180    -2.0810 H     1 <1>   0.1500 
 28 H       -4.3850    -2.5650    -1.6910 H     1 <1>   0.1500 
 29 H       -3.6810    -4.7960    -1.0880 H     1 <1>   0.0800 
 30 H       -2.0800    -5.0900    -0.4920 H     1 <1>   0.0800 
 31 H       -4.2910    -3.9530     1.2510 H     1 <1>   0.0800 
 32 H       -2.7170    -4.4430     1.7590 H     1 <1>   0.0800 
 33 H       -5.8280    -4.7310    -0.0530 H     1 <1>   0.0800 
 34 H       -6.6980    -7.8690     1.7730 H     1 <1>   0.0800 
 35 H       -5.0500    -8.2440     2.1860 H     1 <1>   0.0800 
 36 H       -5.6060    -8.4990     0.5510 H     1 <1>   0.0800 
 37 H       -7.5600    -5.8300     2.1300 H     1 <1>   0.0800 
 38 H       -6.8960    -4.2180     1.9840 H     1 <1>   0.0800 
 39 H       -6.6470    -6.2680    -1.6080 H     1 <1>   0.0800 
 40 H       -7.4260    -7.2420    -0.3810 H     1 <1>   0.0800 
 41 H       -8.4910    -3.5710     0.4250 H     1 <1>   0.0800 
 42 H       -8.3160    -4.6430    -1.5240 H     1 <1>   0.0800 
 43 H      -10.2940    -4.2650     1.8330 H     1 <1>   0.0800 
 44 H       -9.7720    -5.9130     1.7990 H     1 <1>   0.0800 
 45 H       -9.6350    -7.1310    -0.4950 H     1 <1>   0.0800 
 46 H      -10.0380    -6.2410    -1.9220 H     1 <1>   0.0800 
 47 H      -11.5690    -6.0610     0.2890 H     1 <1>   0.0800 
 48 H      -10.4720    -3.6190    -0.9410 H     1 <1>   0.4500 
 49 H      -13.0050    -3.9650     0.5580 H     1 <1>   0.0800 
 50 H      -12.5800    -2.5270    -0.3460 H     1 <1>   0.0800 
 51 H      -11.6350    -2.9890     1.0460 H     1 <1>   0.0800 
 52 H      -12.8670    -5.1820    -1.7210 H     1 <1>   0.0800 
 53 H      -11.4080    -4.9770    -2.6690 H     1 <1>   0.0800 
 54 H      -12.4540    -3.6120    -2.3760 H     1 <1>   0.0800 
@<TRIPOS>BOND
  1   1   2  1   
  2   2   3  ar  
  3   2   4  ar  
  4   3   5  ar  
  5   3  25  1   
  6   4   6  ar  
  7   4  26  1   
  8   5   7  ar  
  9   5   8  1   
 10   6   7  ar  
 11   6  27  1   
 12   7  28  1   
 13   8   9  1   
 14   8  29  1   
 15   8  30  1   
 16   9  10  1   
 17   9  31  1   
 18   9  32  1   
 19  10  11  2   
 20  10  12  am  
 21  12  13  1   
 22  12  14  1   
 23  13  15  1   
 24  13  16  1   
 25  13  33  1   
 26  14  34  1   
 27  14  35  1   
 28  14  36  1   
 29  15  17  1   
 30  15  37  1   
 31  15  38  1   
 32  16  18  1   
 33  16  39  1   
 34  16  40  1   
 35  17  18  1   
 36  17  19  1   
 37  17  41  1   
 38  18  20  1   
 39  18  42  1   
 40  19  21  1   
 41  19  43  1   
 42  19  44  1   
 43  20  21  1   
 44  20  45  1   
 45  20  46  1   
 46  21  22  1   
 47  21  47  1   
 48  22  23  1   
 49  22  24  1   
 50  22  48  1   
 51  23  49  1   
 52  23  50  1   
 53  23  51  1   
 54  24  52  1   
 55  24  53  1   
 56  24  54  1   
@<TRIPOS>SUBSTRUCTURE
  1 ****  13 GROUP 4 **** **** 0

# MOE 2024.06 (io_trps.svl 2023.06)
