@<TRIPOS>MOLECULE
NONAME
50 52 1 0 0 
SMALL
USER_CHARGES


@<TRIPOS>ATOM
  1 CL      -0.5460    -0.1210     0.0310 Cl    1 <1>  -0.1770 
  2 C       -1.2160    -1.7300     0.1000 C.ar  1 <1>   0.1770 
  3 C       -0.4510    -2.7650     0.6010 C.ar  1 <1>  -0.1500 
  4 C       -2.5030    -1.9540    -0.3500 C.ar  1 <1>  -0.1500 
  5 C       -0.9880    -4.0380     0.6540 C.ar  1 <1>  -0.1500 
  6 C       -3.0270    -3.2330    -0.2940 C.ar  1 <1>  -0.1500 
  7 C       -2.2880    -4.3040     0.2110 C.ar  1 <1>   0.0530 
  8 C       -2.8090    -5.6480     0.2830 C.2   1 <1>   0.0870 
  9 O       -2.0040    -6.6590     0.0390 O.3   1 <1>  -0.0190 
 10 C       -4.0250    -6.1840     0.5720 C.2   1 <1>  -0.2330 
 11 N       -2.5890    -7.8230     0.1600 N.2   1 <1>  -0.4100 
 12 C       -3.7920    -7.5530     0.5120 C.2   1 <1>   0.3720 
 13 C       -5.3320    -5.6570     0.8010 C.2   1 <1>   1.0330 
 14 N       -4.7540    -8.5030     0.8070 N.pl3 1 <1>  -0.8520 
 15 O       -5.7940    -4.7810     0.0580 O.co2 1 <1>  -0.9000 
 16 O       -6.1410    -6.2610     1.5330 O.co2 1 <1>  -0.9000 
 17 C       -5.0780    -9.5420    -0.2140 C.3   1 <1>   0.2090 
 18 C       -6.6040    -9.7690    -0.5340 C.3   1 <1>   0.5030 
 19 N       -7.1260    -8.7450    -1.5350 N.4   1 <1>  -0.9590 
 20 C       -7.4590    -9.7420     0.7610 C.3   1 <1>  -0.1600 
 21 C       -6.7510   -11.1690    -1.1900 C.3   1 <1>  -0.1600 
 22 C       -6.9040    -7.3260    -1.1110 C.3   1 <1>   0.2630 
 23 C       -8.5720    -8.8580    -1.9100 C.3   1 <1>   0.2630 
 24 C       -7.1120   -10.8870     1.7290 C.3   1 <1>  -0.1600 
 25 C       -6.4680   -12.3530    -0.2440 C.3   1 <1>  -0.1600 
 26 C       -7.2870   -12.2500     1.0490 C.3   1 <1>  -0.1600 
 27 H        0.5490    -2.5720     0.9460 H     1 <1>   0.1500 
 28 H       -3.0880    -1.1400    -0.7370 H     1 <1>   0.1500 
 29 H       -0.3960    -4.8460     1.0470 H     1 <1>   0.1500 
 30 H       -4.0260    -3.3990    -0.6550 H     1 <1>   0.1500 
 31 H       -5.5720    -8.0050     1.2220 H     1 <1>   0.4000 
 32 H       -4.6540   -10.4510     0.1650 H     1 <1>   0.0800 
 33 H       -4.5530    -9.3240    -1.1270 H     1 <1>   0.0800 
 34 H       -6.5650    -8.8710    -2.3850 H     1 <1>   0.4500 
 35 H       -8.5010    -9.8430     0.5250 H     1 <1>   0.0800 
 36 H       -7.3350    -8.8070     1.2780 H     1 <1>   0.0800 
 37 H       -6.0950   -11.2430    -2.0400 H     1 <1>   0.0800 
 38 H       -7.7560   -11.3110    -1.5380 H     1 <1>   0.0800 
 39 H       -7.3710    -7.1310    -0.1580 H     1 <1>   0.0800 
 40 H       -7.3100    -6.6360    -1.8310 H     1 <1>   0.0800 
 41 H       -5.8510    -7.1250    -1.0240 H     1 <1>   0.0800 
 42 H       -9.1960    -8.6980    -1.0460 H     1 <1>   0.0800 
 43 H       -8.7910    -9.8260    -2.3260 H     1 <1>   0.0800 
 44 H       -8.8210    -8.1100    -2.6460 H     1 <1>   0.0800 
 45 H       -7.7560   -10.8330     2.5900 H     1 <1>   0.0800 
 46 H       -6.0990   -10.7810     2.0830 H     1 <1>   0.0800 
 47 H       -5.4220   -12.4090     0.0020 H     1 <1>   0.0800 
 48 H       -6.7170   -13.2750    -0.7420 H     1 <1>   0.0800 
 49 H       -8.3290   -12.4020     0.8240 H     1 <1>   0.0800 
 50 H       -6.9860   -13.0300     1.7280 H     1 <1>   0.0800 
@<TRIPOS>BOND
  1   1   2  1   
  2   2   3  ar  
  3   2   4  ar  
  4   3   5  ar  
  5   3  27  1   
  6   4   6  ar  
  7   4  28  1   
  8   5   7  ar  
  9   5  29  1   
 10   6   7  ar  
 11   6  30  1   
 12   7   8  1   
 13   8   9  1   
 14   8  10  2   
 15   9  11  1   
 16  10  12  1   
 17  10  13  1   
 18  11  12  2   
 19  12  14  1   
 20  13  15  ar  
 21  13  16  ar  
 22  14  17  1   
 23  14  31  1   
 24  17  18  1   
 25  17  32  1   
 26  17  33  1   
 27  18  19  1   
 28  18  20  1   
 29  18  21  1   
 30  19  22  1   
 31  19  23  1   
 32  19  34  1   
 33  20  24  1   
 34  20  35  1   
 35  20  36  1   
 36  21  25  1   
 37  21  37  1   
 38  21  38  1   
 39  22  39  1   
 40  22  40  1   
 41  22  41  1   
 42  23  42  1   
 43  23  43  1   
 44  23  44  1   
 45  24  26  1   
 46  24  45  1   
 47  24  46  1   
 48  25  26  1   
 49  25  47  1   
 50  25  48  1   
 51  26  49  1   
 52  26  50  1   
@<TRIPOS>SUBSTRUCTURE
  1 ****  10 GROUP 4 **** **** 0

# MOE 2024.06 (io_trps.svl 2023.06)
