@<TRIPOS>MOLECULE
NONAME
46 48 1 0 0 
SMALL
USER_CHARGES


@<TRIPOS>ATOM
  1 O       -2.5410     0.9450    -1.9010 O.2   1 <1>  -0.5700 
  2 C       -2.1750     0.8730    -0.7520 C.2   1 <1>   0.5690 
  3 N       -2.1340    -0.3130    -0.0980 N.am  1 <1>  -0.7300 
  4 C       -1.7570     2.1380    -0.0040 C.3   1 <1>  -0.0190 
  5 C       -2.4970    -1.6170    -0.6940 C.3   1 <1>   0.2200 
  6 C       -2.9440     3.1110     0.1530 C.3   1 <1>  -0.1600 
  7 C       -0.5690     2.8340    -0.6990 C.3   1 <1>  -0.1600 
  8 C       -3.8680    -2.0310    -0.1870 C.3   1 <1>  -0.0800 
  9 C       -1.6100    -2.7070    -0.1040 C.3   1 <1>   0.1200 
 10 C       -2.5310     4.3960     0.8890 C.3   1 <1>  -0.1600 
 11 C       -0.1550     4.1180     0.0370 C.3   1 <1>  -0.1600 
 12 C       -3.5380    -2.7010     1.1530 C.3   1 <1>   0.1200 
 13 C       -4.5640    -2.9940    -1.1680 C.3   1 <1>  -0.0170 
 14 O       -2.1770    -3.0260     1.1300 O.3   1 <1>  -0.5600 
 15 C       -1.3460     5.0680     0.1890 C.3   1 <1>   0.2000 
 16 C       -5.9490    -3.3850    -0.6760 C.ar  1 <1>  -0.1440 
 17 O       -0.9480     6.1430     0.9510 O.3   1 <1>  -0.6800 
 18 C       -7.0150    -2.5100    -0.7440 C.ar  1 <1>  -0.1500 
 19 C       -6.2160    -4.6290    -0.1400 C.ar  1 <1>  -0.1500 
 20 C       -8.2580    -2.9080    -0.2810 C.ar  1 <1>   0.1600 
 21 C       -7.4970    -4.9270     0.2950 C.ar  1 <1>   0.1600 
 22 N       -8.5240    -4.0950     0.2390 N.ar  1 <1>  -0.6200 
 23 H       -1.8540    -0.3660     0.8840 H     1 <1>   0.3700 
 24 H       -1.4360     1.8490     0.9810 H     1 <1>   0.0800 
 25 H       -2.4320    -1.5710    -1.7680 H     1 <1>   0.0800 
 26 H       -3.3200     3.3680    -0.8240 H     1 <1>   0.0800 
 27 H       -3.7390     2.6260     0.6920 H     1 <1>   0.0800 
 28 H        0.2680     2.1590    -0.7460 H     1 <1>   0.0800 
 29 H       -0.8460     3.0800    -1.7110 H     1 <1>   0.0800 
 30 H       -4.5020    -1.1730    -0.0430 H     1 <1>   0.0800 
 31 H       -0.5930    -2.3860     0.0340 H     1 <1>   0.0800 
 32 H       -1.6340    -3.5920    -0.7150 H     1 <1>   0.0800 
 33 H       -2.2640     4.1490     1.9010 H     1 <1>   0.0800 
 34 H       -3.3640     5.0770     0.9080 H     1 <1>   0.0800 
 35 H        0.6230     4.6110    -0.5200 H     1 <1>   0.0800 
 36 H        0.2300     3.8570     1.0070 H     1 <1>   0.0800 
 37 H       -4.1060    -3.5970     1.3280 H     1 <1>   0.0800 
 38 H       -3.6940    -2.0170     1.9700 H     1 <1>   0.0800 
 39 H       -3.9680    -3.8790    -1.3090 H     1 <1>   0.0800 
 40 H       -4.6640    -2.5150    -2.1270 H     1 <1>   0.0800 
 41 H       -1.6480     5.4420    -0.7750 H     1 <1>   0.0800 
 42 H       -0.6650     5.8400     1.8320 H     1 <1>   0.4000 
 43 H       -6.8900    -1.5240    -1.1530 H     1 <1>   0.1500 
 44 H       -5.4420    -5.3700    -0.0550 H     1 <1>   0.1500 
 45 H       -9.0770    -2.2110    -0.3420 H     1 <1>   0.1500 
 46 H       -7.6860    -5.9020     0.7110 H     1 <1>   0.1500 
@<TRIPOS>BOND
  1   1   2  2   
  2   2   3  am  
  3   2   4  1   
  4   3   5  1   
  5   3  23  1   
  6   4   6  1   
  7   4   7  1   
  8   4  24  1   
  9   5   8  1   
 10   5   9  1   
 11   5  25  1   
 12   6  10  1   
 13   6  26  1   
 14   6  27  1   
 15   7  11  1   
 16   7  28  1   
 17   7  29  1   
 18   8  12  1   
 19   8  13  1   
 20   8  30  1   
 21   9  14  1   
 22   9  31  1   
 23   9  32  1   
 24  10  15  1   
 25  10  33  1   
 26  10  34  1   
 27  11  15  1   
 28  11  35  1   
 29  11  36  1   
 30  12  14  1   
 31  12  37  1   
 32  12  38  1   
 33  13  16  1   
 34  13  39  1   
 35  13  40  1   
 36  15  17  1   
 37  15  41  1   
 38  16  18  ar  
 39  16  19  ar  
 40  17  42  1   
 41  18  20  ar  
 42  18  43  1   
 43  19  21  ar  
 44  19  44  1   
 45  20  22  ar  
 46  20  45  1   
 47  21  22  ar  
 48  21  46  1   
@<TRIPOS>SUBSTRUCTURE
  1 ****   3 GROUP 4 **** **** 0

# MOE 2024.06 (io_trps.svl 2023.06)
