@<TRIPOS>MOLECULE
NONAME
41 43 1 0 0 
SMALL
USER_CHARGES


@<TRIPOS>ATOM
  1 O        3.3300    -1.7020     2.2580 O.2   1 <1>  -0.5700 
  2 C        2.4960    -1.8770     1.3840 C.2   1 <1>   0.5440 
  3 N        2.3240    -0.8530     0.4700 N.am  1 <1>  -0.6600 
  4 C        1.7630    -3.1460     1.3480 C.ar  1 <1>   0.3960 
  5 C        1.4750    -0.8930    -0.7410 C.3   1 <1>   0.1400 
  6 C        3.0570     0.4300     0.5580 C.3   1 <1>   0.1400 
  7 N        0.5190    -3.2200     0.8450 N.ar  1 <1>  -0.6200 
  8 C        2.4030    -4.2780     1.8640 C.ar  1 <1>   0.1600 
  9 C        1.9160     0.3100    -1.5660 C.3   1 <1>  -0.1600 
 10 C        2.4580     1.3010    -0.5400 C.3   1 <1>  -0.1600 
 11 C       -0.0110    -4.4300     0.8880 C.ar  1 <1>   0.4100 
 12 N        1.8970    -5.5030     1.9080 N.ar  1 <1>  -0.6200 
 13 N       -1.3040    -4.5580     0.4020 N.pl3 1 <1>  -0.8380 
 14 C        0.6810    -5.5380     1.4050 C.ar  1 <1>   0.1600 
 15 C       -2.3380    -5.1470     1.3030 C.3   1 <1>   0.3890 
 16 C       -1.8290    -3.6030    -0.6140 C.3   1 <1>   0.1290 
 17 C       -2.7350    -6.5280     0.8200 C.2   1 <1>  -0.0400 
 18 O       -3.6210    -7.2090     1.4950 O.3   1 <1>  -0.0190 
 19 C       -2.3510    -7.2760    -0.2260 C.2   1 <1>  -0.1500 
 20 N       -3.8500    -8.3720     0.9580 N.2   1 <1>  -0.4100 
 21 C       -3.0980    -8.4400    -0.0820 C.2   1 <1>   0.1080 
 22 C       -3.0400    -9.6290    -1.0150 C.3   1 <1>  -0.0590 
 23 H        0.4440    -0.7890    -0.4490 H     1 <1>   0.0800 
 24 H        1.6100    -1.8150    -1.2810 H     1 <1>   0.0800 
 25 H        4.1020     0.2480     0.3730 H     1 <1>   0.0800 
 26 H        2.9350     0.8730     1.5320 H     1 <1>   0.0800 
 27 H        3.3960    -4.1570     2.2620 H     1 <1>   0.1500 
 28 H        1.1060     0.7180    -2.1450 H     1 <1>   0.0800 
 29 H        2.7050     0.0060    -2.2320 H     1 <1>   0.0800 
 30 H        3.1860     1.9720    -0.9590 H     1 <1>   0.0800 
 31 H        1.6490     1.8770    -0.1240 H     1 <1>   0.0800 
 32 H        0.1820    -6.4880     1.3850 H     1 <1>   0.1500 
 33 H       -3.2070    -4.5130     1.3280 H     1 <1>   0.0800 
 34 H       -1.9540    -5.2200     2.3060 H     1 <1>   0.0800 
 35 H       -1.0490    -3.3410    -1.3090 H     1 <1>   0.0800 
 36 H       -2.1780    -2.7070    -0.1300 H     1 <1>   0.0800 
 37 H       -2.6390    -4.0540    -1.1610 H     1 <1>   0.0800 
 38 H       -1.6400    -7.0510    -1.0000 H     1 <1>   0.1500 
 39 H       -2.0330    -9.9980    -1.0740 H     1 <1>   0.0800 
 40 H       -3.3700    -9.3390    -1.9950 H     1 <1>   0.0800 
 41 H       -3.6780   -10.4130    -0.6500 H     1 <1>   0.0800 
@<TRIPOS>BOND
  1   1   2  2   
  2   2   3  am  
  3   2   4  1   
  4   3   5  1   
  5   3   6  1   
  6   4   7  ar  
  7   4   8  ar  
  8   5   9  1   
  9   5  23  1   
 10   5  24  1   
 11   6  10  1   
 12   6  25  1   
 13   6  26  1   
 14   7  11  ar  
 15   8  12  ar  
 16   8  27  1   
 17   9  10  1   
 18   9  28  1   
 19   9  29  1   
 20  10  30  1   
 21  10  31  1   
 22  11  13  1   
 23  11  14  ar  
 24  12  14  ar  
 25  13  15  1   
 26  13  16  1   
 27  14  32  1   
 28  15  17  1   
 29  15  33  1   
 30  15  34  1   
 31  16  35  1   
 32  16  36  1   
 33  16  37  1   
 34  17  18  1   
 35  17  19  2   
 36  18  20  1   
 37  19  21  1   
 38  19  38  1   
 39  20  21  2   
 40  21  22  1   
 41  22  39  1   
 42  22  40  1   
 43  22  41  1   
@<TRIPOS>SUBSTRUCTURE
  1 ****  11 GROUP 4 **** **** 0

# MOE 2024.06 (io_trps.svl 2023.06)
