@<TRIPOS>MOLECULE
NONAME
45 48 1 0 0 
SMALL
USER_CHARGES


@<TRIPOS>ATOM
  1 O       -0.8540    -0.0400     1.9870 O.2   1 <1>  -0.5700 
  2 C       -1.5890     0.6140     1.2850 C.2   1 <1>   0.5690 
  3 N       -2.5430     0.0100     0.5100 N.am  1 <1>  -0.6600 
  4 C       -1.4350     2.1290     1.3030 C.3   1 <1>  -0.0040 
  5 C       -3.5310     0.6660    -0.3830 C.3   1 <1>   0.1400 
  6 C       -2.7010    -1.4640     0.4580 C.3   1 <1>   0.1400 
  7 C       -0.7420     2.6760     0.0440 C.3   1 <1>  -0.1950 
  8 C       -4.5900    -0.4090    -0.6210 C.3   1 <1>   0.2000 
  9 C       -3.7890    -1.7170    -0.5970 C.3   1 <1>  -0.0800 
 10 C        0.7490     2.6790    -0.0630 C.3   1 <1>  -0.2000 
 11 C        0.0000     3.9740     0.0850 C.3   1 <1>  -0.2000 
 12 O       -5.4750    -0.3810     0.4460 O.3   1 <1>  -0.6800 
 13 C       -4.6360    -2.9830    -0.3410 C.3   1 <1>  -0.0170 
 14 C       -3.9160    -4.3320    -0.4590 C.ar  1 <1>  -0.1440 
 15 C       -4.5840    -5.5180    -0.0630 C.ar  1 <1>   0.0000 
 16 C       -2.6440    -4.4730    -0.9420 C.ar  1 <1>  -0.1500 
 17 C       -3.8850    -6.7460    -0.1730 C.ar  1 <1>   0.3100 
 18 C       -5.9110    -5.5610     0.4300 C.ar  1 <1>  -0.1500 
 19 C       -2.0460    -5.7370    -1.0130 C.ar  1 <1>   0.1600 
 20 N       -2.6190    -6.8380    -0.6480 N.ar  1 <1>  -0.6200 
 21 C       -4.5230    -7.9340     0.2200 C.ar  1 <1>  -0.1500 
 22 C       -6.5050    -6.7360     0.8020 C.ar  1 <1>  -0.1500 
 23 C       -5.8040    -7.9390     0.6990 C.ar  1 <1>  -0.1500 
 24 H       -2.4000     2.5840     1.4130 H     1 <1>   0.0800 
 25 H       -0.8580     2.3950     2.1700 H     1 <1>   0.0800 
 26 H       -3.9580     1.5510     0.0550 H     1 <1>   0.0800 
 27 H       -3.0520     0.9150    -1.3140 H     1 <1>   0.0800 
 28 H       -1.7670    -1.9320     0.1970 H     1 <1>   0.0800 
 29 H       -3.0110    -1.8180     1.4270 H     1 <1>   0.0800 
 30 H       -1.2880     2.4590    -0.8580 H     1 <1>   0.1000 
 31 H       -5.1450    -0.2620    -1.5320 H     1 <1>   0.0800 
 32 H       -3.3120    -1.8070    -1.5560 H     1 <1>   0.0800 
 33 H        1.3290     2.3150     0.7680 H     1 <1>   0.1000 
 34 H        1.2000     2.4450    -1.0120 H     1 <1>   0.1000 
 35 H       -0.0590     4.6340    -0.7640 H     1 <1>   0.1000 
 36 H        0.0860     4.5080     1.0150 H     1 <1>   0.1000 
 37 H       -4.9620    -0.3810     1.2790 H     1 <1>   0.4000 
 38 H       -5.4590    -2.9840    -1.0340 H     1 <1>   0.0800 
 39 H       -5.0490    -2.9120     0.6500 H     1 <1>   0.0800 
 40 H       -2.0550    -3.6460    -1.2850 H     1 <1>   0.1500 
 41 H       -6.4760    -4.6520     0.5150 H     1 <1>   0.1500 
 42 H       -1.0410    -5.7950    -1.3960 H     1 <1>   0.1500 
 43 H       -3.9650    -8.8470     0.1290 H     1 <1>   0.1500 
 44 H       -7.5140    -6.7490     1.1770 H     1 <1>   0.1500 
 45 H       -6.2810    -8.8580     0.9960 H     1 <1>   0.1500 
@<TRIPOS>BOND
  1   1   2  2   
  2   2   3  am  
  3   2   4  1   
  4   3   5  1   
  5   3   6  1   
  6   4   7  1   
  7   4  24  1   
  8   4  25  1   
  9   5   8  1   
 10   5  26  1   
 11   5  27  1   
 12   6   9  1   
 13   6  28  1   
 14   6  29  1   
 15   7  10  1   
 16   7  11  1   
 17   7  30  1   
 18   8   9  1   
 19   8  12  1   
 20   8  31  1   
 21   9  13  1   
 22   9  32  1   
 23  10  11  1   
 24  10  33  1   
 25  10  34  1   
 26  11  35  1   
 27  11  36  1   
 28  12  37  1   
 29  13  14  1   
 30  13  38  1   
 31  13  39  1   
 32  14  15  ar  
 33  14  16  ar  
 34  15  17  ar  
 35  15  18  ar  
 36  16  19  ar  
 37  16  40  1   
 38  17  20  ar  
 39  17  21  ar  
 40  18  22  ar  
 41  18  41  1   
 42  19  20  ar  
 43  19  42  1   
 44  21  23  ar  
 45  21  43  1   
 46  22  23  ar  
 47  22  44  1   
 48  23  45  1   
@<TRIPOS>SUBSTRUCTURE
  1 ****   6 GROUP 4 **** **** 0

# MOE 2024.06 (io_trps.svl 2023.06)
