@<TRIPOS>MOLECULE
NONAME
45 47 1 0 0 
SMALL
USER_CHARGES


@<TRIPOS>ATOM
  1 O        1.2840    -0.9640     2.2450 O.2   1 <1>  -0.5700 
  2 C        1.7160    -1.2920     1.1550 C.2   1 <1>   0.6900 
  3 N        1.4050    -2.5410     0.6280 N.am  1 <1>  -0.4690 
  4 N        2.5120    -0.4210     0.4360 N.am  1 <1>  -0.4200 
  5 C        1.9890    -2.9910    -0.5740 C.2   1 <1>   0.1230 
  6 C        0.2980    -3.3160     1.2700 C.3   1 <1>   0.0600 
  7 C        2.9920    -0.7860    -0.8030 C.2   1 <1>   0.6160 
  8 C        2.8090     0.9360     0.9810 C.3   1 <1>   0.0600 
  9 C        1.8280    -4.3540    -1.0620 C.2   1 <1>   0.6160 
 10 C        2.7370    -2.0970    -1.2700 C.2   1 <1>  -0.1360 
 11 O        3.6350     0.0000    -1.4750 O.2   1 <1>  -0.5700 
 12 O        1.6510    -4.5700    -2.2440 O.2   1 <1>  -0.5700 
 13 N        1.9140    -5.4240    -0.2190 N.am  1 <1>  -0.7300 
 14 C        2.0190    -6.8440    -0.6370 C.3   1 <1>   0.2200 
 15 C        0.7300    -7.6080    -0.3680 C.3   1 <1>  -0.0800 
 16 C        2.9640    -7.5600     0.3170 C.3   1 <1>   0.1200 
 17 C        0.8630    -8.0010     1.1090 C.3   1 <1>   0.1200 
 18 C       -0.5760    -6.8730    -0.7180 C.3   1 <1>  -0.0170 
 19 O        2.2010    -7.7960     1.4610 O.3   1 <1>  -0.5600 
 20 C       -1.7790    -7.7810    -0.5170 C.ar  1 <1>  -0.1430 
 21 C       -2.5400    -7.7510     0.6350 C.ar  1 <1>  -0.1500 
 22 C       -2.1700    -8.6880    -1.4810 C.ar  1 <1>  -0.1500 
 23 C       -3.6210    -8.6080     0.7640 C.ar  1 <1>   0.1600 
 24 C       -3.2680    -9.5000    -1.2530 C.ar  1 <1>   0.1600 
 25 N       -4.0020    -9.4830    -0.1520 N.ar  1 <1>  -0.6200 
 26 H       -0.2760    -3.8340     0.5240 H     1 <1>   0.0800 
 27 H       -0.3720    -2.6560     1.7960 H     1 <1>   0.0800 
 28 H        0.7060    -4.0210     1.9720 H     1 <1>   0.0800 
 29 H        3.7470     1.3000     0.5980 H     1 <1>   0.0800 
 30 H        2.8740     0.9040     2.0550 H     1 <1>   0.0800 
 31 H        2.0260     1.6150     0.6960 H     1 <1>   0.0800 
 32 H        3.1820    -2.3530    -2.2130 H     1 <1>   0.1500 
 33 H        2.0980    -5.2730     0.7760 H     1 <1>   0.3700 
 34 H        2.3400    -6.9190    -1.6630 H     1 <1>   0.0800 
 35 H        0.7640    -8.5160    -0.9440 H     1 <1>   0.0800 
 36 H        3.8310    -6.9750     0.5700 H     1 <1>   0.0800 
 37 H        3.2660    -8.5120    -0.0830 H     1 <1>   0.0800 
 38 H        0.6130    -9.0360     1.2690 H     1 <1>   0.0800 
 39 H        0.2600    -7.3790     1.7460 H     1 <1>   0.0800 
 40 H       -0.5400    -6.5510    -1.7450 H     1 <1>   0.0800 
 41 H       -0.6890    -5.9970    -0.1090 H     1 <1>   0.0800 
 42 H       -2.3070    -7.0710     1.4330 H     1 <1>   0.1500 
 43 H       -1.6330    -8.7700    -2.4080 H     1 <1>   0.1500 
 44 H       -4.2030    -8.5710     1.6680 H     1 <1>   0.1500 
 45 H       -3.5580   -10.2010    -2.0170 H     1 <1>   0.1500 
@<TRIPOS>BOND
  1   1   2  2   
  2   2   3  am  
  3   2   4  am  
  4   3   5  1   
  5   3   6  1   
  6   4   7  am  
  7   4   8  1   
  8   5   9  1   
  9   5  10  2   
 10   6  26  1   
 11   6  27  1   
 12   6  28  1   
 13   7  10  1   
 14   7  11  2   
 15   8  29  1   
 16   8  30  1   
 17   8  31  1   
 18   9  12  2   
 19   9  13  am  
 20  10  32  1   
 21  13  14  1   
 22  13  33  1   
 23  14  15  1   
 24  14  16  1   
 25  14  34  1   
 26  15  17  1   
 27  15  18  1   
 28  15  35  1   
 29  16  19  1   
 30  16  36  1   
 31  16  37  1   
 32  17  19  1   
 33  17  38  1   
 34  17  39  1   
 35  18  20  1   
 36  18  40  1   
 37  18  41  1   
 38  20  21  ar  
 39  20  22  ar  
 40  21  23  ar  
 41  21  42  1   
 42  22  24  ar  
 43  22  43  1   
 44  23  25  ar  
 45  23  44  1   
 46  24  25  ar  
 47  24  45  1   
@<TRIPOS>SUBSTRUCTURE
  1 ****  13 GROUP 4 **** **** 0

# MOE 2024.06 (io_trps.svl 2023.06)
