@<TRIPOS>MOLECULE
NONAME
47 50 1 0 0 
SMALL
USER_CHARGES


@<TRIPOS>ATOM
  1 S       -0.7190     0.0700    -0.1470 S.3   1 <1>  -0.0800 
  2 C        0.4110     1.3830    -0.0350 C.2   1 <1>  -0.1400 
  3 C        0.6090    -0.9730    -0.6310 C.2   1 <1>   0.1980 
  4 C        1.6290     0.9430    -0.3660 C.2   1 <1>   0.0460 
  5 C        0.0030     2.7790     0.3760 C.3   1 <1>   0.0200 
  6 N        1.7430    -0.3960    -0.6970 N.2   1 <1>  -0.5650 
  7 C        0.2910    -2.4250    -0.9100 C.3   1 <1>   0.0200 
  8 C        2.8400     1.8530    -0.3800 C.3   1 <1>   0.0210 
  9 C        1.2750     3.5920     0.6910 C.3   1 <1>  -0.1600 
 10 C        0.1480    -3.1920     0.4030 C.3   1 <1>   0.1400 
 11 C        2.4080     3.3360    -0.3290 C.3   1 <1>  -0.1600 
 12 N       -0.0970    -4.6280     0.1310 N.am  1 <1>  -0.7300 
 13 C       -1.3160    -5.2360     0.0240 C.2   1 <1>   0.7160 
 14 O       -2.3200    -4.5510     0.1130 O.2   1 <1>  -0.5700 
 15 C       -1.3770    -6.6730    -0.2010 C.2   1 <1>   0.2030 
 16 N       -0.3310    -7.4760    -0.3130 N.2   1 <1>  -0.7070 
 17 C       -2.5500    -7.4090    -0.3300 C.2   1 <1>  -0.1500 
 18 N       -0.8370    -8.6980    -0.5090 N.pl3 1 <1>   0.3140 
 19 C       -2.1910    -8.7050    -0.5230 C.2   1 <1>  -0.2370 
 20 C        0.0610    -9.8510    -0.6600 C.3   1 <1>   0.0960 
 21 C       -3.0420    -9.8410    -0.7260 C.2   1 <1>   0.7150 
 22 C       -0.3100   -10.9200     0.3650 C.3   1 <1>   0.2000 
 23 O       -4.2140    -9.6770    -0.9810 O.2   1 <1>  -0.5700 
 24 N       -2.6480   -11.1390    -0.6650 N.am  1 <1>  -0.7300 
 25 O        0.8040   -11.7200     0.5910 O.3   1 <1>  -0.6800 
 26 C       -1.4630   -11.8300    -0.0840 C.3   1 <1>   0.1400 
 27 H       -0.6340     2.7400     1.2420 H     1 <1>   0.0800 
 28 H       -0.5410     3.2350    -0.4330 H     1 <1>   0.0800 
 29 H        1.0920    -2.8460    -1.4890 H     1 <1>   0.0800 
 30 H       -0.6220    -2.4870    -1.4740 H     1 <1>   0.0800 
 31 H        3.4130     1.6720    -1.2720 H     1 <1>   0.0800 
 32 H        3.4530     1.6150     0.4700 H     1 <1>   0.0800 
 33 H        1.6270     3.3150     1.6700 H     1 <1>   0.0800 
 34 H        1.0320     4.6400     0.7140 H     1 <1>   0.0800 
 35 H       -0.6740    -2.7870     0.9710 H     1 <1>   0.0800 
 36 H        1.0460    -3.0880     0.9880 H     1 <1>   0.0800 
 37 H        2.0610     3.6260    -1.3060 H     1 <1>   0.0800 
 38 H        3.2610     3.9460    -0.0900 H     1 <1>   0.0800 
 39 H        0.7140    -5.2460     0.0360 H     1 <1>   0.3700 
 40 H       -3.5460    -7.0020    -0.2850 H     1 <1>   0.1500 
 41 H        1.0650    -9.5100    -0.4840 H     1 <1>   0.0800 
 42 H       -0.0220   -10.2260    -1.6630 H     1 <1>   0.0800 
 43 H       -0.5490   -10.4580     1.3090 H     1 <1>   0.0800 
 44 H       -3.4270   -11.7670    -0.8820 H     1 <1>   0.3700 
 45 H        1.1230   -12.1430    -0.2300 H     1 <1>   0.4000 
 46 H       -1.7900   -12.4070     0.7640 H     1 <1>   0.0800 
 47 H       -1.0940   -12.5140    -0.8280 H     1 <1>   0.0800 
@<TRIPOS>BOND
  1   1   2  1   
  2   1   3  1   
  3   2   4  2   
  4   2   5  1   
  5   3   6  2   
  6   3   7  1   
  7   4   6  1   
  8   4   8  1   
  9   5   9  1   
 10   5  27  1   
 11   5  28  1   
 12   7  10  1   
 13   7  29  1   
 14   7  30  1   
 15   8  11  1   
 16   8  31  1   
 17   8  32  1   
 18   9  11  1   
 19   9  33  1   
 20   9  34  1   
 21  10  12  1   
 22  10  35  1   
 23  10  36  1   
 24  11  37  1   
 25  11  38  1   
 26  12  13  am  
 27  12  39  1   
 28  13  14  2   
 29  13  15  1   
 30  15  16  2   
 31  15  17  1   
 32  16  18  1   
 33  17  19  2   
 34  17  40  1   
 35  18  19  1   
 36  18  20  1   
 37  19  21  1   
 38  20  22  1   
 39  20  41  1   
 40  20  42  1   
 41  21  23  2   
 42  21  24  am  
 43  22  25  1   
 44  22  26  1   
 45  22  43  1   
 46  24  26  1   
 47  24  44  1   
 48  25  45  1   
 49  26  46  1   
 50  26  47  1   
@<TRIPOS>SUBSTRUCTURE
  1 ****  12 GROUP 4 **** **** 0

# MOE 2024.06 (io_trps.svl 2023.06)
