@<TRIPOS>MOLECULE
NONAME
53 56 1 0 0 
SMALL
USER_CHARGES


@<TRIPOS>ATOM
  1 O       -0.9680     0.7850    -2.7880 O.2   1 <1>  -0.5700 
  2 C       -1.7530     1.2660    -1.9930 C.2   1 <1>   0.5440 
  3 N       -2.9380     0.6040    -1.7430 N.am  1 <1>  -0.6600 
  4 C       -1.4110     2.5110    -1.3420 C.ar  1 <1>   0.0860 
  5 C       -3.9770     1.0670    -0.7720 C.3   1 <1>   0.1400 
  6 C       -3.2300    -0.7550    -2.2900 C.3   1 <1>   0.1400 
  7 C       -1.1650     2.6210     0.0360 C.ar  1 <1>   0.0830 
  8 C       -1.3350     3.6770    -2.1060 C.ar  1 <1>  -0.1500 
  9 C       -4.1650     0.0280     0.3490 C.3   1 <1>   0.1900 
 10 C       -3.4690    -1.7600    -1.1500 C.3   1 <1>   0.1100 
 11 O       -1.1840     1.5630     0.8750 O.3   1 <1>  -0.3630 
 12 C       -0.9070     3.8560     0.6100 C.ar  1 <1>  -0.1500 
 13 C       -1.0620     4.9040    -1.5320 C.ar  1 <1>  -0.1500 
 14 N       -4.5260    -1.2960    -0.2200 N.3   1 <1>  -0.8100 
 15 C       -5.2340     0.5020     1.3520 C.3   1 <1>   0.1200 
 16 C       -0.3210     0.4730     0.6330 C.3   1 <1>   0.1200 
 17 C       -0.8540     4.9970    -0.1670 C.ar  1 <1>  -0.1500 
 18 C       -4.7640    -2.2640     0.8760 C.3   1 <1>   0.3330 
 19 O       -5.4160    -0.4480     2.3640 O.3   1 <1>  -0.5600 
 20 C       -0.1900    -0.3170     1.9310 C.3   1 <1>  -0.2400 
 21 C       -5.2590    -3.6040     0.3320 C.ar  1 <1>  -0.1430 
 22 C       -5.7980    -1.7070     1.8780 C.3   1 <1>   0.1200 
 23 C       -4.6950    -4.7890     0.7840 C.ar  1 <1>  -0.1500 
 24 C       -6.2770    -3.6580    -0.6100 C.ar  1 <1>  -0.1500 
 25 C       -5.1420    -6.0070     0.3020 C.ar  1 <1>  -0.1500 
 26 C       -6.7260    -4.8750    -1.0930 C.ar  1 <1>  -0.1500 
 27 C       -6.1580    -6.0510    -0.6360 C.ar  1 <1>  -0.1500 
 28 H       -3.7100     2.0140    -0.3420 H     1 <1>   0.0800 
 29 H       -4.9090     1.1950    -1.2940 H     1 <1>   0.0800 
 30 H       -4.1100    -0.7050    -2.9060 H     1 <1>   0.0800 
 31 H       -2.4180    -1.1030    -2.9040 H     1 <1>   0.0800 
 32 H       -1.4970     3.6070    -3.1680 H     1 <1>   0.1500 
 33 H       -3.2340    -0.0540     0.8840 H     1 <1>   0.0800 
 34 H       -2.5470    -1.9080    -0.6140 H     1 <1>   0.0800 
 35 H       -3.7550    -2.7020    -1.5850 H     1 <1>   0.0800 
 36 H       -0.7410     3.9160     1.6710 H     1 <1>   0.1500 
 37 H       -1.0130     5.7880    -2.1450 H     1 <1>   0.1500 
 38 H       -6.1760     0.6620     0.8560 H     1 <1>   0.0800 
 39 H       -4.9240     1.4190     1.8200 H     1 <1>   0.0800 
 40 H       -0.7430    -0.1470    -0.1380 H     1 <1>   0.0800 
 41 H        0.6350     0.8530     0.3140 H     1 <1>   0.0800 
 42 H       -0.6470     5.9520     0.2850 H     1 <1>   0.1500 
 43 H       -3.8420    -2.4220     1.4090 H     1 <1>   0.0800 
 44 H       -1.1530    -0.6790     2.2430 H     1 <1>   0.0800 
 45 H        0.2280     0.3060     2.7010 H     1 <1>   0.0800 
 46 H        0.4610    -1.1580     1.7780 H     1 <1>   0.0800 
 47 H       -5.8880    -2.3710     2.7190 H     1 <1>   0.0800 
 48 H       -6.7610    -1.6160     1.4080 H     1 <1>   0.0800 
 49 H       -3.9060    -4.7710     1.5140 H     1 <1>   0.1500 
 50 H       -6.7170    -2.7450    -0.9720 H     1 <1>   0.1500 
 51 H       -4.7010    -6.9220     0.6570 H     1 <1>   0.1500 
 52 H       -7.5150    -4.9060    -1.8240 H     1 <1>   0.1500 
 53 H       -6.5060    -6.9980    -1.0110 H     1 <1>   0.1500 
@<TRIPOS>BOND
  1   1   2  2   
  2   2   3  am  
  3   2   4  1   
  4   3   5  1   
  5   3   6  1   
  6   4   7  ar  
  7   4   8  ar  
  8   5   9  1   
  9   5  28  1   
 10   5  29  1   
 11   6  10  1   
 12   6  30  1   
 13   6  31  1   
 14   7  11  1   
 15   7  12  ar  
 16   8  13  ar  
 17   8  32  1   
 18   9  14  1   
 19   9  15  1   
 20   9  33  1   
 21  10  14  1   
 22  10  34  1   
 23  10  35  1   
 24  11  16  1   
 25  12  17  ar  
 26  12  36  1   
 27  13  17  ar  
 28  13  37  1   
 29  14  18  1   
 30  15  19  1   
 31  15  38  1   
 32  15  39  1   
 33  16  20  1   
 34  16  40  1   
 35  16  41  1   
 36  17  42  1   
 37  18  21  1   
 38  18  22  1   
 39  18  43  1   
 40  19  22  1   
 41  20  44  1   
 42  20  45  1   
 43  20  46  1   
 44  21  23  ar  
 45  21  24  ar  
 46  22  47  1   
 47  22  48  1   
 48  23  25  ar  
 49  23  49  1   
 50  24  26  ar  
 51  24  50  1   
 52  25  27  ar  
 53  25  51  1   
 54  26  27  ar  
 55  26  52  1   
 56  27  53  1   
@<TRIPOS>SUBSTRUCTURE
  1 ****   9 GROUP 4 **** **** 0

# MOE 2024.06 (io_trps.svl 2023.06)
