@<TRIPOS>MOLECULE
NONAME
54 55 1 0 0 
SMALL
USER_CHARGES


@<TRIPOS>ATOM
  1 O        4.6900    -1.1840    -0.5660 O.2   1 <1>  -0.5700 
  2 C        3.4800    -1.3270    -0.5800 C.2   1 <1>   0.5440 
  3 N        2.7720    -0.4460    -1.3640 N.am  1 <1>  -0.6600 
  4 C        2.8270    -2.3130     0.2620 C.ar  1 <1>   0.0860 
  5 C        3.3060    -0.0460    -2.7070 C.3   1 <1>   0.1400 
  6 C        1.8190     0.5050    -0.7370 C.3   1 <1>   0.1400 
  7 C        1.5550    -2.8040     0.0040 C.ar  1 <1>  -0.1500 
  8 C        3.4360    -2.8390     1.3920 C.ar  1 <1>  -0.1500 
  9 C        4.1570     1.2430    -2.6690 C.3   1 <1>   0.3430 
 10 C        2.5780     1.4910     0.1650 C.3   1 <1>  -0.1600 
 11 C        0.9730    -3.7280     0.8520 C.ar  1 <1>   0.1670 
 12 C        2.7770    -3.7620     2.1810 C.ar  1 <1>   0.1660 
 13 N        4.6210     1.5490    -1.2820 N.4   1 <1>  -0.9590 
 14 C        3.6260     2.3680    -0.5340 C.3   1 <1>   0.3430 
 15 N        1.5590    -4.2050     1.9330 N.ar  1 <1>  -0.6200 
 16 C       -0.4160    -4.2600     0.5710 C.3   1 <1>  -0.0970 
 17 C        3.4440    -4.3310     3.4150 C.3   1 <1>  -0.0970 
 18 C        6.0010     2.1180    -1.2630 C.3   1 <1>   0.3430 
 19 C        6.6850     1.8900     0.0890 C.3   1 <1>   0.1200 
 20 O        7.9140     2.5320     0.0490 O.3   1 <1>  -0.5600 
 21 C        8.6810     2.3580     1.2040 C.3   1 <1>   0.1200 
 22 C       10.0020     3.1030     1.0370 C.3   1 <1>   0.1200 
 23 O       10.7420     2.9320     2.2030 O.3   1 <1>  -0.5600 
 24 C       11.9810     3.5630     2.1790 C.3   1 <1>   0.0400 
 25 H        2.4920     0.0750    -3.4010 H     1 <1>   0.0800 
 26 H        3.9220    -0.8460    -3.0830 H     1 <1>   0.0800 
 27 H        1.1050    -0.0420    -0.1440 H     1 <1>   0.0800 
 28 H        1.2720     1.0350    -1.4990 H     1 <1>   0.0800 
 29 H        1.0200    -2.4670    -0.8640 H     1 <1>   0.1500 
 30 H        4.4310    -2.5240     1.6500 H     1 <1>   0.1500 
 31 H        3.5820     2.0680    -3.0540 H     1 <1>   0.0800 
 32 H        5.0040     1.1040    -3.3210 H     1 <1>   0.0800 
 33 H        3.0450     0.9550     0.9720 H     1 <1>   0.0800 
 34 H        1.8550     2.1460     0.6180 H     1 <1>   0.0800 
 35 H        4.6640     0.6070    -0.8300 H     1 <1>   0.4500 
 36 H        4.1300     2.9540     0.2180 H     1 <1>   0.0800 
 37 H        3.1390     3.0530    -1.2090 H     1 <1>   0.0800 
 38 H       -0.8270    -3.8310    -0.3240 H     1 <1>   0.0800 
 39 H       -1.0620    -4.0290     1.3980 H     1 <1>   0.0800 
 40 H       -0.3730    -5.3280     0.4570 H     1 <1>   0.0800 
 41 H        4.4280    -3.9230     3.5520 H     1 <1>   0.0800 
 42 H        3.5210    -5.3990     3.3180 H     1 <1>   0.0800 
 43 H        2.8490    -4.1070     4.2810 H     1 <1>   0.0800 
 44 H        5.9670     3.1740    -1.4720 H     1 <1>   0.0800 
 45 H        6.6000     1.6370    -2.0180 H     1 <1>   0.0800 
 46 H        6.8490     0.8370     0.2530 H     1 <1>   0.0800 
 47 H        6.1100     2.3130     0.8940 H     1 <1>   0.0800 
 48 H        8.8700     1.3080     1.3430 H     1 <1>   0.0800 
 49 H        8.1410     2.7580     2.0450 H     1 <1>   0.0800 
 50 H        9.8230     4.1540     0.8920 H     1 <1>   0.0800 
 51 H       10.5590     2.6940     0.2110 H     1 <1>   0.0800 
 52 H       12.4720     3.3730     3.1180 H     1 <1>   0.0800 
 53 H       11.8390     4.6230     2.0530 H     1 <1>   0.0800 
 54 H       12.5710     3.1600     1.3740 H     1 <1>   0.0800 
@<TRIPOS>BOND
  1   1   2  2   
  2   2   3  am  
  3   2   4  1   
  4   3   5  1   
  5   3   6  1   
  6   4   7  ar  
  7   4   8  ar  
  8   5   9  1   
  9   5  25  1   
 10   5  26  1   
 11   6  10  1   
 12   6  27  1   
 13   6  28  1   
 14   7  11  ar  
 15   7  29  1   
 16   8  12  ar  
 17   8  30  1   
 18   9  13  1   
 19   9  31  1   
 20   9  32  1   
 21  10  14  1   
 22  10  33  1   
 23  10  34  1   
 24  11  15  ar  
 25  11  16  1   
 26  12  15  ar  
 27  12  17  1   
 28  13  14  1   
 29  13  18  1   
 30  13  35  1   
 31  14  36  1   
 32  14  37  1   
 33  16  38  1   
 34  16  39  1   
 35  16  40  1   
 36  17  41  1   
 37  17  42  1   
 38  17  43  1   
 39  18  19  1   
 40  18  44  1   
 41  18  45  1   
 42  19  20  1   
 43  19  46  1   
 44  19  47  1   
 45  20  21  1   
 46  21  22  1   
 47  21  48  1   
 48  21  49  1   
 49  22  23  1   
 50  22  50  1   
 51  22  51  1   
 52  23  24  1   
 53  24  52  1   
 54  24  53  1   
 55  24  54  1   
@<TRIPOS>SUBSTRUCTURE
  1 ****   1 GROUP 4 **** **** 0

# MOE 2024.06 (io_trps.svl 2023.06)
