@<TRIPOS>MOLECULE
NONAME
54 56 1 0 0 
SMALL
USER_CHARGES


@<TRIPOS>ATOM
  1 O       -0.2050     0.1290     0.2520 O.3   1 <1>  -0.6800 
  2 C        0.8410    -0.2480    -0.5810 C.3   1 <1>   0.2000 
  3 C        1.4100    -1.5640    -0.0500 C.3   1 <1>  -0.0800 
  4 C        1.9910     0.7560    -0.3930 C.3   1 <1>   0.3430 
  5 C        2.2390    -1.0610     1.1340 C.3   1 <1>   0.3430 
  6 C        2.2440    -2.2920    -1.1390 C.3   1 <1>   0.0210 
  7 N        2.9240     0.1360     0.5990 N.4   1 <1>  -0.9590 
  8 C        3.6560    -2.6680    -0.7190 C.2   1 <1>   0.1080 
  9 C        3.4440     1.0710     1.6200 C.3   1 <1>   0.4860 
 10 N        4.6290    -1.8070    -0.6410 N.2   1 <1>  -0.7070 
 11 C        4.0630    -3.9550    -0.3880 C.2   1 <1>  -0.1500 
 12 C        4.1260     2.2270     0.9140 C.ar  1 <1>  -0.1430 
 13 N        5.7050    -2.5470    -0.2830 N.pl3 1 <1>   0.3000 
 14 C        5.3790    -3.8440    -0.1120 C.2   1 <1>  -0.3320 
 15 C        3.5960     3.5060     1.0040 C.ar  1 <1>  -0.1500 
 16 C        5.2750     2.0180     0.1640 C.ar  1 <1>  -0.1500 
 17 C        6.3650    -4.9230     0.2980 C.3   1 <1>  -0.0600 
 18 C        4.2060     4.5600     0.3480 C.ar  1 <1>  -0.1500 
 19 C        5.8810     3.0750    -0.4900 C.ar  1 <1>  -0.1500 
 20 C        5.3510     4.3520    -0.4030 C.ar  1 <1>  -0.1430 
 21 C        6.0170     5.5190    -1.1230 C.3   1 <1>  -0.0170 
 22 C        6.8200     6.4210    -0.1670 C.3   1 <1>  -0.0800 
 23 C        7.3730     7.6360    -0.9210 C.3   1 <1>  -0.2400 
 24 C        7.9740     5.6610     0.5030 C.3   1 <1>  -0.2400 
 25 H       -1.0310    -0.3500     0.0300 H     1 <1>   0.4000 
 26 H        0.4790    -0.2840    -1.5960 H     1 <1>   0.0800 
 27 H        0.6330    -2.2240     0.2940 H     1 <1>   0.0800 
 28 H        1.6040     1.6980    -0.0410 H     1 <1>   0.0800 
 29 H        2.5130     0.9120    -1.3230 H     1 <1>   0.0800 
 30 H        2.9410    -1.8010     1.4840 H     1 <1>   0.0800 
 31 H        1.5770    -0.7770     1.9370 H     1 <1>   0.0800 
 32 H        2.3330    -1.6840    -2.0230 H     1 <1>   0.0800 
 33 H        1.7250    -3.1860    -1.4370 H     1 <1>   0.0800 
 34 H        3.7330    -0.2450     0.0630 H     1 <1>   0.4500 
 35 H        2.6340     1.4410     2.2270 H     1 <1>   0.0800 
 36 H        4.1530     0.5690     2.2570 H     1 <1>   0.0800 
 37 H        3.4490    -4.8390    -0.3720 H     1 <1>   0.1500 
 38 H        6.6490    -2.1520    -0.1780 H     1 <1>   0.2700 
 39 H        2.7090     3.6980     1.5820 H     1 <1>   0.1500 
 40 H        5.7090     1.0370     0.0800 H     1 <1>   0.1500 
 41 H        5.8680    -5.8750     0.3620 H     1 <1>   0.0800 
 42 H        6.7920    -4.6960     1.2590 H     1 <1>   0.0800 
 43 H        7.1560    -5.0020    -0.4270 H     1 <1>   0.0800 
 44 H        3.7890     5.5500     0.4240 H     1 <1>   0.1500 
 45 H        6.7730     2.9030    -1.0680 H     1 <1>   0.1500 
 46 H        6.6650     5.1480    -1.8970 H     1 <1>   0.0800 
 47 H        5.2520     6.1040    -1.6040 H     1 <1>   0.0800 
 48 H        6.1570     6.7770     0.6040 H     1 <1>   0.0800 
 49 H        8.0480     7.3260    -1.7000 H     1 <1>   0.0800 
 50 H        7.9040     8.2840    -0.2460 H     1 <1>   0.0800 
 51 H        6.5720     8.2000    -1.3650 H     1 <1>   0.0800 
 52 H        8.6450     5.2610    -0.2370 H     1 <1>   0.0800 
 53 H        7.5950     4.8500     1.0990 H     1 <1>   0.0800 
 54 H        8.5270     6.3180     1.1500 H     1 <1>   0.0800 
@<TRIPOS>BOND
  1   1   2  1   
  2   1  25  1   
  3   2   3  1   
  4   2   4  1   
  5   2  26  1   
  6   3   5  1   
  7   3   6  1   
  8   3  27  1   
  9   4   7  1   
 10   4  28  1   
 11   4  29  1   
 12   5   7  1   
 13   5  30  1   
 14   5  31  1   
 15   6   8  1   
 16   6  32  1   
 17   6  33  1   
 18   7   9  1   
 19   7  34  1   
 20   8  10  2   
 21   8  11  1   
 22   9  12  1   
 23   9  35  1   
 24   9  36  1   
 25  10  13  1   
 26  11  14  2   
 27  11  37  1   
 28  12  15  ar  
 29  12  16  ar  
 30  13  14  1   
 31  13  38  1   
 32  14  17  1   
 33  15  18  ar  
 34  15  39  1   
 35  16  19  ar  
 36  16  40  1   
 37  17  41  1   
 38  17  42  1   
 39  17  43  1   
 40  18  20  ar  
 41  18  44  1   
 42  19  20  ar  
 43  19  45  1   
 44  20  21  1   
 45  21  22  1   
 46  21  46  1   
 47  21  47  1   
 48  22  23  1   
 49  22  24  1   
 50  22  48  1   
 51  23  49  1   
 52  23  50  1   
 53  23  51  1   
 54  24  52  1   
 55  24  53  1   
 56  24  54  1   
@<TRIPOS>SUBSTRUCTURE
  1 ****  16 GROUP 4 **** **** 0

# MOE 2024.06 (io_trps.svl 2023.06)
