@<TRIPOS>MOLECULE
NONAME
46 48 1 0 0 
SMALL
USER_CHARGES


@<TRIPOS>ATOM
  1 O       -1.2330    -1.9190    -1.7870 O.2   1 <1>  -0.5700 
  2 C       -0.3730    -2.4180    -1.1010 C.2   1 <1>   0.5690 
  3 N       -0.5990    -3.4720    -0.2580 N.am  1 <1>  -0.6600 
  4 C        1.0330    -1.8550    -1.1580 C.3   1 <1>  -0.0990 
  5 C        0.5010    -4.0140     0.5780 C.3   1 <1>   0.1400 
  6 C       -1.9410    -4.0900    -0.0880 C.3   1 <1>   0.0600 
  7 C        2.0670    -2.9930    -1.2340 C.3   1 <1>  -0.0800 
  8 C        1.7870    -4.1570    -0.2590 C.3   1 <1>  -0.0800 
  9 C        3.5010    -2.5280    -0.9490 C.3   1 <1>  -0.1600 
 10 C        3.0480    -4.2850     0.6040 C.3   1 <1>  -0.1600 
 11 C        4.1750    -3.7120    -0.2600 C.3   1 <1>   0.2200 
 12 N        5.3960    -3.2810     0.4930 N.am  1 <1>  -0.6600 
 13 C        6.4460    -2.7050    -0.1950 C.2   1 <1>   0.6160 
 14 C        5.6120    -3.8480     1.8600 C.3   1 <1>   0.0600 
 15 O        6.5380    -2.8890    -1.3950 O.2   1 <1>  -0.5700 
 16 C        7.4450    -1.8950     0.4790 C.2   1 <1>   0.0140 
 17 C        7.1530    -1.0620     1.5270 C.2   1 <1>  -0.1360 
 18 C        8.8060    -1.9340     0.0460 C.2   1 <1>  -0.1500 
 19 C        8.1490    -0.2930     2.1740 C.2   1 <1>   0.6160 
 20 C        9.7690    -1.1940     0.6580 C.2   1 <1>  -0.0290 
 21 O        7.9180     0.4400     3.1220 O.2   1 <1>  -0.5700 
 22 N        9.4300    -0.3880     1.7170 N.am  1 <1>  -0.5390 
 23 C       11.2240    -1.1990     0.2370 C.3   1 <1>  -0.1020 
 24 H        1.1300    -1.2110    -2.0130 H     1 <1>   0.0800 
 25 H        1.1840    -1.2650    -0.2730 H     1 <1>   0.0800 
 26 H        0.6640    -3.3340     1.3980 H     1 <1>   0.0800 
 27 H        0.2240    -4.9720     0.9830 H     1 <1>   0.0800 
 28 H       -1.8980    -5.1310    -0.3560 H     1 <1>   0.0800 
 29 H       -2.6640    -3.6020    -0.7190 H     1 <1>   0.0800 
 30 H       -2.2590    -3.9960     0.9360 H     1 <1>   0.0800 
 31 H        2.0350    -3.3980    -2.2330 H     1 <1>   0.0800 
 32 H        1.6930    -5.0550    -0.8460 H     1 <1>   0.0800 
 33 H        3.4940    -1.6870    -0.2780 H     1 <1>   0.0800 
 34 H        4.0080    -2.2570    -1.8590 H     1 <1>   0.0800 
 35 H        3.2330    -5.3090     0.8750 H     1 <1>   0.0800 
 36 H        2.9320    -3.6820     1.4870 H     1 <1>   0.0800 
 37 H        4.4560    -4.4410    -1.0040 H     1 <1>   0.0800 
 38 H        4.9780    -3.3470     2.5700 H     1 <1>   0.0800 
 39 H        6.6360    -3.7290     2.1680 H     1 <1>   0.0800 
 40 H        5.3900    -4.9010     1.8610 H     1 <1>   0.0800 
 41 H        6.1540    -0.9540     1.9020 H     1 <1>   0.1500 
 42 H        9.0390    -2.5720    -0.7900 H     1 <1>   0.1500 
 43 H       10.1100     0.1900     2.2110 H     1 <1>   0.3700 
 44 H       11.8420    -1.5310     1.0510 H     1 <1>   0.0800 
 45 H       11.5260    -0.2090    -0.0530 H     1 <1>   0.0800 
 46 H       11.3740    -1.8600    -0.5980 H     1 <1>   0.0800 
@<TRIPOS>BOND
  1   1   2  2   
  2   2   3  am  
  3   2   4  1   
  4   3   5  1   
  5   3   6  1   
  6   4   7  1   
  7   4  24  1   
  8   4  25  1   
  9   5   8  1   
 10   5  26  1   
 11   5  27  1   
 12   6  28  1   
 13   6  29  1   
 14   6  30  1   
 15   7   8  1   
 16   7   9  1   
 17   7  31  1   
 18   8  10  1   
 19   8  32  1   
 20   9  11  1   
 21   9  33  1   
 22   9  34  1   
 23  10  11  1   
 24  10  35  1   
 25  10  36  1   
 26  11  12  1   
 27  11  37  1   
 28  12  13  am  
 29  12  14  1   
 30  13  15  2   
 31  13  16  1   
 32  14  38  1   
 33  14  39  1   
 34  14  40  1   
 35  16  17  2   
 36  16  18  1   
 37  17  19  1   
 38  17  41  1   
 39  18  20  2   
 40  18  42  1   
 41  19  21  2   
 42  19  22  am  
 43  20  22  1   
 44  20  23  1   
 45  22  43  1   
 46  23  44  1   
 47  23  45  1   
 48  23  46  1   
@<TRIPOS>SUBSTRUCTURE
  1 ****  12 GROUP 4 **** **** 0

# MOE 2024.06 (io_trps.svl 2023.06)
