@<TRIPOS>MOLECULE
NONAME
49 51 1 0 0 
SMALL
USER_CHARGES


@<TRIPOS>ATOM
  1 S       -0.7630     0.3330    -1.5420 S.o2  1 <1>   1.4470 
  2 O       -2.0370    -0.3580    -1.6000 O.2   1 <1>  -0.6500 
  3 O       -0.2390     0.9380    -2.7460 O.2   1 <1>  -0.6500 
  4 N       -0.9400     1.5720    -0.3950 N.am  1 <1>  -0.8490 
  5 C        0.5060    -0.7310    -0.8030 C.ar  1 <1>  -0.0090 
  6 C       -1.3930     1.0990     0.9280 C.3   1 <1>   0.1960 
  7 C       -1.6490     2.7520    -0.9070 C.3   1 <1>   0.1960 
  8 C        1.7840    -0.2440    -0.5610 C.ar  1 <1>  -0.1500 
  9 C        0.2340    -2.0490    -0.4450 C.ar  1 <1>  -0.1500 
 10 C       -2.5060     1.9620     1.5320 C.3   1 <1>  -0.1600 
 11 C       -3.1600     2.5220    -0.8680 C.3   1 <1>  -0.1600 
 12 C        2.7340    -1.0620     0.0180 C.ar  1 <1>   0.1900 
 13 C        1.1960    -2.8620     0.1360 C.ar  1 <1>  -0.1500 
 14 C       -3.6760     2.2000     0.5540 C.3   1 <1>   0.2800 
 15 F        3.9230    -0.5650     0.2330 F     1 <1>  -0.1900 
 16 C        2.4700    -2.3740     0.3780 C.ar  1 <1>  -0.1430 
 17 O       -4.2800     3.3900     1.0110 O.3   1 <1>  -0.5600 
 18 C       -4.6900     1.0110     0.5930 C.3   1 <1>   0.2000 
 19 C        3.5360    -3.2540     1.0150 C.3   1 <1>  -0.0970 
 20 C       -5.6740     3.4570     1.1750 C.3   1 <1>   0.1200 
 21 O       -4.1440    -0.2220     0.1970 O.3   1 <1>  -0.6800 
 22 C       -6.0360     1.3220    -0.1280 C.3   1 <1>   0.2800 
 23 C       -6.3810     2.8150    -0.0210 C.3   1 <1>  -0.1600 
 24 O       -7.0140     0.6280     0.5540 O.3   1 <1>  -0.6800 
 25 C       -6.1560     0.8450    -1.5830 C.3   1 <1>  -0.2400 
 26 H       -1.7410     0.0820     0.8660 H     1 <1>   0.0800 
 27 H       -0.5480     1.0970     1.5970 H     1 <1>   0.0800 
 28 H       -1.4000     3.6060    -0.3000 H     1 <1>   0.0800 
 29 H       -1.3320     2.9760    -1.9130 H     1 <1>   0.0800 
 30 H        2.0390     0.7680    -0.8230 H     1 <1>   0.1500 
 31 H       -0.7510    -2.4500    -0.6230 H     1 <1>   0.1500 
 32 H       -2.0760     2.9050     1.8200 H     1 <1>   0.0800 
 33 H       -2.8660     1.4910     2.4290 H     1 <1>   0.0800 
 34 H       -3.3880     1.7290    -1.5480 H     1 <1>   0.0800 
 35 H       -3.6490     3.4010    -1.2490 H     1 <1>   0.0800 
 36 H        0.9450    -3.8770     0.3960 H     1 <1>   0.1500 
 37 H       -4.9280     0.8770     1.6340 H     1 <1>   0.0800 
 38 H        3.1530    -4.2360     1.2250 H     1 <1>   0.0800 
 39 H        3.8720    -2.8120     1.9360 H     1 <1>   0.0800 
 40 H        4.3760    -3.3480     0.3500 H     1 <1>   0.0800 
 41 H       -5.9370     2.9570     2.0930 H     1 <1>   0.0800 
 42 H       -5.9410     4.4960     1.2610 H     1 <1>   0.0800 
 43 H       -3.6000    -0.1420    -0.6260 H     1 <1>   0.4000 
 44 H       -6.0670     3.3380    -0.9050 H     1 <1>   0.0800 
 45 H       -7.4460     2.9460     0.0650 H     1 <1>   0.0800 
 46 H       -6.7680    -0.3180     0.5520 H     1 <1>   0.4000 
 47 H       -5.4680     1.3670    -2.2180 H     1 <1>   0.0800 
 48 H       -7.1490     1.0360    -1.9500 H     1 <1>   0.0800 
 49 H       -5.9550    -0.2090    -1.6630 H     1 <1>   0.0800 
@<TRIPOS>BOND
  1   1   2  2   
  2   1   3  2   
  3   1   4  am  
  4   1   5  1   
  5   4   6  1   
  6   4   7  1   
  7   5   8  ar  
  8   5   9  ar  
  9   6  10  1   
 10   6  26  1   
 11   6  27  1   
 12   7  11  1   
 13   7  28  1   
 14   7  29  1   
 15   8  12  ar  
 16   8  30  1   
 17   9  13  ar  
 18   9  31  1   
 19  10  14  1   
 20  10  32  1   
 21  10  33  1   
 22  11  14  1   
 23  11  34  1   
 24  11  35  1   
 25  12  15  1   
 26  12  16  ar  
 27  13  16  ar  
 28  13  36  1   
 29  14  17  1   
 30  14  18  1   
 31  16  19  1   
 32  17  20  1   
 33  18  21  1   
 34  18  22  1   
 35  18  37  1   
 36  19  38  1   
 37  19  39  1   
 38  19  40  1   
 39  20  23  1   
 40  20  41  1   
 41  20  42  1   
 42  21  43  1   
 43  22  23  1   
 44  22  24  1   
 45  22  25  1   
 46  23  44  1   
 47  23  45  1   
 48  24  46  1   
 49  25  47  1   
 50  25  48  1   
 51  25  49  1   
@<TRIPOS>SUBSTRUCTURE
  1 ****   6 GROUP 4 **** **** 0

# MOE 2024.06 (io_trps.svl 2023.06)
