@<TRIPOS>MOLECULE
NONAME
49 50 1 0 0 
SMALL
USER_CHARGES


@<TRIPOS>ATOM
  1 S       -0.1050     0.3040     0.2180 S.o2  1 <1>   1.3330 
  2 O        0.8180     1.3990     0.0650 O.2   1 <1>  -0.6500 
  3 O       -0.1960    -0.3980     1.4740 O.2   1 <1>  -0.6500 
  4 N       -1.6120     0.9630    -0.1000 N.am  1 <1>  -0.9140 
  5 C        0.1240    -0.8490    -1.1180 C.3   1 <1>  -0.1350 
  6 C       -2.7350     0.1890     0.4170 C.3   1 <1>   0.1960 
  7 C       -4.0410     0.8660     0.0020 C.3   1 <1>  -0.0990 
  8 C       -5.2640     0.0970     0.4760 C.2   1 <1>   0.5690 
  9 O       -5.1050    -1.0290     0.8860 O.2   1 <1>  -0.5700 
 10 N       -6.5040     0.6820     0.4290 N.am  1 <1>  -0.6600 
 11 C       -7.6910    -0.0330     0.9890 C.3   1 <1>   0.1400 
 12 C       -6.7640     2.0320    -0.1580 C.3   1 <1>   0.1400 
 13 C       -8.6630     0.9690     1.6180 C.3   1 <1>  -0.1600 
 14 C       -8.2240     2.1580    -0.5950 C.3   1 <1>  -0.1600 
 15 C       -9.1920     2.0080     0.6000 C.3   1 <1>   0.2800 
 16 O       -9.1420     3.2530     1.2670 O.3   1 <1>  -0.5600 
 17 C      -10.6480     1.6540     0.1570 C.3   1 <1>   0.2000 
 18 C      -10.3130     4.0030     1.4250 C.3   1 <1>   0.1200 
 19 O      -10.7040     0.4790    -0.6030 O.3   1 <1>  -0.6800 
 20 C      -11.3980     2.8280    -0.5400 C.3   1 <1>   0.2800 
 21 C      -10.9800     4.1830     0.0590 C.3   1 <1>  -0.1600 
 22 O      -12.7430     2.6540    -0.2710 O.3   1 <1>  -0.6800 
 23 C      -11.3000     2.8620    -2.0730 C.3   1 <1>  -0.2400 
 24 H       -1.5840     1.8540     0.3940 H     1 <1>   0.4200 
 25 H        0.0620    -0.3390    -2.0590 H     1 <1>   0.0800 
 26 H       -0.6290    -1.6120    -1.0850 H     1 <1>   0.0800 
 27 H        1.0880    -1.3130    -1.0390 H     1 <1>   0.0800 
 28 H       -2.7040    -0.8110     0.0140 H     1 <1>   0.0800 
 29 H       -2.6830     0.1230     1.4920 H     1 <1>   0.0800 
 30 H       -4.0800     0.9300    -1.0690 H     1 <1>   0.0800 
 31 H       -4.0700     1.8530     0.4210 H     1 <1>   0.0800 
 32 H       -8.1830    -0.5760     0.1990 H     1 <1>   0.0800 
 33 H       -7.3770    -0.7420     1.7360 H     1 <1>   0.0800 
 34 H       -6.5460     2.7860     0.5810 H     1 <1>   0.0800 
 35 H       -6.1290     2.1920    -1.0110 H     1 <1>   0.0800 
 36 H       -8.1460     1.4650     2.4200 H     1 <1>   0.0800 
 37 H       -9.4770     0.4210     2.0530 H     1 <1>   0.0800 
 38 H       -8.4160     1.4000    -1.3330 H     1 <1>   0.0800 
 39 H       -8.3720     3.1110    -1.0660 H     1 <1>   0.0800 
 40 H      -11.1900     1.4340     1.0610 H     1 <1>   0.0800 
 41 H      -10.9610     3.4980     2.1220 H     1 <1>   0.0800 
 42 H      -10.0340     4.9570     1.8390 H     1 <1>   0.0800 
 43 H      -11.6420     0.3060    -0.8240 H     1 <1>   0.4000 
 44 H      -10.2640     4.6670    -0.5810 H     1 <1>   0.0800 
 45 H      -11.8250     4.8420     0.1490 H     1 <1>   0.0800 
 46 H      -13.2630     3.3230    -0.7550 H     1 <1>   0.4000 
 47 H      -10.2750     2.9330    -2.3830 H     1 <1>   0.0800 
 48 H      -11.8240     3.7130    -2.4690 H     1 <1>   0.0800 
 49 H      -11.7120     1.9670    -2.5030 H     1 <1>   0.0800 
@<TRIPOS>BOND
  1   1   2  2   
  2   1   3  2   
  3   1   4  am  
  4   1   5  1   
  5   4   6  1   
  6   4  24  1   
  7   5  25  1   
  8   5  26  1   
  9   5  27  1   
 10   6   7  1   
 11   6  28  1   
 12   6  29  1   
 13   7   8  1   
 14   7  30  1   
 15   7  31  1   
 16   8   9  2   
 17   8  10  am  
 18  10  11  1   
 19  10  12  1   
 20  11  13  1   
 21  11  32  1   
 22  11  33  1   
 23  12  14  1   
 24  12  34  1   
 25  12  35  1   
 26  13  15  1   
 27  13  36  1   
 28  13  37  1   
 29  14  15  1   
 30  14  38  1   
 31  14  39  1   
 32  15  16  1   
 33  15  17  1   
 34  16  18  1   
 35  17  19  1   
 36  17  20  1   
 37  17  40  1   
 38  18  21  1   
 39  18  41  1   
 40  18  42  1   
 41  19  43  1   
 42  20  21  1   
 43  20  22  1   
 44  20  23  1   
 45  21  44  1   
 46  21  45  1   
 47  22  46  1   
 48  23  47  1   
 49  23  48  1   
 50  23  49  1   
@<TRIPOS>SUBSTRUCTURE
  1 ****  10 GROUP 4 **** **** 0

# MOE 2024.06 (io_trps.svl 2023.06)
