@<TRIPOS>MOLECULE
NONAME
58 61 1 0 0 
SMALL
USER_CHARGES


@<TRIPOS>ATOM
  1 O       -0.5610     1.2360     2.1080 O.2   1 <1>  -0.5700 
  2 C       -0.5270     2.3020     1.5210 C.2   1 <1>   0.7160 
  3 N       -1.6690     3.0770     1.4780 N.am  1 <1>  -0.6600 
  4 C        0.6980     2.7240     0.8800 C.2   1 <1>  -0.0860 
  5 C       -1.9250     4.1140     0.4460 C.3   1 <1>   0.1400 
  6 C       -2.8310     2.8160     2.3680 C.3   1 <1>   0.1400 
  7 C        1.5600     2.0150     0.0990 C.2   1 <1>  -0.0400 
  8 C        1.2790     4.0080     0.9500 C.2   1 <1>  -0.1500 
  9 C       -3.1310     3.6940    -0.3990 C.3   1 <1>  -0.1600 
 10 C       -4.0430     2.4100     1.5260 C.3   1 <1>  -0.1600 
 11 O        2.5620     2.7610    -0.2970 O.3   1 <1>  -0.2800 
 12 C        1.5220     0.5690    -0.3490 C.3   1 <1>  -0.0600 
 13 C        2.4060     3.9620     0.2120 C.2   1 <1>  -0.0400 
 14 C       -4.4060     3.4620     0.4600 C.3   1 <1>   0.2800 
 15 C        3.4460     5.0170    -0.0880 C.3   1 <1>  -0.0600 
 16 O       -4.7030     4.6430     1.1550 O.3   1 <1>  -0.5600 
 17 C       -5.6850     3.0010    -0.3240 C.3   1 <1>   0.2000 
 18 C       -5.0860     5.7920     0.4490 C.3   1 <1>   0.1200 
 19 O       -5.3030     2.1710    -1.3920 O.3   1 <1>  -0.6800 
 20 C       -6.6270     4.1730    -0.7880 C.3   1 <1>   0.3000 
 21 C       -5.8400     5.4850    -0.8550 C.3   1 <1>  -0.1600 
 22 N       -7.8040     4.4460     0.0800 N.am  1 <1>  -0.7300 
 23 C       -7.2600     3.9170    -2.1670 C.3   1 <1>  -0.2400 
 24 C       -8.2160     4.2270     1.3510 C.2   1 <1>   0.6300 
 25 O       -9.2170     4.7910     1.7110 O.2   1 <1>  -0.5700 
 26 C       -7.5070     3.3180     2.3470 C.3   1 <1>  -0.1000 
 27 C       -7.7550     1.8330     2.3590 C.3   1 <1>  -0.2000 
 28 C       -8.2690     2.6790     3.4760 C.3   1 <1>  -0.2000 
 29 H       -2.1180     5.0550     0.9320 H     1 <1>   0.0800 
 30 H       -1.0730     4.2340    -0.1990 H     1 <1>   0.0800 
 31 H       -2.6030     2.0360     3.0750 H     1 <1>   0.0800 
 32 H       -3.0540     3.7100     2.9250 H     1 <1>   0.0800 
 33 H        0.8720     4.8350     1.5030 H     1 <1>   0.1500 
 34 H       -2.8640     2.7780    -0.8970 H     1 <1>   0.0800 
 35 H       -3.2910     4.4250    -1.1640 H     1 <1>   0.0800 
 36 H       -4.8710     2.2440     2.1830 H     1 <1>   0.0800 
 37 H       -3.8260     1.4720     1.0460 H     1 <1>   0.0800 
 38 H        0.6450     0.0760     0.0290 H     1 <1>   0.0800 
 39 H        2.3920     0.0570     0.0190 H     1 <1>   0.0800 
 40 H        1.5160     0.5210    -1.4220 H     1 <1>   0.0800 
 41 H        3.1910     5.9410     0.3960 H     1 <1>   0.0800 
 42 H        3.5040     5.1790    -1.1490 H     1 <1>   0.0800 
 43 H        4.4060     4.6880     0.2670 H     1 <1>   0.0800 
 44 H       -6.2630     2.3570     0.3050 H     1 <1>   0.0800 
 45 H       -5.7220     6.3570     1.1100 H     1 <1>   0.0800 
 46 H       -4.2050     6.3770     0.2490 H     1 <1>   0.0800 
 47 H       -4.7580     2.6640    -2.0330 H     1 <1>   0.4000 
 48 H       -6.4970     6.3070    -1.0800 H     1 <1>   0.0800 
 49 H       -5.1370     5.4410    -1.6640 H     1 <1>   0.0800 
 50 H       -8.4770     5.0410    -0.4040 H     1 <1>   0.3700 
 51 H       -6.5080     3.8380    -2.9300 H     1 <1>   0.0800 
 52 H       -7.9230     4.7170    -2.4450 H     1 <1>   0.0800 
 53 H       -7.8170     2.9960    -2.1490 H     1 <1>   0.0800 
 54 H       -6.5560     3.7210     2.6350 H     1 <1>   0.1000 
 55 H       -8.4650     1.4240     1.6600 H     1 <1>   0.1000 
 56 H       -6.9430     1.1570     2.5620 H     1 <1>   0.1000 
 57 H       -7.7970     2.6120     4.4410 H     1 <1>   0.1000 
 58 H       -9.3290     2.8570     3.5490 H     1 <1>   0.1000 
@<TRIPOS>BOND
  1   1   2  2   
  2   2   3  am  
  3   2   4  1   
  4   3   5  1   
  5   3   6  1   
  6   4   7  2   
  7   4   8  1   
  8   5   9  1   
  9   5  29  1   
 10   5  30  1   
 11   6  10  1   
 12   6  31  1   
 13   6  32  1   
 14   7  11  1   
 15   7  12  1   
 16   8  13  2   
 17   8  33  1   
 18   9  14  1   
 19   9  34  1   
 20   9  35  1   
 21  10  14  1   
 22  10  36  1   
 23  10  37  1   
 24  11  13  1   
 25  12  38  1   
 26  12  39  1   
 27  12  40  1   
 28  13  15  1   
 29  14  16  1   
 30  14  17  1   
 31  15  41  1   
 32  15  42  1   
 33  15  43  1   
 34  16  18  1   
 35  17  19  1   
 36  17  20  1   
 37  17  44  1   
 38  18  21  1   
 39  18  45  1   
 40  18  46  1   
 41  19  47  1   
 42  20  21  1   
 43  20  22  1   
 44  20  23  1   
 45  21  48  1   
 46  21  49  1   
 47  22  24  am  
 48  22  50  1   
 49  23  51  1   
 50  23  52  1   
 51  23  53  1   
 52  24  25  2   
 53  24  26  1   
 54  26  27  1   
 55  26  28  1   
 56  26  54  1   
 57  27  28  1   
 58  27  55  1   
 59  27  56  1   
 60  28  57  1   
 61  28  58  1   
@<TRIPOS>SUBSTRUCTURE
  1 ****  14 GROUP 4 **** **** 0

# MOE 2024.06 (io_trps.svl 2023.06)
