@<TRIPOS>MOLECULE
NONAME
53 55 1 0 0 
SMALL
USER_CHARGES


@<TRIPOS>ATOM
  1 S       -0.4710    -0.0810     0.7760 S.3   1 <1>  -0.3320 
  2 C       -0.5050    -1.8090     0.2790 C.ar  1 <1>   0.1020 
  3 C       -1.6510     0.8210    -0.3230 C.3   1 <1>  -0.0100 
  4 C        0.3130    -2.6760     0.9680 C.ar  1 <1>  -0.1500 
  5 C       -1.3190    -2.2640    -0.7540 C.ar  1 <1>  -0.1500 
  6 C        0.3330    -4.0260     0.6360 C.ar  1 <1>   0.1170 
  7 C       -1.3030    -3.6010    -1.0900 C.ar  1 <1>  -0.1500 
  8 N        1.1450    -4.9260     1.3220 N.am  1 <1>  -0.5470 
  9 C       -0.4830    -4.5020    -0.4070 C.ar  1 <1>   0.0280 
 10 C        1.1740    -6.2570     1.0450 C.2   1 <1>   0.6160 
 11 C       -0.4370    -5.8970    -0.7260 C.2   1 <1>  -0.1780 
 12 O        1.8470    -6.9930     1.7470 O.2   1 <1>  -0.5700 
 13 C        0.3650    -6.7400    -0.0280 C.2   1 <1>  -0.1240 
 14 C        0.4470    -8.2180    -0.3420 C.3   1 <1>   0.4810 
 15 N        0.1050    -9.0270     0.8690 N.4   1 <1>  -0.9590 
 16 C        0.4540   -10.4780     0.6250 C.3   1 <1>   0.3430 
 17 C       -1.3260    -8.7790     1.2410 C.3   1 <1>   0.3430 
 18 C       -0.7420   -11.3290     0.1870 C.3   1 <1>  -0.1060 
 19 C       -1.8460    -9.9230     2.0940 C.3   1 <1>  -0.1600 
 20 C       -1.1570   -10.7010    -1.1480 C.2   1 <1>   0.9060 
 21 C       -1.8110   -11.2480     1.3190 C.3   1 <1>   0.2000 
 22 C       -0.3410   -12.8270     0.0310 C.3   1 <1>  -0.1600 
 23 O       -2.2950   -10.2400    -1.2930 O.co2 1 <1>  -0.9000 
 24 O       -0.2760   -10.4640    -1.9820 O.co2 1 <1>  -0.9000 
 25 O       -3.0660   -11.4770     0.8050 O.3   1 <1>  -0.6800 
 26 C        0.8130   -13.1280    -0.9420 C.3   1 <1>  -0.1600 
 27 C        1.1550   -14.6210    -0.9360 C.3   1 <1>  -0.2400 
 28 H       -1.6340     1.8570    -0.0350 H     1 <1>   0.0800 
 29 H       -2.6300     0.4020    -0.1760 H     1 <1>   0.0800 
 30 H       -1.3180     0.7030    -1.3380 H     1 <1>   0.0800 
 31 H        0.9330    -2.3010     1.7610 H     1 <1>   0.1500 
 32 H       -1.9570    -1.5900    -1.2920 H     1 <1>   0.1500 
 33 H       -1.9290    -3.9600    -1.8880 H     1 <1>   0.1500 
 34 H        1.7450    -4.6090     2.0830 H     1 <1>   0.3700 
 35 H       -1.0590    -6.2420    -1.5380 H     1 <1>   0.1500 
 36 H        1.4430    -8.4610    -0.6750 H     1 <1>   0.0800 
 37 H       -0.2350    -8.4410    -1.1450 H     1 <1>   0.0800 
 38 H        0.7260    -8.6570     1.6100 H     1 <1>   0.4500 
 39 H        1.2220   -10.5410    -0.1300 H     1 <1>   0.0800 
 40 H        0.8520   -10.9000     1.5320 H     1 <1>   0.0800 
 41 H       -1.4130    -7.8460     1.7740 H     1 <1>   0.0800 
 42 H       -1.9320    -8.7130     0.3500 H     1 <1>   0.0800 
 43 H       -2.8480    -9.7120     2.4220 H     1 <1>   0.0800 
 44 H       -1.2300   -10.0030     2.9720 H     1 <1>   0.0800 
 45 H       -1.6460   -12.0310     2.0400 H     1 <1>   0.0800 
 46 H       -0.0720   -13.2220     0.9950 H     1 <1>   0.0800 
 47 H       -1.2110   -13.3700    -0.3020 H     1 <1>   0.0800 
 48 H       -3.1010   -11.0190    -0.0900 H     1 <1>   0.4000 
 49 H        0.5310   -12.8480    -1.9440 H     1 <1>   0.0800 
 50 H        1.6930   -12.5700    -0.6790 H     1 <1>   0.0800 
 51 H        0.2980   -15.2010    -1.2280 H     1 <1>   0.0800 
 52 H        1.4720   -14.9350     0.0430 H     1 <1>   0.0800 
 53 H        1.9510   -14.8160    -1.6330 H     1 <1>   0.0800 
@<TRIPOS>BOND
  1   1   2  1   
  2   1   3  1   
  3   2   4  ar  
  4   2   5  ar  
  5   3  28  1   
  6   3  29  1   
  7   3  30  1   
  8   4   6  ar  
  9   4  31  1   
 10   5   7  ar  
 11   5  32  1   
 12   6   8  1   
 13   6   9  ar  
 14   7   9  ar  
 15   7  33  1   
 16   8  10  am  
 17   8  34  1   
 18   9  11  1   
 19  10  12  2   
 20  10  13  1   
 21  11  13  2   
 22  11  35  1   
 23  13  14  1   
 24  14  15  1   
 25  14  36  1   
 26  14  37  1   
 27  15  16  1   
 28  15  17  1   
 29  15  38  1   
 30  16  18  1   
 31  16  39  1   
 32  16  40  1   
 33  17  19  1   
 34  17  41  1   
 35  17  42  1   
 36  18  20  1   
 37  18  21  1   
 38  18  22  1   
 39  19  21  1   
 40  19  43  1   
 41  19  44  1   
 42  20  23  ar  
 43  20  24  ar  
 44  21  25  1   
 45  21  45  1   
 46  22  26  1   
 47  22  46  1   
 48  22  47  1   
 49  25  48  1   
 50  26  27  1   
 51  26  49  1   
 52  26  50  1   
 53  27  51  1   
 54  27  52  1   
 55  27  53  1   
@<TRIPOS>SUBSTRUCTURE
  1 ****  13 GROUP 4 **** **** 0

# MOE 2024.06 (io_trps.svl 2023.06)
