@<TRIPOS>MOLECULE
NONAME
53 55 1 0 0 
SMALL
USER_CHARGES


@<TRIPOS>ATOM
  1 S       -0.4590    -2.5860     1.5610 S.3   1 <1>  -0.0800 
  2 C        0.2030    -2.6070    -0.0660 C.2   1 <1>  -0.1400 
  3 C        0.6690    -1.3350     2.0450 C.2   1 <1>  -0.1100 
  4 C        1.2060    -1.7150    -0.1770 C.2   1 <1>  -0.1500 
  5 C       -0.4290    -3.5690    -1.0470 C.3   1 <1>   0.5230 
  6 C        1.4790    -0.9820     1.0260 C.2   1 <1>   0.0190 
  7 N       -1.8670    -3.2170    -1.1660 N.4   1 <1>  -0.9590 
  8 C        2.5110     0.0080     1.0750 C.1   1 <1>  -0.0190 
  9 C       -2.6990    -4.3000    -1.7770 C.3   1 <1>   0.3430 
 10 C       -2.0820    -1.9010    -1.8250 C.3   1 <1>   0.3430 
 11 C        3.3670     0.8340     1.1220 C.1   1 <1>  -0.2000 
 12 C       -4.0120    -4.4910    -0.9940 C.3   1 <1>   0.1400 
 13 C       -3.3260    -1.2160    -1.2570 C.3   1 <1>  -0.1600 
 14 C        4.4340     1.8670     1.1940 C.3   1 <1>   0.3200 
 15 N       -4.5190    -3.2150    -0.3870 N.am  1 <1>  -0.6600 
 16 C       -4.6100    -2.0480    -1.3160 C.3   1 <1>   0.1400 
 17 O        3.8140     3.0910     1.3150 O.3   1 <1>  -0.6800 
 18 C       -5.0550    -3.1060     0.8810 C.2   1 <1>   0.5690 
 19 O       -5.2910    -2.0180     1.3470 O.2   1 <1>  -0.5700 
 20 C       -5.3760    -4.3110     1.7630 C.3   1 <1>   0.0820 
 21 C       -6.0860    -5.4420     1.0270 C.2   1 <1>  -0.1810 
 22 C       -5.8000    -6.7540     0.9800 C.2   1 <1>  -0.0400 
 23 C       -7.2090    -5.3300     0.2040 C.2   1 <1>   0.1080 
 24 O       -6.6580    -7.3220     0.1780 O.3   1 <1>  -0.0190 
 25 C       -4.7420    -7.6130     1.6430 C.3   1 <1>  -0.0600 
 26 N       -7.5130    -6.4690    -0.3030 N.2   1 <1>  -0.4100 
 27 C       -7.9960    -4.0660    -0.0780 C.3   1 <1>  -0.0590 
 28 H        0.6190    -0.9800     3.0600 H     1 <1>   0.1500 
 29 H        1.7930    -1.5200    -1.0590 H     1 <1>   0.1500 
 30 H       -0.3210    -4.5730    -0.6700 H     1 <1>   0.0800 
 31 H        0.0580    -3.5010    -2.0050 H     1 <1>   0.0800 
 32 H       -2.2190    -3.0860    -0.2030 H     1 <1>   0.4500 
 33 H       -2.1630    -5.2350    -1.7820 H     1 <1>   0.0800 
 34 H       -2.9290    -4.0510    -2.8000 H     1 <1>   0.0800 
 35 H       -2.1840    -2.0330    -2.8900 H     1 <1>   0.0800 
 36 H       -1.2340    -1.2570    -1.6480 H     1 <1>   0.0800 
 37 H       -3.8200    -5.2090    -0.2180 H     1 <1>   0.0800 
 38 H       -4.7660    -4.9100    -1.6400 H     1 <1>   0.0800 
 39 H       -3.4880    -0.3140    -1.8200 H     1 <1>   0.0800 
 40 H       -3.1440    -0.9120    -0.2400 H     1 <1>   0.0800 
 41 H        5.0280     1.8710     0.2960 H     1 <1>   0.0800 
 42 H        5.0680     1.7200     2.0520 H     1 <1>   0.0800 
 43 H       -4.8040    -2.3850    -2.3210 H     1 <1>   0.0800 
 44 H       -5.4420    -1.4250    -1.0250 H     1 <1>   0.0800 
 45 H        3.0350     3.1110     0.7290 H     1 <1>   0.4000 
 46 H       -6.0090    -3.9840     2.5680 H     1 <1>   0.0800 
 47 H       -4.4620    -4.6650     2.1990 H     1 <1>   0.0800 
 48 H       -4.1140    -7.0250     2.2850 H     1 <1>   0.0800 
 49 H       -4.1360    -8.0910     0.8950 H     1 <1>   0.0800 
 50 H       -5.2200    -8.3740     2.2340 H     1 <1>   0.0800 
 51 H       -8.0890    -3.4760     0.8150 H     1 <1>   0.0800 
 52 H       -8.9820    -4.3200    -0.4240 H     1 <1>   0.0800 
 53 H       -7.5030    -3.4870    -0.8360 H     1 <1>   0.0800 
@<TRIPOS>BOND
  1   1   2  1   
  2   1   3  1   
  3   2   4  2   
  4   2   5  1   
  5   3   6  2   
  6   3  28  1   
  7   4   6  1   
  8   4  29  1   
  9   5   7  1   
 10   5  30  1   
 11   5  31  1   
 12   6   8  1   
 13   7   9  1   
 14   7  10  1   
 15   7  32  1   
 16   8  11  3   
 17   9  12  1   
 18   9  33  1   
 19   9  34  1   
 20  10  13  1   
 21  10  35  1   
 22  10  36  1   
 23  11  14  1   
 24  12  15  1   
 25  12  37  1   
 26  12  38  1   
 27  13  16  1   
 28  13  39  1   
 29  13  40  1   
 30  14  17  1   
 31  14  41  1   
 32  14  42  1   
 33  15  16  1   
 34  15  18  am  
 35  16  43  1   
 36  16  44  1   
 37  17  45  1   
 38  18  19  2   
 39  18  20  1   
 40  20  21  1   
 41  20  46  1   
 42  20  47  1   
 43  21  22  2   
 44  21  23  1   
 45  22  24  1   
 46  22  25  1   
 47  23  26  2   
 48  23  27  1   
 49  24  26  1   
 50  25  48  1   
 51  25  49  1   
 52  25  50  1   
 53  27  51  1   
 54  27  52  1   
 55  27  53  1   
@<TRIPOS>SUBSTRUCTURE
  1 ****   7 GROUP 4 **** **** 0

# MOE 2024.06 (io_trps.svl 2023.06)
