@<TRIPOS>MOLECULE
NONAME
37 38 1 0 0 
SMALL
USER_CHARGES


@<TRIPOS>ATOM
  1 O        9.4580     3.0690    -2.3250 O.2   1 <1>  -0.5700 
  2 C        8.8290     3.4860    -1.3850 C.2   1 <1>   0.5690 
  3 N        8.5710     4.8070    -1.2850 N.am  1 <1>  -0.8000 
  4 C        8.3040     2.4980    -0.2970 C.3   1 <1>   0.3310 
  5 N        7.9890     3.1810     0.9720 N.3   1 <1>  -0.9900 
  6 C        9.3450     1.4040    -0.0020 C.3   1 <1>  -0.1600 
  7 C        7.0070     1.8550    -0.8010 C.3   1 <1>  -0.1600 
  8 C        8.8070     0.2900     0.8930 C.3   1 <1>   0.3430 
  9 C        6.4980     0.7670     0.1350 C.3   1 <1>   0.3430 
 10 N        7.5560    -0.2720     0.3150 N.4   1 <1>  -0.9590 
 11 C        7.0560    -1.4270     1.1110 C.3   1 <1>   0.4860 
 12 C        5.9350    -2.0970     0.3430 C.ar  1 <1>  -0.1430 
 13 C        6.2140    -2.8580    -0.7840 C.ar  1 <1>  -0.1500 
 14 C        4.6190    -1.9490     0.7590 C.ar  1 <1>  -0.1500 
 15 C        5.1850    -3.4540    -1.4930 C.ar  1 <1>  -0.1500 
 16 C        3.5920    -2.5470     0.0480 C.ar  1 <1>  -0.1500 
 17 C        3.8750    -3.2970    -1.0780 C.ar  1 <1>  -0.1500 
 18 H        8.8950     5.4500    -2.0110 H     1 <1>   0.3700 
 19 H        7.9760     5.1960    -0.5510 H     1 <1>   0.3700 
 20 H        8.7320     3.8720     1.1520 H     1 <1>   0.3600 
 21 H        7.9950     2.5370     1.7650 H     1 <1>   0.3600 
 22 H       10.2150     1.8480     0.4470 H     1 <1>   0.0800 
 23 H        9.6700     0.9590    -0.9260 H     1 <1>   0.0800 
 24 H        7.1680     1.4320    -1.7780 H     1 <1>   0.0800 
 25 H        6.2540     2.6150    -0.9080 H     1 <1>   0.0800 
 26 H        8.6080     0.6830     1.8770 H     1 <1>   0.0800 
 27 H        9.5530    -0.4840     0.9840 H     1 <1>   0.0800 
 28 H        5.6090     0.3250    -0.2880 H     1 <1>   0.0800 
 29 H        6.2400     1.2040     1.0860 H     1 <1>   0.0800 
 30 H        7.7620    -0.6430    -0.6220 H     1 <1>   0.4500 
 31 H        6.6980    -1.0940     2.0710 H     1 <1>   0.0800 
 32 H        7.8480    -2.1410     1.2700 H     1 <1>   0.0800 
 33 H        7.2250    -3.0050    -1.1230 H     1 <1>   0.1500 
 34 H        4.3720    -1.3750     1.6360 H     1 <1>   0.1500 
 35 H        5.4000    -4.0450    -2.3680 H     1 <1>   0.1500 
 36 H        2.5710    -2.4340     0.3710 H     1 <1>   0.1500 
 37 H        3.0760    -3.7630    -1.6300 H     1 <1>   0.1500 
@<TRIPOS>BOND
  1   1   2  2   
  2   2   3  am  
  3   2   4  1   
  4   3  18  1   
  5   3  19  1   
  6   4   5  1   
  7   4   6  1   
  8   4   7  1   
  9   5  20  1   
 10   5  21  1   
 11   6   8  1   
 12   6  22  1   
 13   6  23  1   
 14   7   9  1   
 15   7  24  1   
 16   7  25  1   
 17   8  10  1   
 18   8  26  1   
 19   8  27  1   
 20   9  10  1   
 21   9  28  1   
 22   9  29  1   
 23  10  11  1   
 24  10  30  1   
 25  11  12  1   
 26  11  31  1   
 27  11  32  1   
 28  12  13  ar  
 29  12  14  ar  
 30  13  15  ar  
 31  13  33  1   
 32  14  16  ar  
 33  14  34  1   
 34  15  17  ar  
 35  15  35  1   
 36  16  17  ar  
 37  16  36  1   
 38  17  37  1   
@<TRIPOS>SUBSTRUCTURE
  1 ****   9 GROUP 4 **** **** 0

# MOE 2024.06 (io_trps.svl 2023.06)
