@<TRIPOS>MOLECULE
NONAME
51 53 1 0 0 
SMALL
USER_CHARGES


@<TRIPOS>ATOM
  1 S        1.5930     1.7970    -1.3950 S.o2  1 <1>   1.3330 
  2 O        1.3100     3.1860    -1.7130 O.2   1 <1>  -0.6500 
  3 O        1.8040     0.8730    -2.4810 O.2   1 <1>  -0.6500 
  4 N        3.0390     1.8020    -0.5010 N.am  1 <1>  -0.8490 
  5 C        0.3150     1.0960    -0.3210 C.3   1 <1>  -0.0550 
  6 C        4.1500     2.3260    -1.3120 C.3   1 <1>   0.1160 
  7 C        3.4460     0.4660    -0.0360 C.3   1 <1>   0.1160 
  8 C       -0.2490     1.8880     0.8900 C.3   1 <1>  -0.0800 
  9 C       -1.1810     3.0260     0.4600 C.3   1 <1>   0.2000 
 10 C        0.7900     2.5720     1.7850 C.3   1 <1>   0.2090 
 11 O       -2.2050     3.1190     1.3900 O.3   1 <1>  -0.6800 
 12 C       -0.3380     4.3040     0.5110 C.3   1 <1>   0.2090 
 13 N        0.9390     3.9260     1.2020 N.pl3 1 <1>  -0.8380 
 14 C        2.1370     4.5170     1.0490 C.ar  1 <1>   0.4610 
 15 N        2.4270     5.1160    -0.1010 N.ar  1 <1>  -0.1790 
 16 C        3.1460     4.4870     2.0400 C.ar  1 <1>  -0.1500 
 17 C        3.6290     5.7330    -0.3780 C.ar  1 <1>   0.3610 
 18 C        4.3630     5.0670     1.8440 C.ar  1 <1>  -0.1440 
 19 C        4.6390     5.7220     0.6020 C.ar  1 <1>   0.0000 
 20 C        3.8550     6.3360    -1.6180 C.ar  1 <1>  -0.1500 
 21 C        5.4200     5.0200     2.9400 C.3   1 <1>  -0.0970 
 22 C        5.8570     6.3470     0.2880 C.ar  1 <1>  -0.1500 
 23 C        5.0600     6.9340    -1.8930 C.ar  1 <1>  -0.1500 
 24 C        6.0690     6.9420    -0.9330 C.ar  1 <1>  -0.1440 
 25 C        7.3910     7.6150    -1.2610 C.3   1 <1>  -0.0970 
 26 H       -0.5230     0.8500    -0.9460 H     1 <1>   0.0800 
 27 H        0.6710     0.1560     0.0460 H     1 <1>   0.0800 
 28 H        5.0360     2.4300    -0.7080 H     1 <1>   0.0800 
 29 H        3.9020     3.2890    -1.7200 H     1 <1>   0.0800 
 30 H        4.3630     1.6610    -2.1340 H     1 <1>   0.0800 
 31 H        4.3920     0.5240     0.4770 H     1 <1>   0.0800 
 32 H        3.5460    -0.2130    -0.8680 H     1 <1>   0.0800 
 33 H        2.7270     0.0670     0.6560 H     1 <1>   0.0800 
 34 H       -0.8040     1.1760     1.4790 H     1 <1>   0.0800 
 35 H       -1.6320     2.8710    -0.5070 H     1 <1>   0.0800 
 36 H        1.7230     2.0360     1.8090 H     1 <1>   0.0800 
 37 H        0.4100     2.6630     2.7900 H     1 <1>   0.0800 
 38 H       -1.8610     3.3730     2.2690 H     1 <1>   0.4000 
 39 H       -0.8480     5.0770     1.0630 H     1 <1>   0.0800 
 40 H       -0.1590     4.6620    -0.4860 H     1 <1>   0.0800 
 41 H        1.8010     4.8770    -0.8770 H     1 <1>   0.4570 
 42 H        2.9070     3.9930     2.9640 H     1 <1>   0.1500 
 43 H        3.0820     6.3350    -2.3660 H     1 <1>   0.1500 
 44 H        5.0580     4.4950     3.8060 H     1 <1>   0.0800 
 45 H        5.6860     6.0170     3.2420 H     1 <1>   0.0800 
 46 H        6.3010     4.5140     2.5870 H     1 <1>   0.0800 
 47 H        6.6460     6.3610     1.0190 H     1 <1>   0.1500 
 48 H        5.2340     7.4010    -2.8490 H     1 <1>   0.1500 
 49 H        7.8440     7.1410    -2.1140 H     1 <1>   0.0800 
 50 H        8.0750     7.5530    -0.4340 H     1 <1>   0.0800 
 51 H        7.2280     8.6540    -1.4900 H     1 <1>   0.0800 
@<TRIPOS>BOND
  1   1   2  2   
  2   1   3  2   
  3   1   4  am  
  4   1   5  1   
  5   4   6  1   
  6   4   7  1   
  7   5   8  1   
  8   5  26  1   
  9   5  27  1   
 10   6  28  1   
 11   6  29  1   
 12   6  30  1   
 13   7  31  1   
 14   7  32  1   
 15   7  33  1   
 16   8   9  1   
 17   8  10  1   
 18   8  34  1   
 19   9  11  1   
 20   9  12  1   
 21   9  35  1   
 22  10  13  1   
 23  10  36  1   
 24  10  37  1   
 25  11  38  1   
 26  12  13  1   
 27  12  39  1   
 28  12  40  1   
 29  13  14  1   
 30  14  15  ar  
 31  14  16  ar  
 32  15  17  ar  
 33  15  41  1   
 34  16  18  ar  
 35  16  42  1   
 36  17  19  ar  
 37  17  20  ar  
 38  18  19  ar  
 39  18  21  1   
 40  19  22  ar  
 41  20  23  ar  
 42  20  43  1   
 43  21  44  1   
 44  21  45  1   
 45  21  46  1   
 46  22  24  ar  
 47  22  47  1   
 48  23  24  ar  
 49  23  48  1   
 50  24  25  1   
 51  25  49  1   
 52  25  50  1   
 53  25  51  1   
@<TRIPOS>SUBSTRUCTURE
  1 ****  15 GROUP 4 **** **** 0

# MOE 2024.06 (io_trps.svl 2023.06)
