@<TRIPOS>MOLECULE
NONAME
62 65 1 0 0 
SMALL
USER_CHARGES


@<TRIPOS>ATOM
  1 O        1.4370    -0.0220     1.4120 O.co2 1 <1>  -0.9000 
  2 C        1.6490     0.0460     0.1890 C.2   1 <1>   0.9060 
  3 O        0.7250     0.1030    -0.6210 O.co2 1 <1>  -0.9000 
  4 C        3.1040     0.0560    -0.3160 C.3   1 <1>  -0.1060 
  5 C        3.9900     0.7510     0.7400 C.3   1 <1>   0.4230 
  6 C        3.2230     0.8560    -1.6440 C.3   1 <1>  -0.1600 
  7 C        3.6140    -1.3850    -0.5560 C.3   1 <1>  -0.1600 
  8 N        4.0020    -0.0470     2.0170 N.4   1 <1>  -0.9590 
  9 C        3.5590     2.2320     0.9020 C.3   1 <1>   0.2090 
 10 C        2.8430     2.3340    -1.4720 C.3   1 <1>   0.2090 
 11 C        3.7350    -2.1640     0.7620 C.3   1 <1>  -0.1600 
 12 C        4.5550    -1.4080     1.8090 C.3   1 <1>   0.3430 
 13 C        4.6170     0.6470     3.1780 C.3   1 <1>   0.2630 
 14 N        3.6930     2.9410    -0.4070 N.pl3 1 <1>  -0.8380 
 15 C        4.9230     3.4670    -0.7660 C.ar  1 <1>   0.4100 
 16 N        6.0060     2.9210    -0.2180 N.ar  1 <1>  -0.6200 
 17 C        4.9820     4.5240    -1.6700 C.ar  1 <1>  -0.1500 
 18 C        7.1650     3.4370    -0.5960 C.ar  1 <1>   0.1600 
 19 C        6.1940     5.0500    -2.0500 C.ar  1 <1>  -0.1500 
 20 C        7.3230     4.4840    -1.4890 C.ar  1 <1>  -0.1430 
 21 C        8.7120     4.9980    -1.8240 C.3   1 <1>   0.2530 
 22 N        9.3900     5.4620    -0.5980 N.3   1 <1>  -0.8100 
 23 C       10.8070     5.8120    -0.8580 C.3   1 <1>   0.1100 
 24 C        8.6800     6.6100     0.0300 C.3   1 <1>   0.1100 
 25 C       11.5470     6.2650     0.4270 C.3   1 <1>   0.3430 
 26 C        9.4110     7.1540     1.2830 C.3   1 <1>   0.3430 
 27 N       10.6190     6.3270     1.6060 N.4   1 <1>  -0.9590 
 28 C       11.2950     6.7330     2.8720 C.3   1 <1>   0.2630 
 29 H        4.9970     0.7720     0.3590 H     1 <1>   0.0800 
 30 H        2.5750     0.4220    -2.3860 H     1 <1>   0.0800 
 31 H        4.2280     0.8080    -2.0250 H     1 <1>   0.0800 
 32 H        2.9330    -1.8980    -1.2160 H     1 <1>   0.0800 
 33 H        4.5780    -1.3540    -1.0350 H     1 <1>   0.0800 
 34 H        2.9660    -0.1640     2.1810 H     1 <1>   0.4500 
 35 H        4.1830     2.7290     1.6200 H     1 <1>   0.0800 
 36 H        2.5380     2.3000     1.2360 H     1 <1>   0.0800 
 37 H        1.8040     2.4220    -1.1970 H     1 <1>   0.0800 
 38 H        2.9810     2.8520    -2.4050 H     1 <1>   0.0800 
 39 H        4.1960    -3.1170     0.5720 H     1 <1>   0.0800 
 40 H        2.7530    -2.3600     1.1600 H     1 <1>   0.0800 
 41 H        5.5780    -1.3330     1.4790 H     1 <1>   0.0800 
 42 H        4.5330    -1.9550     2.7370 H     1 <1>   0.0800 
 43 H        5.6460     0.8850     2.9650 H     1 <1>   0.0800 
 44 H        4.5730     0.0170     4.0500 H     1 <1>   0.0800 
 45 H        4.0830     1.5580     3.3900 H     1 <1>   0.0800 
 46 H        4.0650     4.9220    -2.0590 H     1 <1>   0.1500 
 47 H        8.0490     3.0030    -0.1640 H     1 <1>   0.1500 
 48 H        6.2490     5.8660    -2.7500 H     1 <1>   0.1500 
 49 H        8.6500     5.8000    -2.5410 H     1 <1>   0.0800 
 50 H        9.2770     4.1950    -2.2680 H     1 <1>   0.0800 
 51 H       11.3190     4.9570    -1.2670 H     1 <1>   0.0800 
 52 H       10.8600     6.6000    -1.5900 H     1 <1>   0.0800 
 53 H        8.5660     7.4080    -0.6840 H     1 <1>   0.0800 
 54 H        7.6910     6.3040     0.3260 H     1 <1>   0.0800 
 55 H       11.9910     7.2320     0.2550 H     1 <1>   0.0800 
 56 H       12.3460     5.5710     0.6300 H     1 <1>   0.0800 
 57 H        8.7260     7.1480     2.1150 H     1 <1>   0.0800 
 58 H        9.7020     8.1760     1.1050 H     1 <1>   0.0800 
 59 H       10.2460     5.3660     1.6800 H     1 <1>   0.4500 
 60 H       11.6800     7.7370     2.7860 H     1 <1>   0.0800 
 61 H       12.1140     6.0660     3.0890 H     1 <1>   0.0800 
 62 H       10.5990     6.6990     3.6940 H     1 <1>   0.0800 
@<TRIPOS>BOND
  1   1   2  ar  
  2   2   3  ar  
  3   2   4  1   
  4   4   5  1   
  5   4   6  1   
  6   4   7  1   
  7   5   8  1   
  8   5   9  1   
  9   5  29  1   
 10   6  10  1   
 11   6  30  1   
 12   6  31  1   
 13   7  11  1   
 14   7  32  1   
 15   7  33  1   
 16   8  12  1   
 17   8  13  1   
 18   8  34  1   
 19   9  14  1   
 20   9  35  1   
 21   9  36  1   
 22  10  14  1   
 23  10  37  1   
 24  10  38  1   
 25  11  12  1   
 26  11  39  1   
 27  11  40  1   
 28  12  41  1   
 29  12  42  1   
 30  13  43  1   
 31  13  44  1   
 32  13  45  1   
 33  14  15  1   
 34  15  16  ar  
 35  15  17  ar  
 36  16  18  ar  
 37  17  19  ar  
 38  17  46  1   
 39  18  20  ar  
 40  18  47  1   
 41  19  20  ar  
 42  19  48  1   
 43  20  21  1   
 44  21  22  1   
 45  21  49  1   
 46  21  50  1   
 47  22  23  1   
 48  22  24  1   
 49  23  25  1   
 50  23  51  1   
 51  23  52  1   
 52  24  26  1   
 53  24  53  1   
 54  24  54  1   
 55  25  27  1   
 56  25  55  1   
 57  25  56  1   
 58  26  27  1   
 59  26  57  1   
 60  26  58  1   
 61  27  28  1   
 62  27  59  1   
 63  28  60  1   
 64  28  61  1   
 65  28  62  1   
@<TRIPOS>SUBSTRUCTURE
  1 ****  16 GROUP 4 **** **** 0

# MOE 2024.06 (io_trps.svl 2023.06)
