@<TRIPOS>MOLECULE
NONAME
48 49 1 0 0 
SMALL
USER_CHARGES


@<TRIPOS>ATOM
  1 O       -1.4710     0.4730    -2.0920 O.2   1 <1>  -0.5700 
  2 C       -2.2840     1.0950    -1.4500 C.2   1 <1>   0.5690 
  3 N       -3.6190     0.7190    -1.4930 N.am  1 <1>  -0.6600 
  4 C       -1.6490     2.2010    -0.5420 C.3   1 <1>   0.4840 
  5 C       -3.9480    -0.6640    -1.9440 C.3   1 <1>   0.3200 
  6 C       -4.8130     1.5750    -1.1820 C.3   1 <1>   0.1400 
  7 N       -1.4400     1.7980     0.9080 N.4   1 <1>  -0.9590 
  8 C       -2.3200     3.5850    -0.6430 C.3   1 <1>  -0.1600 
  9 C       -3.7000    -1.5680    -0.7570 C.2   1 <1>  -0.3320 
 10 C       -5.2570     1.5280     0.2950 C.3   1 <1>   0.1200 
 11 C       -0.3630     2.5840     1.5590 C.3   1 <1>   0.3430 
 12 C       -1.1160     0.3410     1.0440 C.3   1 <1>   0.2630 
 13 C       -1.5930     4.7570     0.0390 C.3   1 <1>  -0.1600 
 14 N       -4.5930    -1.8800     0.2030 N.pl3 1 <1>   0.0330 
 15 C       -2.5510    -2.1940    -0.4260 C.2   1 <1>   0.0770 
 16 O       -4.2110     1.1500     1.1280 O.3   1 <1>  -0.6800 
 17 C       -0.9160     3.7750     2.3390 C.3   1 <1>  -0.1600 
 18 C       -1.8080     4.7540     1.5600 C.3   1 <1>  -0.1600 
 19 C       -3.9070    -2.6330     1.0880 C.2   1 <1>   0.0060 
 20 N       -2.6740    -2.8290     0.7520 N.2   1 <1>  -0.5650 
 21 C       -4.5330    -3.1970     2.3460 C.3   1 <1>  -0.0600 
 22 H       -0.6660     2.3290    -0.9620 H     1 <1>   0.0800 
 23 H       -3.3080    -0.9500    -2.7630 H     1 <1>   0.0800 
 24 H       -4.9670    -0.7400    -2.2810 H     1 <1>   0.0800 
 25 H       -5.6450     1.2650    -1.7920 H     1 <1>   0.0800 
 26 H       -4.6250     2.5880    -1.4810 H     1 <1>   0.0800 
 27 H       -2.3470     1.9590     1.3880 H     1 <1>   0.4500 
 28 H       -3.3070     3.5440    -0.2310 H     1 <1>   0.0800 
 29 H       -2.4150     3.8200    -1.6890 H     1 <1>   0.0800 
 30 H       -6.0530     0.8140     0.4200 H     1 <1>   0.0800 
 31 H       -5.6180     2.4920     0.6140 H     1 <1>   0.0800 
 32 H        0.3370     2.9300     0.8150 H     1 <1>   0.0800 
 33 H        0.1790     1.9570     2.2490 H     1 <1>   0.0800 
 34 H       -0.2710     0.0790     0.4280 H     1 <1>   0.0800 
 35 H       -1.9590    -0.2540     0.7430 H     1 <1>   0.0800 
 36 H       -0.8910     0.0980     2.0700 H     1 <1>   0.0800 
 37 H       -2.0190     5.6700    -0.3440 H     1 <1>   0.0800 
 38 H       -0.5450     4.7750    -0.2120 H     1 <1>   0.0800 
 39 H       -5.5860    -1.6320     0.2630 H     1 <1>   0.2700 
 40 H       -1.6210    -2.2000    -0.9730 H     1 <1>   0.1500 
 41 H       -3.9010     0.2600     0.8410 H     1 <1>   0.4000 
 42 H       -0.0670     4.3240     2.7080 H     1 <1>   0.0800 
 43 H       -1.4470     3.4190     3.2050 H     1 <1>   0.0800 
 44 H       -2.8430     4.5440     1.7760 H     1 <1>   0.0800 
 45 H       -1.6200     5.7470     1.9350 H     1 <1>   0.0800 
 46 H       -4.8970    -2.4030     2.9710 H     1 <1>   0.0800 
 47 H       -3.7990    -3.7590     2.8970 H     1 <1>   0.0800 
 48 H       -5.3450    -3.8540     2.0930 H     1 <1>   0.0800 
@<TRIPOS>BOND
  1   1   2  2   
  2   2   3  am  
  3   2   4  1   
  4   3   5  1   
  5   3   6  1   
  6   4   7  1   
  7   4   8  1   
  8   4  22  1   
  9   5   9  1   
 10   5  23  1   
 11   5  24  1   
 12   6  10  1   
 13   6  25  1   
 14   6  26  1   
 15   7  11  1   
 16   7  12  1   
 17   7  27  1   
 18   8  13  1   
 19   8  28  1   
 20   8  29  1   
 21   9  14  1   
 22   9  15  2   
 23  10  16  1   
 24  10  30  1   
 25  10  31  1   
 26  11  17  1   
 27  11  32  1   
 28  11  33  1   
 29  12  34  1   
 30  12  35  1   
 31  12  36  1   
 32  13  18  1   
 33  13  37  1   
 34  13  38  1   
 35  14  19  1   
 36  14  39  1   
 37  15  20  1   
 38  15  40  1   
 39  16  41  1   
 40  17  18  1   
 41  17  42  1   
 42  17  43  1   
 43  18  44  1   
 44  18  45  1   
 45  19  20  2   
 46  19  21  1   
 47  21  46  1   
 48  21  47  1   
 49  21  48  1   
@<TRIPOS>SUBSTRUCTURE
  1 ****   2 GROUP 4 **** **** 0

# MOE 2024.06 (io_trps.svl 2023.06)
