@<TRIPOS>MOLECULE
NONAME
45 46 1 0 0 
SMALL
USER_CHARGES


@<TRIPOS>ATOM
  1 S       -1.1570     1.1330     0.1400 S.o2  1 <1>   1.4470 
  2 O       -1.5060     1.0740    -1.2590 O.2   1 <1>  -0.6500 
  3 O       -2.1800     1.2750     1.1500 O.2   1 <1>  -0.6500 
  4 N       -0.2030     2.5060     0.2370 N.am  1 <1>  -0.9140 
  5 C       -0.0020    -0.1950     0.5820 C.ar  1 <1>  -0.0090 
  6 C       -1.0250     3.7350     0.2950 C.3   1 <1>   0.2570 
  7 C        0.6050    -0.9760    -0.3990 C.ar  1 <1>  -0.1500 
  8 C        0.3190    -0.4390     1.9150 C.ar  1 <1>  -0.1500 
  9 C       -0.1930     5.0210     0.2610 C.2   1 <1>   0.5690 
 10 C        1.5090    -1.9780    -0.0780 C.ar  1 <1>  -0.1440 
 11 C        1.2170    -1.4330     2.2650 C.ar  1 <1>  -0.1500 
 12 O       -0.6550     6.0170    -0.2410 O.2   1 <1>  -0.5700 
 13 N        1.0590     4.9940     0.7810 N.am  1 <1>  -0.7300 
 14 C        1.7970    -2.1840     1.2620 C.ar  1 <1>   0.1900 
 15 C        2.1590    -2.8220    -1.1650 C.3   1 <1>  -0.0970 
 16 C        2.0460     6.0690     0.6810 C.3   1 <1>   0.3640 
 17 F        2.6450    -3.1170     1.6030 F     1 <1>  -0.1900 
 18 C        3.3500     5.4600     0.1900 C.ar  1 <1>  -0.1430 
 19 C        2.1870     6.7330     2.0480 C.3   1 <1>  -0.2400 
 20 C        3.8210     5.7860    -1.0730 C.ar  1 <1>   0.1600 
 21 C        4.0860     4.5730     0.9550 C.ar  1 <1>  -0.1500 
 22 N        4.9340     5.3180    -1.6160 N.ar  1 <1>  -0.6200 
 23 C        5.2480     4.0780     0.4030 C.ar  1 <1>  -0.1500 
 24 C        5.6250     4.4750    -0.8690 C.ar  1 <1>   0.1670 
 25 C        6.9000     3.9420    -1.4880 C.3   1 <1>  -0.0970 
 26 H        0.2670     2.5270    -0.6690 H     1 <1>   0.4200 
 27 H       -1.6040     3.7420     1.2030 H     1 <1>   0.0800 
 28 H       -1.7110     3.7550    -0.5360 H     1 <1>   0.0800 
 29 H        0.3620    -0.7950    -1.4330 H     1 <1>   0.1500 
 30 H       -0.1420     0.1560     2.6870 H     1 <1>   0.1500 
 31 H        1.4650    -1.6250     3.2940 H     1 <1>   0.1500 
 32 H        1.4180     4.1030     1.1270 H     1 <1>   0.3700 
 33 H        1.8370    -2.5100    -2.1430 H     1 <1>   0.0800 
 34 H        1.8960    -3.8560    -1.0310 H     1 <1>   0.0800 
 35 H        3.2290    -2.7290    -1.1110 H     1 <1>   0.0800 
 36 H        1.7020     6.8070    -0.0260 H     1 <1>   0.0800 
 37 H        2.4550     6.0180     2.8040 H     1 <1>   0.0800 
 38 H        1.2580     7.2020     2.3190 H     1 <1>   0.0800 
 39 H        2.9480     7.4900     2.0030 H     1 <1>   0.0800 
 40 H        3.2520     6.4710    -1.6790 H     1 <1>   0.1500 
 41 H        3.7770     4.2750     1.9410 H     1 <1>   0.1500 
 42 H        5.8550     3.3880     0.9590 H     1 <1>   0.1500 
 43 H        6.6650     3.4190    -2.3970 H     1 <1>   0.0800 
 44 H        7.4070     3.2710    -0.8200 H     1 <1>   0.0800 
 45 H        7.5530     4.7620    -1.7210 H     1 <1>   0.0800 
@<TRIPOS>BOND
  1   1   2  2   
  2   1   3  2   
  3   1   4  am  
  4   1   5  1   
  5   4   6  1   
  6   4  26  1   
  7   5   7  ar  
  8   5   8  ar  
  9   6   9  1   
 10   6  27  1   
 11   6  28  1   
 12   7  10  ar  
 13   7  29  1   
 14   8  11  ar  
 15   8  30  1   
 16   9  12  2   
 17   9  13  am  
 18  10  14  ar  
 19  10  15  1   
 20  11  14  ar  
 21  11  31  1   
 22  13  16  1   
 23  13  32  1   
 24  14  17  1   
 25  15  33  1   
 26  15  34  1   
 27  15  35  1   
 28  16  18  1   
 29  16  19  1   
 30  16  36  1   
 31  18  20  ar  
 32  18  21  ar  
 33  19  37  1   
 34  19  38  1   
 35  19  39  1   
 36  20  22  ar  
 37  20  40  1   
 38  21  23  ar  
 39  21  41  1   
 40  22  24  ar  
 41  23  24  ar  
 42  23  42  1   
 43  24  25  1   
 44  25  43  1   
 45  25  44  1   
 46  25  45  1   
@<TRIPOS>SUBSTRUCTURE
  1 ****   4 GROUP 4 **** **** 0

# MOE 2024.06 (io_trps.svl 2023.06)
