@<TRIPOS>MOLECULE
NONAME
24 24 1 0 0 
SMALL
USER_CHARGES


@<TRIPOS>ATOM
  1 F        0.8160     1.4760    -0.5190 F     1 <1>  -0.3400 
  2 C        2.1010     1.8250    -0.5280 C.3   1 <1>   1.0810 
  3 F        2.1130     3.1440    -0.7200 F     1 <1>  -0.3400 
  4 F        2.5960     1.2850    -1.6410 F     1 <1>  -0.3400 
  5 C        2.8440     1.3890     0.7580 C.2   1 <1>   0.4230 
  6 O        2.3260     1.5060     1.8500 O.2   1 <1>  -0.5700 
  7 C        4.1510     0.8020     0.6270 C.ar  1 <1>   0.0860 
  8 C        5.2050     1.4480    -0.0300 C.ar  1 <1>   0.0820 
  9 C        4.4080    -0.4560     1.1760 C.ar  1 <1>  -0.1500 
 10 O        5.0180     2.6920    -0.5080 O.3   1 <1>  -0.3630 
 11 C        6.4420     0.8330    -0.1980 C.ar  1 <1>  -0.1440 
 12 C        5.6390    -1.0630     1.0350 C.ar  1 <1>  -0.1500 
 13 C        5.2420     3.7650     0.3820 C.3   1 <1>   0.0400 
 14 C        6.6520    -0.4240     0.3410 C.ar  1 <1>  -0.1500 
 15 C        7.5670     1.5190    -0.9620 C.3   1 <1>  -0.0960 
 16 H        3.6260    -0.9600     1.7190 H     1 <1>   0.1500 
 17 H        5.8150    -2.0360     1.4620 H     1 <1>   0.1500 
 18 H        5.0640     4.6840    -0.1480 H     1 <1>   0.0800 
 19 H        6.2600     3.7280     0.7260 H     1 <1>   0.0800 
 20 H        4.5640     3.6830     1.2130 H     1 <1>   0.0800 
 21 H        7.6040    -0.9140     0.2290 H     1 <1>   0.1500 
 22 H        7.1860     1.9550    -1.8690 H     1 <1>   0.0800 
 23 H        8.3380     0.8170    -1.2250 H     1 <1>   0.0800 
 24 H        8.0000     2.2960    -0.3590 H     1 <1>   0.0800 
@<TRIPOS>BOND
  1   1   2  1   
  2   2   3  1   
  3   2   4  1   
  4   2   5  1   
  5   5   6  2   
  6   5   7  1   
  7   7   8  ar  
  8   7   9  ar  
  9   8  10  1   
 10   8  11  ar  
 11   9  12  ar  
 12   9  16  1   
 13  10  13  1   
 14  11  14  ar  
 15  11  15  1   
 16  12  14  ar  
 17  12  17  1   
 18  13  18  1   
 19  13  19  1   
 20  13  20  1   
 21  14  21  1   
 22  15  22  1   
 23  15  23  1   
 24  15  24  1   
@<TRIPOS>SUBSTRUCTURE
  1 ****   7 GROUP 4 **** **** 0

# MOE 2024.06 (io_trps.svl 2023.06)
