@<TRIPOS>MOLECULE
NONAME
54 56 1 0 0 
SMALL
USER_CHARGES


@<TRIPOS>ATOM
  1 S        1.8230     2.7170    -0.4550 S.o2  1 <1>   1.3330 
  2 O        1.4220     3.3570    -1.6860 O.2   1 <1>  -0.6500 
  3 O        2.5300     3.5020     0.5370 O.2   1 <1>  -0.6500 
  4 N        2.8190     1.4080    -0.8720 N.am  1 <1>  -0.8490 
  5 C        0.4030     1.8960     0.2880 C.3   1 <1>  -0.0550 
  6 C        2.4350     0.7560    -2.1310 C.3   1 <1>   0.1160 
  7 C        4.2410     1.7660    -0.9170 C.3   1 <1>   0.1160 
  8 C       -0.6950     2.7770     0.9310 C.3   1 <1>  -0.0800 
  9 C       -1.2170     3.8950     0.0270 C.3   1 <1>   0.2000 
 10 C       -0.2110     3.4960     2.1980 C.3   1 <1>   0.1100 
 11 O       -2.5320     4.1270     0.3810 O.3   1 <1>  -0.6800 
 12 C       -0.4080     5.1130     0.4560 C.3   1 <1>   0.1100 
 13 N       -0.1920     4.9380     1.9060 N.3   1 <1>  -0.8100 
 14 C        0.9840     5.6220     2.5010 C.3   1 <1>   0.2480 
 15 C        1.5190     6.7930     1.6820 C.2   1 <1>  -0.0380 
 16 N        2.4600     6.5140     0.7260 N.pl3 1 <1>  -0.6000 
 17 C        1.1270     8.0730     1.8640 C.2   1 <1>  -0.1360 
 18 C        3.0340     7.4890    -0.0850 C.ar  1 <1>   0.1000 
 19 C        1.6620     9.1370     1.0950 C.2   1 <1>   0.4690 
 20 C        2.6580     8.8410     0.0770 C.ar  1 <1>   0.0860 
 21 C        3.9760     7.1140    -1.0500 C.ar  1 <1>  -0.1440 
 22 O        1.2520    10.2660     1.3350 O.2   1 <1>  -0.5700 
 23 C        3.2750     9.7970    -0.7600 C.ar  1 <1>  -0.1440 
 24 C        4.5540     8.0740    -1.8480 C.ar  1 <1>  -0.1500 
 25 C        4.3700     5.6560    -1.2430 C.3   1 <1>  -0.0970 
 26 C        4.2050     9.4060    -1.7010 C.ar  1 <1>  -0.1500 
 27 C        2.9570    11.2870    -0.6800 C.3   1 <1>  -0.0970 
 28 H       -0.0670     1.3000    -0.4690 H     1 <1>   0.0800 
 29 H        0.7620     1.2160     1.0370 H     1 <1>   0.0800 
 30 H        3.0400    -0.1190    -2.2940 H     1 <1>   0.0800 
 31 H        2.5660     1.4310    -2.9610 H     1 <1>   0.0800 
 32 H        1.4040     0.4510    -2.0940 H     1 <1>   0.0800 
 33 H        4.8350     0.9020    -1.1600 H     1 <1>   0.0800 
 34 H        4.5610     2.1310     0.0450 H     1 <1>   0.0800 
 35 H        4.4110     2.5320    -1.6540 H     1 <1>   0.0800 
 36 H       -1.5030     2.1150     1.1930 H     1 <1>   0.0800 
 37 H       -1.1720     3.6850    -1.0280 H     1 <1>   0.0800 
 38 H        0.7590     3.1330     2.4930 H     1 <1>   0.0800 
 39 H       -0.8980     3.3190     3.0090 H     1 <1>   0.0800 
 40 H       -2.5110     4.5840     1.2490 H     1 <1>   0.4000 
 41 H       -0.9230     6.0340     0.2440 H     1 <1>   0.0800 
 42 H        0.5240     5.1180    -0.0740 H     1 <1>   0.0800 
 43 H        0.7020     5.9770     3.4770 H     1 <1>   0.0800 
 44 H        1.7950     4.9290     2.6380 H     1 <1>   0.0800 
 45 H        2.7200     5.5250     0.5660 H     1 <1>   0.4000 
 46 H        0.3910     8.3390     2.5980 H     1 <1>   0.1500 
 47 H        5.2790     7.8050    -2.5960 H     1 <1>   0.1500 
 48 H        5.1790     5.5630    -1.9440 H     1 <1>   0.0800 
 49 H        3.5290     5.1040    -1.6220 H     1 <1>   0.0800 
 50 H        4.6830     5.2270    -0.3080 H     1 <1>   0.0800 
 51 H        4.6770    10.1310    -2.3400 H     1 <1>   0.1500 
 52 H        3.5270    11.8520    -1.3950 H     1 <1>   0.0800 
 53 H        3.1870    11.6610     0.3020 H     1 <1>   0.0800 
 54 H        1.9130    11.4530    -0.8790 H     1 <1>   0.0800 
@<TRIPOS>BOND
  1   1   2  2   
  2   1   3  2   
  3   1   4  am  
  4   1   5  1   
  5   4   6  1   
  6   4   7  1   
  7   5   8  1   
  8   5  28  1   
  9   5  29  1   
 10   6  30  1   
 11   6  31  1   
 12   6  32  1   
 13   7  33  1   
 14   7  34  1   
 15   7  35  1   
 16   8   9  1   
 17   8  10  1   
 18   8  36  1   
 19   9  11  1   
 20   9  12  1   
 21   9  37  1   
 22  10  13  1   
 23  10  38  1   
 24  10  39  1   
 25  11  40  1   
 26  12  13  1   
 27  12  41  1   
 28  12  42  1   
 29  13  14  1   
 30  14  15  1   
 31  14  43  1   
 32  14  44  1   
 33  15  16  1   
 34  15  17  2   
 35  16  18  1   
 36  16  45  1   
 37  17  19  1   
 38  17  46  1   
 39  18  20  ar  
 40  18  21  ar  
 41  19  20  1   
 42  19  22  2   
 43  20  23  ar  
 44  21  24  ar  
 45  21  25  1   
 46  23  26  ar  
 47  23  27  1   
 48  24  26  ar  
 49  24  47  1   
 50  25  48  1   
 51  25  49  1   
 52  25  50  1   
 53  26  51  1   
 54  27  52  1   
 55  27  53  1   
 56  27  54  1   
@<TRIPOS>SUBSTRUCTURE
  1 ****  16 GROUP 4 **** **** 0

# MOE 2024.06 (io_trps.svl 2023.06)
