@<TRIPOS>MOLECULE
NONAME
56 58 1 0 0 
SMALL
USER_CHARGES


@<TRIPOS>ATOM
  1 O       -1.3980     0.6020     1.8030 O.2   1 <1>  -0.5700 
  2 C       -2.2660     1.4210     1.5560 C.2   1 <1>   0.5440 
  3 N       -3.5460     0.9570     1.3510 N.am  1 <1>  -0.6600 
  4 C       -1.9360     2.8310     1.4500 C.ar  1 <1>   0.0860 
  5 C       -3.9130    -0.4310     1.7530 C.3   1 <1>   0.1400 
  6 C       -4.4180     1.5010     0.2710 C.3   1 <1>   0.1400 
  7 C       -0.7530     3.2460     0.8410 C.ar  1 <1>  -0.1500 
  8 C       -2.7840     3.8190     1.9500 C.ar  1 <1>  -0.1500 
  9 C       -3.7240    -1.3600     0.5320 C.3   1 <1>   0.4230 
 10 C       -4.3040     0.5830    -0.9560 C.3   1 <1>  -0.1600 
 11 C       -0.4220     4.5850     0.7110 C.ar  1 <1>   0.0730 
 12 C       -2.4700     5.1600     1.8330 C.ar  1 <1>  -0.1500 
 13 N       -3.9370    -2.8190     0.8210 N.4   1 <1>  -0.9590 
 14 C       -4.6450    -0.8990    -0.6210 C.3   1 <1>  -0.1060 
 15 C        0.7940     4.9770     0.0680 C.1   1 <1>  -0.0730 
 16 C       -1.2940     5.5400     1.2130 C.ar  1 <1>  -0.1500 
 17 C       -3.6230    -3.6680    -0.3560 C.3   1 <1>   0.3430 
 18 C       -3.2900    -3.3130     2.0660 C.3   1 <1>   0.2630 
 19 C       -6.1100    -1.0300    -0.1620 C.2   1 <1>   0.9060 
 20 C       -4.3810    -1.7670    -1.8740 C.3   1 <1>  -0.1600 
 21 C        1.8020     5.3090    -0.4710 C.1   1 <1>  -0.2000 
 22 C       -4.4870    -3.2660    -1.5530 C.3   1 <1>  -0.1600 
 23 O       -6.4140    -1.9430     0.6240 O.co2 1 <1>  -0.9000 
 24 O       -6.9470    -0.2240    -0.5650 O.co2 1 <1>  -0.9000 
 25 C        3.0620     5.7260    -1.1440 C.3   1 <1>   0.4800 
 26 O        2.9040     7.0210    -1.5580 O.3   1 <1>  -0.6800 
 27 C        4.2370     5.6990    -0.1740 C.3   1 <1>  -0.2400 
 28 C        3.3270     4.8830    -2.3860 C.3   1 <1>  -0.2400 
 29 H       -3.2790    -0.7360     2.5650 H     1 <1>   0.0800 
 30 H       -4.9330    -0.4430     2.0980 H     1 <1>   0.0800 
 31 H       -5.4390     1.5390     0.6160 H     1 <1>   0.0800 
 32 H       -4.1220     2.4990     0.0000 H     1 <1>   0.0800 
 33 H       -0.0770     2.5010     0.4600 H     1 <1>   0.1500 
 34 H       -3.6990     3.5270     2.4360 H     1 <1>   0.1500 
 35 H       -2.7040    -1.2340     0.2130 H     1 <1>   0.0800 
 36 H       -4.9760     0.9440    -1.7170 H     1 <1>   0.0800 
 37 H       -3.3050     0.6600    -1.3490 H     1 <1>   0.0800 
 38 H       -3.1390     5.9080     2.2230 H     1 <1>   0.1500 
 39 H       -4.9870    -2.8450     0.9330 H     1 <1>   0.4500 
 40 H       -1.0440     6.5830     1.1180 H     1 <1>   0.1500 
 41 H       -2.5810    -3.5580    -0.6110 H     1 <1>   0.0800 
 42 H       -3.8100    -4.7020    -0.1190 H     1 <1>   0.0800 
 43 H       -2.2230    -3.1710     2.0130 H     1 <1>   0.0800 
 44 H       -3.5010    -4.3610     2.2010 H     1 <1>   0.0800 
 45 H       -3.6730    -2.7790     2.9200 H     1 <1>   0.0800 
 46 H       -5.0960    -1.5130    -2.6400 H     1 <1>   0.0800 
 47 H       -3.3970    -1.5610    -2.2600 H     1 <1>   0.0800 
 48 H       -4.1870    -3.8370    -2.4130 H     1 <1>   0.0800 
 49 H       -5.5130    -3.5210    -1.3450 H     1 <1>   0.0800 
 50 H        3.7170     7.3130    -2.0010 H     1 <1>   0.4000 
 51 H        4.3810     4.6990     0.1920 H     1 <1>   0.0800 
 52 H        4.0340     6.3380     0.6670 H     1 <1>   0.0800 
 53 H        5.1420     6.0190    -0.6570 H     1 <1>   0.0800 
 54 H        3.4390     3.8510    -2.1050 H     1 <1>   0.0800 
 55 H        4.2260     5.2000    -2.8820 H     1 <1>   0.0800 
 56 H        2.4960     4.9570    -3.0650 H     1 <1>   0.0800 
@<TRIPOS>BOND
  1   1   2  2   
  2   2   3  am  
  3   2   4  1   
  4   3   5  1   
  5   3   6  1   
  6   4   7  ar  
  7   4   8  ar  
  8   5   9  1   
  9   5  29  1   
 10   5  30  1   
 11   6  10  1   
 12   6  31  1   
 13   6  32  1   
 14   7  11  ar  
 15   7  33  1   
 16   8  12  ar  
 17   8  34  1   
 18   9  13  1   
 19   9  14  1   
 20   9  35  1   
 21  10  14  1   
 22  10  36  1   
 23  10  37  1   
 24  11  15  1   
 25  11  16  ar  
 26  12  16  ar  
 27  12  38  1   
 28  13  17  1   
 29  13  18  1   
 30  13  39  1   
 31  14  19  1   
 32  14  20  1   
 33  15  21  3   
 34  16  40  1   
 35  17  22  1   
 36  17  41  1   
 37  17  42  1   
 38  18  43  1   
 39  18  44  1   
 40  18  45  1   
 41  19  23  ar  
 42  19  24  ar  
 43  20  22  1   
 44  20  46  1   
 45  20  47  1   
 46  21  25  1   
 47  22  48  1   
 48  22  49  1   
 49  25  26  1   
 50  25  27  1   
 51  25  28  1   
 52  26  50  1   
 53  27  51  1   
 54  27  52  1   
 55  27  53  1   
 56  28  54  1   
 57  28  55  1   
 58  28  56  1   
@<TRIPOS>SUBSTRUCTURE
  1 ****   2 GROUP 4 **** **** 0

# MOE 2024.06 (io_trps.svl 2023.06)
