@<TRIPOS>MOLECULE
NONAME
42 43 1 0 0 
SMALL
USER_CHARGES


@<TRIPOS>ATOM
  1 CL       1.7090     2.0450    -3.3780 Cl    1 <1>  -0.1770 
  2 C        2.3640     2.4190    -1.8000 C.ar  1 <1>   0.1770 
  3 C        2.4590     1.4470    -0.8180 C.ar  1 <1>   0.1900 
  4 C        2.7910     3.7060    -1.5330 C.ar  1 <1>  -0.1500 
  5 F        2.0570     0.2260    -1.0640 F     1 <1>  -0.1900 
  6 C        2.9760     1.7320     0.4330 C.ar  1 <1>  -0.1500 
  7 C        3.3130     4.0130    -0.2840 C.ar  1 <1>   0.0830 
  8 C        3.4050     3.0240     0.6990 C.ar  1 <1>  -0.1500 
  9 O        3.7100     5.2950    -0.0980 O.3   1 <1>  -0.3630 
 10 C        4.2060     5.7470     1.1560 C.3   1 <1>   0.1810 
 11 C        4.5450     7.2330     1.1200 C.2   1 <1>   0.5690 
 12 O        4.7620     7.8040     2.1630 O.2   1 <1>  -0.5700 
 13 N        4.5890     7.8840    -0.0660 N.am  1 <1>  -0.7300 
 14 C        4.8180     9.3270    -0.2450 C.3   1 <1>   0.4000 
 15 C        3.4830     9.9450    -0.6680 C.2   1 <1>   0.0060 
 16 C        5.9650     9.5690    -1.2600 C.3   1 <1>  -0.0800 
 17 N        3.0450     9.9980    -1.8910 N.2   1 <1>  -0.5650 
 18 N        2.6190    10.4730     0.2350 N.pl3 1 <1>   0.0480 
 19 C        7.2670     8.8510    -0.8600 C.3   1 <1>  -0.2400 
 20 C        6.2640    11.0710    -1.4210 C.3   1 <1>  -0.2400 
 21 C        1.8460    10.5960    -1.7810 C.2   1 <1>   0.0770 
 22 C        1.5700    10.8920    -0.4940 C.2   1 <1>  -0.3020 
 23 C        2.7440    10.5510     1.7030 C.3   1 <1>   0.0160 
 24 H        2.7180     4.4660    -2.2900 H     1 <1>   0.1500 
 25 H        3.0390     0.9580     1.1770 H     1 <1>   0.1500 
 26 H        3.8060     3.2370     1.6730 H     1 <1>   0.1500 
 27 H        5.0930     5.1890     1.3930 H     1 <1>   0.0800 
 28 H        3.4510     5.5760     1.9010 H     1 <1>   0.0800 
 29 H        4.2500     7.4140    -0.9090 H     1 <1>   0.3700 
 30 H        5.1220     9.7550     0.6940 H     1 <1>   0.0800 
 31 H        5.6480     9.1930    -2.2180 H     1 <1>   0.0800 
 32 H        7.5910     9.1700     0.1150 H     1 <1>   0.0800 
 33 H        8.0470     9.0670    -1.5690 H     1 <1>   0.0800 
 34 H        7.1250     7.7850    -0.8420 H     1 <1>   0.0800 
 35 H        6.5740    11.5010    -0.4850 H     1 <1>   0.0800 
 36 H        5.3900    11.5950    -1.7680 H     1 <1>   0.0800 
 37 H        7.0450    11.2210    -2.1450 H     1 <1>   0.0800 
 38 H        1.2350    10.7850    -2.6480 H     1 <1>   0.1500 
 39 H        0.7030    11.3650    -0.0720 H     1 <1>   0.1500 
 40 H        2.8020     9.5580     2.1090 H     1 <1>   0.0800 
 41 H        1.8870    11.0530     2.1120 H     1 <1>   0.0800 
 42 H        3.6330    11.0970     1.9600 H     1 <1>   0.0800 
@<TRIPOS>BOND
  1   1   2  1   
  2   2   3  ar  
  3   2   4  ar  
  4   3   5  1   
  5   3   6  ar  
  6   4   7  ar  
  7   4  24  1   
  8   6   8  ar  
  9   6  25  1   
 10   7   8  ar  
 11   7   9  1   
 12   8  26  1   
 13   9  10  1   
 14  10  11  1   
 15  10  27  1   
 16  10  28  1   
 17  11  12  2   
 18  11  13  am  
 19  13  14  1   
 20  13  29  1   
 21  14  15  1   
 22  14  16  1   
 23  14  30  1   
 24  15  17  2   
 25  15  18  1   
 26  16  19  1   
 27  16  20  1   
 28  16  31  1   
 29  17  21  1   
 30  18  22  1   
 31  18  23  1   
 32  19  32  1   
 33  19  33  1   
 34  19  34  1   
 35  20  35  1   
 36  20  36  1   
 37  20  37  1   
 38  21  22  2   
 39  21  38  1   
 40  22  39  1   
 41  23  40  1   
 42  23  41  1   
 43  23  42  1   
@<TRIPOS>SUBSTRUCTURE
  1 ****   9 GROUP 4 **** **** 0

# MOE 2024.06 (io_trps.svl 2023.06)
