@<TRIPOS>MOLECULE
NONAME
43 46 1 0 0 
SMALL
USER_CHARGES


@<TRIPOS>ATOM
  1 O       -0.7630     0.1430     0.5480 O.2   1 <1>  -0.5700 
  2 C       -1.6330     0.8240     0.0400 C.2   1 <1>   0.7160 
  3 N       -2.7180     0.2010    -0.5350 N.am  1 <1>  -0.6600 
  4 C       -1.5090     2.2630     0.0690 C.2   1 <1>  -0.0860 
  5 C       -4.0970     0.7780    -0.5160 C.3   1 <1>   0.1400 
  6 C       -2.6970    -1.2550    -0.8740 C.3   1 <1>   0.1400 
  7 C       -0.8930     3.0300     1.0070 C.2   1 <1>  -0.0100 
  8 C       -1.9770     3.1980    -0.8800 C.2   1 <1>  -0.1500 
  9 C       -5.0360    -0.0640     0.3710 C.3   1 <1>   0.1900 
 10 C       -3.6710    -2.0430     0.0160 C.3   1 <1>   0.1100 
 11 O       -0.9710     4.3060     0.7130 O.3   1 <1>  -0.2800 
 12 C       -1.6190     4.4160    -0.4260 C.2   1 <1>  -0.0100 
 13 N       -5.0400    -1.4840    -0.0610 N.3   1 <1>  -0.8100 
 14 C       -6.4650     0.5140     0.3420 C.3   1 <1>   0.1200 
 15 C       -5.9970    -2.2600     0.7640 C.3   1 <1>   0.3330 
 16 O       -7.3180    -0.2480     1.1480 O.3   1 <1>  -0.5600 
 17 C       -6.1200    -3.6960     0.2580 C.ar  1 <1>  -0.1430 
 18 C       -7.3900    -1.5940     0.7580 C.3   1 <1>   0.1200 
 19 C       -6.3100    -3.9620    -1.0920 C.ar  1 <1>  -0.1500 
 20 C       -6.0480    -4.7570     1.1490 C.ar  1 <1>  -0.1500 
 21 C       -6.4260    -5.2650    -1.5430 C.ar  1 <1>  -0.1500 
 22 C       -6.1630    -6.0610     0.7000 C.ar  1 <1>  -0.1500 
 23 C       -6.3530    -6.3160    -0.6470 C.ar  1 <1>  -0.1500 
 24 H       -4.0800     1.7830    -0.1350 H     1 <1>   0.0800 
 25 H       -4.4820     0.8030    -1.5200 H     1 <1>   0.0800 
 26 H       -2.9840    -1.3820    -1.9030 H     1 <1>   0.0800 
 27 H       -1.7050    -1.6570    -0.7590 H     1 <1>   0.0800 
 28 H       -0.3810     2.7260     1.9040 H     1 <1>   0.1500 
 29 H       -2.5040     2.9490    -1.7840 H     1 <1>   0.1500 
 30 H       -4.6780     0.0000     1.3850 H     1 <1>   0.0800 
 31 H       -3.3160    -2.0210     1.0330 H     1 <1>   0.0800 
 32 H       -3.6750    -3.0680    -0.3130 H     1 <1>   0.0800 
 33 H       -1.7760     5.3970    -0.8410 H     1 <1>   0.1500 
 34 H       -6.8540     0.5180    -0.6620 H     1 <1>   0.0800 
 35 H       -6.4710     1.5190     0.7240 H     1 <1>   0.0800 
 36 H       -5.6460    -2.2770     1.7820 H     1 <1>   0.0800 
 37 H       -8.0420    -2.1010     1.4460 H     1 <1>   0.0800 
 38 H       -7.8230    -1.6440    -0.2250 H     1 <1>   0.0800 
 39 H       -6.3610    -3.1460    -1.7930 H     1 <1>   0.1500 
 40 H       -5.9010    -4.5750     2.2000 H     1 <1>   0.1500 
 41 H       -6.5720    -5.4590    -2.5910 H     1 <1>   0.1500 
 42 H       -6.1060    -6.8780     1.3970 H     1 <1>   0.1500 
 43 H       -6.4430    -7.3290    -0.9970 H     1 <1>   0.1500 
@<TRIPOS>BOND
  1   1   2  2   
  2   2   3  am  
  3   2   4  1   
  4   3   5  1   
  5   3   6  1   
  6   4   7  2   
  7   4   8  1   
  8   5   9  1   
  9   5  24  1   
 10   5  25  1   
 11   6  10  1   
 12   6  26  1   
 13   6  27  1   
 14   7  11  1   
 15   7  28  1   
 16   8  12  2   
 17   8  29  1   
 18   9  13  1   
 19   9  14  1   
 20   9  30  1   
 21  10  13  1   
 22  10  31  1   
 23  10  32  1   
 24  11  12  1   
 25  12  33  1   
 26  13  15  1   
 27  14  16  1   
 28  14  34  1   
 29  14  35  1   
 30  15  17  1   
 31  15  18  1   
 32  15  36  1   
 33  16  18  1   
 34  17  19  ar  
 35  17  20  ar  
 36  18  37  1   
 37  18  38  1   
 38  19  21  ar  
 39  19  39  1   
 40  20  22  ar  
 41  20  40  1   
 42  21  23  ar  
 43  21  41  1   
 44  22  23  ar  
 45  22  42  1   
 46  23  43  1   
@<TRIPOS>SUBSTRUCTURE
  1 ****  13 GROUP 4 **** **** 0

# MOE 2024.06 (io_trps.svl 2023.06)
