@<TRIPOS>MOLECULE
NONAME
50 52 1 0 0 
SMALL
USER_CHARGES


@<TRIPOS>ATOM
  1 O       -0.2210     1.6780    -2.7600 O.2   1 <1>  -0.5700 
  2 C       -0.1280     0.5830    -2.2600 C.2   1 <1>   0.5690 
  3 N        0.7150     0.2870    -1.2250 N.am  1 <1>  -0.4940 
  4 C       -1.0000    -0.5340    -2.8050 C.3   1 <1>   0.0820 
  5 C        1.5490     1.0730    -0.3970 C.2   1 <1>  -0.0880 
  6 C       -1.4410    -1.4940    -1.7100 C.2   1 <1>   0.0460 
  7 N        2.2320     2.2090    -0.7110 N.pl3 1 <1>   0.3140 
  8 C        1.8410     0.7980     0.8960 C.2   1 <1>  -0.1810 
  9 N       -0.5620    -2.3450    -1.1480 N.2   1 <1>  -0.5650 
 10 C       -2.6440    -1.6550    -1.1390 C.2   1 <1>  -0.0400 
 11 N        2.9530     2.6550     0.3410 N.2   1 <1>  -0.7070 
 12 C        2.3210     2.9010    -2.0020 C.3   1 <1>   0.0160 
 13 C        2.7120     1.8110     1.2940 C.2   1 <1>   0.1080 
 14 C        1.3190    -0.3610     1.7320 C.3   1 <1>   0.0210 
 15 C       -1.2670    -2.9830    -0.2630 C.2   1 <1>   0.4250 
 16 O       -2.5270    -2.5860    -0.2380 O.3   1 <1>  -0.2800 
 17 C       -3.9940    -0.9940    -1.3330 C.3   1 <1>  -0.0600 
 18 C        3.3370     1.9590     2.6700 C.3   1 <1>   0.0210 
 19 C        2.2300    -1.5810     1.5880 C.3   1 <1>  -0.2400 
 20 C       -0.8060    -4.0130     0.6460 C.ar  1 <1>   0.0530 
 21 C        2.4460     2.7940     3.5950 C.3   1 <1>  -0.2400 
 22 C       -1.6110    -4.4940     1.6810 C.ar  1 <1>  -0.1500 
 23 C        0.4720    -4.5600     0.5240 C.ar  1 <1>  -0.1500 
 24 C       -1.1610    -5.4690     2.5530 C.ar  1 <1>  -0.1500 
 25 C        0.9290    -5.5350     1.3920 C.ar  1 <1>  -0.1500 
 26 C        0.1120    -5.9910     2.4100 C.ar  1 <1>  -0.1500 
 27 H        0.5990    -0.6800    -0.8950 H     1 <1>   0.3700 
 28 H       -0.4480    -1.0730    -3.5510 H     1 <1>   0.0800 
 29 H       -1.8600    -0.0990    -3.2770 H     1 <1>   0.0800 
 30 H        2.3620     2.1770    -2.7920 H     1 <1>   0.0800 
 31 H        3.2080     3.5050    -2.0180 H     1 <1>   0.0800 
 32 H        1.4570     3.5260    -2.1220 H     1 <1>   0.0800 
 33 H        0.3250    -0.6160     1.4090 H     1 <1>   0.0800 
 34 H        1.2590    -0.0680     2.7650 H     1 <1>   0.0800 
 35 H       -3.9420    -0.2340    -2.0910 H     1 <1>   0.0800 
 36 H       -4.3110    -0.5430    -0.4110 H     1 <1>   0.0800 
 37 H       -4.7190    -1.7310    -1.6270 H     1 <1>   0.0800 
 38 H        4.2920     2.4410     2.5610 H     1 <1>   0.0800 
 39 H        3.5040     0.9880     3.0970 H     1 <1>   0.0800 
 40 H        2.2740    -1.8890     0.5580 H     1 <1>   0.0800 
 41 H        1.8510    -2.3960     2.1780 H     1 <1>   0.0800 
 42 H        3.2250    -1.3430     1.9180 H     1 <1>   0.0800 
 43 H        2.2980     3.7710     3.1670 H     1 <1>   0.0800 
 44 H        2.9070     2.9020     4.5590 H     1 <1>   0.0800 
 45 H        1.4870     2.3230     3.7130 H     1 <1>   0.0800 
 46 H       -2.6040    -4.0990     1.8070 H     1 <1>   0.1500 
 47 H        1.1160    -4.2160    -0.2670 H     1 <1>   0.1500 
 48 H       -1.8000    -5.8240     3.3430 H     1 <1>   0.1500 
 49 H        1.9190    -5.9400     1.2750 H     1 <1>   0.1500 
 50 H        0.4640    -6.7500     3.0870 H     1 <1>   0.1500 
@<TRIPOS>BOND
  1   1   2  2   
  2   2   3  am  
  3   2   4  1   
  4   3   5  1   
  5   3  27  1   
  6   4   6  1   
  7   4  28  1   
  8   4  29  1   
  9   5   7  1   
 10   5   8  2   
 11   6   9  1   
 12   6  10  2   
 13   7  11  1   
 14   7  12  1   
 15   8  13  1   
 16   8  14  1   
 17   9  15  2   
 18  10  16  1   
 19  10  17  1   
 20  11  13  2   
 21  12  30  1   
 22  12  31  1   
 23  12  32  1   
 24  13  18  1   
 25  14  19  1   
 26  14  33  1   
 27  14  34  1   
 28  15  16  1   
 29  15  20  1   
 30  17  35  1   
 31  17  36  1   
 32  17  37  1   
 33  18  21  1   
 34  18  38  1   
 35  18  39  1   
 36  19  40  1   
 37  19  41  1   
 38  19  42  1   
 39  20  22  ar  
 40  20  23  ar  
 41  21  43  1   
 42  21  44  1   
 43  21  45  1   
 44  22  24  ar  
 45  22  46  1   
 46  23  25  ar  
 47  23  47  1   
 48  24  26  ar  
 49  24  48  1   
 50  25  26  ar  
 51  25  49  1   
 52  26  50  1   
@<TRIPOS>SUBSTRUCTURE
  1 ****   3 GROUP 4 **** **** 0

# MOE 2024.06 (io_trps.svl 2023.06)
