@<TRIPOS>MOLECULE
NONAME
48 50 1 0 0 
SMALL
USER_CHARGES


@<TRIPOS>ATOM
  1 O        2.3290    -0.7500    -2.7030 O.2   1 <1>  -0.5700 
  2 C        2.6220    -1.1700    -1.6080 C.2   1 <1>   0.5690 
  3 N        3.1700    -0.3330    -0.6600 N.am  1 <1>  -0.6600 
  4 C        2.2750    -2.6360    -1.2910 C.3   1 <1>   0.1710 
  5 C        3.3090    -0.6990     0.7800 C.3   1 <1>   0.1400 
  6 C        3.1840     1.1420    -0.8810 C.3   1 <1>   0.1400 
  7 N        1.2780    -2.7830    -0.1910 N.3   1 <1>  -0.8100 
  8 C        2.1220    -0.1040     1.5640 C.3   1 <1>   0.3430 
  9 C        2.0000     1.7710    -0.1190 C.3   1 <1>   0.3430 
 10 C       -0.0140    -2.1670    -0.5190 C.3   1 <1>   0.1100 
 11 C        0.9530    -4.1850     0.1210 C.3   1 <1>   0.1100 
 12 N        1.9880     1.3830     1.3400 N.4   1 <1>  -0.9060 
 13 C       -0.9520    -2.7290     0.5400 C.3   1 <1>   0.2000 
 14 C       -0.4980    -4.1880     0.6450 C.3   1 <1>  -0.0800 
 15 O       -0.6530    -2.1020     1.7420 O.3   1 <1>  -0.6800 
 16 C       -1.4040    -5.1210    -0.1820 C.3   1 <1>   0.0210 
 17 C       -0.9050    -6.5550    -0.1710 C.2   1 <1>   0.1080 
 18 N       -0.5860    -7.1870     0.9150 N.2   1 <1>  -0.7070 
 19 C       -0.7380    -7.3440    -1.3050 C.2   1 <1>  -0.1500 
 20 N       -0.2090    -8.4120     0.5000 N.pl3 1 <1>   0.3000 
 21 C       -0.2890    -8.5290    -0.8420 C.2   1 <1>  -0.3320 
 22 C        0.0680    -9.7890    -1.6090 C.3   1 <1>  -0.0600 
 23 H        3.1810    -3.1470    -1.0220 H     1 <1>   0.0800 
 24 H        1.8940    -3.0950    -2.1870 H     1 <1>   0.0800 
 25 H        3.3350    -1.7660     0.9110 H     1 <1>   0.0800 
 26 H        4.2370    -0.3100     1.1620 H     1 <1>   0.0800 
 27 H        4.1160     1.5520    -0.5340 H     1 <1>   0.0800 
 28 H        3.1000     1.3720    -1.9300 H     1 <1>   0.0800 
 29 H        2.2450    -0.3110     2.6140 H     1 <1>   0.0800 
 30 H        1.2230    -0.6010     1.2370 H     1 <1>   0.0800 
 31 H        1.0900     1.4330    -0.5880 H     1 <1>   0.0800 
 32 H        2.0420     2.8430    -0.2170 H     1 <1>   0.0800 
 33 H        0.0240    -1.0930    -0.4890 H     1 <1>   0.0800 
 34 H       -0.3390    -2.4840    -1.4970 H     1 <1>   0.0800 
 35 H        1.0350    -4.7930    -0.7650 H     1 <1>   0.0800 
 36 H        1.6310    -4.5720     0.8640 H     1 <1>   0.0800 
 37 H        2.7560     1.8640     1.8210 H     1 <1>   0.4500 
 38 H        1.1110     1.7050     1.7710 H     1 <1>   0.4500 
 39 H       -1.9960    -2.5890     0.3180 H     1 <1>   0.0800 
 40 H       -0.5260    -4.5270     1.6660 H     1 <1>   0.0800 
 41 H        0.1760    -2.5100     2.0610 H     1 <1>   0.4000 
 42 H       -1.4620    -4.7770    -1.1980 H     1 <1>   0.0800 
 43 H       -2.3960    -5.1100     0.2320 H     1 <1>   0.0800 
 44 H       -0.9340    -7.0500    -2.3200 H     1 <1>   0.1500 
 45 H        0.0910    -9.1430     1.1560 H     1 <1>   0.2700 
 46 H       -0.0800    -9.6360    -2.6630 H     1 <1>   0.0800 
 47 H       -0.5550   -10.6070    -1.2920 H     1 <1>   0.0800 
 48 H        1.0990   -10.0480    -1.4420 H     1 <1>   0.0800 
@<TRIPOS>BOND
  1   1   2  2   
  2   2   3  am  
  3   2   4  1   
  4   3   5  1   
  5   3   6  1   
  6   4   7  1   
  7   4  23  1   
  8   4  24  1   
  9   5   8  1   
 10   5  25  1   
 11   5  26  1   
 12   6   9  1   
 13   6  27  1   
 14   6  28  1   
 15   7  10  1   
 16   7  11  1   
 17   8  12  1   
 18   8  29  1   
 19   8  30  1   
 20   9  12  1   
 21   9  31  1   
 22   9  32  1   
 23  10  13  1   
 24  10  33  1   
 25  10  34  1   
 26  11  14  1   
 27  11  35  1   
 28  11  36  1   
 29  12  37  1   
 30  12  38  1   
 31  13  14  1   
 32  13  15  1   
 33  13  39  1   
 34  14  16  1   
 35  14  40  1   
 36  15  41  1   
 37  16  17  1   
 38  16  42  1   
 39  16  43  1   
 40  17  18  2   
 41  17  19  1   
 42  18  20  1   
 43  19  21  2   
 44  19  44  1   
 45  20  21  1   
 46  20  45  1   
 47  21  22  1   
 48  22  46  1   
 49  22  47  1   
 50  22  48  1   
@<TRIPOS>SUBSTRUCTURE
  1 ****   7 GROUP 4 **** **** 0

# MOE 2024.06 (io_trps.svl 2023.06)
