@<TRIPOS>MOLECULE
NONAME
51 54 1 0 0 
SMALL
USER_CHARGES


@<TRIPOS>ATOM
  1 CL      -2.3280     2.4630     0.3070 Cl    1 <1>  -0.1770 
  2 C       -3.6220     1.5960     1.0980 C.ar  1 <1>   0.1770 
  3 C       -4.0810     1.9720     2.3480 C.ar  1 <1>   0.1900 
  4 C       -4.1970     0.5170     0.4490 C.ar  1 <1>  -0.1500 
  5 F       -3.5440     2.9920     2.9630 F     1 <1>  -0.1900 
  6 C       -5.1070     1.2870     2.9710 C.ar  1 <1>  -0.1500 
  7 C       -5.2380    -0.1790     1.0560 C.ar  1 <1>  -0.1440 
  8 C       -5.6840     0.2080     2.3180 C.ar  1 <1>  -0.1500 
  9 C       -5.8940    -1.3490     0.3410 C.3   1 <1>   0.4870 
 10 N       -6.7690    -0.8170    -0.7380 N.4   1 <1>  -0.9590 
 11 C       -7.8880     0.0120    -0.1660 C.3   1 <1>   0.3430 
 12 C       -7.3010    -1.9090    -1.6040 C.3   1 <1>   0.3430 
 13 C       -8.7480     0.6630    -1.2600 C.3   1 <1>   0.1440 
 14 C       -8.1170    -1.3100    -2.7540 C.3   1 <1>  -0.1600 
 15 C       -9.9050     1.3510    -0.5810 C.ar  1 <1>   0.1670 
 16 C       -9.2570    -0.4070    -2.2480 C.3   1 <1>  -0.1600 
 17 C       -8.0340     1.8380    -1.9820 C.3   1 <1>  -0.1600 
 18 N      -10.6400     0.8020     0.3510 N.ar  1 <1>  -0.6200 
 19 C      -10.0750     2.6240    -1.0280 C.ar  1 <1>  -0.1430 
 20 C       -9.0660     2.9800    -2.0900 C.3   1 <1>  -0.0170 
 21 C      -11.5980     1.5920     0.8440 C.ar  1 <1>   0.7200 
 22 C      -11.0860     3.3600    -0.4640 C.ar  1 <1>   0.1600 
 23 N      -11.8490     2.8520     0.4750 N.ar  1 <1>  -0.6200 
 24 N      -12.3930     1.0570     1.8350 N.pl3 1 <1>  -0.8380 
 25 C      -13.2400     1.9210     2.7040 C.3   1 <1>   0.1290 
 26 C      -12.6730    -0.4020     1.9270 C.3   1 <1>   0.1290 
 27 H       -3.8160     0.2400    -0.5180 H     1 <1>   0.1500 
 28 H       -5.4430     1.5970     3.9460 H     1 <1>   0.1500 
 29 H       -6.4840    -0.3230     2.8100 H     1 <1>   0.1500 
 30 H       -6.4740    -1.9300     1.0400 H     1 <1>   0.0800 
 31 H       -5.1290    -1.9830    -0.0780 H     1 <1>   0.0800 
 32 H       -6.1940    -0.1940    -1.3170 H     1 <1>   0.4500 
 33 H       -7.4950     0.7900     0.4680 H     1 <1>   0.0800 
 34 H       -8.5260    -0.6110     0.4400 H     1 <1>   0.0800 
 35 H       -7.9330    -2.5620    -1.0220 H     1 <1>   0.0800 
 36 H       -6.4890    -2.4940    -2.0070 H     1 <1>   0.0800 
 37 H       -8.5390    -2.1130    -3.3340 H     1 <1>   0.0800 
 38 H       -7.4640    -0.7600    -3.4080 H     1 <1>   0.0800 
 39 H       -9.7570     0.0630    -3.0790 H     1 <1>   0.0800 
 40 H       -9.9880    -1.0210    -1.7470 H     1 <1>   0.0800 
 41 H       -7.6550     1.5710    -2.9530 H     1 <1>   0.0800 
 42 H       -7.2150     2.1910    -1.3800 H     1 <1>   0.0800 
 43 H       -9.5430     2.9780    -3.0550 H     1 <1>   0.0800 
 44 H       -8.6180     3.9420    -1.9080 H     1 <1>   0.0800 
 45 H      -11.2700     4.3730    -0.7800 H     1 <1>   0.1500 
 46 H      -12.7650     2.8740     2.8620 H     1 <1>   0.0800 
 47 H      -13.3860     1.4520     3.6610 H     1 <1>   0.0800 
 48 H      -14.1940     2.0800     2.2340 H     1 <1>   0.0800 
 49 H      -12.3560    -0.9120     1.0340 H     1 <1>   0.0800 
 50 H      -13.7290    -0.5660     2.0510 H     1 <1>   0.0800 
 51 H      -12.1500    -0.8160     2.7720 H     1 <1>   0.0800 
@<TRIPOS>BOND
  1   1   2  1   
  2   2   3  ar  
  3   2   4  ar  
  4   3   5  1   
  5   3   6  ar  
  6   4   7  ar  
  7   4  27  1   
  8   6   8  ar  
  9   6  28  1   
 10   7   8  ar  
 11   7   9  1   
 12   8  29  1   
 13   9  10  1   
 14   9  30  1   
 15   9  31  1   
 16  10  11  1   
 17  10  12  1   
 18  10  32  1   
 19  11  13  1   
 20  11  33  1   
 21  11  34  1   
 22  12  14  1   
 23  12  35  1   
 24  12  36  1   
 25  13  15  1   
 26  13  16  1   
 27  13  17  1   
 28  14  16  1   
 29  14  37  1   
 30  14  38  1   
 31  15  18  ar  
 32  15  19  ar  
 33  16  39  1   
 34  16  40  1   
 35  17  20  1   
 36  17  41  1   
 37  17  42  1   
 38  18  21  ar  
 39  19  20  1   
 40  19  22  ar  
 41  20  43  1   
 42  20  44  1   
 43  21  23  ar  
 44  21  24  1   
 45  22  23  ar  
 46  22  45  1   
 47  24  25  1   
 48  24  26  1   
 49  25  46  1   
 50  25  47  1   
 51  25  48  1   
 52  26  49  1   
 53  26  50  1   
 54  26  51  1   
@<TRIPOS>SUBSTRUCTURE
  1 ****  11 GROUP 4 **** **** 0

# MOE 2024.06 (io_trps.svl 2023.06)
