@<TRIPOS>MOLECULE
NONAME
50 53 1 0 0 
SMALL
USER_CHARGES


@<TRIPOS>ATOM
  1 S        0.0210    -1.8970    -0.5530 S.3   1 <1>  -0.0800 
  2 C       -1.5690    -1.6370     0.1240 C.2   1 <1>  -0.1100 
  3 C       -0.5740    -3.2130    -1.5420 C.2   1 <1>  -0.1100 
  4 C       -2.4880    -2.4950    -0.3880 C.2   1 <1>  -0.0860 
  5 C       -1.8910    -3.3980    -1.3390 C.2   1 <1>  -0.1500 
  6 C       -3.8970    -2.5500    -0.0550 C.2   1 <1>   0.7160 
  7 O       -4.5850    -3.5090    -0.3560 O.2   1 <1>  -0.5700 
  8 N       -4.5450    -1.4990     0.5450 N.am  1 <1>  -0.6600 
  9 C       -5.6180    -1.7530     1.5670 C.3   1 <1>   0.1400 
 10 C       -4.4950    -0.1330    -0.0470 C.3   1 <1>   0.1400 
 11 C       -7.0510    -1.7280     0.9740 C.3   1 <1>   0.4230 
 12 C       -5.7950     0.2570    -0.7930 C.3   1 <1>  -0.0800 
 13 N       -7.0000    -2.0150    -0.5090 N.4   1 <1>  -0.9590 
 14 C       -7.8080    -0.4320     1.3350 C.3   1 <1>   0.1200 
 15 C       -6.6980     1.2020     0.0160 C.3   1 <1>   0.1200 
 16 C       -6.6060    -0.8940    -1.4220 C.3   1 <1>   0.3430 
 17 C       -8.1720    -2.7720    -1.0180 C.3   1 <1>   0.5240 
 18 O       -6.9830     0.6910     1.2730 O.3   1 <1>  -0.5600 
 19 C       -8.3460    -4.0140    -0.1770 C.2   1 <1>  -0.1810 
 20 C       -9.4600    -4.3230     0.5940 C.2   1 <1>   0.1390 
 21 C       -7.4930    -5.0420     0.0270 C.2   1 <1>  -0.3020 
 22 N       -9.3080    -5.4340     1.2380 N.2   1 <1>  -0.7070 
 23 N       -8.0960    -5.8940     0.8800 N.pl3 1 <1>   0.3140 
 24 C       -7.5550    -7.1720     1.3910 C.3   1 <1>   0.0960 
 25 C       -7.6840    -8.2860     0.3440 C.3   1 <1>  -0.2400 
 26 H       -1.6650    -0.8560     0.8570 H     1 <1>   0.1500 
 27 H        0.1360    -3.7160    -2.1750 H     1 <1>   0.1500 
 28 H       -2.4860    -4.1520    -1.8270 H     1 <1>   0.1500 
 29 H       -5.4570    -2.7250     2.0010 H     1 <1>   0.0800 
 30 H       -5.5280    -1.0410     2.3700 H     1 <1>   0.0800 
 31 H       -4.2840     0.5820     0.7310 H     1 <1>   0.0800 
 32 H       -3.6780    -0.0880    -0.7480 H     1 <1>   0.0800 
 33 H       -7.5870    -2.5270     1.4590 H     1 <1>   0.0800 
 34 H       -5.4750     0.8580    -1.6250 H     1 <1>   0.0800 
 35 H       -6.2110    -2.6940    -0.5550 H     1 <1>   0.4500 
 36 H       -8.1360    -0.5040     2.3580 H     1 <1>   0.0800 
 37 H       -8.6760    -0.2830     0.7180 H     1 <1>   0.0800 
 38 H       -7.6230     1.4130    -0.4940 H     1 <1>   0.0800 
 39 H       -6.1870     2.1380     0.1750 H     1 <1>   0.0800 
 40 H       -6.0290    -1.3080    -2.2330 H     1 <1>   0.0800 
 41 H       -7.4960    -0.4660    -1.8530 H     1 <1>   0.0800 
 42 H       -9.0600    -2.1650    -0.9660 H     1 <1>   0.0800 
 43 H       -8.0090    -3.0610    -2.0430 H     1 <1>   0.0800 
 44 H      -10.3560    -3.7270     0.6710 H     1 <1>   0.1500 
 45 H       -6.5100    -5.2280    -0.3710 H     1 <1>   0.1500 
 46 H       -6.5240    -7.0270     1.6560 H     1 <1>   0.0800 
 47 H       -8.1030    -7.4380     2.2770 H     1 <1>   0.0800 
 48 H       -7.1250    -8.0400    -0.5410 H     1 <1>   0.0800 
 49 H       -8.7190    -8.4300     0.0860 H     1 <1>   0.0800 
 50 H       -7.3020    -9.2070     0.7450 H     1 <1>   0.0800 
@<TRIPOS>BOND
  1   1   2  1   
  2   1   3  1   
  3   2   4  2   
  4   2  26  1   
  5   3   5  2   
  6   3  27  1   
  7   4   5  1   
  8   4   6  1   
  9   5  28  1   
 10   6   7  2   
 11   6   8  am  
 12   8   9  1   
 13   8  10  1   
 14   9  11  1   
 15   9  29  1   
 16   9  30  1   
 17  10  12  1   
 18  10  31  1   
 19  10  32  1   
 20  11  13  1   
 21  11  14  1   
 22  11  33  1   
 23  12  15  1   
 24  12  16  1   
 25  12  34  1   
 26  13  16  1   
 27  13  17  1   
 28  13  35  1   
 29  14  18  1   
 30  14  36  1   
 31  14  37  1   
 32  15  18  1   
 33  15  38  1   
 34  15  39  1   
 35  16  40  1   
 36  16  41  1   
 37  17  19  1   
 38  17  42  1   
 39  17  43  1   
 40  19  20  1   
 41  19  21  2   
 42  20  22  2   
 43  20  44  1   
 44  21  23  1   
 45  21  45  1   
 46  22  23  1   
 47  23  24  1   
 48  24  25  1   
 49  24  46  1   
 50  24  47  1   
 51  25  48  1   
 52  25  49  1   
 53  25  50  1   
@<TRIPOS>SUBSTRUCTURE
  1 ****   7 GROUP 4 **** **** 0

# MOE 2024.06 (io_trps.svl 2023.06)
