@<TRIPOS>MOLECULE
NONAME
57 60 1 0 0 
SMALL
USER_CHARGES


@<TRIPOS>ATOM
  1 O       -0.3170    -0.7900    -0.0640 O.2   1 <1>  -0.5700 
  2 C        0.3510    -1.7700    -0.2870 C.2   1 <1>   0.5690 
  3 N        1.5240    -1.6660    -0.9910 N.am  1 <1>  -0.6600 
  4 C       -0.2240    -3.0750     0.2470 C.3   1 <1>  -0.0990 
  5 C        2.2680    -2.8440    -1.5380 C.3   1 <1>   0.1400 
  6 C        2.0620    -0.2970    -1.3330 C.3   1 <1>   0.3200 
  7 C        0.5380    -4.3810     0.0150 C.3   1 <1>   0.1200 
  8 C        2.8280    -3.8090    -0.4550 C.3   1 <1>   0.2800 
  9 C        3.5460    -0.1140    -1.0250 C.2   1 <1>   0.2980 
 10 O        1.8490    -4.2390     0.4570 O.3   1 <1>  -0.5600 
 11 C        3.8940    -3.0940     0.3890 C.3   1 <1>  -0.1600 
 12 C        3.4360    -5.0620    -1.1150 C.3   1 <1>  -0.1600 
 13 O        4.4160    -0.4110    -1.9600 O.3   1 <1>  -0.0190 
 14 N        4.0490     0.3080     0.0680 N.2   1 <1>  -0.5650 
 15 C        4.6340    -4.0490     1.3170 C.3   1 <1>   0.1100 
 16 C        4.2250    -5.9240    -0.1230 C.3   1 <1>   0.1100 
 17 N        5.5680    -0.1790    -1.4080 N.2   1 <1>  -0.4100 
 18 C        5.3370     0.2400    -0.2280 C.2   1 <1>   0.3350 
 19 N        5.2640    -5.0920     0.4910 N.3   1 <1>  -0.8100 
 20 C        6.3890     0.6230     0.7850 C.3   1 <1>  -0.0590 
 21 C        6.2470    -5.8880     1.2870 C.3   1 <1>   0.1710 
 22 C        7.5640    -5.1380     1.5190 C.2   1 <1>   0.5690 
 23 O        8.3220    -5.5170     2.3800 O.2   1 <1>  -0.5700 
 24 N        7.7790    -4.0600     0.7080 N.am  1 <1>  -0.5470 
 25 C        8.7770    -3.0810     0.6160 C.ar  1 <1>   0.1170 
 26 C        9.8960    -3.0500     1.4410 C.ar  1 <1>  -0.1500 
 27 C        8.6350    -2.0870    -0.3460 C.ar  1 <1>  -0.1500 
 28 C       10.8460    -2.0530     1.3080 C.ar  1 <1>  -0.1500 
 29 C        9.5840    -1.0900    -0.4840 C.ar  1 <1>  -0.1500 
 30 C       10.6920    -1.0710     0.3450 C.ar  1 <1>  -0.1500 
 31 H       -1.2090    -3.1850    -0.1640 H     1 <1>   0.0800 
 32 H       -0.3450    -2.9540     1.3070 H     1 <1>   0.0800 
 33 H        3.0910    -2.5070    -2.1400 H     1 <1>   0.0800 
 34 H        1.6240    -3.3800    -2.2100 H     1 <1>   0.0800 
 35 H        1.5320     0.4580    -0.7800 H     1 <1>   0.0800 
 36 H        1.8940    -0.1070    -2.3770 H     1 <1>   0.0800 
 37 H        0.5150    -4.6980    -1.0120 H     1 <1>   0.0800 
 38 H        0.0890    -5.1590     0.6090 H     1 <1>   0.0800 
 39 H        3.4330    -2.3170     0.9700 H     1 <1>   0.0800 
 40 H        4.6210    -2.6390    -0.2560 H     1 <1>   0.0800 
 41 H        4.1120    -4.7590    -1.8940 H     1 <1>   0.0800 
 42 H        2.6630    -5.6520    -1.5700 H     1 <1>   0.0800 
 43 H        3.9500    -4.4890     2.0240 H     1 <1>   0.0800 
 44 H        5.3790    -3.4960     1.8650 H     1 <1>   0.0800 
 45 H        4.6790    -6.7450    -0.6520 H     1 <1>   0.0800 
 46 H        3.5680    -6.3220     0.6340 H     1 <1>   0.0800 
 47 H        6.1670     1.5940     1.1860 H     1 <1>   0.0800 
 48 H        7.3580     0.6460     0.3240 H     1 <1>   0.0800 
 49 H        6.3970    -0.0960     1.5830 H     1 <1>   0.0800 
 50 H        6.4890    -6.7920     0.7570 H     1 <1>   0.0800 
 51 H        5.8220    -6.1630     2.2360 H     1 <1>   0.0800 
 52 H        6.9750    -3.9340     0.0840 H     1 <1>   0.3700 
 53 H       10.0310    -3.8060     2.1920 H     1 <1>   0.1500 
 54 H        7.7780    -2.0920    -0.9940 H     1 <1>   0.1500 
 55 H       11.7060    -2.0440     1.9550 H     1 <1>   0.1500 
 56 H        9.4600    -0.3310    -1.2380 H     1 <1>   0.1500 
 57 H       11.4320    -0.2970     0.2400 H     1 <1>   0.1500 
@<TRIPOS>BOND
  1   1   2  2   
  2   2   3  am  
  3   2   4  1   
  4   3   5  1   
  5   3   6  1   
  6   4   7  1   
  7   4  31  1   
  8   4  32  1   
  9   5   8  1   
 10   5  33  1   
 11   5  34  1   
 12   6   9  1   
 13   6  35  1   
 14   6  36  1   
 15   7  10  1   
 16   7  37  1   
 17   7  38  1   
 18   8  10  1   
 19   8  11  1   
 20   8  12  1   
 21   9  13  1   
 22   9  14  2   
 23  11  15  1   
 24  11  39  1   
 25  11  40  1   
 26  12  16  1   
 27  12  41  1   
 28  12  42  1   
 29  13  17  1   
 30  14  18  1   
 31  15  19  1   
 32  15  43  1   
 33  15  44  1   
 34  16  19  1   
 35  16  45  1   
 36  16  46  1   
 37  17  18  2   
 38  18  20  1   
 39  19  21  1   
 40  20  47  1   
 41  20  48  1   
 42  20  49  1   
 43  21  22  1   
 44  21  50  1   
 45  21  51  1   
 46  22  23  2   
 47  22  24  am  
 48  24  25  1   
 49  24  52  1   
 50  25  26  ar  
 51  25  27  ar  
 52  26  28  ar  
 53  26  53  1   
 54  27  29  ar  
 55  27  54  1   
 56  28  30  ar  
 57  28  55  1   
 58  29  30  ar  
 59  29  56  1   
 60  30  57  1   
@<TRIPOS>SUBSTRUCTURE
  1 ****  11 GROUP 4 **** **** 0

# MOE 2024.06 (io_trps.svl 2023.06)
