@<TRIPOS>MOLECULE
NONAME
45 46 1 0 0 
SMALL
USER_CHARGES


@<TRIPOS>ATOM
  1 O        0.6160     0.3650    -1.4170 O.2   1 <1>  -0.5700 
  2 C        1.7330     0.2290    -0.9830 C.2   1 <1>   0.5690 
  3 N        2.3360    -0.9450    -0.6970 N.am  1 <1>  -0.6600 
  4 C        2.6350     1.3860    -0.6630 C.3   1 <1>  -0.0990 
  5 C        3.7030    -0.7790    -0.1830 C.3   1 <1>   0.1400 
  6 C        1.7570    -2.2940    -0.9310 C.3   1 <1>   0.1400 
  7 C        3.9960     0.7200    -0.3730 C.3   1 <1>  -0.0800 
  8 C        0.5880    -2.5510     0.0200 C.3   1 <1>   0.1200 
  9 C        4.7340     1.3210     0.8290 C.3   1 <1>   0.2090 
 10 O        0.2180    -3.8910    -0.0870 O.3   1 <1>  -0.5600 
 11 N        5.0390     2.7530     0.5700 N.pl3 1 <1>  -0.8690 
 12 C       -0.9050    -4.2220     0.6640 C.3   1 <1>   0.0400 
 13 C        6.2260     3.2780     0.1960 C.ar  1 <1>   0.4100 
 14 N        7.2140     2.4330    -0.0270 N.ar  1 <1>  -0.6200 
 15 C        6.3800     4.6800     0.0510 C.ar  1 <1>  -0.1440 
 16 C        8.3740     2.9320    -0.3870 C.ar  1 <1>   0.7710 
 17 C        7.6030     5.1430    -0.3240 C.ar  1 <1>   0.2110 
 18 C        5.1820     5.6000     0.3220 C.3   1 <1>  -0.0170 
 19 N        8.5950     4.2470    -0.5390 N.ar  1 <1>  -0.1790 
 20 N        9.3530     2.0570    -0.6020 N.pl3 1 <1>  -0.9000 
 21 C        5.4570     7.0990     0.1470 C.3   1 <1>  -0.2400 
 22 H        2.2400     1.8950     0.1960 H     1 <1>   0.0800 
 23 H        2.6910     2.0600    -1.4980 H     1 <1>   0.0800 
 24 H        4.3950    -1.3850    -0.7440 H     1 <1>   0.0800 
 25 H        3.7270    -1.0640     0.8550 H     1 <1>   0.0800 
 26 H        2.5140    -3.0420    -0.7790 H     1 <1>   0.0800 
 27 H        1.4040    -2.3530    -1.9460 H     1 <1>   0.0800 
 28 H        4.6250     0.8150    -1.2410 H     1 <1>   0.0800 
 29 H       -0.2500    -1.9320    -0.2520 H     1 <1>   0.0800 
 30 H        0.8830    -2.3610     1.0360 H     1 <1>   0.0800 
 31 H        5.6440     0.7720     1.0070 H     1 <1>   0.0800 
 32 H        4.1250     1.2430     1.7140 H     1 <1>   0.0800 
 33 H        4.2320     3.3690     0.7000 H     1 <1>   0.4000 
 34 H       -1.1050    -5.2700     0.5230 H     1 <1>   0.0800 
 35 H       -1.7450    -3.6430     0.3200 H     1 <1>   0.0800 
 36 H       -0.7090    -4.0260     1.7040 H     1 <1>   0.0800 
 37 H        7.8270     6.1890    -0.4610 H     1 <1>   0.1500 
 38 H        4.8410     5.4380     1.3310 H     1 <1>   0.0800 
 39 H        4.3770     5.3270    -0.3410 H     1 <1>   0.0800 
 40 H        9.5300     4.5300    -0.8170 H     1 <1>   0.4570 
 41 H       10.3200     2.2270    -0.8830 H     1 <1>   0.4000 
 42 H        9.1320     1.0650    -0.4700 H     1 <1>   0.4000 
 43 H        6.2210     7.4340     0.8270 H     1 <1>   0.0800 
 44 H        4.5600     7.6550     0.3600 H     1 <1>   0.0800 
 45 H        5.7490     7.3220    -0.8650 H     1 <1>   0.0800 
@<TRIPOS>BOND
  1   1   2  2   
  2   2   3  am  
  3   2   4  1   
  4   3   5  1   
  5   3   6  1   
  6   4   7  1   
  7   4  22  1   
  8   4  23  1   
  9   5   7  1   
 10   5  24  1   
 11   5  25  1   
 12   6   8  1   
 13   6  26  1   
 14   6  27  1   
 15   7   9  1   
 16   7  28  1   
 17   8  10  1   
 18   8  29  1   
 19   8  30  1   
 20   9  11  1   
 21   9  31  1   
 22   9  32  1   
 23  10  12  1   
 24  11  13  1   
 25  11  33  1   
 26  12  34  1   
 27  12  35  1   
 28  12  36  1   
 29  13  14  ar  
 30  13  15  ar  
 31  14  16  ar  
 32  15  17  ar  
 33  15  18  1   
 34  16  19  ar  
 35  16  20  1   
 36  17  19  ar  
 37  17  37  1   
 38  18  21  1   
 39  18  38  1   
 40  18  39  1   
 41  19  40  1   
 42  20  41  1   
 43  20  42  1   
 44  21  43  1   
 45  21  44  1   
 46  21  45  1   
@<TRIPOS>SUBSTRUCTURE
  1 ****   7 GROUP 4 **** **** 0

# MOE 2024.06 (io_trps.svl 2023.06)
