@<TRIPOS>MOLECULE
NONAME
40 42 1 0 0 
SMALL
USER_CHARGES


@<TRIPOS>ATOM
  1 F        0.4200    -0.1500     0.4780 F     1 <1>  -0.1900 
  2 C        1.3710    -0.8340    -0.1220 C.ar  1 <1>   0.1900 
  3 C        1.2230    -2.2020    -0.3690 C.ar  1 <1>   0.4100 
  4 C        2.5290    -0.1950    -0.4980 C.ar  1 <1>   0.1660 
  5 N        2.2130    -2.8600    -0.9520 N.ar  1 <1>  -0.6200 
  6 N        0.0980    -2.9520    -0.0380 N.pl3 1 <1>  -0.8380 
  7 N        3.5080    -0.8640    -1.0870 N.ar  1 <1>  -0.6200 
  8 C        2.7630     1.2930    -0.2640 C.3   1 <1>  -0.0170 
  9 C        3.2840    -2.1550    -1.2710 C.ar  1 <1>   0.4700 
 10 C       -1.2810    -2.3950    -0.0410 C.3   1 <1>   0.2090 
 11 C        0.0460    -4.4240    -0.2490 C.3   1 <1>   0.2090 
 12 C        3.6060     1.5370     0.9930 C.3   1 <1>  -0.2400 
 13 C       -2.2060    -3.5930    -0.2720 C.3   1 <1>   0.2000 
 14 C       -1.3860    -4.8230     0.1030 C.3   1 <1>  -0.0800 
 15 O       -3.3470    -3.5310     0.5170 O.3   1 <1>  -0.6800 
 16 C       -1.8760    -6.1010    -0.5990 C.3   1 <1>  -0.0170 
 17 C       -1.0560    -7.3140    -0.1900 C.ar  1 <1>   0.1670 
 18 N        0.0690    -7.5190    -0.8560 N.ar  1 <1>  -0.6200 
 19 C       -1.5010    -8.1390     0.8410 C.ar  1 <1>   0.1600 
 20 C        0.7140    -8.5910    -0.4250 C.ar  1 <1>   0.1600 
 21 N       -0.8570    -9.2100     1.2750 N.ar  1 <1>  -0.6200 
 22 C        0.2660    -9.4080     0.6050 C.ar  1 <1>   0.1600 
 23 H        3.2710     1.7030    -1.1190 H     1 <1>   0.0800 
 24 H        1.8250     1.8100    -0.1700 H     1 <1>   0.0800 
 25 H        4.0800    -2.7050    -1.7460 H     1 <1>   0.1500 
 26 H       -1.4780    -1.9360     0.9120 H     1 <1>   0.0800 
 27 H       -1.3940    -1.6720    -0.8310 H     1 <1>   0.0800 
 28 H        0.2610    -4.6460    -1.2820 H     1 <1>   0.0800 
 29 H        0.7640    -4.9270     0.3770 H     1 <1>   0.0800 
 30 H        4.5610     1.0490     0.8970 H     1 <1>   0.0800 
 31 H        3.1040     1.1440     1.8600 H     1 <1>   0.0800 
 32 H        3.7690     2.5900     1.1330 H     1 <1>   0.0800 
 33 H       -2.5080    -3.6230    -1.3050 H     1 <1>   0.0800 
 34 H       -1.4180    -4.9640     1.1690 H     1 <1>   0.0800 
 35 H       -3.0990    -3.4670     1.4610 H     1 <1>   0.4000 
 36 H       -1.8160    -5.9810    -1.6670 H     1 <1>   0.0800 
 37 H       -2.9090    -6.2660    -0.3510 H     1 <1>   0.0800 
 38 H       -2.4290    -7.9030     1.3310 H     1 <1>   0.1500 
 39 H        1.6420    -8.8340    -0.9110 H     1 <1>   0.1500 
 40 H        0.8610   -10.2590     0.8860 H     1 <1>   0.1500 
@<TRIPOS>BOND
  1   1   2  1   
  2   2   3  ar  
  3   2   4  ar  
  4   3   5  ar  
  5   3   6  1   
  6   4   7  ar  
  7   4   8  1   
  8   5   9  ar  
  9   6  10  1   
 10   6  11  1   
 11   7   9  ar  
 12   8  12  1   
 13   8  23  1   
 14   8  24  1   
 15   9  25  1   
 16  10  13  1   
 17  10  26  1   
 18  10  27  1   
 19  11  14  1   
 20  11  28  1   
 21  11  29  1   
 22  12  30  1   
 23  12  31  1   
 24  12  32  1   
 25  13  14  1   
 26  13  15  1   
 27  13  33  1   
 28  14  16  1   
 29  14  34  1   
 30  15  35  1   
 31  16  17  1   
 32  16  36  1   
 33  16  37  1   
 34  17  18  ar  
 35  17  19  ar  
 36  18  20  ar  
 37  19  21  ar  
 38  19  38  1   
 39  20  22  ar  
 40  20  39  1   
 41  21  22  ar  
 42  22  40  1   
@<TRIPOS>SUBSTRUCTURE
  1 ****  11 GROUP 4 **** **** 0

# MOE 2024.06 (io_trps.svl 2023.06)
