@<TRIPOS>MOLECULE
NONAME
55 58 1 0 0 
SMALL
USER_CHARGES


@<TRIPOS>ATOM
  1 O       -1.1420     0.3770     1.8800 O.2   1 <1>  -0.5700 
  2 C       -1.6090     0.9810     0.9320 C.2   1 <1>   0.5440 
  3 N       -2.5780     0.3520     0.1800 N.am  1 <1>  -0.6600 
  4 C       -1.2250     2.3540     0.6800 C.ar  1 <1>   0.0860 
  5 C       -2.8300    -1.1020     0.3250 C.3   1 <1>   0.1400 
  6 C       -3.7820     1.1190    -0.2560 C.3   1 <1>   0.1400 
  7 C       -0.8100     2.8190    -0.5960 C.ar  1 <1>   0.0000 
  8 C       -1.2720     3.2830     1.6830 C.ar  1 <1>  -0.1500 
  9 C       -4.2370    -1.1940     0.9460 C.3   1 <1>   0.4230 
 10 C       -4.9410     0.1810    -0.7240 C.3   1 <1>  -0.1600 
 11 C       -0.5640     4.2040    -0.7490 C.ar  1 <1>   0.3100 
 12 C       -0.6180     1.9830    -1.7180 C.ar  1 <1>  -0.1500 
 13 C       -0.9910     4.6260     1.4340 C.ar  1 <1>   0.3920 
 14 N       -4.2490    -1.9170     2.2670 N.4   1 <1>  -0.9590 
 15 C       -5.3100    -1.3340    -0.2260 C.3   1 <1>   0.0000 
 16 N       -0.6650     5.0940     0.2640 N.ar  1 <1>  -0.6200 
 17 C       -0.1860     4.6890    -2.0110 C.ar  1 <1>  -0.1500 
 18 C       -0.2420     2.4870    -2.9340 C.ar  1 <1>  -0.1500 
 19 O       -1.0850     5.4580     2.4880 O.3   1 <1>  -0.3630 
 20 C       -4.1410    -3.3520     2.0830 C.3   1 <1>   0.3430 
 21 C       -3.2320    -1.3840     3.2370 C.3   1 <1>   0.2630 
 22 C       -5.7070    -2.8630     0.1440 C.3   1 <1>  -0.1600 
 23 C       -6.4160    -1.3800    -1.3990 C.3   1 <1>   0.1200 
 24 C       -0.0280     3.8580    -3.0860 C.ar  1 <1>  -0.1500 
 25 C       -0.8030     6.8380     2.3560 C.3   1 <1>   0.0400 
 26 C       -5.4520    -3.6730     1.4330 C.3   1 <1>  -0.1600 
 27 O       -7.6280    -0.9490    -0.8620 O.3   1 <1>  -0.6800 
 28 H       -2.8140    -1.5600    -0.6490 H     1 <1>   0.0800 
 29 H       -2.0730    -1.5770     0.9200 H     1 <1>   0.0800 
 30 H       -4.1250     1.7240     0.5690 H     1 <1>   0.0800 
 31 H       -3.5110     1.7920    -1.0550 H     1 <1>   0.0800 
 32 H       -1.5370     3.0040     2.6850 H     1 <1>   0.1500 
 33 H       -4.4370    -0.2100     1.3260 H     1 <1>   0.0800 
 34 H       -5.8190     0.8080    -0.6740 H     1 <1>   0.0800 
 35 H       -4.6520     0.1200    -1.7620 H     1 <1>   0.0800 
 36 H       -0.7620     0.9220    -1.6200 H     1 <1>   0.1500 
 37 H       -5.1820    -1.7420     2.6630 H     1 <1>   0.4500 
 38 H       -0.0180     5.7470    -2.1050 H     1 <1>   0.1500 
 39 H       -0.1020     1.8390    -3.7830 H     1 <1>   0.1500 
 40 H       -3.3090    -3.6060     1.4460 H     1 <1>   0.0800 
 41 H       -4.0510    -3.8630     3.0290 H     1 <1>   0.0800 
 42 H       -2.2310    -1.6080     2.9060 H     1 <1>   0.0800 
 43 H       -3.3760    -1.8210     4.2110 H     1 <1>   0.0800 
 44 H       -3.3220    -0.3130     3.3220 H     1 <1>   0.0800 
 45 H       -6.7700    -3.0440     0.0570 H     1 <1>   0.0800 
 46 H       -5.2390    -3.4620    -0.6230 H     1 <1>   0.0800 
 47 H       -6.5850    -2.3490    -1.8440 H     1 <1>   0.0800 
 48 H       -6.2610    -0.7760    -2.2780 H     1 <1>   0.0800 
 49 H        0.2640     4.2460    -4.0480 H     1 <1>   0.1500 
 50 H       -0.9340     7.3040     3.3160 H     1 <1>   0.0800 
 51 H       -1.4840     7.2650     1.6410 H     1 <1>   0.0800 
 52 H        0.2130     6.9540     2.0230 H     1 <1>   0.0800 
 53 H       -5.4800    -4.7260     1.2060 H     1 <1>   0.0800 
 54 H       -6.2460    -3.4910     2.1390 H     1 <1>   0.0800 
 55 H       -8.3410    -0.9710    -1.5340 H     1 <1>   0.4000 
@<TRIPOS>BOND
  1   1   2  2   
  2   2   3  am  
  3   2   4  1   
  4   3   5  1   
  5   3   6  1   
  6   4   7  ar  
  7   4   8  ar  
  8   5   9  1   
  9   5  28  1   
 10   5  29  1   
 11   6  10  1   
 12   6  30  1   
 13   6  31  1   
 14   7  11  ar  
 15   7  12  ar  
 16   8  13  ar  
 17   8  32  1   
 18   9  14  1   
 19   9  15  1   
 20   9  33  1   
 21  10  15  1   
 22  10  34  1   
 23  10  35  1   
 24  11  16  ar  
 25  11  17  ar  
 26  12  18  ar  
 27  12  36  1   
 28  13  16  ar  
 29  13  19  1   
 30  14  20  1   
 31  14  21  1   
 32  14  37  1   
 33  15  22  1   
 34  15  23  1   
 35  17  24  ar  
 36  17  38  1   
 37  18  24  ar  
 38  18  39  1   
 39  19  25  1   
 40  20  26  1   
 41  20  40  1   
 42  20  41  1   
 43  21  42  1   
 44  21  43  1   
 45  21  44  1   
 46  22  26  1   
 47  22  45  1   
 48  22  46  1   
 49  23  27  1   
 50  23  47  1   
 51  23  48  1   
 52  24  49  1   
 53  25  50  1   
 54  25  51  1   
 55  25  52  1   
 56  26  53  1   
 57  26  54  1   
 58  27  55  1   
@<TRIPOS>SUBSTRUCTURE
  1 ****   3 GROUP 4 **** **** 0

# MOE 2024.06 (io_trps.svl 2023.06)
