@<TRIPOS>MOLECULE
NONAME
40 42 1 0 0 
SMALL
USER_CHARGES


@<TRIPOS>ATOM
  1 F       -2.3060    -1.0030    -1.2760 F     1 <1>  -0.1900 
  2 C       -2.4690     0.0370    -0.5020 C.ar  1 <1>   0.1900 
  3 C       -3.0080    -0.1330     0.7730 C.ar  1 <1>   0.0860 
  4 C       -2.0830     1.2670    -1.0040 C.ar  1 <1>  -0.1500 
  5 C       -3.4200    -1.4190     1.2860 C.2   1 <1>   0.5440 
  6 C       -3.1270     1.0130     1.5590 C.ar  1 <1>  -0.1500 
  7 C       -2.2270     2.3880    -0.2070 C.ar  1 <1>  -0.1500 
  8 O       -2.9170    -1.8440     2.3080 O.2   1 <1>  -0.5700 
  9 N       -4.4060    -2.1660     0.6850 N.am  1 <1>  -0.6600 
 10 C       -2.7440     2.2520     1.0720 C.ar  1 <1>   0.0830 
 11 C       -5.2920    -1.7240    -0.4220 C.3   1 <1>   0.1400 
 12 C       -4.7910    -3.5200     1.1520 C.3   1 <1>   0.1400 
 13 O       -2.8680     3.3450     1.8380 O.3   1 <1>  -0.5320 
 14 C       -6.4470    -2.7270    -0.4090 C.3   1 <1>   0.2000 
 15 C       -5.8270    -4.0180     0.1340 C.3   1 <1>  -0.0800 
 16 O       -7.3970    -2.2900     0.5000 O.3   1 <1>  -0.6800 
 17 C       -5.1700    -4.8290    -1.0000 C.3   1 <1>  -0.0170 
 18 C       -4.5790    -6.1340    -0.4890 C.ar  1 <1>  -0.1430 
 19 C       -3.2220    -6.2960    -0.2930 C.ar  1 <1>  -0.1500 
 20 C       -5.3710    -7.2250    -0.1950 C.ar  1 <1>  -0.1500 
 21 C       -2.7380    -7.5050     0.1780 C.ar  1 <1>   0.1600 
 22 C       -4.7850    -8.3910     0.2700 C.ar  1 <1>   0.1600 
 23 N       -3.4870    -8.5570     0.4640 N.ar  1 <1>  -0.6200 
 24 H       -1.6760     1.3440    -1.9970 H     1 <1>   0.1500 
 25 H       -3.5200     0.9160     2.5550 H     1 <1>   0.1500 
 26 H       -1.9380     3.3620    -0.5620 H     1 <1>   0.1500 
 27 H       -5.6380    -0.7140    -0.2840 H     1 <1>   0.0800 
 28 H       -4.7580    -1.8000    -1.3520 H     1 <1>   0.0800 
 29 H       -3.9270    -4.1590     1.2200 H     1 <1>   0.0800 
 30 H       -5.2350    -3.4380     2.1290 H     1 <1>   0.0800 
 31 H       -3.1950     3.1570     2.7360 H     1 <1>   0.4500 
 32 H       -6.9250    -2.8390    -1.3680 H     1 <1>   0.0800 
 33 H       -6.5700    -4.6330     0.6100 H     1 <1>   0.0800 
 34 H       -6.9540    -2.0910     1.3490 H     1 <1>   0.4000 
 35 H       -4.3970    -4.2480    -1.4740 H     1 <1>   0.0800 
 36 H       -5.9070    -5.0580    -1.7500 H     1 <1>   0.0800 
 37 H       -2.5360    -5.4940    -0.4970 H     1 <1>   0.1500 
 38 H       -6.4370    -7.1810    -0.3220 H     1 <1>   0.1500 
 39 H       -1.6770    -7.6110     0.3270 H     1 <1>   0.1500 
 40 H       -5.4190    -9.2320     0.4940 H     1 <1>   0.1500 
@<TRIPOS>BOND
  1   1   2  1   
  2   2   3  ar  
  3   2   4  ar  
  4   3   5  1   
  5   3   6  ar  
  6   4   7  ar  
  7   4  24  1   
  8   5   8  2   
  9   5   9  am  
 10   6  10  ar  
 11   6  25  1   
 12   7  10  ar  
 13   7  26  1   
 14   9  11  1   
 15   9  12  1   
 16  10  13  1   
 17  11  14  1   
 18  11  27  1   
 19  11  28  1   
 20  12  15  1   
 21  12  29  1   
 22  12  30  1   
 23  13  31  1   
 24  14  15  1   
 25  14  16  1   
 26  14  32  1   
 27  15  17  1   
 28  15  33  1   
 29  16  34  1   
 30  17  18  1   
 31  17  35  1   
 32  17  36  1   
 33  18  19  ar  
 34  18  20  ar  
 35  19  21  ar  
 36  19  37  1   
 37  20  22  ar  
 38  20  38  1   
 39  21  23  ar  
 40  21  39  1   
 41  22  23  ar  
 42  22  40  1   
@<TRIPOS>SUBSTRUCTURE
  1 ****   9 GROUP 4 **** **** 0

# MOE 2024.06 (io_trps.svl 2023.06)
