@<TRIPOS>MOLECULE
NONAME
45 47 1 0 0 
SMALL
USER_CHARGES


@<TRIPOS>ATOM
  1 S        0.1360    -0.3990     1.9750 S.o2  1 <1>   1.4470 
  2 O        0.5970     0.6920     2.8060 O.2   1 <1>  -0.6500 
  3 O       -0.6240    -1.4750     2.5720 O.2   1 <1>  -0.6500 
  4 N       -0.8340     0.2880     0.7670 N.am  1 <1>  -0.8490 
  5 C        1.5190    -1.1020     1.0330 C.ar  1 <1>  -0.0090 
  6 C       -2.1790     0.5980     1.2780 C.3   1 <1>   0.1960 
  7 C       -0.2190     1.4790     0.1740 C.3   1 <1>   0.1960 
  8 C        2.7990    -0.5690     1.1240 C.ar  1 <1>  -0.1500 
  9 C        1.3220    -2.1820     0.1790 C.ar  1 <1>  -0.1500 
 10 C       -3.1380     1.0720     0.1580 C.3   1 <1>   0.0000 
 11 C       -1.0620     1.9740    -1.0040 C.3   1 <1>  -0.1600 
 12 C        3.8430    -1.0920     0.3790 C.ar  1 <1>   0.0820 
 13 C        2.3650    -2.7180    -0.5600 C.ar  1 <1>  -0.1500 
 14 C       -4.5120     1.3850     0.7870 C.3   1 <1>   0.2000 
 15 C       -2.5020     2.2810    -0.5690 C.3   1 <1>  -0.1600 
 16 C       -3.4560    -0.0920    -0.8030 C.3   1 <1>  -0.1600 
 17 O        5.0730    -0.5480     0.4820 O.3   1 <1>  -0.3630 
 18 C        3.6310    -2.1740    -0.4590 C.ar  1 <1>  -0.1500 
 19 O       -5.2790     2.1450    -0.0790 O.3   1 <1>  -0.6800 
 20 C       -5.2050     0.0320     0.9280 C.3   1 <1>  -0.1600 
 21 C       -4.6390    -0.8560    -0.1900 C.3   1 <1>  -0.1600 
 22 C        5.4150     0.4640    -0.4410 C.3   1 <1>   1.3000 
 23 F        4.5520     1.4730    -0.3990 F     1 <1>  -0.3400 
 24 F        5.4450    -0.0050    -1.6830 F     1 <1>  -0.3400 
 25 F        6.6170     0.9470    -0.1620 F     1 <1>  -0.3400 
 26 H       -2.5920    -0.2820     1.7400 H     1 <1>   0.0800 
 27 H       -2.1030     1.3600     2.0370 H     1 <1>   0.0800 
 28 H       -0.1340     2.2590     0.9140 H     1 <1>   0.0800 
 29 H        0.7700     1.2430    -0.1820 H     1 <1>   0.0800 
 30 H        2.9840     0.2630     1.7830 H     1 <1>   0.1500 
 31 H        0.3360    -2.6080     0.0940 H     1 <1>   0.1500 
 32 H       -0.6140     2.8630    -1.4110 H     1 <1>   0.0800 
 33 H       -1.0600     1.2240    -1.7750 H     1 <1>   0.0800 
 34 H        2.1880    -3.5590    -1.2100 H     1 <1>   0.1500 
 35 H       -4.4400     1.9190     1.7200 H     1 <1>   0.0800 
 36 H       -3.0830     2.5590    -1.4300 H     1 <1>   0.0800 
 37 H       -2.4930     3.1240     0.1000 H     1 <1>   0.0800 
 38 H       -3.7550     0.2970    -1.7610 H     1 <1>   0.0800 
 39 H       -2.6090    -0.7380    -0.9570 H     1 <1>   0.0800 
 40 H        4.4470    -2.5880    -1.0260 H     1 <1>   0.1500 
 41 H       -5.3920     1.6500    -0.9120 H     1 <1>   0.4000 
 42 H       -4.9420    -0.3960     1.8790 H     1 <1>   0.0800 
 43 H       -6.2770     0.1180     0.8850 H     1 <1>   0.0800 
 44 H       -4.3080    -1.7960     0.2200 H     1 <1>   0.0800 
 45 H       -5.3870    -1.0510    -0.9400 H     1 <1>   0.0800 
@<TRIPOS>BOND
  1   1   2  2   
  2   1   3  2   
  3   1   4  am  
  4   1   5  1   
  5   4   6  1   
  6   4   7  1   
  7   5   8  ar  
  8   5   9  ar  
  9   6  10  1   
 10   6  26  1   
 11   6  27  1   
 12   7  11  1   
 13   7  28  1   
 14   7  29  1   
 15   8  12  ar  
 16   8  30  1   
 17   9  13  ar  
 18   9  31  1   
 19  10  14  1   
 20  10  15  1   
 21  10  16  1   
 22  11  15  1   
 23  11  32  1   
 24  11  33  1   
 25  12  17  1   
 26  12  18  ar  
 27  13  18  ar  
 28  13  34  1   
 29  14  19  1   
 30  14  20  1   
 31  14  35  1   
 32  15  36  1   
 33  15  37  1   
 34  16  21  1   
 35  16  38  1   
 36  16  39  1   
 37  17  22  1   
 38  18  40  1   
 39  19  41  1   
 40  20  21  1   
 41  20  42  1   
 42  20  43  1   
 43  21  44  1   
 44  21  45  1   
 45  22  23  1   
 46  22  24  1   
 47  22  25  1   
@<TRIPOS>SUBSTRUCTURE
  1 ****   4 GROUP 4 **** **** 0

# MOE 2024.06 (io_trps.svl 2023.06)
