@<TRIPOS>MOLECULE
NONAME
50 53 1 0 0 
SMALL
USER_CHARGES


@<TRIPOS>ATOM
  1 O       -0.6130    -1.3370    -0.0270 O.3   1 <1>  -0.5600 
  2 C        0.4650    -1.7630     0.7550 C.3   1 <1>   0.2000 
  3 C       -1.7790    -1.0470     0.6770 C.3   1 <1>   0.0400 
  4 C        1.7880    -1.4870     0.0090 C.3   1 <1>   0.0000 
  5 C        0.3970    -3.2900     0.8780 C.3   1 <1>  -0.1600 
  6 C        2.9520    -1.5390     1.0310 C.3   1 <1>   0.2090 
  7 C        1.8070    -0.1150    -0.7020 C.3   1 <1>  -0.1600 
  8 C        1.8600    -2.6560    -0.9920 C.3   1 <1>  -0.1600 
  9 C        1.1880    -3.8550    -0.3100 C.3   1 <1>  -0.1600 
 10 N        4.2920    -1.2120     0.4280 N.pl3 1 <1>  -0.8380 
 11 C        3.1850     0.1860    -1.3070 C.3   1 <1>  -0.1600 
 12 C        5.3690    -2.0450     0.4580 C.ar  1 <1>   0.1000 
 13 C        4.2960     0.1190    -0.2560 C.3   1 <1>   0.2090 
 14 C        6.7260    -1.5890     0.5600 C.ar  1 <1>   0.0000 
 15 C        5.1800    -3.4240     0.3320 C.ar  1 <1>  -0.1500 
 16 C        7.7740    -2.4970     0.3030 C.ar  1 <1>   0.3610 
 17 C        7.1020    -0.2910     0.9660 C.ar  1 <1>  -0.1500 
 18 C        6.2220    -4.2940     0.1490 C.ar  1 <1>   0.2180 
 19 N        7.4790    -3.8240     0.1010 N.ar  1 <1>  -0.1790 
 20 C        9.1090    -2.0640     0.3060 C.ar  1 <1>  -0.1500 
 21 C        8.4120     0.1140     0.9900 C.ar  1 <1>  -0.1500 
 22 C        5.9960    -5.7870    -0.0220 C.3   1 <1>  -0.0970 
 23 C        9.4260    -0.7730     0.6390 C.ar  1 <1>  -0.1500 
 24 H        0.4290    -1.2620     1.7080 H     1 <1>   0.0800 
 25 H       -2.5350    -0.7630    -0.0350 H     1 <1>   0.0800 
 26 H       -1.5920    -0.2290     1.3500 H     1 <1>   0.0800 
 27 H       -2.1020    -1.9190     1.2180 H     1 <1>   0.0800 
 28 H        0.8720    -3.5910     1.7940 H     1 <1>   0.0800 
 29 H       -0.6160    -3.6510     0.8870 H     1 <1>   0.0800 
 30 H        2.9840    -2.4970     1.5160 H     1 <1>   0.0800 
 31 H        2.7580    -0.8130     1.8010 H     1 <1>   0.0800 
 32 H        1.0640    -0.0860    -1.4810 H     1 <1>   0.0800 
 33 H        1.5570     0.6540     0.0080 H     1 <1>   0.0800 
 34 H        1.2780    -2.4030    -1.8620 H     1 <1>   0.0800 
 35 H        2.8620    -2.8680    -1.3150 H     1 <1>   0.0800 
 36 H        1.9170    -4.5660     0.0330 H     1 <1>   0.0800 
 37 H        0.5250    -4.3460    -1.0030 H     1 <1>   0.0800 
 38 H        3.1740     1.1690    -1.7440 H     1 <1>   0.0800 
 39 H        3.4050    -0.5150    -2.0920 H     1 <1>   0.0800 
 40 H        4.1500     0.8960     0.4750 H     1 <1>   0.0800 
 41 H        5.2360     0.2850    -0.7520 H     1 <1>   0.0800 
 42 H        4.1810    -3.8110     0.3390 H     1 <1>   0.1500 
 43 H        6.3410     0.4000     1.2770 H     1 <1>   0.1500 
 44 H        8.2610    -4.4620    -0.0560 H     1 <1>   0.4570 
 45 H        9.9000    -2.7480     0.0580 H     1 <1>   0.1500 
 46 H        8.6700     1.1180     1.2860 H     1 <1>   0.1500 
 47 H        4.9470    -6.0210     0.0350 H     1 <1>   0.0800 
 48 H        6.5030    -6.3360     0.7520 H     1 <1>   0.0800 
 49 H        6.3580    -6.1150    -0.9810 H     1 <1>   0.0800 
 50 H       10.4500    -0.4310     0.6470 H     1 <1>   0.1500 
@<TRIPOS>BOND
  1   1   2  1   
  2   1   3  1   
  3   2   4  1   
  4   2   5  1   
  5   2  24  1   
  6   3  25  1   
  7   3  26  1   
  8   3  27  1   
  9   4   6  1   
 10   4   7  1   
 11   4   8  1   
 12   5   9  1   
 13   5  28  1   
 14   5  29  1   
 15   6  10  1   
 16   6  30  1   
 17   6  31  1   
 18   7  11  1   
 19   7  32  1   
 20   7  33  1   
 21   8   9  1   
 22   8  34  1   
 23   8  35  1   
 24   9  36  1   
 25   9  37  1   
 26  10  12  1   
 27  10  13  1   
 28  11  13  1   
 29  11  38  1   
 30  11  39  1   
 31  12  14  ar  
 32  12  15  ar  
 33  13  40  1   
 34  13  41  1   
 35  14  16  ar  
 36  14  17  ar  
 37  15  18  ar  
 38  15  42  1   
 39  16  19  ar  
 40  16  20  ar  
 41  17  21  ar  
 42  17  43  1   
 43  18  19  ar  
 44  18  22  1   
 45  19  44  1   
 46  20  23  ar  
 47  20  45  1   
 48  21  23  ar  
 49  21  46  1   
 50  22  47  1   
 51  22  48  1   
 52  22  49  1   
 53  23  50  1   
@<TRIPOS>SUBSTRUCTURE
  1 ****  10 GROUP 4 **** **** 0

# MOE 2024.06 (io_trps.svl 2023.06)
