@<TRIPOS>MOLECULE
NONAME
45 47 1 0 0 
SMALL
USER_CHARGES


@<TRIPOS>ATOM
  1 CL       2.2380    -2.8050    -2.1050 Cl    1 <1>  -0.1770 
  2 C        1.2650    -3.9560    -1.2240 C.ar  1 <1>   0.1770 
  3 C        1.4450    -4.0930     0.1400 C.ar  1 <1>  -0.1500 
  4 C        0.3300    -4.7140    -1.9050 C.ar  1 <1>  -0.1500 
  5 C        0.6710    -5.0080     0.8330 C.ar  1 <1>  -0.1500 
  6 C       -0.4430    -5.6290    -1.2090 C.ar  1 <1>  -0.1500 
  7 C       -0.2720    -5.7790     0.1680 C.ar  1 <1>   0.0830 
  8 O       -0.9840    -6.6500     0.9250 O.3   1 <1>  -0.3630 
  9 C       -1.9430    -7.5070     0.3550 C.3   1 <1>   0.1200 
 10 C       -2.5190    -8.3640     1.4850 C.3   1 <1>   0.3430 
 11 N       -3.5140    -9.3610     0.9830 N.4   1 <1>  -0.9590 
 12 C       -4.7690    -8.7990     0.3950 C.3   1 <1>   0.3430 
 13 C       -3.9380   -10.3710     1.9820 C.3   1 <1>   0.3430 
 14 C       -5.8540    -9.8630     0.6140 C.3   1 <1>   0.2000 
 15 C       -5.1850   -11.0150     1.3750 C.3   1 <1>  -0.0800 
 16 O       -6.8700    -9.3290     1.3970 O.3   1 <1>  -0.6800 
 17 C       -4.8570   -12.2260     0.4640 C.3   1 <1>  -0.0170 
 18 C       -3.6040   -12.1020    -0.4030 C.ar  1 <1>   0.1670 
 19 N       -3.5730   -11.1140    -1.2890 N.ar  1 <1>  -0.6200 
 20 C       -2.5720   -13.0150    -0.2340 C.ar  1 <1>  -0.1500 
 21 C       -2.4970   -11.0660    -2.0650 C.ar  1 <1>   0.1600 
 22 C       -1.4460   -12.9310    -1.0240 C.ar  1 <1>  -0.1500 
 23 C       -1.4210   -11.9290    -1.9680 C.ar  1 <1>  -0.1500 
 24 H        2.1790    -3.4920     0.6460 H     1 <1>   0.1500 
 25 H        0.2150    -4.5820    -2.9660 H     1 <1>   0.1500 
 26 H        0.7990    -5.1270     1.8950 H     1 <1>   0.1500 
 27 H       -1.1630    -6.2050    -1.7570 H     1 <1>   0.1500 
 28 H       -2.7040    -6.8990    -0.1000 H     1 <1>   0.0800 
 29 H       -1.4480    -8.1230    -0.3760 H     1 <1>   0.0800 
 30 H       -2.9850    -7.7200     2.2120 H     1 <1>   0.0800 
 31 H       -1.7050    -8.8850     1.9610 H     1 <1>   0.0800 
 32 H       -3.1000    -9.9180     0.2050 H     1 <1>   0.4500 
 33 H       -5.0530    -7.8850     0.8890 H     1 <1>   0.0800 
 34 H       -4.6370    -8.6180    -0.6590 H     1 <1>   0.0800 
 35 H       -3.1630   -11.0980     2.1660 H     1 <1>   0.0800 
 36 H       -4.1970    -9.8820     2.9070 H     1 <1>   0.0800 
 37 H       -6.2910   -10.1720    -0.3220 H     1 <1>   0.0800 
 38 H       -5.8340   -11.3730     2.1560 H     1 <1>   0.0800 
 39 H       -6.6110    -9.1890     2.3280 H     1 <1>   0.4000 
 40 H       -5.6960   -12.4290    -0.1800 H     1 <1>   0.0800 
 41 H       -4.7490   -13.0920     1.0930 H     1 <1>   0.0800 
 42 H       -2.6400   -13.7990     0.4990 H     1 <1>   0.1500 
 43 H       -2.4690   -10.3000    -2.8230 H     1 <1>   0.1500 
 44 H       -0.6280   -13.6250    -0.9190 H     1 <1>   0.1500 
 45 H       -0.5780   -11.8240    -2.6290 H     1 <1>   0.1500 
@<TRIPOS>BOND
  1   1   2  1   
  2   2   3  ar  
  3   2   4  ar  
  4   3   5  ar  
  5   3  24  1   
  6   4   6  ar  
  7   4  25  1   
  8   5   7  ar  
  9   5  26  1   
 10   6   7  ar  
 11   6  27  1   
 12   7   8  1   
 13   8   9  1   
 14   9  10  1   
 15   9  28  1   
 16   9  29  1   
 17  10  11  1   
 18  10  30  1   
 19  10  31  1   
 20  11  12  1   
 21  11  13  1   
 22  11  32  1   
 23  12  14  1   
 24  12  33  1   
 25  12  34  1   
 26  13  15  1   
 27  13  35  1   
 28  13  36  1   
 29  14  15  1   
 30  14  16  1   
 31  14  37  1   
 32  15  17  1   
 33  15  38  1   
 34  16  39  1   
 35  17  18  1   
 36  17  40  1   
 37  17  41  1   
 38  18  19  ar  
 39  18  20  ar  
 40  19  21  ar  
 41  20  22  ar  
 42  20  42  1   
 43  21  23  ar  
 44  21  43  1   
 45  22  23  ar  
 46  22  44  1   
 47  23  45  1   
@<TRIPOS>SUBSTRUCTURE
  1 ****   9 GROUP 4 **** **** 0

# MOE 2024.06 (io_trps.svl 2023.06)
