@<TRIPOS>MOLECULE
NONAME
47 49 1 0 0 
SMALL
USER_CHARGES


@<TRIPOS>ATOM
  1 O       -1.5660     0.1740     2.2360 O.2   1 <1>  -0.5700 
  2 C       -1.9340     0.6970     1.1990 C.2   1 <1>   0.6160 
  3 N       -2.6600    -0.0480     0.2940 N.am  1 <1>  -0.6600 
  4 C       -1.5300     2.0440     0.9140 C.2   1 <1>   0.0290 
  5 C       -2.5730    -1.5470     0.3610 C.3   1 <1>   0.3640 
  6 C       -3.7610     0.5760    -0.4970 C.3   1 <1>   0.1400 
  7 C       -2.4770     3.0850     1.1680 C.2   1 <1>   0.6160 
  8 C       -0.2860     2.3810     0.4200 C.2   1 <1>  -0.1380 
  9 C       -1.1660    -1.9530    -0.0900 C.ar  1 <1>  -0.1440 
 10 C       -3.6220    -2.3380    -0.4810 C.3   1 <1>   0.2000 
 11 C       -4.3810    -0.3810    -1.5170 C.3   1 <1>   0.1200 
 12 O       -3.6220     2.9040     1.5560 O.2   1 <1>  -0.5700 
 13 N       -2.1110     4.3810     0.9240 N.am  1 <1>  -0.5390 
 14 C        0.0240     3.7380     0.1740 C.2   1 <1>  -0.1500 
 15 C        0.8030     1.3560     0.1240 C.3   1 <1>  -0.1020 
 16 C       -0.6800    -1.5950    -1.3410 C.ar  1 <1>  -0.1500 
 17 C       -0.3520    -2.6880     0.7600 C.ar  1 <1>  -0.1500 
 18 O       -4.7240    -1.5700    -0.8840 O.3   1 <1>  -0.5600 
 19 C       -4.1810    -3.5520     0.2760 C.3   1 <1>   0.1200 
 20 C       -0.8840     4.7190     0.4290 C.2   1 <1>  -0.0290 
 21 C        0.5910    -1.9720    -1.7380 C.ar  1 <1>  -0.1500 
 22 C        0.9200    -3.0650     0.3660 C.ar  1 <1>  -0.1500 
 23 O       -3.1620    -4.4050     0.6920 O.3   1 <1>  -0.6800 
 24 C       -0.6130     6.1910     0.1960 C.3   1 <1>  -0.1020 
 25 C        1.3920    -2.7080    -0.8840 C.ar  1 <1>  -0.1500 
 26 H       -2.7000    -1.8350     1.3910 H     1 <1>   0.0800 
 27 H       -4.5330     0.8960     0.1810 H     1 <1>   0.0800 
 28 H       -3.3910     1.4450    -1.0130 H     1 <1>   0.0800 
 29 H       -3.1580    -2.6960    -1.3830 H     1 <1>   0.0800 
 30 H       -3.7000    -0.5900    -2.3240 H     1 <1>   0.0800 
 31 H       -5.2800     0.0470    -1.9230 H     1 <1>   0.0800 
 32 H       -2.8260     5.0740     1.1450 H     1 <1>   0.3700 
 33 H        0.9980     3.9780    -0.2160 H     1 <1>   0.1500 
 34 H        1.7350     1.6740     0.5560 H     1 <1>   0.0800 
 35 H        0.9320     1.2530    -0.9390 H     1 <1>   0.0800 
 36 H        0.5710     0.3880     0.5300 H     1 <1>   0.0800 
 37 H       -1.2900    -1.0140    -2.0090 H     1 <1>   0.1500 
 38 H       -0.7090    -2.9660     1.7390 H     1 <1>   0.1500 
 39 H       -4.8470    -4.1110    -0.3580 H     1 <1>   0.0800 
 40 H       -4.7120    -3.2270     1.1540 H     1 <1>   0.0800 
 41 H        0.9580    -1.6910    -2.7100 H     1 <1>   0.1500 
 42 H        1.5400    -3.6330     1.0370 H     1 <1>   0.1500 
 43 H       -2.6290    -4.7190    -0.0670 H     1 <1>   0.4000 
 44 H       -1.3190     6.5890    -0.5100 H     1 <1>   0.0800 
 45 H        0.3790     6.3370    -0.1920 H     1 <1>   0.0800 
 46 H       -0.7010     6.7320     1.1220 H     1 <1>   0.0800 
 47 H        2.3810    -3.0020    -1.1890 H     1 <1>   0.1500 
@<TRIPOS>BOND
  1   1   2  2   
  2   2   3  am  
  3   2   4  1   
  4   3   5  1   
  5   3   6  1   
  6   4   7  1   
  7   4   8  2   
  8   5   9  1   
  9   5  10  1   
 10   5  26  1   
 11   6  11  1   
 12   6  27  1   
 13   6  28  1   
 14   7  12  2   
 15   7  13  am  
 16   8  14  1   
 17   8  15  1   
 18   9  16  ar  
 19   9  17  ar  
 20  10  18  1   
 21  10  19  1   
 22  10  29  1   
 23  11  18  1   
 24  11  30  1   
 25  11  31  1   
 26  13  20  1   
 27  13  32  1   
 28  14  20  2   
 29  14  33  1   
 30  15  34  1   
 31  15  35  1   
 32  15  36  1   
 33  16  21  ar  
 34  16  37  1   
 35  17  22  ar  
 36  17  38  1   
 37  19  23  1   
 38  19  39  1   
 39  19  40  1   
 40  20  24  1   
 41  21  25  ar  
 42  21  41  1   
 43  22  25  ar  
 44  22  42  1   
 45  23  43  1   
 46  24  44  1   
 47  24  45  1   
 48  24  46  1   
 49  25  47  1   
@<TRIPOS>SUBSTRUCTURE
  1 ****   3 GROUP 4 **** **** 0

# MOE 2024.06 (io_trps.svl 2023.06)
