@<TRIPOS>MOLECULE
NONAME
49 52 1 0 0 
SMALL
USER_CHARGES


@<TRIPOS>ATOM
  1 S        0.6760    -0.2800    -2.3630 S.3   1 <1>   0.1810 
  2 N        1.1590     1.2390    -1.8020 N.2   1 <1>  -0.2210 
  3 C        1.4640    -1.1240    -1.0760 C.2   1 <1>  -0.0450 
  4 N        1.8540     1.1240    -0.7580 N.2   1 <1>  -0.2270 
  5 C        2.0460    -0.1690    -0.3270 C.2   1 <1>   0.0460 
  6 C        1.3900    -2.5550    -1.0510 C.2   1 <1>   0.7150 
  7 C        2.8880    -0.3540     0.9350 C.3   1 <1>   0.1010 
  8 O        2.4120    -3.2120    -1.0760 O.2   1 <1>  -0.5700 
  9 N        0.1790    -3.2050    -0.9710 N.am  1 <1>  -0.6600 
 10 C        4.3290    -0.7180     0.5670 C.3   1 <1>  -0.2400 
 11 C        2.2960    -1.3950     1.8960 C.3   1 <1>  -0.2400 
 12 C       -1.0990    -2.5600    -0.5750 C.3   1 <1>   0.1400 
 13 C        0.0550    -4.6810    -0.8910 C.3   1 <1>   0.1400 
 14 C       -2.0100    -3.7030    -0.1180 C.3   1 <1>   0.2000 
 15 C       -1.1060    -4.9200     0.0740 C.3   1 <1>  -0.0800 
 16 O       -2.6440    -3.3970     1.0750 O.3   1 <1>  -0.6800 
 17 C       -1.8430    -6.2500    -0.1560 C.3   1 <1>  -0.0170 
 18 C       -0.9080    -7.4350     0.0110 C.ar  1 <1>   0.1670 
 19 N       -0.2500    -7.8280    -1.0370 N.ar  1 <1>  -0.6200 
 20 C       -0.7890    -8.0350     1.2750 C.ar  1 <1>  -0.1500 
 21 C        0.6010    -8.8760    -0.8920 C.ar  1 <1>   0.3100 
 22 C        0.0560    -9.0880     1.4480 C.ar  1 <1>  -0.1500 
 23 C        0.7900    -9.5410     0.3390 C.ar  1 <1>   0.0000 
 24 C        1.3290    -9.3180    -2.0090 C.ar  1 <1>  -0.1500 
 25 C        1.6970   -10.6170     0.4040 C.ar  1 <1>  -0.1500 
 26 C        2.2060   -10.3670    -1.9250 C.ar  1 <1>  -0.1500 
 27 C        2.3920   -11.0230    -0.7030 C.ar  1 <1>  -0.1500 
 28 H        2.9050     0.5880     1.4580 H     1 <1>   0.0800 
 29 H        4.3610    -1.6610     0.0490 H     1 <1>   0.0800 
 30 H        4.9370    -0.7890     1.4510 H     1 <1>   0.0800 
 31 H        4.7450     0.0380    -0.0760 H     1 <1>   0.0800 
 32 H        2.3670    -2.3870     1.4880 H     1 <1>   0.0800 
 33 H        1.2630    -1.1690     2.0950 H     1 <1>   0.0800 
 34 H        2.8330    -1.3780     2.8270 H     1 <1>   0.0800 
 35 H       -0.9260    -1.8580     0.2230 H     1 <1>   0.0800 
 36 H       -1.5350    -2.0580    -1.4200 H     1 <1>   0.0800 
 37 H       -0.1740    -5.0690    -1.8700 H     1 <1>   0.0800 
 38 H        0.9610    -5.1440    -0.5340 H     1 <1>   0.0800 
 39 H       -2.7650    -3.8860    -0.8650 H     1 <1>   0.0800 
 40 H       -0.6940    -4.9110     1.0680 H     1 <1>   0.0800 
 41 H       -1.9890    -3.2680     1.7880 H     1 <1>   0.4000 
 42 H       -2.2590    -6.2720    -1.1480 H     1 <1>   0.0800 
 43 H       -2.6600    -6.3340     0.5390 H     1 <1>   0.0800 
 44 H       -1.3700    -7.6540     2.0950 H     1 <1>   0.1500 
 45 H        0.1740    -9.5740     2.4000 H     1 <1>   0.1500 
 46 H        1.1730    -8.8010    -2.9370 H     1 <1>   0.1500 
 47 H        1.8350   -11.1180     1.3460 H     1 <1>   0.1500 
 48 H        2.7590   -10.6950    -2.7880 H     1 <1>   0.1500 
 49 H        3.0850   -11.8450    -0.6510 H     1 <1>   0.1500 
@<TRIPOS>BOND
  1   1   2  1   
  2   1   3  1   
  3   2   4  2   
  4   3   5  2   
  5   3   6  1   
  6   4   5  1   
  7   5   7  1   
  8   6   8  2   
  9   6   9  am  
 10   7  10  1   
 11   7  11  1   
 12   7  28  1   
 13   9  12  1   
 14   9  13  1   
 15  10  29  1   
 16  10  30  1   
 17  10  31  1   
 18  11  32  1   
 19  11  33  1   
 20  11  34  1   
 21  12  14  1   
 22  12  35  1   
 23  12  36  1   
 24  13  15  1   
 25  13  37  1   
 26  13  38  1   
 27  14  15  1   
 28  14  16  1   
 29  14  39  1   
 30  15  17  1   
 31  15  40  1   
 32  16  41  1   
 33  17  18  1   
 34  17  42  1   
 35  17  43  1   
 36  18  19  ar  
 37  18  20  ar  
 38  19  21  ar  
 39  20  22  ar  
 40  20  44  1   
 41  21  23  ar  
 42  21  24  ar  
 43  22  23  ar  
 44  22  45  1   
 45  23  25  ar  
 46  24  26  ar  
 47  24  46  1   
 48  25  27  ar  
 49  25  47  1   
 50  26  27  ar  
 51  26  48  1   
 52  27  49  1   
@<TRIPOS>SUBSTRUCTURE
  1 ****  13 GROUP 4 **** **** 0

# MOE 2024.06 (io_trps.svl 2023.06)
