@<TRIPOS>MOLECULE
NONAME
39 42 1 0 0 
SMALL
USER_CHARGES


@<TRIPOS>ATOM
  1 S       -0.1410     0.2390    -1.8830 S.3   1 <1>  -0.0800 
  2 C       -1.1310     1.0340    -0.6690 C.2   1 <1>  -0.1400 
  3 C       -1.3920    -0.9650    -2.1620 C.2   1 <1>  -0.1100 
  4 C       -2.3070     0.4080    -0.5330 C.2   1 <1>  -0.1810 
  5 C       -0.6670     2.2680     0.0980 C.3   1 <1>   0.4600 
  6 C       -2.4630    -0.7380    -1.3760 C.2   1 <1>  -0.1500 
  7 C       -3.3240     0.9370     0.4530 C.3   1 <1>   0.0210 
  8 O       -1.6220     2.5590     1.1010 O.3   1 <1>  -0.5600 
  9 C        0.6540     1.9980     0.8230 C.3   1 <1>  -0.1600 
 10 C       -0.5240     3.4860    -0.8250 C.3   1 <1>  -0.1600 
 11 C       -2.9860     2.4030     0.7850 C.3   1 <1>   0.1200 
 12 C        1.1450     3.2350     1.5760 C.3   1 <1>   0.1400 
 13 C       -0.0260     4.7180    -0.0660 C.3   1 <1>   0.1400 
 14 N        1.2430     4.3860     0.6360 N.am  1 <1>  -0.6600 
 15 C        2.4540     4.9850     0.3460 C.2   1 <1>   0.7160 
 16 O        3.4790     4.3650     0.5740 O.2   1 <1>  -0.5700 
 17 C        2.5400     6.3160    -0.2210 C.2   1 <1>  -0.0860 
 18 C        1.7320     7.4150    -0.0440 C.2   1 <1>  -0.3020 
 19 C        3.5530     6.7530    -1.0970 C.2   1 <1>  -0.1500 
 20 N        2.1950     8.4640    -0.7620 N.pl3 1 <1>   0.0330 
 21 C        3.3140     8.0510    -1.4080 C.2   1 <1>  -0.3020 
 22 H       -1.1900    -1.7260    -2.8940 H     1 <1>   0.1500 
 23 H       -3.3600    -1.3310    -1.3530 H     1 <1>   0.1500 
 24 H       -3.3040     0.3440     1.3490 H     1 <1>   0.0800 
 25 H       -4.3110     0.8850     0.0300 H     1 <1>   0.0800 
 26 H        1.4090     1.7120     0.1140 H     1 <1>   0.0800 
 27 H        0.5230     1.1790     1.5070 H     1 <1>   0.0800 
 28 H       -1.4600     3.6990    -1.3040 H     1 <1>   0.0800 
 29 H        0.1830     3.2560    -1.6000 H     1 <1>   0.0800 
 30 H       -3.5580     2.7320     1.6350 H     1 <1>   0.0800 
 31 H       -3.2170     3.0390    -0.0510 H     1 <1>   0.0800 
 32 H        2.0990     3.0300     2.0300 H     1 <1>   0.0800 
 33 H        0.4520     3.4840     2.3620 H     1 <1>   0.0800 
 34 H       -0.7590     5.0280     0.6590 H     1 <1>   0.0800 
 35 H        0.1210     5.5190    -0.7680 H     1 <1>   0.0800 
 36 H        0.8560     7.4830     0.5750 H     1 <1>   0.1500 
 37 H        4.3640     6.1270    -1.4330 H     1 <1>   0.1500 
 38 H        1.7870     9.4050    -0.8040 H     1 <1>   0.2700 
 39 H        3.8830     8.7020    -2.0500 H     1 <1>   0.1500 
@<TRIPOS>BOND
  1   1   2  1   
  2   1   3  1   
  3   2   4  2   
  4   2   5  1   
  5   3   6  2   
  6   3  22  1   
  7   4   6  1   
  8   4   7  1   
  9   5   8  1   
 10   5   9  1   
 11   5  10  1   
 12   6  23  1   
 13   7  11  1   
 14   7  24  1   
 15   7  25  1   
 16   8  11  1   
 17   9  12  1   
 18   9  26  1   
 19   9  27  1   
 20  10  13  1   
 21  10  28  1   
 22  10  29  1   
 23  11  30  1   
 24  11  31  1   
 25  12  14  1   
 26  12  32  1   
 27  12  33  1   
 28  13  14  1   
 29  13  34  1   
 30  13  35  1   
 31  14  15  am  
 32  15  16  2   
 33  15  17  1   
 34  17  18  2   
 35  17  19  1   
 36  18  20  1   
 37  18  36  1   
 38  19  21  2   
 39  19  37  1   
 40  20  21  1   
 41  20  38  1   
 42  21  39  1   
@<TRIPOS>SUBSTRUCTURE
  1 ****  10 GROUP 4 **** **** 0

# MOE 2024.06 (io_trps.svl 2023.06)
