@<TRIPOS>MOLECULE
NONAME
53 54 1 0 0 
SMALL
USER_CHARGES


@<TRIPOS>ATOM
  1 F       -0.2420     0.6970     0.8650 F     1 <1>  -0.1900 
  2 C       -1.5190     0.9070     0.6640 C.ar  1 <1>   0.1900 
  3 C       -1.9810     1.9460    -0.1520 C.ar  1 <1>   0.0830 
  4 C       -2.3900     0.0470     1.3040 C.ar  1 <1>  -0.1500 
  5 O       -1.2250     2.8550    -0.8320 O.3   1 <1>  -0.3630 
  6 C       -3.3510     2.0850    -0.2990 C.ar  1 <1>  -0.1500 
  7 C       -3.7520     0.2160     1.1360 C.ar  1 <1>  -0.1500 
  8 C        0.1850     2.8390    -0.8290 C.3   1 <1>   0.0400 
  9 C       -4.2620     1.2330     0.3280 C.ar  1 <1>   0.0530 
 10 C       -5.6790     1.4260     0.1510 C.2   1 <1>   0.0870 
 11 O       -6.1720     2.6330     0.2650 O.3   1 <1>  -0.0190 
 12 C       -6.7200     0.5960    -0.1390 C.2   1 <1>  -0.0860 
 13 N       -7.4640     2.6770     0.0900 N.2   1 <1>  -0.4100 
 14 C       -7.8220     1.4650    -0.1500 C.2   1 <1>   0.3720 
 15 C       -6.7540    -0.8120    -0.4080 C.2   1 <1>   0.7160 
 16 N       -9.1620     1.0970    -0.3700 N.pl3 1 <1>  -0.8210 
 17 O       -5.7940    -1.5290    -0.2030 O.2   1 <1>  -0.5700 
 18 N       -7.8900    -1.3780    -0.8980 N.am  1 <1>  -0.7300 
 19 C       -9.8750     0.7390     0.8900 C.3   1 <1>   0.1290 
 20 C       -9.9440     2.0810    -1.1700 C.3   1 <1>   0.1290 
 21 C       -8.1890    -2.8210    -1.0400 C.3   1 <1>   0.1400 
 22 C       -9.3360    -3.2290    -0.0920 C.3   1 <1>  -0.0800 
 23 C       -9.5330    -4.7750    -0.0720 C.3   1 <1>  -0.0800 
 24 C      -10.6240    -2.4750    -0.4920 C.3   1 <1>   0.1200 
 25 C      -10.7250    -5.2230     0.7920 C.3   1 <1>  -0.2400 
 26 C       -8.2820    -5.5110     0.4410 C.3   1 <1>  -0.2400 
 27 O      -11.4050    -2.2530     0.6300 O.3   1 <1>  -0.6800 
 28 H       -2.0070    -0.7430     1.9240 H     1 <1>   0.1500 
 29 H       -3.7220     2.8800    -0.9210 H     1 <1>   0.1500 
 30 H       -4.4320    -0.4510     1.6370 H     1 <1>   0.1500 
 31 H        0.5300     3.6420    -1.4550 H     1 <1>   0.0800 
 32 H        0.5260     1.8980    -1.2230 H     1 <1>   0.0800 
 33 H        0.5360     2.9870     0.1770 H     1 <1>   0.0800 
 34 H       -8.6820    -0.7200    -0.9710 H     1 <1>   0.3700 
 35 H       -9.3690    -0.0730     1.3830 H     1 <1>   0.0800 
 36 H      -10.8830     0.4300     0.6730 H     1 <1>   0.0800 
 37 H       -9.9020     1.5870     1.5530 H     1 <1>   0.0800 
 38 H       -9.3790     2.3780    -2.0370 H     1 <1>   0.0800 
 39 H      -10.1560     2.9560    -0.5790 H     1 <1>   0.0800 
 40 H      -10.8700     1.6390    -1.4940 H     1 <1>   0.0800 
 41 H       -7.2950    -3.3740    -0.8160 H     1 <1>   0.0800 
 42 H       -8.4590    -3.0290    -2.0610 H     1 <1>   0.0800 
 43 H       -9.0440    -2.9120     0.8950 H     1 <1>   0.0800 
 44 H       -9.7200    -5.1080    -1.0800 H     1 <1>   0.0800 
 45 H      -11.1990    -3.0390    -1.2070 H     1 <1>   0.0800 
 46 H      -10.4150    -1.5090    -0.9170 H     1 <1>   0.0800 
 47 H      -10.6270    -4.8500     1.7960 H     1 <1>   0.0800 
 48 H      -10.7710    -6.2970     0.8360 H     1 <1>   0.0800 
 49 H      -11.6570    -4.8870     0.3730 H     1 <1>   0.0800 
 50 H       -7.9920    -5.1370     1.4080 H     1 <1>   0.0800 
 51 H       -7.4530    -5.4020    -0.2330 H     1 <1>   0.0800 
 52 H       -8.4760    -6.5650     0.5310 H     1 <1>   0.0800 
 53 H      -11.5670    -3.1010     1.0900 H     1 <1>   0.4000 
@<TRIPOS>BOND
  1   1   2  1   
  2   2   3  ar  
  3   2   4  ar  
  4   3   5  1   
  5   3   6  ar  
  6   4   7  ar  
  7   4  28  1   
  8   5   8  1   
  9   6   9  ar  
 10   6  29  1   
 11   7   9  ar  
 12   7  30  1   
 13   8  31  1   
 14   8  32  1   
 15   8  33  1   
 16   9  10  1   
 17  10  11  1   
 18  10  12  2   
 19  11  13  1   
 20  12  14  1   
 21  12  15  1   
 22  13  14  2   
 23  14  16  1   
 24  15  17  2   
 25  15  18  am  
 26  16  19  1   
 27  16  20  1   
 28  18  21  1   
 29  18  34  1   
 30  19  35  1   
 31  19  36  1   
 32  19  37  1   
 33  20  38  1   
 34  20  39  1   
 35  20  40  1   
 36  21  22  1   
 37  21  41  1   
 38  21  42  1   
 39  22  23  1   
 40  22  24  1   
 41  22  43  1   
 42  23  25  1   
 43  23  26  1   
 44  23  44  1   
 45  24  27  1   
 46  24  45  1   
 47  24  46  1   
 48  25  47  1   
 49  25  48  1   
 50  25  49  1   
 51  26  50  1   
 52  26  51  1   
 53  26  52  1   
 54  27  53  1   
@<TRIPOS>SUBSTRUCTURE
  1 ****  12 GROUP 4 **** **** 0

# MOE 2024.06 (io_trps.svl 2023.06)
