@<TRIPOS>MOLECULE
NONAME
56 59 1 0 0 
SMALL
USER_CHARGES


@<TRIPOS>ATOM
  1 O       -0.8240     5.9350     0.7970 O.2   1 <1>  -0.5700 
  2 C       -0.5040     4.8350     0.3840 C.2   1 <1>   0.5440 
  3 N       -1.4950     3.9140     0.1110 N.am  1 <1>  -0.6600 
  4 C        0.9010     4.5360     0.1770 C.ar  1 <1>   0.0860 
  5 C       -2.8880     4.0830     0.6340 C.3   1 <1>   0.1400 
  6 C       -1.3350     2.7790    -0.8410 C.3   1 <1>   0.1400 
  7 C        1.4670     3.3460     0.6300 C.ar  1 <1>  -0.1500 
  8 C        1.7370     5.4370    -0.4800 C.ar  1 <1>  -0.1500 
  9 C       -3.8970     4.2670    -0.5140 C.3   1 <1>   0.1440 
 10 C       -2.3170     2.9360    -2.0090 C.3   1 <1>  -0.1600 
 11 C        2.8010     3.0470     0.4190 C.ar  1 <1>   0.0830 
 12 C        3.0750     5.1550    -0.6940 C.ar  1 <1>  -0.1500 
 13 C       -5.2870     4.3610     0.0870 C.ar  1 <1>   0.1660 
 14 C       -3.7670     3.1020    -1.5190 C.3   1 <1>  -0.1600 
 15 C       -3.7390     5.6520    -1.1970 C.3   1 <1>  -0.1600 
 16 O        3.2370     1.8530     0.8900 O.3   1 <1>  -0.3630 
 17 C        3.6110     3.9600    -0.2500 C.ar  1 <1>  -0.1500 
 18 N       -5.9750     3.3570     0.5730 N.ar  1 <1>  -0.6200 
 19 C       -5.7470     5.6430     0.0810 C.ar  1 <1>  -0.1430 
 20 C       -4.7450     6.5970    -0.5190 C.3   1 <1>  -0.0170 
 21 C        4.5880     1.4690     0.7770 C.3   1 <1>   0.1200 
 22 C       -7.1780     3.6730     1.0580 C.ar  1 <1>   0.7200 
 23 C       -6.9940     5.8740     0.6030 C.ar  1 <1>   0.1600 
 24 C        4.7420     0.0960     1.4260 C.3   1 <1>  -0.2400 
 25 N       -7.7190     4.8960     1.0930 N.ar  1 <1>  -0.6200 
 26 N       -7.9340     2.6380     1.5750 N.pl3 1 <1>  -0.8380 
 27 C       -7.3510     1.3000     1.8660 C.3   1 <1>   0.1290 
 28 C       -9.3850     2.7930     1.8710 C.3   1 <1>   0.1290 
 29 H       -2.9440     4.9230     1.3050 H     1 <1>   0.0800 
 30 H       -3.1530     3.2040     1.1970 H     1 <1>   0.0800 
 31 H       -1.5290     1.8570    -0.3200 H     1 <1>   0.0800 
 32 H       -0.3330     2.7410    -1.2300 H     1 <1>   0.0800 
 33 H        0.8560     2.6390     1.1600 H     1 <1>   0.1500 
 34 H        1.3240     6.3710    -0.8210 H     1 <1>   0.1500 
 35 H       -2.2510     2.0700    -2.6430 H     1 <1>   0.0800 
 36 H       -2.0270     3.7910    -2.5940 H     1 <1>   0.0800 
 37 H        3.6980     5.8680    -1.2060 H     1 <1>   0.1500 
 38 H       -4.4270     3.2580    -2.3540 H     1 <1>   0.0800 
 39 H       -4.0730     2.1910    -1.0340 H     1 <1>   0.0800 
 40 H       -4.0040     5.5720    -2.2360 H     1 <1>   0.0800 
 41 H       -2.7360     6.0330    -1.1340 H     1 <1>   0.0800 
 42 H        4.6500     3.7610    -0.4300 H     1 <1>   0.1500 
 43 H       -5.2000     7.2670    -1.2270 H     1 <1>   0.0800 
 44 H       -4.2650     7.1580     0.2640 H     1 <1>   0.0800 
 45 H        5.1940     2.1990     1.2840 H     1 <1>   0.0800 
 46 H        4.8450     1.4270    -0.2670 H     1 <1>   0.0800 
 47 H       -7.4010     6.8700     0.6220 H     1 <1>   0.1500 
 48 H        4.4670     0.1460     2.4640 H     1 <1>   0.0800 
 49 H        5.7650    -0.2260     1.3560 H     1 <1>   0.0800 
 50 H        4.1200    -0.6220     0.9230 H     1 <1>   0.0800 
 51 H       -6.3090     1.3900     2.1190 H     1 <1>   0.0800 
 52 H       -7.4490     0.6700     1.0000 H     1 <1>   0.0800 
 53 H       -7.8620     0.8460     2.6970 H     1 <1>   0.0800 
 54 H       -9.8300     3.5170     1.2100 H     1 <1>   0.0800 
 55 H       -9.5100     3.1240     2.8870 H     1 <1>   0.0800 
 56 H       -9.8930     1.8550     1.7350 H     1 <1>   0.0800 
@<TRIPOS>BOND
  1   1   2  2   
  2   2   3  am  
  3   2   4  1   
  4   3   5  1   
  5   3   6  1   
  6   4   7  ar  
  7   4   8  ar  
  8   5   9  1   
  9   5  29  1   
 10   5  30  1   
 11   6  10  1   
 12   6  31  1   
 13   6  32  1   
 14   7  11  ar  
 15   7  33  1   
 16   8  12  ar  
 17   8  34  1   
 18   9  13  1   
 19   9  14  1   
 20   9  15  1   
 21  10  14  1   
 22  10  35  1   
 23  10  36  1   
 24  11  16  1   
 25  11  17  ar  
 26  12  17  ar  
 27  12  37  1   
 28  13  18  ar  
 29  13  19  ar  
 30  14  38  1   
 31  14  39  1   
 32  15  20  1   
 33  15  40  1   
 34  15  41  1   
 35  16  21  1   
 36  17  42  1   
 37  18  22  ar  
 38  19  20  1   
 39  19  23  ar  
 40  20  43  1   
 41  20  44  1   
 42  21  24  1   
 43  21  45  1   
 44  21  46  1   
 45  22  25  ar  
 46  22  26  1   
 47  23  25  ar  
 48  23  47  1   
 49  24  48  1   
 50  24  49  1   
 51  24  50  1   
 52  26  27  1   
 53  26  28  1   
 54  27  51  1   
 55  27  52  1   
 56  27  53  1   
 57  28  54  1   
 58  28  55  1   
 59  28  56  1   
@<TRIPOS>SUBSTRUCTURE
  1 ****   3 GROUP 4 **** **** 0

# MOE 2024.06 (io_trps.svl 2023.06)
