@<TRIPOS>MOLECULE
NONAME
49 50 1 0 0 
SMALL
USER_CHARGES


@<TRIPOS>ATOM
  1 O       -2.6340     1.0720     2.4070 O.2   1 <1>  -0.5700 
  2 C       -2.1850     1.5120     1.3770 C.2   1 <1>   0.5690 
  3 N       -1.8680     0.7260     0.3200 N.am  1 <1>  -0.7300 
  4 C       -1.9410     2.9940     1.2650 C.3   1 <1>  -0.0990 
  5 C       -2.0230    -0.7350     0.2680 C.3   1 <1>   0.2200 
  6 C       -0.6010     3.3300     1.9060 C.3   1 <1>   0.2090 
  7 C       -0.6360    -1.3750     0.1480 C.3   1 <1>  -0.1600 
  8 C       -2.9090    -1.0960    -0.9290 C.3   1 <1>  -0.1600 
  9 N       -0.2870     4.7570     1.6580 N.pl3 1 <1>  -0.8690 
 10 C       -0.7390    -2.8970    -0.0230 C.3   1 <1>  -0.1600 
 11 C       -3.0160    -2.6180    -1.1000 C.3   1 <1>  -0.1600 
 12 C        0.4600     5.1950     0.5890 C.ar  1 <1>   0.4100 
 13 C       -1.6280    -3.2630    -1.2200 C.3   1 <1>  -0.1600 
 14 N        0.6660     4.3580    -0.4120 N.ar  1 <1>  -0.6200 
 15 C        0.9680     6.4700     0.5670 C.ar  1 <1>  -0.1500 
 16 C        1.3920     4.8390    -1.4020 C.ar  1 <1>   0.4700 
 17 C        1.7090     6.8620    -0.5210 C.ar  1 <1>   0.4100 
 18 N        1.9310     6.0340    -1.5260 N.ar  1 <1>  -0.6200 
 19 N        2.2290     8.1400    -0.6000 N.pl3 1 <1>  -0.8380 
 20 C        3.5320     8.3600    -1.2830 C.3   1 <1>   0.2090 
 21 C        1.2770     9.2830    -0.6490 C.3   1 <1>   0.1290 
 22 C        4.3830     9.3180    -0.4560 C.3   1 <1>  -0.2400 
 23 H       -1.4600     1.1490    -0.5140 H     1 <1>   0.3700 
 24 H       -2.7290     3.5200     1.7700 H     1 <1>   0.0800 
 25 H       -1.9350     3.2820     0.2310 H     1 <1>   0.0800 
 26 H       -2.4940    -1.0830     1.1730 H     1 <1>   0.0800 
 27 H        0.1730     2.7070     1.4890 H     1 <1>   0.0800 
 28 H       -0.6450     3.1440     2.9660 H     1 <1>   0.0800 
 29 H       -0.0670    -1.1550     1.0340 H     1 <1>   0.0800 
 30 H       -0.1200    -0.9620    -0.7010 H     1 <1>   0.0800 
 31 H       -2.4940    -0.6720    -1.8260 H     1 <1>   0.0800 
 32 H       -3.8920    -0.6850    -0.7780 H     1 <1>   0.0800 
 33 H       -0.2980     5.3500     2.4900 H     1 <1>   0.4000 
 34 H       -1.1550    -3.3280     0.8730 H     1 <1>   0.0800 
 35 H        0.2440    -3.3130    -0.1620 H     1 <1>   0.0800 
 36 H       -3.5960    -2.8430    -1.9790 H     1 <1>   0.0800 
 37 H       -3.5300    -3.0360    -0.2510 H     1 <1>   0.0800 
 38 H       -1.7320    -4.3330    -1.2780 H     1 <1>   0.0800 
 39 H       -1.1570    -2.9290    -2.1280 H     1 <1>   0.0800 
 40 H        0.8020     7.1480     1.3760 H     1 <1>   0.1500 
 41 H        1.5700     4.1630    -2.2210 H     1 <1>   0.1500 
 42 H        3.3640     8.7540    -2.2700 H     1 <1>   0.0800 
 43 H        4.0560     7.4240    -1.3790 H     1 <1>   0.0800 
 44 H        0.2710     8.9420    -0.4730 H     1 <1>   0.0800 
 45 H        1.3140     9.7520    -1.6160 H     1 <1>   0.0800 
 46 H        1.5370    10.0040     0.1060 H     1 <1>   0.0800 
 47 H        3.9230    10.2870    -0.4040 H     1 <1>   0.0800 
 48 H        5.3500     9.4240    -0.9120 H     1 <1>   0.0800 
 49 H        4.5130     8.9260     0.5370 H     1 <1>   0.0800 
@<TRIPOS>BOND
  1   1   2  2   
  2   2   3  am  
  3   2   4  1   
  4   3   5  1   
  5   3  23  1   
  6   4   6  1   
  7   4  24  1   
  8   4  25  1   
  9   5   7  1   
 10   5   8  1   
 11   5  26  1   
 12   6   9  1   
 13   6  27  1   
 14   6  28  1   
 15   7  10  1   
 16   7  29  1   
 17   7  30  1   
 18   8  11  1   
 19   8  31  1   
 20   8  32  1   
 21   9  12  1   
 22   9  33  1   
 23  10  13  1   
 24  10  34  1   
 25  10  35  1   
 26  11  13  1   
 27  11  36  1   
 28  11  37  1   
 29  12  14  ar  
 30  12  15  ar  
 31  13  38  1   
 32  13  39  1   
 33  14  16  ar  
 34  15  17  ar  
 35  15  40  1   
 36  16  18  ar  
 37  16  41  1   
 38  17  18  ar  
 39  17  19  1   
 40  19  20  1   
 41  19  21  1   
 42  20  22  1   
 43  20  42  1   
 44  20  43  1   
 45  21  44  1   
 46  21  45  1   
 47  21  46  1   
 48  22  47  1   
 49  22  48  1   
 50  22  49  1   
@<TRIPOS>SUBSTRUCTURE
  1 ****  14 GROUP 4 **** **** 0

# MOE 2024.06 (io_trps.svl 2023.06)
