@<TRIPOS>MOLECULE
NONAME
37 38 1 0 0 
SMALL
USER_CHARGES


@<TRIPOS>ATOM
  1 O       -3.3630     0.4760     1.1160 O.co2 1 <1>  -0.9000 
  2 C       -2.4970     0.0230     0.3630 C.2   1 <1>   0.9060 
  3 O       -2.4060     0.3310    -0.8230 O.co2 1 <1>  -0.9000 
  4 C       -1.7740    -1.1920     0.8330 C.3   1 <1>  -0.2660 
  5 C       -2.5340    -2.4080     0.3280 C.3   1 <1>   0.3430 
  6 N       -3.9890    -2.2320     0.5900 N.4   1 <1>  -0.9590 
  7 C       -4.7010    -1.6780    -0.6070 C.3   1 <1>   0.3430 
  8 C       -4.6920    -3.4750     0.9900 C.3   1 <1>   0.3430 
  9 C       -5.9160    -2.5880    -0.8450 C.3   1 <1>   0.2000 
 10 C       -5.4820    -3.9220    -0.2430 C.3   1 <1>  -0.0800 
 11 O       -7.0060    -2.1420    -0.1030 O.3   1 <1>  -0.6800 
 12 C       -4.6250    -4.7360    -1.2340 C.3   1 <1>   0.0210 
 13 C       -3.9050    -5.8810    -0.5520 C.2   1 <1>   0.1080 
 14 N       -2.7610    -5.7320     0.0440 N.2   1 <1>  -0.7070 
 15 C       -4.3690    -7.1890    -0.4860 C.2   1 <1>  -0.1500 
 16 N       -2.4560    -6.9650     0.5010 N.pl3 1 <1>   0.3000 
 17 C       -3.4180    -7.8610     0.1960 C.2   1 <1>  -0.3320 
 18 C       -3.3670    -9.3290     0.5770 C.3   1 <1>  -0.0600 
 19 H       -0.7770    -1.1840     0.4380 H     1 <1>   0.0800 
 20 H       -1.7270    -1.1890     1.9040 H     1 <1>   0.0800 
 21 H       -2.1690    -3.2930     0.8240 H     1 <1>   0.0800 
 22 H       -2.3650    -2.5220    -0.7300 H     1 <1>   0.0800 
 23 H       -4.0620    -1.4750     1.3050 H     1 <1>   0.4500 
 24 H       -4.9920    -0.6520    -0.4430 H     1 <1>   0.0800 
 25 H       -4.0450    -1.7080    -1.4600 H     1 <1>   0.0800 
 26 H       -4.0090    -4.2280     1.3430 H     1 <1>   0.0800 
 27 H       -5.3900    -3.2410     1.7780 H     1 <1>   0.0800 
 28 H       -6.2030    -2.6440    -1.8810 H     1 <1>   0.0800 
 29 H       -6.3270    -4.5180     0.0520 H     1 <1>   0.0800 
 30 H       -7.2550    -1.2270    -0.3490 H     1 <1>   0.4000 
 31 H       -3.8820    -4.1150    -1.7030 H     1 <1>   0.0800 
 32 H       -5.2530    -5.1300    -2.0130 H     1 <1>   0.0800 
 33 H       -5.2890    -7.5620    -0.9010 H     1 <1>   0.1500 
 34 H       -1.5860    -7.1680     1.0090 H     1 <1>   0.2700 
 35 H       -4.2460    -9.8360     0.2190 H     1 <1>   0.0800 
 36 H       -3.3220    -9.4380     1.6460 H     1 <1>   0.0800 
 37 H       -2.5030    -9.7980     0.1400 H     1 <1>   0.0800 
@<TRIPOS>BOND
  1   1   2  ar  
  2   2   3  ar  
  3   2   4  1   
  4   4   5  1   
  5   4  19  1   
  6   4  20  1   
  7   5   6  1   
  8   5  21  1   
  9   5  22  1   
 10   6   7  1   
 11   6   8  1   
 12   6  23  1   
 13   7   9  1   
 14   7  24  1   
 15   7  25  1   
 16   8  10  1   
 17   8  26  1   
 18   8  27  1   
 19   9  10  1   
 20   9  11  1   
 21   9  28  1   
 22  10  12  1   
 23  10  29  1   
 24  11  30  1   
 25  12  13  1   
 26  12  31  1   
 27  12  32  1   
 28  13  14  2   
 29  13  15  1   
 30  14  16  1   
 31  15  17  2   
 32  15  33  1   
 33  16  17  1   
 34  16  34  1   
 35  17  18  1   
 36  18  35  1   
 37  18  36  1   
 38  18  37  1   
@<TRIPOS>SUBSTRUCTURE
  1 ****   8 GROUP 4 **** **** 0

# MOE 2024.06 (io_trps.svl 2023.06)
