@<TRIPOS>MOLECULE
NONAME
60 62 1 0 0 
SMALL
USER_CHARGES


@<TRIPOS>ATOM
  1 O       -1.4150     0.1010    -1.1620 O.2   1 <1>  -0.5700 
  2 C       -1.5980     0.4520    -0.0230 C.2   1 <1>   0.5690 
  3 N       -1.8010    -0.4370     0.9760 N.am  1 <1>  -0.7300 
  4 C       -1.6070     1.9350     0.2960 C.3   1 <1>  -0.0990 
  5 C       -1.8130    -1.9110     0.8100 C.3   1 <1>   0.2200 
  6 C       -0.1930     2.5250     0.4960 C.3   1 <1>  -0.0800 
  7 C       -3.2330    -2.4620     0.8290 C.3   1 <1>  -0.0800 
  8 C       -1.2540    -2.5490     2.0740 C.3   1 <1>   0.1200 
  9 C       -0.2890     4.0050     0.8970 C.3   1 <1>  -0.1600 
 10 C        0.6550     2.4260    -0.7860 C.3   1 <1>  -0.1600 
 11 C       -3.5270    -2.6210     2.3260 C.3   1 <1>   0.1200 
 12 C       -4.2870    -1.6440     0.0590 C.3   1 <1>  -0.0160 
 13 O       -2.3030    -2.4930     2.9920 O.3   1 <1>  -0.5600 
 14 C        1.0750     4.6990     1.0610 C.3   1 <1>   0.5030 
 15 C        2.0430     3.0780    -0.6740 C.3   1 <1>   0.5030 
 16 C       -5.6330    -2.3510     0.0670 C.ar  1 <1>  -0.1440 
 17 N        1.9530     4.4240    -0.0870 N.4   1 <1>  -0.9060 
 18 C        0.8780     6.2140     1.0690 C.3   1 <1>  -0.2400 
 19 C        1.7680     4.3040     2.3670 C.3   1 <1>  -0.2400 
 20 C        2.6250     3.2800    -2.0720 C.3   1 <1>  -0.2400 
 21 C        3.0200     2.2130     0.1260 C.3   1 <1>  -0.2400 
 22 C       -5.9190    -3.3730    -0.8150 C.ar  1 <1>  -0.1500 
 23 C       -6.6370    -2.0110     0.9520 C.ar  1 <1>  -0.1500 
 24 C       -7.1570    -3.9930    -0.7670 C.ar  1 <1>   0.1600 
 25 C       -7.8410    -2.6960     0.9170 C.ar  1 <1>   0.1600 
 26 N       -8.1240    -3.6810     0.0800 N.ar  1 <1>  -0.6200 
 27 H       -2.0130    -0.1380     1.9310 H     1 <1>   0.3700 
 28 H       -2.1070     2.4430    -0.5090 H     1 <1>   0.0800 
 29 H       -2.1920     2.0870     1.1850 H     1 <1>   0.0800 
 30 H       -1.2660    -2.2000    -0.0720 H     1 <1>   0.0800 
 31 H        0.2840     1.9680     1.2850 H     1 <1>   0.0800 
 32 H       -3.2050    -3.4500     0.4040 H     1 <1>   0.0800 
 33 H       -0.3980    -2.0280     2.4650 H     1 <1>   0.0800 
 34 H       -1.0130    -3.5840     1.9080 H     1 <1>   0.0800 
 35 H       -0.8380     4.0920     1.8200 H     1 <1>   0.0800 
 36 H       -0.8610     4.5270     0.1490 H     1 <1>   0.0800 
 37 H        0.1110     2.8800    -1.5960 H     1 <1>   0.0800 
 38 H        0.7920     1.3930    -1.0540 H     1 <1>   0.0800 
 39 H       -3.9460    -3.5870     2.5480 H     1 <1>   0.0800 
 40 H       -4.1790    -1.8480     2.6930 H     1 <1>   0.0800 
 41 H       -3.9610    -1.5110    -0.9590 H     1 <1>   0.0800 
 42 H       -4.3960    -0.6660     0.4920 H     1 <1>   0.0800 
 43 H        2.8970     4.7300     0.1510 H     1 <1>   0.4500 
 44 H        1.6310     5.0330    -0.8400 H     1 <1>   0.4500 
 45 H        0.2330     6.4960     1.8830 H     1 <1>   0.0800 
 46 H        0.4170     6.5550     0.1590 H     1 <1>   0.0800 
 47 H        1.8140     6.7270     1.2040 H     1 <1>   0.0800 
 48 H        1.2180     4.7030     3.2020 H     1 <1>   0.0800 
 49 H        2.7660     4.7010     2.4160 H     1 <1>   0.0800 
 50 H        1.8000     3.2430     2.5090 H     1 <1>   0.0800 
 51 H        2.7090     2.3310    -2.5730 H     1 <1>   0.0800 
 52 H        3.6090     3.7130    -2.0270 H     1 <1>   0.0800 
 53 H        1.9910     3.9060    -2.6750 H     1 <1>   0.0800 
 54 H        3.2430     1.3180    -0.4270 H     1 <1>   0.0800 
 55 H        2.6090     1.8910     1.0610 H     1 <1>   0.0800 
 56 H        3.9470     2.7280     0.3000 H     1 <1>   0.0800 
 57 H       -5.1920    -3.6930    -1.5390 H     1 <1>   0.1500 
 58 H       -6.4970    -1.2220     1.6670 H     1 <1>   0.1500 
 59 H       -7.3620    -4.7890    -1.4630 H     1 <1>   0.1500 
 60 H       -8.6120    -2.4180     1.6150 H     1 <1>   0.1500 
@<TRIPOS>BOND
  1   1   2  2   
  2   2   3  am  
  3   2   4  1   
  4   3   5  1   
  5   3  27  1   
  6   4   6  1   
  7   4  28  1   
  8   4  29  1   
  9   5   7  1   
 10   5   8  1   
 11   5  30  1   
 12   6   9  1   
 13   6  10  1   
 14   6  31  1   
 15   7  11  1   
 16   7  12  1   
 17   7  32  1   
 18   8  13  1   
 19   8  33  1   
 20   8  34  1   
 21   9  14  1   
 22   9  35  1   
 23   9  36  1   
 24  10  15  1   
 25  10  37  1   
 26  10  38  1   
 27  11  13  1   
 28  11  39  1   
 29  11  40  1   
 30  12  16  1   
 31  12  41  1   
 32  12  42  1   
 33  14  17  1   
 34  14  18  1   
 35  14  19  1   
 36  15  17  1   
 37  15  20  1   
 38  15  21  1   
 39  16  22  ar  
 40  16  23  ar  
 41  17  43  1   
 42  17  44  1   
 43  18  45  1   
 44  18  46  1   
 45  18  47  1   
 46  19  48  1   
 47  19  49  1   
 48  19  50  1   
 49  20  51  1   
 50  20  52  1   
 51  20  53  1   
 52  21  54  1   
 53  21  55  1   
 54  21  56  1   
 55  22  24  ar  
 56  22  57  1   
 57  23  25  ar  
 58  23  58  1   
 59  24  26  ar  
 60  24  59  1   
 61  25  26  ar  
 62  25  60  1   
@<TRIPOS>SUBSTRUCTURE
  1 ****   2 GROUP 4 **** **** 0

# MOE 2024.06 (io_trps.svl 2023.06)
