@<TRIPOS>MOLECULE
NONAME
54 56 1 0 0 
SMALL
USER_CHARGES


@<TRIPOS>ATOM
  1 O       -1.1070     1.2660    -1.9340 O.2   1 <1>  -0.5700 
  2 C       -1.9870     1.4130    -1.1180 C.2   1 <1>   0.5690 
  3 N       -3.1450     0.6760    -1.1620 N.am  1 <1>  -0.6600 
  4 C       -1.7830     2.4500    -0.0170 C.3   1 <1>  -0.0990 
  5 C       -3.3580    -0.3690    -2.2050 C.3   1 <1>   0.1400 
  6 C       -4.2880     0.7910    -0.2130 C.3   1 <1>   0.1400 
  7 C       -0.4370     3.1980    -0.0810 C.3   1 <1>  -0.1600 
  8 C       -3.5610    -1.7290    -1.5320 C.3   1 <1>  -0.1600 
  9 C       -4.4890    -0.5490     0.5000 C.3   1 <1>  -0.1600 
 10 C       -0.3030     4.2060     1.0590 C.3   1 <1>   0.1400 
 11 C       -4.7030    -1.7030    -0.5000 C.3   1 <1>   0.4240 
 12 N        0.9980     4.8950     0.9430 N.am  1 <1>  -0.7300 
 13 O       -5.8400    -1.3650    -1.2670 O.3   1 <1>  -0.5600 
 14 C       -4.8730    -3.0810     0.2030 C.ar  1 <1>  -0.1440 
 15 C        1.2690     6.2190     0.9110 C.2   1 <1>   0.5690 
 16 C       -7.0920    -1.6850    -0.7540 C.3   1 <1>   0.1200 
 17 C       -3.8550    -3.6560     0.9760 C.ar  1 <1>   0.0820 
 18 C       -6.0710    -3.7840     0.0720 C.ar  1 <1>  -0.1440 
 19 O        2.4070     6.6000     0.8250 O.2   1 <1>  -0.5700 
 20 C        0.1600     7.2400     0.9830 C.3   1 <1>  -0.1790 
 21 C       -7.2160    -3.2000    -0.7290 C.3   1 <1>  -0.0170 
 22 O       -2.6860    -2.9810     1.1360 O.3   1 <1>  -0.3620 
 23 C       -4.0460    -4.8990     1.5760 C.ar  1 <1>  -0.1500 
 24 C       -6.2480    -5.0200     0.6690 C.ar  1 <1>  -0.1500 
 25 C       -1.5300    -3.5810     1.6780 C.3   1 <1>   0.0400 
 26 C       -5.2360    -5.5800     1.4210 C.ar  1 <1>  -0.1500 
 27 H       -1.8550     1.9440     0.9290 H     1 <1>   0.0800 
 28 H       -2.5810     3.1660    -0.0850 H     1 <1>   0.0800 
 29 H       -2.5150    -0.4220    -2.8730 H     1 <1>   0.0800 
 30 H       -4.2250    -0.1120    -2.7890 H     1 <1>   0.0800 
 31 H       -5.1760     1.0470    -0.7670 H     1 <1>   0.0800 
 32 H       -4.1220     1.5620     0.5160 H     1 <1>   0.0800 
 33 H       -0.3660     3.7140    -1.0240 H     1 <1>   0.0800 
 34 H        0.3650     2.4820    -0.0250 H     1 <1>   0.0800 
 35 H       -2.6330    -2.0020    -1.0720 H     1 <1>   0.0800 
 36 H       -3.7780    -2.4740    -2.2740 H     1 <1>   0.0800 
 37 H       -5.3210    -0.4890     1.1730 H     1 <1>   0.0800 
 38 H       -3.6180    -0.7330     1.0980 H     1 <1>   0.0800 
 39 H       -0.3460     3.6970     2.0080 H     1 <1>   0.0800 
 40 H       -1.1100     4.9170     1.0160 H     1 <1>   0.0800 
 41 H        1.8180     4.2890     0.8680 H     1 <1>   0.3700 
 42 H       -7.8350    -1.2550    -1.4020 H     1 <1>   0.0800 
 43 H       -7.1930    -1.2680     0.2320 H     1 <1>   0.0800 
 44 H       -0.3880     7.1170     1.8970 H     1 <1>   0.0800 
 45 H       -0.4980     7.1200     0.1430 H     1 <1>   0.0800 
 46 H        0.5780     8.2290     0.9580 H     1 <1>   0.0800 
 47 H       -7.1900    -3.5800    -1.7340 H     1 <1>   0.0800 
 48 H       -8.1590    -3.4690    -0.2870 H     1 <1>   0.0800 
 49 H       -3.2820    -5.3560     2.1740 H     1 <1>   0.1500 
 50 H       -7.1750    -5.5540     0.5530 H     1 <1>   0.1500 
 51 H       -0.7190    -2.8820     1.5890 H     1 <1>   0.0800 
 52 H       -1.3060    -4.4740     1.1210 H     1 <1>   0.0800 
 53 H       -1.7060    -3.8060     2.7150 H     1 <1>   0.0800 
 54 H       -5.3760    -6.5410     1.8850 H     1 <1>   0.1500 
@<TRIPOS>BOND
  1   1   2  2   
  2   2   3  am  
  3   2   4  1   
  4   3   5  1   
  5   3   6  1   
  6   4   7  1   
  7   4  27  1   
  8   4  28  1   
  9   5   8  1   
 10   5  29  1   
 11   5  30  1   
 12   6   9  1   
 13   6  31  1   
 14   6  32  1   
 15   7  10  1   
 16   7  33  1   
 17   7  34  1   
 18   8  11  1   
 19   8  35  1   
 20   8  36  1   
 21   9  11  1   
 22   9  37  1   
 23   9  38  1   
 24  10  12  1   
 25  10  39  1   
 26  10  40  1   
 27  11  13  1   
 28  11  14  1   
 29  12  15  am  
 30  12  41  1   
 31  13  16  1   
 32  14  17  ar  
 33  14  18  ar  
 34  15  19  2   
 35  15  20  1   
 36  16  21  1   
 37  16  42  1   
 38  16  43  1   
 39  17  22  1   
 40  17  23  ar  
 41  18  21  1   
 42  18  24  ar  
 43  20  44  1   
 44  20  45  1   
 45  20  46  1   
 46  21  47  1   
 47  21  48  1   
 48  22  25  1   
 49  23  26  ar  
 50  23  49  1   
 51  24  26  ar  
 52  24  50  1   
 53  25  51  1   
 54  25  52  1   
 55  25  53  1   
 56  26  54  1   
@<TRIPOS>SUBSTRUCTURE
  1 ****   3 GROUP 4 **** **** 0

# MOE 2024.06 (io_trps.svl 2023.06)
