@<TRIPOS>MOLECULE
NONAME
48 50 1 0 0 
SMALL
USER_CHARGES


@<TRIPOS>ATOM
  1 O       -1.1700     0.1840     1.3100 O.2   1 <1>  -0.5700 
  2 C       -1.9800     1.0660     1.0880 C.2   1 <1>   0.5440 
  3 N       -3.3160     0.7320     1.0880 N.am  1 <1>  -0.6600 
  4 C       -1.5410     2.4250     0.8160 C.ar  1 <1>   0.0860 
  5 C       -3.7780    -0.5940     1.5900 C.3   1 <1>   0.1400 
  6 C       -4.3170     1.4140     0.2190 C.3   1 <1>   0.1400 
  7 C       -0.6450     2.7560    -0.2120 C.ar  1 <1>  -0.1440 
  8 C       -2.0380     3.4550     1.6180 C.ar  1 <1>  -0.1500 
  9 C       -4.0100    -1.5230     0.3770 C.3   1 <1>   0.4230 
 10 C       -4.6120     0.5060    -0.9850 C.3   1 <1>  -0.1600 
 11 C       -0.2650     4.0850    -0.3790 C.ar  1 <1>   0.0830 
 12 C       -0.0940     1.6680    -1.1370 C.3   1 <1>  -0.0960 
 13 C       -1.6670     4.7720     1.4290 C.ar  1 <1>  -0.1500 
 14 N       -4.3690    -2.9370     0.7370 N.4   1 <1>  -0.9590 
 15 C       -5.0840    -0.9130    -0.5520 C.3   1 <1>  -0.1060 
 16 O        0.6210     4.4420    -1.3230 O.3   1 <1>  -0.5330 
 17 C       -0.7740     5.0880     0.4260 C.ar  1 <1>  -0.1500 
 18 C       -4.4610    -3.8110    -0.4600 C.3   1 <1>   0.3430 
 19 C       -3.5500    -3.5410     1.8210 C.3   1 <1>   0.2630 
 20 C       -6.4150    -0.8310     0.2210 C.2   1 <1>   0.9060 
 21 C       -5.2370    -1.7950    -1.8150 C.3   1 <1>  -0.1600 
 22 C       -5.4960    -3.2640    -1.4460 C.3   1 <1>  -0.1600 
 23 O       -6.6640    -1.6910     1.0820 O.co2 1 <1>  -0.9000 
 24 O       -7.2000     0.0850    -0.0190 O.co2 1 <1>  -0.9000 
 25 H       -3.0310    -1.0030     2.2440 H     1 <1>   0.0800 
 26 H       -4.6840    -0.4620     2.1550 H     1 <1>   0.0800 
 27 H       -5.2200     1.5940     0.7810 H     1 <1>   0.0800 
 28 H       -3.9490     2.3640    -0.1270 H     1 <1>   0.0800 
 29 H       -2.7290     3.2100     2.4070 H     1 <1>   0.1500 
 30 H       -3.0800    -1.5500    -0.1640 H     1 <1>   0.0800 
 31 H       -5.3750     0.9720    -1.5850 H     1 <1>   0.0800 
 32 H       -3.7240     0.4410    -1.5890 H     1 <1>   0.0800 
 33 H       -0.8040     0.8700    -1.2600 H     1 <1>   0.0800 
 34 H        0.8070     1.2580    -0.7160 H     1 <1>   0.0800 
 35 H        0.1160     2.0510    -2.1180 H     1 <1>   0.0800 
 36 H       -2.0670     5.5460     2.0600 H     1 <1>   0.1500 
 37 H       -5.3600    -2.8030     1.0800 H     1 <1>   0.4500 
 38 H        1.0160     3.6770    -1.7730 H     1 <1>   0.4500 
 39 H       -0.4640     6.1050     0.2650 H     1 <1>   0.1500 
 40 H       -3.4980    -3.8630    -0.9410 H     1 <1>   0.0800 
 41 H       -4.7490    -4.8060    -0.1630 H     1 <1>   0.0800 
 42 H       -2.5120    -3.5690     1.5330 H     1 <1>   0.0800 
 43 H       -3.8870    -4.5440     2.0250 H     1 <1>   0.0800 
 44 H       -3.6460    -2.9620     2.7260 H     1 <1>   0.0800 
 45 H       -6.0560    -1.4260    -2.4100 H     1 <1>   0.0800 
 46 H       -4.3430    -1.7360    -2.4110 H     1 <1>   0.0800 
 47 H       -5.4850    -3.8640    -2.3390 H     1 <1>   0.0800 
 48 H       -6.4770    -3.3620    -1.0120 H     1 <1>   0.0800 
@<TRIPOS>BOND
  1   1   2  2   
  2   2   3  am  
  3   2   4  1   
  4   3   5  1   
  5   3   6  1   
  6   4   7  ar  
  7   4   8  ar  
  8   5   9  1   
  9   5  25  1   
 10   5  26  1   
 11   6  10  1   
 12   6  27  1   
 13   6  28  1   
 14   7  11  ar  
 15   7  12  1   
 16   8  13  ar  
 17   8  29  1   
 18   9  14  1   
 19   9  15  1   
 20   9  30  1   
 21  10  15  1   
 22  10  31  1   
 23  10  32  1   
 24  11  16  1   
 25  11  17  ar  
 26  12  33  1   
 27  12  34  1   
 28  12  35  1   
 29  13  17  ar  
 30  13  36  1   
 31  14  18  1   
 32  14  19  1   
 33  14  37  1   
 34  15  20  1   
 35  15  21  1   
 36  16  38  1   
 37  17  39  1   
 38  18  22  1   
 39  18  40  1   
 40  18  41  1   
 41  19  42  1   
 42  19  43  1   
 43  19  44  1   
 44  20  23  ar  
 45  20  24  ar  
 46  21  22  1   
 47  21  45  1   
 48  21  46  1   
 49  22  47  1   
 50  22  48  1   
@<TRIPOS>SUBSTRUCTURE
  1 ****   3 GROUP 4 **** **** 0

# MOE 2024.06 (io_trps.svl 2023.06)
