@<TRIPOS>MOLECULE
NONAME
52 54 1 0 0 
SMALL
USER_CHARGES


@<TRIPOS>ATOM
  1 O       -0.2200    -0.1640    -0.0020 O.2   1 <1>  -0.5700 
  2 C       -1.2400    -0.8350     0.0500 C.2   1 <1>   0.6300 
  3 N       -1.1600    -2.1380    -0.4440 N.am  1 <1>  -0.6600 
  4 C       -2.4790    -0.2750     0.6240 C.2   1 <1>   0.6550 
  5 C        0.1550    -2.8240    -0.7630 C.3   1 <1>   0.2200 
  6 C       -2.4080    -2.7970    -0.9490 C.3   1 <1>   0.1400 
  7 O       -3.2100    -0.9970     1.2860 O.2   1 <1>  -0.5700 
  8 C       -2.8560     1.1030     0.3970 C.2   1 <1>  -0.2370 
  9 C        0.0080    -4.3760    -0.8590 C.3   1 <1>   0.0000 
 10 C        1.3070    -2.4110     0.1950 C.3   1 <1>   0.3430 
 11 C       -2.1140    -3.6420    -2.1870 C.3   1 <1>  -0.1600 
 12 N       -3.9000     1.7590     1.0180 N.pl3 1 <1>   0.0480 
 13 C       -2.2750     2.0050    -0.4650 C.2   1 <1>  -0.1500 
 14 C        1.3800    -5.0180    -1.2550 C.3   1 <1>  -0.1600 
 15 C       -1.0380    -4.7190    -1.9630 C.3   1 <1>  -0.1600 
 16 C       -0.5020    -5.0020     0.4820 C.3   1 <1>   0.1200 
 17 N        2.3930    -3.4380     0.3360 N.4   1 <1>  -0.9590 
 18 C       -3.9500     3.0240     0.5390 C.2   1 <1>  -0.3020 
 19 C       -4.8290     1.2410     2.0440 C.3   1 <1>   0.0160 
 20 C       -2.9640     3.2080    -0.3750 C.2   1 <1>  -0.1500 
 21 C        2.6260    -4.1870    -0.9170 C.3   1 <1>   0.3430 
 22 O        0.4530    -4.9990     1.4980 O.3   1 <1>  -0.6800 
 23 C        3.6190    -2.9150     0.9950 C.3   1 <1>   0.3430 
 24 C        4.3540    -1.9100     0.1090 C.3   1 <1>  -0.2400 
 25 H        0.4450    -2.4750    -1.7400 H     1 <1>   0.0800 
 26 H       -2.8400    -3.4060    -0.1740 H     1 <1>   0.0800 
 27 H       -3.1380    -2.0510    -1.2150 H     1 <1>   0.0800 
 28 H        0.8840    -2.2250     1.1690 H     1 <1>   0.0800 
 29 H        1.7220    -1.4860    -0.1660 H     1 <1>   0.0800 
 30 H       -3.0240    -4.1090    -2.5230 H     1 <1>   0.0800 
 31 H       -1.7980    -2.9770    -2.9730 H     1 <1>   0.0800 
 32 H       -1.4300     1.8470    -1.1140 H     1 <1>   0.1500 
 33 H        1.4350    -5.2020    -2.3120 H     1 <1>   0.0800 
 34 H        1.4750    -5.9850    -0.7910 H     1 <1>   0.0800 
 35 H       -0.5650    -4.8620    -2.9190 H     1 <1>   0.0800 
 36 H       -1.5220    -5.6530    -1.7330 H     1 <1>   0.0800 
 37 H       -0.7770    -6.0310     0.3220 H     1 <1>   0.0800 
 38 H       -1.3660    -4.4830     0.8560 H     1 <1>   0.0800 
 39 H        1.9610    -4.1400     0.9750 H     1 <1>   0.4500 
 40 H       -4.6820     3.7420     0.8680 H     1 <1>   0.1500 
 41 H       -5.4850     2.0260     2.3710 H     1 <1>   0.0800 
 42 H       -4.2650     0.8740     2.8820 H     1 <1>   0.0800 
 43 H       -5.4100     0.4400     1.6250 H     1 <1>   0.0800 
 44 H       -2.7400     4.1020    -0.9310 H     1 <1>   0.1500 
 45 H        2.8290    -3.4910    -1.7150 H     1 <1>   0.0800 
 46 H        3.4770    -4.8400    -0.8120 H     1 <1>   0.0800 
 47 H        0.0800    -5.4300     2.2990 H     1 <1>   0.4000 
 48 H        3.3510    -2.4400     1.9260 H     1 <1>   0.0800 
 49 H        4.2810    -3.7360     1.2240 H     1 <1>   0.0800 
 50 H        3.7450    -1.0500    -0.1010 H     1 <1>   0.0800 
 51 H        4.6780    -2.3600    -0.8120 H     1 <1>   0.0800 
 52 H        5.2310    -1.5670     0.6280 H     1 <1>   0.0800 
@<TRIPOS>BOND
  1   1   2  2   
  2   2   3  am  
  3   2   4  1   
  4   3   5  1   
  5   3   6  1   
  6   4   7  2   
  7   4   8  1   
  8   5   9  1   
  9   5  10  1   
 10   5  25  1   
 11   6  11  1   
 12   6  26  1   
 13   6  27  1   
 14   8  12  1   
 15   8  13  2   
 16   9  14  1   
 17   9  15  1   
 18   9  16  1   
 19  10  17  1   
 20  10  28  1   
 21  10  29  1   
 22  11  15  1   
 23  11  30  1   
 24  11  31  1   
 25  12  18  1   
 26  12  19  1   
 27  13  20  1   
 28  13  32  1   
 29  14  21  1   
 30  14  33  1   
 31  14  34  1   
 32  15  35  1   
 33  15  36  1   
 34  16  22  1   
 35  16  37  1   
 36  16  38  1   
 37  17  21  1   
 38  17  23  1   
 39  17  39  1   
 40  18  20  2   
 41  18  40  1   
 42  19  41  1   
 43  19  42  1   
 44  19  43  1   
 45  20  44  1   
 46  21  45  1   
 47  21  46  1   
 48  22  47  1   
 49  23  24  1   
 50  23  48  1   
 51  23  49  1   
 52  24  50  1   
 53  24  51  1   
 54  24  52  1   
@<TRIPOS>SUBSTRUCTURE
  1 ****   3 GROUP 4 **** **** 0

# MOE 2024.06 (io_trps.svl 2023.06)
