@<TRIPOS>MOLECULE
NONAME
43 44 1 0 0 
SMALL
USER_CHARGES


@<TRIPOS>ATOM
  1 S        0.9940     0.3100    -1.9430 S.o2  1 <1>   1.3330 
  2 O        0.4280     1.2790    -2.8540 O.2   1 <1>  -0.6500 
  3 O        1.4100    -0.9810    -2.4440 O.2   1 <1>  -0.6500 
  4 N       -0.1550     0.0440    -0.7190 N.am  1 <1>  -0.8490 
  5 C        2.3830     1.0440    -1.0780 C.3   1 <1>  -0.0550 
  6 C       -1.0900    -1.0300    -1.0670 C.3   1 <1>   0.1160 
  7 C       -0.9030     1.2530    -0.3560 C.3   1 <1>   0.1160 
  8 C        3.1260     0.0750    -0.1330 C.3   1 <1>  -0.0800 
  9 C        4.3880     0.6460     0.4910 C.3   1 <1>   0.2890 
 10 C        2.3280    -0.3870     1.0920 C.3   1 <1>   0.1200 
 11 N        4.1520     2.0350     0.9600 N.pl3 1 <1>  -0.8690 
 12 C        4.5380    -0.2680     1.7000 C.3   1 <1>   0.1200 
 13 O        3.2380    -0.5130     2.1490 O.3   1 <1>  -0.5600 
 14 C        4.6210     3.1700     0.3520 C.ar  1 <1>   0.4100 
 15 N        5.1040     3.0430    -0.8650 N.ar  1 <1>  -0.6200 
 16 C        4.5700     4.4020     0.9870 C.ar  1 <1>  -0.1430 
 17 C        5.5340     4.1510    -1.4340 C.ar  1 <1>   0.4760 
 18 C        5.0490     5.4790     0.2860 C.ar  1 <1>   0.1600 
 19 C        4.0110     4.5660     2.3960 C.3   1 <1>  -0.0970 
 20 N        5.5370     5.3720    -0.9330 N.ar  1 <1>  -0.6200 
 21 C        6.0830     4.0120    -2.8330 C.3   1 <1>  -0.0970 
 22 H        3.0860     1.3920    -1.8100 H     1 <1>   0.0800 
 23 H        2.0500     1.9020    -0.5310 H     1 <1>   0.0800 
 24 H       -1.7970    -1.1840    -0.2700 H     1 <1>   0.0800 
 25 H       -0.5530    -1.9510    -1.2220 H     1 <1>   0.0800 
 26 H       -1.6220    -0.7850    -1.9720 H     1 <1>   0.0800 
 27 H       -1.5530     1.0480     0.4780 H     1 <1>   0.0800 
 28 H       -1.4980     1.5930    -1.1880 H     1 <1>   0.0800 
 29 H       -0.2260     2.0390    -0.0730 H     1 <1>   0.0800 
 30 H        3.4030    -0.8030    -0.6920 H     1 <1>   0.0800 
 31 H        5.2410     0.5950    -0.1630 H     1 <1>   0.0800 
 32 H        1.8470    -1.3360     0.9240 H     1 <1>   0.0800 
 33 H        1.5960     0.3450     1.3840 H     1 <1>   0.0800 
 34 H        3.7610     2.0920     1.9030 H     1 <1>   0.4000 
 35 H        5.1190     0.1770     2.4880 H     1 <1>   0.0800 
 36 H        4.9690    -1.2110     1.4120 H     1 <1>   0.0800 
 37 H        5.0380     6.4610     0.7250 H     1 <1>   0.1500 
 38 H        4.0590     5.5920     2.7120 H     1 <1>   0.0800 
 39 H        4.5790     3.9700     3.0870 H     1 <1>   0.0800 
 40 H        2.9830     4.2490     2.4220 H     1 <1>   0.0800 
 41 H        6.9310     4.6580    -2.9580 H     1 <1>   0.0800 
 42 H        5.3230     4.2860    -3.5400 H     1 <1>   0.0800 
 43 H        6.3870     2.9980    -3.0170 H     1 <1>   0.0800 
@<TRIPOS>BOND
  1   1   2  2   
  2   1   3  2   
  3   1   4  am  
  4   1   5  1   
  5   4   6  1   
  6   4   7  1   
  7   5   8  1   
  8   5  22  1   
  9   5  23  1   
 10   6  24  1   
 11   6  25  1   
 12   6  26  1   
 13   7  27  1   
 14   7  28  1   
 15   7  29  1   
 16   8   9  1   
 17   8  10  1   
 18   8  30  1   
 19   9  11  1   
 20   9  12  1   
 21   9  31  1   
 22  10  13  1   
 23  10  32  1   
 24  10  33  1   
 25  11  14  1   
 26  11  34  1   
 27  12  13  1   
 28  12  35  1   
 29  12  36  1   
 30  14  15  ar  
 31  14  16  ar  
 32  15  17  ar  
 33  16  18  ar  
 34  16  19  1   
 35  17  20  ar  
 36  17  21  1   
 37  18  20  ar  
 38  18  37  1   
 39  19  38  1   
 40  19  39  1   
 41  19  40  1   
 42  21  41  1   
 43  21  42  1   
 44  21  43  1   
@<TRIPOS>SUBSTRUCTURE
  1 ****   5 GROUP 4 **** **** 0

# MOE 2024.06 (io_trps.svl 2023.06)
