@<TRIPOS>MOLECULE
NONAME
49 51 1 0 0 
SMALL
USER_CHARGES


@<TRIPOS>ATOM
  1 S       -1.4100    -0.7400     1.4320 S.3   1 <1>  -0.0800 
  2 C       -2.4750     0.5180     0.8440 C.2   1 <1>   0.1980 
  3 C       -1.5770    -1.5540    -0.0950 C.2   1 <1>  -0.1100 
  4 N       -2.9000     0.3370    -0.3410 N.2   1 <1>  -0.5650 
  5 C       -2.7760     1.6660     1.7780 C.3   1 <1>  -0.0600 
  6 C       -2.3940    -0.8370    -0.8820 C.2   1 <1>   0.0460 
  7 C       -2.8150    -1.2050    -2.2930 C.3   1 <1>   0.0820 
  8 C       -3.4210    -2.5980    -2.3250 C.2   1 <1>   0.5690 
  9 O       -2.8100    -3.4420    -2.9380 O.2   1 <1>  -0.5700 
 10 N       -4.5950    -2.8900    -1.6680 N.am  1 <1>  -0.6600 
 11 C       -5.0620    -4.3060    -1.4920 C.3   1 <1>   0.1400 
 12 C       -5.5010    -1.8700    -1.0700 C.3   1 <1>   0.1400 
 13 C       -5.2390    -4.6660     0.0070 C.3   1 <1>   0.0000 
 14 C       -5.6640    -2.1480     0.4220 C.3   1 <1>  -0.1600 
 15 C       -6.1610    -3.5800     0.6260 C.3   1 <1>   0.2000 
 16 C       -5.9940    -6.0140     0.1250 C.3   1 <1>   0.1200 
 17 C       -3.8550    -4.7160     0.7320 C.3   1 <1>  -0.0160 
 18 O       -6.3430    -3.7800     1.9840 O.3   1 <1>  -0.6800 
 19 O       -5.4430    -6.9890    -0.6950 O.3   1 <1>  -0.6800 
 20 C       -3.0060    -5.9530     0.4510 C.ar  1 <1>  -0.1440 
 21 C       -2.1720    -6.0090    -0.6540 C.ar  1 <1>  -0.1500 
 22 C       -3.0640    -7.0430     1.3080 C.ar  1 <1>  -0.1500 
 23 C       -1.4210    -7.1420    -0.9110 C.ar  1 <1>  -0.1500 
 24 C       -2.3120    -8.1770     1.0540 C.ar  1 <1>  -0.1500 
 25 C       -1.4910    -8.2280    -0.0580 C.ar  1 <1>  -0.1500 
 26 H       -1.0490    -2.4800    -0.2390 H     1 <1>   0.1500 
 27 H       -3.4350     2.3640     1.2950 H     1 <1>   0.0800 
 28 H       -1.8640     2.1700     2.0400 H     1 <1>   0.0800 
 29 H       -3.2470     1.2980     2.6700 H     1 <1>   0.0800 
 30 H       -1.9490    -1.1800    -2.9290 H     1 <1>   0.0800 
 31 H       -3.5200    -0.4940    -2.6790 H     1 <1>   0.0800 
 32 H       -6.0030    -4.4200    -2.0020 H     1 <1>   0.0800 
 33 H       -4.3720    -4.9900    -1.9540 H     1 <1>   0.0800 
 34 H       -5.1300    -0.8710    -1.2080 H     1 <1>   0.0800 
 35 H       -6.4600    -1.9300    -1.5570 H     1 <1>   0.0800 
 36 H       -6.3820    -1.4560     0.8250 H     1 <1>   0.0800 
 37 H       -4.7210    -1.9860     0.9130 H     1 <1>   0.0800 
 38 H       -7.1370    -3.6620     0.1760 H     1 <1>   0.0800 
 39 H       -7.0220    -5.9000    -0.1740 H     1 <1>   0.0800 
 40 H       -5.9760    -6.3740     1.1390 H     1 <1>   0.0800 
 41 H       -3.2780    -3.8460     0.4770 H     1 <1>   0.0800 
 42 H       -4.0020    -4.6770     1.7950 H     1 <1>   0.0800 
 43 H       -5.5490    -3.4990     2.4760 H     1 <1>   0.4000 
 44 H       -4.4880    -7.1030    -0.4780 H     1 <1>   0.4000 
 45 H       -2.1010    -5.1730    -1.3260 H     1 <1>   0.1500 
 46 H       -3.6980    -7.0190     2.1770 H     1 <1>   0.1500 
 47 H       -0.7820    -7.1740    -1.7760 H     1 <1>   0.1500 
 48 H       -2.3670    -9.0200     1.7210 H     1 <1>   0.1500 
 49 H       -0.9080    -9.1100    -0.2590 H     1 <1>   0.1500 
@<TRIPOS>BOND
  1   1   2  1   
  2   1   3  1   
  3   2   4  2   
  4   2   5  1   
  5   3   6  2   
  6   3  26  1   
  7   4   6  1   
  8   5  27  1   
  9   5  28  1   
 10   5  29  1   
 11   6   7  1   
 12   7   8  1   
 13   7  30  1   
 14   7  31  1   
 15   8   9  2   
 16   8  10  am  
 17  10  11  1   
 18  10  12  1   
 19  11  13  1   
 20  11  32  1   
 21  11  33  1   
 22  12  14  1   
 23  12  34  1   
 24  12  35  1   
 25  13  15  1   
 26  13  16  1   
 27  13  17  1   
 28  14  15  1   
 29  14  36  1   
 30  14  37  1   
 31  15  18  1   
 32  15  38  1   
 33  16  19  1   
 34  16  39  1   
 35  16  40  1   
 36  17  20  1   
 37  17  41  1   
 38  17  42  1   
 39  18  43  1   
 40  19  44  1   
 41  20  21  ar  
 42  20  22  ar  
 43  21  23  ar  
 44  21  45  1   
 45  22  24  ar  
 46  22  46  1   
 47  23  25  ar  
 48  23  47  1   
 49  24  25  ar  
 50  24  48  1   
 51  25  49  1   
@<TRIPOS>SUBSTRUCTURE
  1 ****  17 GROUP 4 **** **** 0

# MOE 2024.06 (io_trps.svl 2023.06)
