@<TRIPOS>MOLECULE
NONAME
44 46 1 0 0 
SMALL
USER_CHARGES


@<TRIPOS>ATOM
  1 CL      -1.2510     0.3110     0.0900 Cl    1 <1>  -0.1230 
  2 C       -1.4250    -1.3900    -0.2790 C.2   1 <1>   0.4120 
  3 N       -1.7130    -1.8450    -1.4430 N.2   1 <1>  -0.4100 
  4 C       -1.2700    -2.3980     0.6640 C.2   1 <1>  -0.1500 
  5 O       -1.7490    -3.1410    -1.2970 O.3   1 <1>  -0.0190 
  6 C       -1.4940    -3.5050    -0.0620 C.2   1 <1>  -0.0400 
  7 C       -1.4910    -4.9750     0.3140 C.3   1 <1>   0.0200 
  8 C       -2.8740    -5.6030     0.0840 C.3   1 <1>  -0.0990 
  9 C       -2.9400    -7.0730     0.4660 C.2   1 <1>   0.5690 
 10 O       -1.9880    -7.5860     1.0030 O.2   1 <1>  -0.5700 
 11 N       -4.0740    -7.7840     0.1960 N.am  1 <1>  -0.6600 
 12 C       -5.2990    -7.2940    -0.4870 C.3   1 <1>   0.1400 
 13 C       -4.2440    -9.2000     0.5860 C.3   1 <1>   0.1400 
 14 C       -6.3030    -8.4540    -0.4200 C.3   1 <1>   0.2000 
 15 C       -5.4220    -9.6970    -0.2540 C.3   1 <1>  -0.0800 
 16 O       -7.1090    -8.3170     0.7160 O.3   1 <1>  -0.5600 
 17 C       -6.1420   -10.9150     0.3530 C.3   1 <1>   0.0200 
 18 C       -8.2500    -7.5360     0.5470 C.3   1 <1>   0.0400 
 19 C       -5.2980   -12.1790     0.3390 C.2   1 <1>  -0.0400 
 20 O       -5.7780   -13.2600     0.8950 O.3   1 <1>  -0.0190 
 21 C       -4.0830   -12.4800    -0.1500 C.2   1 <1>  -0.1500 
 22 N       -4.9530   -14.2630     0.8080 N.2   1 <1>  -0.4100 
 23 C       -3.9220   -13.8210     0.1830 C.2   1 <1>   0.1080 
 24 C       -2.7020   -14.6540    -0.1400 C.3   1 <1>  -0.0590 
 25 H       -1.0300    -2.2690     1.7020 H     1 <1>   0.1500 
 26 H       -0.7550    -5.4910    -0.2780 H     1 <1>   0.0800 
 27 H       -1.2160    -5.0760     1.3490 H     1 <1>   0.0800 
 28 H       -3.1300    -5.5070    -0.9550 H     1 <1>   0.0800 
 29 H       -3.6030    -5.0700     0.6650 H     1 <1>   0.0800 
 30 H       -5.6820    -6.4100    -0.0080 H     1 <1>   0.0800 
 31 H       -5.0610    -7.0790    -1.5140 H     1 <1>   0.0800 
 32 H       -3.3440    -9.7610     0.3990 H     1 <1>   0.0800 
 33 H       -4.4810    -9.2430     1.6350 H     1 <1>   0.0800 
 34 H       -6.9280    -8.5170    -1.2950 H     1 <1>   0.0800 
 35 H       -5.0460    -9.9630    -1.2260 H     1 <1>   0.0800 
 36 H       -7.0440   -11.1070    -0.1990 H     1 <1>   0.0800 
 37 H       -6.4230   -10.7030     1.3700 H     1 <1>   0.0800 
 38 H       -8.7680    -7.4950     1.4900 H     1 <1>   0.0800 
 39 H       -8.8860    -7.9920    -0.1930 H     1 <1>   0.0800 
 40 H       -7.9690    -6.5420     0.2470 H     1 <1>   0.0800 
 41 H       -3.3720   -11.8720    -0.6770 H     1 <1>   0.1500 
 42 H       -2.5560   -14.6900    -1.2030 H     1 <1>   0.0800 
 43 H       -2.8330   -15.6550     0.2290 H     1 <1>   0.0800 
 44 H       -1.8340   -14.2230     0.3240 H     1 <1>   0.0800 
@<TRIPOS>BOND
  1   1   2  1   
  2   2   3  2   
  3   2   4  1   
  4   3   5  1   
  5   4   6  2   
  6   4  25  1   
  7   5   6  1   
  8   6   7  1   
  9   7   8  1   
 10   7  26  1   
 11   7  27  1   
 12   8   9  1   
 13   8  28  1   
 14   8  29  1   
 15   9  10  2   
 16   9  11  am  
 17  11  12  1   
 18  11  13  1   
 19  12  14  1   
 20  12  30  1   
 21  12  31  1   
 22  13  15  1   
 23  13  32  1   
 24  13  33  1   
 25  14  15  1   
 26  14  16  1   
 27  14  34  1   
 28  15  17  1   
 29  15  35  1   
 30  16  18  1   
 31  17  19  1   
 32  17  36  1   
 33  17  37  1   
 34  18  38  1   
 35  18  39  1   
 36  18  40  1   
 37  19  20  1   
 38  19  21  2   
 39  20  22  1   
 40  21  23  1   
 41  21  41  1   
 42  22  23  2   
 43  23  24  1   
 44  24  42  1   
 45  24  43  1   
 46  24  44  1   
@<TRIPOS>SUBSTRUCTURE
  1 ****  11 GROUP 4 **** **** 0

# MOE 2024.06 (io_trps.svl 2023.06)
