@<TRIPOS>MOLECULE
NONAME
56 60 1 0 0 
SMALL
USER_CHARGES


@<TRIPOS>ATOM
  1 N       -0.1100     0.3050     0.1690 N.ar  1 <1>  -0.6200 
  2 C        1.1750     0.2190     0.4380 C.ar  1 <1>   0.7710 
  3 C       -0.6780     1.4990     0.1980 C.ar  1 <1>   0.4100 
  4 N        1.9340     1.2860     0.7310 N.ar  1 <1>  -0.1790 
  5 N        1.7050    -1.0080     0.4060 N.pl3 1 <1>  -0.8690 
  6 N       -2.0150     1.5590    -0.0600 N.pl3 1 <1>  -0.8380 
  7 C        0.0860     2.6510     0.4820 C.ar  1 <1>  -0.1500 
  8 C        1.4080     2.5320     0.7550 C.ar  1 <1>   0.2170 
  9 C        3.0800    -1.5350     0.6380 C.3   1 <1>   0.1290 
 10 C       -2.9310     2.7030     0.2750 C.3   1 <1>   0.2090 
 11 C       -2.7470     0.3670    -0.6170 C.3   1 <1>   0.2090 
 12 C        2.3150     3.7080     1.0760 C.3   1 <1>  -0.0970 
 13 C       -3.6560     3.2340    -0.9860 C.3   1 <1>   0.1430 
 14 C       -4.1200     0.7320    -1.2100 C.3   1 <1>  -0.1600 
 15 C       -4.8450     4.0530    -0.5130 C.ar  1 <1>   0.1670 
 16 C       -4.0700     2.0830    -1.9400 C.3   1 <1>  -0.1600 
 17 C       -2.8080     4.2980    -1.7340 C.3   1 <1>  -0.1600 
 18 N       -5.9560     3.5650    -0.0150 N.ar  1 <1>  -0.6200 
 19 C       -4.6230     5.3890    -0.6480 C.ar  1 <1>  -0.1430 
 20 C       -3.2610     5.6780    -1.2270 C.3   1 <1>  -0.0170 
 21 C       -6.8850     4.4630     0.3410 C.ar  1 <1>   0.6200 
 22 C       -5.6180     6.2450    -0.2550 C.ar  1 <1>   0.1600 
 23 N       -6.7480     5.7930     0.2380 N.ar  1 <1>  -0.6200 
 24 C       -8.1400     3.9540     0.8810 C.ar  1 <1>   0.0000 
 25 C       -9.3340     4.6730     0.7640 C.ar  1 <1>  -0.1500 
 26 C       -8.2110     2.7230     1.5400 C.ar  1 <1>  -0.1500 
 27 C      -10.5270     4.1940     1.2740 C.ar  1 <1>  -0.1500 
 28 C       -9.4000     2.2370     2.0520 C.ar  1 <1>  -0.1500 
 29 C      -10.5630     2.9720     1.9200 C.ar  1 <1>  -0.1500 
 30 H        2.9090     1.0960     0.9230 H     1 <1>   0.4570 
 31 H        1.0150    -1.7350     0.1750 H     1 <1>   0.4000 
 32 H       -0.3850     3.6130     0.4710 H     1 <1>   0.1500 
 33 H        3.7760    -0.7490     0.8690 H     1 <1>   0.0800 
 34 H        3.4230    -2.0510    -0.2450 H     1 <1>   0.0800 
 35 H        3.0660    -2.2360     1.4570 H     1 <1>   0.0800 
 36 H       -2.4220     3.5030     0.7750 H     1 <1>   0.0800 
 37 H       -3.6720     2.3370     0.9670 H     1 <1>   0.0800 
 38 H       -2.8730    -0.3710     0.1580 H     1 <1>   0.0800 
 39 H       -2.1470    -0.0710    -1.3960 H     1 <1>   0.0800 
 40 H        2.7430     3.5960     2.0570 H     1 <1>   0.0800 
 41 H        1.7590     4.6290     1.0570 H     1 <1>   0.0800 
 42 H        3.1090     3.7800     0.3530 H     1 <1>   0.0800 
 43 H       -4.8530     0.7730    -0.4230 H     1 <1>   0.0800 
 44 H       -4.4270    -0.0420    -1.8900 H     1 <1>   0.0800 
 45 H       -3.3500     1.9920    -2.7350 H     1 <1>   0.0800 
 46 H       -5.0250     2.2980    -2.3880 H     1 <1>   0.0800 
 47 H       -3.0290     4.2530    -2.7870 H     1 <1>   0.0800 
 48 H       -1.7520     4.1420    -1.6070 H     1 <1>   0.0800 
 49 H       -3.3140     6.3960    -2.0280 H     1 <1>   0.0800 
 50 H       -2.6070     6.0390    -0.4530 H     1 <1>   0.0800 
 51 H       -5.4890     7.3110    -0.3440 H     1 <1>   0.1500 
 52 H       -9.3270     5.6250     0.2630 H     1 <1>   0.1500 
 53 H       -7.3180     2.1340     1.6540 H     1 <1>   0.1500 
 54 H      -11.4280     4.7720     1.1670 H     1 <1>   0.1500 
 55 H       -9.4210     1.2850     2.5540 H     1 <1>   0.1500 
 56 H      -11.4900     2.5970     2.3180 H     1 <1>   0.1500 
@<TRIPOS>BOND
  1   1   2  ar  
  2   1   3  ar  
  3   2   4  ar  
  4   2   5  1   
  5   3   6  1   
  6   3   7  ar  
  7   4   8  ar  
  8   4  30  1   
  9   5   9  1   
 10   5  31  1   
 11   6  10  1   
 12   6  11  1   
 13   7   8  ar  
 14   7  32  1   
 15   8  12  1   
 16   9  33  1   
 17   9  34  1   
 18   9  35  1   
 19  10  13  1   
 20  10  36  1   
 21  10  37  1   
 22  11  14  1   
 23  11  38  1   
 24  11  39  1   
 25  12  40  1   
 26  12  41  1   
 27  12  42  1   
 28  13  15  1   
 29  13  16  1   
 30  13  17  1   
 31  14  16  1   
 32  14  43  1   
 33  14  44  1   
 34  15  18  ar  
 35  15  19  ar  
 36  16  45  1   
 37  16  46  1   
 38  17  20  1   
 39  17  47  1   
 40  17  48  1   
 41  18  21  ar  
 42  19  20  1   
 43  19  22  ar  
 44  20  49  1   
 45  20  50  1   
 46  21  23  ar  
 47  21  24  1   
 48  22  23  ar  
 49  22  51  1   
 50  24  25  ar  
 51  24  26  ar  
 52  25  27  ar  
 53  25  52  1   
 54  26  28  ar  
 55  26  53  1   
 56  27  29  ar  
 57  27  54  1   
 58  28  29  ar  
 59  28  55  1   
 60  29  56  1   
@<TRIPOS>SUBSTRUCTURE
  1 ****  10 GROUP 4 **** **** 0

# MOE 2024.06 (io_trps.svl 2023.06)
