@<TRIPOS>MOLECULE
NONAME
67 69 1 0 0 
SMALL
USER_CHARGES


@<TRIPOS>ATOM
  1 O       -3.6920     4.1870     0.7840 O.2   1 <1>  -0.5700 
  2 C       -3.1380     3.4990    -0.0430 C.2   1 <1>   0.5690 
  3 N       -3.2510     2.1380    -0.0010 N.am  1 <1>  -0.6600 
  4 C       -2.2770     4.1760    -1.0970 C.3   1 <1>  -0.0990 
  5 C       -3.6200     1.2750    -1.1750 C.3   1 <1>   0.2200 
  6 C       -2.7080     1.4540     1.2080 C.3   1 <1>   0.0600 
  7 C       -0.9160     4.5900    -0.5180 C.3   1 <1>  -0.1600 
  8 C       -4.5710     1.9780    -2.1550 C.3   1 <1>  -0.1600 
  9 C       -4.4700     0.0630    -0.7610 C.3   1 <1>  -0.1600 
 10 C       -0.0440     5.3030    -1.5580 C.3   1 <1>  -0.0170 
 11 C       -6.0020     1.7640    -1.6390 C.3   1 <1>  -0.0800 
 12 C       -5.9490     0.4970    -0.7710 C.3   1 <1>  -0.0800 
 13 C        1.3060     5.6520    -0.9560 C.ar  1 <1>  -0.1430 
 14 C       -6.5040     2.8970    -0.7280 C.3   1 <1>  -0.1600 
 15 C       -6.5000     0.8920     0.6080 C.3   1 <1>  -0.1600 
 16 C        2.3910     4.8070    -1.1250 C.ar  1 <1>  -0.1500 
 17 C        1.4620     6.8180    -0.2250 C.ar  1 <1>  -0.1500 
 18 C       -6.2810     2.3940     0.6970 C.3   1 <1>   0.4230 
 19 C        3.6240     5.1140    -0.5740 C.ar  1 <1>  -0.1430 
 20 C        2.6880     7.1360     0.3310 C.ar  1 <1>  -0.1500 
 21 N       -7.1070     3.0620     1.7440 N.4   1 <1>  -0.9590 
 22 C        3.7780     6.2860     0.1600 C.ar  1 <1>   0.0830 
 23 C        4.8000     4.1690    -0.7760 C.3   1 <1>  -0.0970 
 24 C       -8.5810     3.0850     1.4910 C.3   1 <1>   0.2630 
 25 C       -6.5750     4.4440     1.9630 C.3   1 <1>   0.2630 
 26 O        5.0060     6.5450     0.6840 O.3   1 <1>  -0.3620 
 27 C        5.2610     7.7080     1.4350 C.3   1 <1>   0.1200 
 28 C        6.7260     7.6830     1.8600 C.3   1 <1>  -0.2400 
 29 H       -2.1150     3.5120    -1.9250 H     1 <1>   0.0800 
 30 H       -2.7990     5.0440    -1.4560 H     1 <1>   0.0800 
 31 H       -2.7170     0.9580    -1.6700 H     1 <1>   0.0800 
 32 H       -2.0230     0.6760     0.9170 H     1 <1>   0.0800 
 33 H       -3.5080     1.0300     1.7860 H     1 <1>   0.0800 
 34 H       -2.1780     2.1590     1.8280 H     1 <1>   0.0800 
 35 H       -1.0690     5.2450     0.3230 H     1 <1>   0.0800 
 36 H       -0.3970     3.7160    -0.1630 H     1 <1>   0.0800 
 37 H       -4.3480     3.0090    -2.3480 H     1 <1>   0.0800 
 38 H       -4.4890     1.4640    -3.0980 H     1 <1>   0.0800 
 39 H       -4.3520    -0.6780    -1.5320 H     1 <1>   0.0800 
 40 H       -4.1690    -0.4060     0.1570 H     1 <1>   0.0800 
 41 H       -0.5310     6.2030    -1.8910 H     1 <1>   0.0800 
 42 H        0.0980     4.6690    -2.4160 H     1 <1>   0.0800 
 43 H       -6.6750     1.6400    -2.4730 H     1 <1>   0.0800 
 44 H       -6.5510    -0.2920    -1.1940 H     1 <1>   0.0800 
 45 H       -7.5480     3.0400    -0.9310 H     1 <1>   0.0800 
 46 H       -5.9810     3.8190    -0.9050 H     1 <1>   0.0800 
 47 H       -6.0040     0.3700     1.4050 H     1 <1>   0.0800 
 48 H       -7.5500     0.6620     0.6290 H     1 <1>   0.0800 
 49 H        2.2720     3.9000    -1.6910 H     1 <1>   0.1500 
 50 H        0.6280     7.4820    -0.0840 H     1 <1>   0.1500 
 51 H       -5.2480     2.5440     0.9480 H     1 <1>   0.0800 
 52 H        2.7710     8.0460     0.8910 H     1 <1>   0.1500 
 53 H       -6.9370     2.5320     2.6100 H     1 <1>   0.4500 
 54 H        4.5210     3.3190    -1.3710 H     1 <1>   0.0800 
 55 H        5.1520     3.8210     0.1790 H     1 <1>   0.0800 
 56 H        5.6020     4.6880    -1.2690 H     1 <1>   0.0800 
 57 H       -8.8040     3.6780     0.6190 H     1 <1>   0.0800 
 58 H       -9.0970     3.5130     2.3350 H     1 <1>   0.0800 
 59 H       -8.9530     2.0860     1.3330 H     1 <1>   0.0800 
 60 H       -6.6810     5.0330     1.0660 H     1 <1>   0.0800 
 61 H       -5.5280     4.4050     2.2180 H     1 <1>   0.0800 
 62 H       -7.1060     4.9310     2.7640 H     1 <1>   0.0800 
 63 H        5.0580     8.5640     0.8160 H     1 <1>   0.0800 
 64 H        4.6140     7.7050     2.2960 H     1 <1>   0.0800 
 65 H        7.3600     7.6680     0.9930 H     1 <1>   0.0800 
 66 H        6.9200     6.8140     2.4630 H     1 <1>   0.0800 
 67 H        6.9530     8.5610     2.4380 H     1 <1>   0.0800 
@<TRIPOS>BOND
  1   1   2  2   
  2   2   3  am  
  3   2   4  1   
  4   3   5  1   
  5   3   6  1   
  6   4   7  1   
  7   4  29  1   
  8   4  30  1   
  9   5   8  1   
 10   5   9  1   
 11   5  31  1   
 12   6  32  1   
 13   6  33  1   
 14   6  34  1   
 15   7  10  1   
 16   7  35  1   
 17   7  36  1   
 18   8  11  1   
 19   8  37  1   
 20   8  38  1   
 21   9  12  1   
 22   9  39  1   
 23   9  40  1   
 24  10  13  1   
 25  10  41  1   
 26  10  42  1   
 27  11  12  1   
 28  11  14  1   
 29  11  43  1   
 30  12  15  1   
 31  12  44  1   
 32  13  16  ar  
 33  13  17  ar  
 34  14  18  1   
 35  14  45  1   
 36  14  46  1   
 37  15  18  1   
 38  15  47  1   
 39  15  48  1   
 40  16  19  ar  
 41  16  49  1   
 42  17  20  ar  
 43  17  50  1   
 44  18  21  1   
 45  18  51  1   
 46  19  22  ar  
 47  19  23  1   
 48  20  22  ar  
 49  20  52  1   
 50  21  24  1   
 51  21  25  1   
 52  21  53  1   
 53  22  26  1   
 54  23  54  1   
 55  23  55  1   
 56  23  56  1   
 57  24  57  1   
 58  24  58  1   
 59  24  59  1   
 60  25  60  1   
 61  25  61  1   
 62  25  62  1   
 63  26  27  1   
 64  27  28  1   
 65  27  63  1   
 66  27  64  1   
 67  28  65  1   
 68  28  66  1   
 69  28  67  1   
@<TRIPOS>SUBSTRUCTURE
  1 ****   7 GROUP 4 **** **** 0

# MOE 2024.06 (io_trps.svl 2023.06)
