@<TRIPOS>MOLECULE
NONAME
43 46 1 0 0 
SMALL
USER_CHARGES


@<TRIPOS>ATOM
  1 O        0.3350    -0.0710     0.7790 O.3   1 <1>  -0.0190 
  2 N       -0.5480    -0.9880     0.9730 N.2   1 <1>  -0.4100 
  3 C        1.3340    -0.5650     0.1030 C.2   1 <1>   0.5620 
  4 C       -0.0540    -2.0300     0.3950 C.2   1 <1>   0.4620 
  5 N        1.1530    -1.7990    -0.1690 N.2   1 <1>  -0.5650 
  6 N        2.4310     0.1960    -0.2440 N.pl3 1 <1>  -0.8220 
  7 C       -0.6960    -3.3340     0.3380 C.ar  1 <1>   0.0540 
  8 C        2.6870     1.5060     0.4110 C.3   1 <1>   0.4690 
  9 C        3.6810    -0.4210    -0.7340 C.3   1 <1>   0.2090 
 10 C       -1.9270    -3.5640     0.9550 C.ar  1 <1>  -0.1500 
 11 C       -0.1130    -4.4120    -0.3330 C.ar  1 <1>  -0.1500 
 12 C        1.7480     2.6250    -0.0470 C.2   1 <1>   0.2980 
 13 C        4.1550     1.7980     0.0920 C.3   1 <1>  -0.1600 
 14 C        4.7920     0.4260    -0.1250 C.3   1 <1>  -0.1600 
 15 C       -2.5450    -4.8010     0.9080 C.ar  1 <1>  -0.1500 
 16 C       -0.7240    -5.6520    -0.3850 C.ar  1 <1>  -0.1500 
 17 O        1.5750     2.8200    -1.3310 O.3   1 <1>  -0.0190 
 18 N        1.1020     3.4160     0.7180 N.2   1 <1>  -0.5650 
 19 C       -1.9430    -5.8490     0.2370 C.ar  1 <1>  -0.1500 
 20 N        0.7480     3.8190    -1.3880 N.2   1 <1>  -0.4100 
 21 C        0.4730     4.1530    -0.1890 C.2   1 <1>   0.3350 
 22 C       -0.4680     5.2810     0.2390 C.3   1 <1>   0.1010 
 23 C       -1.5760     5.5440    -0.7940 C.3   1 <1>  -0.2400 
 24 C        0.3210     6.5710     0.5050 C.3   1 <1>  -0.2400 
 25 H        2.5790     1.3810     1.4750 H     1 <1>   0.0800 
 26 H        3.7600    -1.4530    -0.4320 H     1 <1>   0.0800 
 27 H        3.7010    -0.3590    -1.8090 H     1 <1>   0.0800 
 28 H       -2.4110    -2.7590     1.4820 H     1 <1>   0.1500 
 29 H        0.8360    -4.2780    -0.8240 H     1 <1>   0.1500 
 30 H        4.2170     2.3710    -0.8170 H     1 <1>   0.0800 
 31 H        4.6260     2.3520     0.8830 H     1 <1>   0.0800 
 32 H        5.0780    -0.0020     0.8200 H     1 <1>   0.0800 
 33 H        5.6550     0.4700    -0.7650 H     1 <1>   0.0800 
 34 H       -3.4940    -4.9480     1.3930 H     1 <1>   0.1500 
 35 H       -0.2510    -6.4640    -0.9090 H     1 <1>   0.1500 
 36 H       -2.4200    -6.8120     0.1980 H     1 <1>   0.1500 
 37 H       -0.9380     4.9750     1.1570 H     1 <1>   0.0800 
 38 H       -1.1520     5.8750    -1.7250 H     1 <1>   0.0800 
 39 H       -2.2550     6.2960    -0.4340 H     1 <1>   0.0800 
 40 H       -2.1300     4.6390    -0.9740 H     1 <1>   0.0800 
 41 H        0.8120     6.8980    -0.3940 H     1 <1>   0.0800 
 42 H        1.0670     6.3940     1.2580 H     1 <1>   0.0800 
 43 H       -0.3360     7.3500     0.8480 H     1 <1>   0.0800 
@<TRIPOS>BOND
  1   1   2  1   
  2   1   3  1   
  3   2   4  2   
  4   3   5  2   
  5   3   6  1   
  6   4   5  1   
  7   4   7  1   
  8   6   8  1   
  9   6   9  1   
 10   7  10  ar  
 11   7  11  ar  
 12   8  12  1   
 13   8  13  1   
 14   8  25  1   
 15   9  14  1   
 16   9  26  1   
 17   9  27  1   
 18  10  15  ar  
 19  10  28  1   
 20  11  16  ar  
 21  11  29  1   
 22  12  17  1   
 23  12  18  2   
 24  13  14  1   
 25  13  30  1   
 26  13  31  1   
 27  14  32  1   
 28  14  33  1   
 29  15  19  ar  
 30  15  34  1   
 31  16  19  ar  
 32  16  35  1   
 33  17  20  1   
 34  18  21  1   
 35  19  36  1   
 36  20  21  2   
 37  21  22  1   
 38  22  23  1   
 39  22  24  1   
 40  22  37  1   
 41  23  38  1   
 42  23  39  1   
 43  23  40  1   
 44  24  41  1   
 45  24  42  1   
 46  24  43  1   
@<TRIPOS>SUBSTRUCTURE
  1 ****   1 GROUP 4 **** **** 0

# MOE 2024.06 (io_trps.svl 2023.06)
