@<TRIPOS>MOLECULE
NONAME
46 47 1 0 0 
SMALL
USER_CHARGES


@<TRIPOS>ATOM
  1 O        0.9130    -0.6930     1.6120 O.co2 1 <1>  -0.9000 
  2 C        1.5230    -0.4300     0.5790 C.2   1 <1>   0.9060 
  3 O        1.1620    -0.7900    -0.5480 O.co2 1 <1>  -0.9000 
  4 C        2.8170     0.3450     0.6880 C.3   1 <1>  -0.1860 
  5 C        3.9440    -0.4530     0.0270 C.3   1 <1>   0.2000 
  6 C        2.7010     1.7820     0.1150 C.3   1 <1>  -0.1600 
  7 O        3.6540    -0.5890    -1.3210 O.3   1 <1>  -0.6800 
  8 C        5.2870     0.2900     0.1620 C.3   1 <1>   0.3430 
  9 C        3.9450     2.2350    -0.6550 C.3   1 <1>   0.3430 
 10 N        5.1770     1.7980     0.0710 N.4   1 <1>  -0.9590 
 11 C        6.3980     2.3850    -0.5280 C.3   1 <1>   0.4860 
 12 C        6.3710     3.8870    -0.3270 C.ar  1 <1>  -0.1430 
 13 C        6.6410     4.4340     0.9190 C.ar  1 <1>  -0.1500 
 14 C        6.0760     4.7290    -1.3890 C.ar  1 <1>  -0.1500 
 15 C        6.6050     5.8050     1.1010 C.ar  1 <1>  -0.1500 
 16 C        6.0410     6.1000    -1.2030 C.ar  1 <1>  -0.1500 
 17 C        6.3020     6.6450     0.0430 C.ar  1 <1>  -0.1430 
 18 C        6.2660     8.1520     0.2440 C.3   1 <1>  -0.0170 
 19 C        7.6460     8.7640    -0.0180 C.3   1 <1>  -0.1600 
 20 C        7.6350    10.2860     0.1780 C.3   1 <1>  -0.1600 
 21 C        9.0190    10.8840    -0.0870 C.3   1 <1>  -0.2400 
 22 H        3.0400     0.4170     1.7370 H     1 <1>   0.0800 
 23 H        4.0080    -1.4450     0.4440 H     1 <1>   0.0800 
 24 H        2.4850     2.4710     0.9120 H     1 <1>   0.0800 
 25 H        1.8680     1.8250    -0.5670 H     1 <1>   0.0800 
 26 H        2.6700    -0.8070    -1.3650 H     1 <1>   0.4000 
 27 H        5.9390    -0.0850    -0.6100 H     1 <1>   0.0800 
 28 H        5.7210     0.0330     1.1130 H     1 <1>   0.0800 
 29 H        3.9260     3.3070    -0.7670 H     1 <1>   0.0800 
 30 H        3.9310     1.7880    -1.6370 H     1 <1>   0.0800 
 31 H        5.0780     2.1760     1.0190 H     1 <1>   0.4500 
 32 H        7.2760     1.9810    -0.0510 H     1 <1>   0.0800 
 33 H        6.4430     2.1510    -1.5800 H     1 <1>   0.0800 
 34 H        6.8860     3.8070     1.7600 H     1 <1>   0.1500 
 35 H        5.8730     4.3340    -2.3700 H     1 <1>   0.1500 
 36 H        6.8190     6.2220     2.0710 H     1 <1>   0.1500 
 37 H        5.8140     6.7470    -2.0340 H     1 <1>   0.1500 
 38 H        5.5430     8.5880    -0.4230 H     1 <1>   0.0800 
 39 H        5.9550     8.3750     1.2500 H     1 <1>   0.0800 
 40 H        8.3620     8.3210     0.6520 H     1 <1>   0.0800 
 41 H        7.9490     8.5340    -1.0250 H     1 <1>   0.0800 
 42 H        6.9220    10.7330    -0.4940 H     1 <1>   0.0800 
 43 H        7.3360    10.5200     1.1860 H     1 <1>   0.0800 
 44 H        9.3290    10.6820    -1.0970 H     1 <1>   0.0800 
 45 H        9.7450    10.4680     0.5890 H     1 <1>   0.0800 
 46 H        8.9920    11.9500     0.0550 H     1 <1>   0.0800 
@<TRIPOS>BOND
  1   1   2  ar  
  2   2   3  ar  
  3   2   4  1   
  4   4   5  1   
  5   4   6  1   
  6   4  22  1   
  7   5   7  1   
  8   5   8  1   
  9   5  23  1   
 10   6   9  1   
 11   6  24  1   
 12   6  25  1   
 13   7  26  1   
 14   8  10  1   
 15   8  27  1   
 16   8  28  1   
 17   9  10  1   
 18   9  29  1   
 19   9  30  1   
 20  10  11  1   
 21  10  31  1   
 22  11  12  1   
 23  11  32  1   
 24  11  33  1   
 25  12  13  ar  
 26  12  14  ar  
 27  13  15  ar  
 28  13  34  1   
 29  14  16  ar  
 30  14  35  1   
 31  15  17  ar  
 32  15  36  1   
 33  16  17  ar  
 34  16  37  1   
 35  17  18  1   
 36  18  19  1   
 37  18  38  1   
 38  18  39  1   
 39  19  20  1   
 40  19  40  1   
 41  19  41  1   
 42  20  21  1   
 43  20  42  1   
 44  20  43  1   
 45  21  44  1   
 46  21  45  1   
 47  21  46  1   
@<TRIPOS>SUBSTRUCTURE
  1 ****  12 GROUP 4 **** **** 0

# MOE 2024.06 (io_trps.svl 2023.06)
