@<TRIPOS>MOLECULE
NONAME
46 48 1 0 0 
SMALL
USER_CHARGES


@<TRIPOS>ATOM
  1 S        0.0190     0.0980    -0.9030 S.o2  1 <1>   1.3330 
  2 O        0.6320     0.2460    -2.2040 O.2   1 <1>  -0.6500 
  3 O       -0.8480    -1.0290    -0.6430 O.2   1 <1>  -0.6500 
  4 N        1.2530     0.0720     0.2640 N.am  1 <1>  -0.8490 
  5 C       -0.8690     1.6150    -0.5420 C.3   1 <1>  -0.0550 
  6 C        2.4620    -0.6080    -0.2090 C.3   1 <1>   0.1160 
  7 C        0.8320    -0.4920     1.5510 C.3   1 <1>   0.1160 
  8 C       -0.0680     2.9050    -0.8270 C.3   1 <1>  -0.0800 
  9 C       -0.8910     4.1900    -0.7140 C.3   1 <1>   0.2000 
 10 C        1.1260     3.1400     0.1080 C.3   1 <1>   0.1400 
 11 O       -1.6540     4.1390     0.4440 O.3   1 <1>  -0.6800 
 12 C        0.1630     5.2800    -0.5350 C.3   1 <1>   0.1400 
 13 N        1.2440     4.6150     0.2380 N.am  1 <1>  -0.6600 
 14 C        2.3860     5.2240     0.7040 C.2   1 <1>   0.5440 
 15 O        3.3110     4.5240     1.0670 O.2   1 <1>  -0.5700 
 16 C        2.5190     6.6670     0.7530 C.ar  1 <1>   0.0860 
 17 C        3.5670     7.3110     0.1320 C.ar  1 <1>  -0.1500 
 18 C        1.5850     7.4610     1.4470 C.ar  1 <1>  -0.1500 
 19 C        3.7090     8.7110     0.1490 C.ar  1 <1>   0.0000 
 20 C        1.6980     8.8250     1.4790 C.ar  1 <1>  -0.1500 
 21 C        2.7500     9.4910     0.8310 C.ar  1 <1>   0.3100 
 22 C        4.7690     9.3810    -0.4870 C.ar  1 <1>  -0.1500 
 23 N        2.8050    10.8450     0.8870 N.ar  1 <1>  -0.6200 
 24 C        4.8060    10.7410    -0.4140 C.ar  1 <1>  -0.1500 
 25 C        3.8000    11.4240     0.2840 C.ar  1 <1>   0.1600 
 26 H       -1.7540     1.6340    -1.1490 H     1 <1>   0.0800 
 27 H       -1.1880     1.6040     0.4820 H     1 <1>   0.0800 
 28 H        3.2260    -0.5840     0.5490 H     1 <1>   0.0800 
 29 H        2.8460    -0.1110    -1.0850 H     1 <1>   0.0800 
 30 H        2.2410    -1.6320    -0.4610 H     1 <1>   0.0800 
 31 H        1.6210    -0.3880     2.2760 H     1 <1>   0.0800 
 32 H        0.5890    -1.5370     1.4420 H     1 <1>   0.0800 
 33 H       -0.0370     0.0270     1.9180 H     1 <1>   0.0800 
 34 H        0.3150     2.8540    -1.8320 H     1 <1>   0.0800 
 35 H       -1.5450     4.3610    -1.5520 H     1 <1>   0.0800 
 36 H        2.0310     2.7170    -0.2980 H     1 <1>   0.0800 
 37 H        0.9490     2.7180     1.0830 H     1 <1>   0.0800 
 38 H       -1.0490     4.1650     1.2140 H     1 <1>   0.4000 
 39 H       -0.2410     6.1380    -0.0280 H     1 <1>   0.0800 
 40 H        0.5510     5.5770    -1.4950 H     1 <1>   0.0800 
 41 H        4.3080     6.7260    -0.3840 H     1 <1>   0.1500 
 42 H        0.7770     6.9700     1.9600 H     1 <1>   0.1500 
 43 H        0.9840     9.4310     2.0060 H     1 <1>   0.1500 
 44 H        5.5210     8.8180    -1.0110 H     1 <1>   0.1500 
 45 H        5.5910    11.3070    -0.8800 H     1 <1>   0.1500 
 46 H        3.8560    12.4990     0.3220 H     1 <1>   0.1500 
@<TRIPOS>BOND
  1   1   2  2   
  2   1   3  2   
  3   1   4  am  
  4   1   5  1   
  5   4   6  1   
  6   4   7  1   
  7   5   8  1   
  8   5  26  1   
  9   5  27  1   
 10   6  28  1   
 11   6  29  1   
 12   6  30  1   
 13   7  31  1   
 14   7  32  1   
 15   7  33  1   
 16   8   9  1   
 17   8  10  1   
 18   8  34  1   
 19   9  11  1   
 20   9  12  1   
 21   9  35  1   
 22  10  13  1   
 23  10  36  1   
 24  10  37  1   
 25  11  38  1   
 26  12  13  1   
 27  12  39  1   
 28  12  40  1   
 29  13  14  am  
 30  14  15  2   
 31  14  16  1   
 32  16  17  ar  
 33  16  18  ar  
 34  17  19  ar  
 35  17  41  1   
 36  18  20  ar  
 37  18  42  1   
 38  19  21  ar  
 39  19  22  ar  
 40  20  21  ar  
 41  20  43  1   
 42  21  23  ar  
 43  22  24  ar  
 44  22  44  1   
 45  23  25  ar  
 46  24  25  ar  
 47  24  45  1   
 48  25  46  1   
@<TRIPOS>SUBSTRUCTURE
  1 ****  13 GROUP 4 **** **** 0

# MOE 2024.06 (io_trps.svl 2023.06)
