@<TRIPOS>MOLECULE
NONAME
46 49 1 0 0 
SMALL
USER_CHARGES


@<TRIPOS>ATOM
  1 CL      -1.9020     0.6630    -0.8120 Cl    1 <1>  -0.1230 
  2 C       -3.5400     0.4380    -0.2260 C.2   1 <1>   0.1230 
  3 C       -4.6710     0.2960    -1.0130 C.2   1 <1>   0.1390 
  4 C       -3.9520     0.3710     1.0530 C.2   1 <1>  -0.3020 
  5 N       -5.7380     0.1440    -0.2780 N.2   1 <1>  -0.7070 
  6 N       -5.2890     0.1940     1.0040 N.pl3 1 <1>   0.3140 
  7 C       -6.1920     0.0830     2.1710 C.3   1 <1>   0.0960 
  8 C       -7.1300    -1.1320     2.0530 C.3   1 <1>   0.3430 
  9 N       -7.9930    -1.0840     0.8320 N.4   1 <1>  -0.9590 
 10 C       -9.0700    -0.0390     0.9090 C.3   1 <1>   0.3430 
 11 C       -8.5450    -2.4190     0.4710 C.3   1 <1>   0.3430 
 12 C       -9.8140     0.1140    -0.4270 C.3   1 <1>   0.1440 
 13 C       -9.2550    -2.3370    -0.8830 C.3   1 <1>  -0.1600 
 14 C      -10.9540     1.0830    -0.2260 C.ar  1 <1>   0.1670 
 15 C      -10.3500    -1.2530    -0.9020 C.3   1 <1>  -0.1600 
 16 C       -8.9660     0.8210    -1.5190 C.3   1 <1>  -0.1600 
 17 N      -11.7930     1.0440     0.7830 N.ar  1 <1>  -0.6200 
 18 C      -11.0020     2.0220    -1.2100 C.ar  1 <1>  -0.1430 
 19 C       -9.9010     1.8250    -2.2220 C.3   1 <1>  -0.0170 
 20 C      -12.7160     1.9980     0.7540 C.ar  1 <1>   0.4770 
 21 C      -11.9950     2.9670    -1.1370 C.ar  1 <1>   0.1600 
 22 N      -12.8640     2.9610    -0.1470 N.ar  1 <1>  -0.6200 
 23 C      -13.7180     1.9990     1.8820 C.3   1 <1>  -0.0970 
 24 H       -4.6610     0.3110    -2.0910 H     1 <1>   0.1500 
 25 H       -3.3750     0.4440     1.9560 H     1 <1>   0.1500 
 26 H       -6.7580     0.9920     2.2560 H     1 <1>   0.0800 
 27 H       -5.5910    -0.0190     3.0560 H     1 <1>   0.0800 
 28 H       -7.7530    -1.1900     2.9310 H     1 <1>   0.0800 
 29 H       -6.5210    -2.0210     2.0250 H     1 <1>   0.0800 
 30 H       -7.3530    -0.7890     0.0590 H     1 <1>   0.4500 
 31 H       -8.6490     0.9150     1.1760 H     1 <1>   0.0800 
 32 H       -9.7850    -0.3120     1.6680 H     1 <1>   0.0800 
 33 H       -9.2460    -2.7400     1.2250 H     1 <1>   0.0800 
 34 H       -7.7500    -3.1460     0.4130 H     1 <1>   0.0800 
 35 H       -9.7020    -3.2910    -1.1000 H     1 <1>   0.0800 
 36 H       -8.5270    -2.1480    -1.6530 H     1 <1>   0.0800 
 37 H      -10.7670    -1.1650    -1.8910 H     1 <1>   0.0800 
 38 H      -11.1490    -1.5590    -0.2470 H     1 <1>   0.0800 
 39 H       -8.5280     0.1390    -2.2250 H     1 <1>   0.0800 
 40 H       -8.1720     1.3810    -1.0550 H     1 <1>   0.0800 
 41 H      -10.3100     1.4030    -3.1230 H     1 <1>   0.0800 
 42 H       -9.3960     2.7490    -2.4480 H     1 <1>   0.0800 
 43 H      -12.0820     3.7330    -1.8890 H     1 <1>   0.1500 
 44 H      -13.7200     1.0500     2.3860 H     1 <1>   0.0800 
 45 H      -14.7010     2.1880     1.4930 H     1 <1>   0.0800 
 46 H      -13.4640     2.7720     2.5830 H     1 <1>   0.0800 
@<TRIPOS>BOND
  1   1   2  1   
  2   2   3  1   
  3   2   4  2   
  4   3   5  2   
  5   3  24  1   
  6   4   6  1   
  7   4  25  1   
  8   5   6  1   
  9   6   7  1   
 10   7   8  1   
 11   7  26  1   
 12   7  27  1   
 13   8   9  1   
 14   8  28  1   
 15   8  29  1   
 16   9  10  1   
 17   9  11  1   
 18   9  30  1   
 19  10  12  1   
 20  10  31  1   
 21  10  32  1   
 22  11  13  1   
 23  11  33  1   
 24  11  34  1   
 25  12  14  1   
 26  12  15  1   
 27  12  16  1   
 28  13  15  1   
 29  13  35  1   
 30  13  36  1   
 31  14  17  ar  
 32  14  18  ar  
 33  15  37  1   
 34  15  38  1   
 35  16  19  1   
 36  16  39  1   
 37  16  40  1   
 38  17  20  ar  
 39  18  19  1   
 40  18  21  ar  
 41  19  41  1   
 42  19  42  1   
 43  20  22  ar  
 44  20  23  1   
 45  21  22  ar  
 46  21  43  1   
 47  23  44  1   
 48  23  45  1   
 49  23  46  1   
@<TRIPOS>SUBSTRUCTURE
  1 ****  10 GROUP 4 **** **** 0

# MOE 2024.06 (io_trps.svl 2023.06)
