@<TRIPOS>MOLECULE
NONAME
50 51 1 0 0 
SMALL
USER_CHARGES


@<TRIPOS>ATOM
  1 F       -0.6460    -0.7450    -1.7560 F     1 <1>  -0.1900 
  2 C       -1.6600    -1.3460    -1.1940 C.ar  1 <1>   0.1900 
  3 C       -2.9390    -1.0150    -1.5990 C.ar  1 <1>  -0.1500 
  4 C       -1.4170    -2.2900    -0.2160 C.ar  1 <1>  -0.1500 
  5 C       -4.0100    -1.6550    -0.9990 C.ar  1 <1>  -0.1500 
  6 C       -2.4980    -2.9230     0.3760 C.ar  1 <1>  -0.1500 
  7 C       -3.7940    -2.6080    -0.0110 C.ar  1 <1>  -0.1430 
  8 C       -4.9750    -3.3070     0.6440 C.3   1 <1>  -0.0160 
  9 C       -5.3250    -4.5950    -0.1110 C.3   1 <1>  -0.1600 
 10 C       -6.5150    -5.3290     0.5360 C.3   1 <1>  -0.0990 
 11 C       -6.9160    -6.6290    -0.1570 C.2   1 <1>   0.5690 
 12 O       -6.3220    -6.9510    -1.1600 O.2   1 <1>  -0.5700 
 13 N       -7.9300    -7.3940     0.3610 N.am  1 <1>  -0.6600 
 14 C       -8.3370    -8.6910    -0.2730 C.3   1 <1>   0.1400 
 15 C       -8.7490    -7.0540     1.5630 C.3   1 <1>   0.1400 
 16 C       -9.8290    -8.6570    -0.6480 C.3   1 <1>   0.2000 
 17 C      -10.2300    -6.9900     1.1670 C.3   1 <1>  -0.1600 
 18 O      -10.1810    -9.8800    -1.1950 O.3   1 <1>  -0.6800 
 19 C      -10.7310    -8.3400     0.5760 C.3   1 <1>  -0.1060 
 20 C      -10.5960    -9.4650     1.6310 C.2   1 <1>   0.9060 
 21 C      -12.2360    -8.2330     0.1910 C.3   1 <1>  -0.1600 
 22 O      -10.4750   -10.6420     1.2550 O.co2 1 <1>  -0.9000 
 23 O      -10.6180    -9.1820     2.8350 O.co2 1 <1>  -0.9000 
 24 C      -12.5970    -7.2180    -0.9080 C.3   1 <1>  -0.1600 
 25 C      -14.1050    -7.2210    -1.1730 C.3   1 <1>  -0.2400 
 26 H       -3.0880    -0.2760    -2.3650 H     1 <1>   0.1500 
 27 H       -0.4080    -2.5230     0.0710 H     1 <1>   0.1500 
 28 H       -5.0120    -1.4110    -1.3060 H     1 <1>   0.1500 
 29 H       -2.3260    -3.6640     1.1370 H     1 <1>   0.1500 
 30 H       -4.7310    -3.5380     1.6660 H     1 <1>   0.0800 
 31 H       -5.8240    -2.6470     0.6520 H     1 <1>   0.0800 
 32 H       -4.4680    -5.2480    -0.1210 H     1 <1>   0.0800 
 33 H       -5.5660    -4.3560    -1.1330 H     1 <1>   0.0800 
 34 H       -7.3690    -4.6780     0.5330 H     1 <1>   0.0800 
 35 H       -6.2650    -5.5630     1.5540 H     1 <1>   0.0800 
 36 H       -7.7590    -8.8750    -1.1610 H     1 <1>   0.0800 
 37 H       -8.1550    -9.4910     0.4230 H     1 <1>   0.0800 
 38 H       -8.5960    -7.8080     2.3170 H     1 <1>   0.0800 
 39 H       -8.4600    -6.1120     1.9870 H     1 <1>   0.0800 
 40 H       -9.9580    -7.9190    -1.4180 H     1 <1>   0.0800 
 41 H      -10.8100    -6.7460     2.0400 H     1 <1>   0.0800 
 42 H      -10.3510    -6.1930     0.4580 H     1 <1>   0.0800 
 43 H      -10.3280   -10.4820    -0.4030 H     1 <1>   0.4000 
 44 H      -12.5660    -9.2080    -0.1270 H     1 <1>   0.0800 
 45 H      -12.7910    -7.9970     1.0830 H     1 <1>   0.0800 
 46 H      -12.3020    -6.2270    -0.6180 H     1 <1>   0.0800 
 47 H      -12.0890    -7.4720    -1.8220 H     1 <1>   0.0800 
 48 H      -14.6430    -6.9540    -0.2800 H     1 <1>   0.0800 
 49 H      -14.4250    -8.1980    -1.4910 H     1 <1>   0.0800 
 50 H      -14.3460    -6.5120    -1.9450 H     1 <1>   0.0800 
@<TRIPOS>BOND
  1   1   2  1   
  2   2   3  ar  
  3   2   4  ar  
  4   3   5  ar  
  5   3  26  1   
  6   4   6  ar  
  7   4  27  1   
  8   5   7  ar  
  9   5  28  1   
 10   6   7  ar  
 11   6  29  1   
 12   7   8  1   
 13   8   9  1   
 14   8  30  1   
 15   8  31  1   
 16   9  10  1   
 17   9  32  1   
 18   9  33  1   
 19  10  11  1   
 20  10  34  1   
 21  10  35  1   
 22  11  12  2   
 23  11  13  am  
 24  13  14  1   
 25  13  15  1   
 26  14  16  1   
 27  14  36  1   
 28  14  37  1   
 29  15  17  1   
 30  15  38  1   
 31  15  39  1   
 32  16  18  1   
 33  16  19  1   
 34  16  40  1   
 35  17  19  1   
 36  17  41  1   
 37  17  42  1   
 38  18  43  1   
 39  19  20  1   
 40  19  21  1   
 41  20  22  ar  
 42  20  23  ar  
 43  21  24  1   
 44  21  44  1   
 45  21  45  1   
 46  24  25  1   
 47  24  46  1   
 48  24  47  1   
 49  25  48  1   
 50  25  49  1   
 51  25  50  1   
@<TRIPOS>SUBSTRUCTURE
  1 ****  11 GROUP 4 **** **** 0

# MOE 2024.06 (io_trps.svl 2023.06)
