@<TRIPOS>MOLECULE
NONAME
50 53 1 0 0 
SMALL
USER_CHARGES


@<TRIPOS>ATOM
  1 O        0.2600    -0.0800    -0.7890 O.3   1 <1>  -0.6800 
  2 C        1.2640    -0.1070    -1.7550 C.3   1 <1>   0.2000 
  3 C        2.0470    -1.4170    -1.6480 C.3   1 <1>  -0.0800 
  4 C        2.3230     0.9330    -1.3760 C.3   1 <1>   0.3430 
  5 C        2.9890    -1.1940    -0.4570 C.3   1 <1>   0.3430 
  6 C        1.2060    -2.7070    -1.5590 C.3   1 <1>  -0.0170 
  7 N        3.1450     0.2820    -0.3160 N.4   1 <1>  -0.9590 
  8 C        2.1070    -3.9060    -1.2800 C.ar  1 <1>  -0.1440 
  9 C        2.7390     0.7790     1.0270 C.3   1 <1>   0.5240 
 10 C        2.3610    -4.4000     0.0250 C.ar  1 <1>   0.0000 
 11 C        2.7220    -4.5340    -2.3230 C.ar  1 <1>  -0.1500 
 12 C        3.4250     2.1240     1.2430 C.2   1 <1>   0.1080 
 13 C        3.2700    -5.4810     0.1490 C.ar  1 <1>   0.3100 
 14 C        1.7750    -3.8950     1.2120 C.ar  1 <1>  -0.1500 
 15 C        3.5890    -5.6080    -2.0910 C.ar  1 <1>   0.1600 
 16 N        4.5130     2.4680     0.6110 N.2   1 <1>  -0.7070 
 17 C        2.9870     3.1180     2.1090 C.2   1 <1>  -0.1500 
 18 N        3.8730    -6.0660    -0.9150 N.ar  1 <1>  -0.6200 
 19 C        3.5700    -5.9780     1.4260 C.ar  1 <1>  -0.1500 
 20 C        2.0880    -4.4050     2.4420 C.ar  1 <1>  -0.1500 
 21 N        4.8060     3.7030     1.0730 N.pl3 1 <1>   0.3140 
 22 C        3.8920     4.1100     1.9750 C.2   1 <1>  -0.3020 
 23 C        3.0000    -5.4560     2.5550 C.ar  1 <1>  -0.1500 
 24 C        5.9920     4.4620     0.6210 C.3   1 <1>   0.0960 
 25 C        7.1670     4.2790     1.5900 C.3   1 <1>  -0.2400 
 26 H       -0.5650    -0.4910    -1.1260 H     1 <1>   0.4000 
 27 H        0.8320     0.0750    -2.7250 H     1 <1>   0.0800 
 28 H        2.6720    -1.4990    -2.5200 H     1 <1>   0.0800 
 29 H        1.8750     1.8540    -1.0410 H     1 <1>   0.0800 
 30 H        2.9440     1.1350    -2.2330 H     1 <1>   0.0800 
 31 H        3.9380    -1.6780    -0.6230 H     1 <1>   0.0800 
 32 H        2.5430    -1.5990     0.4350 H     1 <1>   0.0800 
 33 H        0.7030    -2.8590    -2.4990 H     1 <1>   0.0800 
 34 H        0.4370    -2.6350    -0.8140 H     1 <1>   0.0800 
 35 H        4.1220     0.6210    -0.3940 H     1 <1>   0.4500 
 36 H        1.6690     0.8800     1.0900 H     1 <1>   0.0800 
 37 H        3.0760     0.0980     1.7910 H     1 <1>   0.0800 
 38 H        2.5670    -4.2290    -3.3420 H     1 <1>   0.1500 
 39 H        1.0580    -3.1000     1.1630 H     1 <1>   0.1500 
 40 H        4.0520    -6.0780    -2.9420 H     1 <1>   0.1500 
 41 H        2.1180     3.0940     2.7460 H     1 <1>   0.1500 
 42 H        4.2690    -6.7930     1.4880 H     1 <1>   0.1500 
 43 H        1.6350    -4.0150     3.3380 H     1 <1>   0.1500 
 44 H        3.9380     5.0660     2.4650 H     1 <1>   0.1500 
 45 H        3.2390    -5.8510     3.5280 H     1 <1>   0.1500 
 46 H        6.2650     4.1120    -0.3580 H     1 <1>   0.0800 
 47 H        5.7270     5.5010     0.5520 H     1 <1>   0.0800 
 48 H        7.4370     3.2400     1.6530 H     1 <1>   0.0800 
 49 H        6.9070     4.6400     2.5690 H     1 <1>   0.0800 
 50 H        8.0200     4.8320     1.2370 H     1 <1>   0.0800 
@<TRIPOS>BOND
  1   1   2  1   
  2   1  26  1   
  3   2   3  1   
  4   2   4  1   
  5   2  27  1   
  6   3   5  1   
  7   3   6  1   
  8   3  28  1   
  9   4   7  1   
 10   4  29  1   
 11   4  30  1   
 12   5   7  1   
 13   5  31  1   
 14   5  32  1   
 15   6   8  1   
 16   6  33  1   
 17   6  34  1   
 18   7   9  1   
 19   7  35  1   
 20   8  10  ar  
 21   8  11  ar  
 22   9  12  1   
 23   9  36  1   
 24   9  37  1   
 25  10  13  ar  
 26  10  14  ar  
 27  11  15  ar  
 28  11  38  1   
 29  12  16  2   
 30  12  17  1   
 31  13  18  ar  
 32  13  19  ar  
 33  14  20  ar  
 34  14  39  1   
 35  15  18  ar  
 36  15  40  1   
 37  16  21  1   
 38  17  22  2   
 39  17  41  1   
 40  19  23  ar  
 41  19  42  1   
 42  20  23  ar  
 43  20  43  1   
 44  21  22  1   
 45  21  24  1   
 46  22  44  1   
 47  23  45  1   
 48  24  25  1   
 49  24  46  1   
 50  24  47  1   
 51  25  48  1   
 52  25  49  1   
 53  25  50  1   
@<TRIPOS>SUBSTRUCTURE
  1 ****   5 GROUP 4 **** **** 0

# MOE 2024.06 (io_trps.svl 2023.06)
