@<TRIPOS>MOLECULE
NONAME
48 50 1 0 0 
SMALL
USER_CHARGES


@<TRIPOS>ATOM
  1 O       -0.3560     2.5600    -0.9850 O.2   1 <1>  -0.5700 
  2 C       -1.1130     2.1350    -0.1290 C.2   1 <1>   0.5440 
  3 N       -0.8860     2.4070     1.2060 N.am  1 <1>  -0.4200 
  4 C       -2.2610     1.3490    -0.4870 C.ar  1 <1>   0.0860 
  5 C       -1.7920     1.9370     2.1310 C.2   1 <1>   0.4500 
  6 C        0.3000     3.1760     1.7430 C.3   1 <1>   0.2810 
  7 C       -3.0960     0.9180     0.5500 C.ar  1 <1>   0.1790 
  8 C       -2.5830     0.9960    -1.8010 C.ar  1 <1>  -0.1500 
  9 N       -2.8280     1.2400     1.8630 N.2   1 <1>  -0.6290 
 10 C        0.4530     4.6280     1.2450 C.2   1 <1>   0.5690 
 11 C        1.6280     2.3630     1.7770 C.3   1 <1>  -0.0800 
 12 C       -4.2180     0.1520     0.2550 C.ar  1 <1>  -0.1500 
 13 C       -3.7000     0.2350    -2.0800 C.ar  1 <1>  -0.1500 
 14 O        0.4170     5.4970     2.0840 O.2   1 <1>  -0.5700 
 15 N        0.6210     4.9160    -0.0790 N.am  1 <1>  -0.4940 
 16 C        2.2570     2.0110     0.4180 C.3   1 <1>  -0.2400 
 17 C        1.4820     1.0740     2.6050 C.3   1 <1>  -0.2400 
 18 C       -4.5220    -0.1900    -1.0460 C.ar  1 <1>  -0.1500 
 19 C        0.7950     6.1470    -0.7140 C.2   1 <1>   0.2040 
 20 O        0.1540     6.3620    -1.8370 O.3   1 <1>  -0.0190 
 21 C        1.5300     7.2490    -0.4480 C.2   1 <1>  -0.1810 
 22 N        0.3970     7.5500    -2.3230 N.2   1 <1>  -0.4100 
 23 C        1.2170     8.1050    -1.5050 C.2   1 <1>   0.1080 
 24 C        2.4990     7.5330     0.6910 C.3   1 <1>   0.0210 
 25 C        1.7440     9.5100    -1.7100 C.3   1 <1>  -0.0590 
 26 C        3.9480     7.5230     0.1970 C.3   1 <1>  -0.2400 
 27 H       -1.5960     2.1800     3.1610 H     1 <1>   0.0600 
 28 H        0.0860     3.3260     2.7870 H     1 <1>   0.0800 
 29 H       -1.9450     1.3270    -2.6030 H     1 <1>   0.1500 
 30 H        2.3430     2.9840     2.2920 H     1 <1>   0.0800 
 31 H       -4.8480    -0.1710     1.0650 H     1 <1>   0.1500 
 32 H       -3.9370    -0.0310    -3.0970 H     1 <1>   0.1500 
 33 H        0.4030     4.1390    -0.7180 H     1 <1>   0.3700 
 34 H        1.6580     1.2920    -0.1110 H     1 <1>   0.0800 
 35 H        3.2310     1.5790     0.5660 H     1 <1>   0.0800 
 36 H        2.3780     2.8840    -0.1960 H     1 <1>   0.0800 
 37 H        0.8130     0.3810     2.1230 H     1 <1>   0.0800 
 38 H        1.1040     1.2920     3.5880 H     1 <1>   0.0800 
 39 H        2.4380     0.5930     2.7160 H     1 <1>   0.0800 
 40 H       -5.3940    -0.7840    -1.2620 H     1 <1>   0.1500 
 41 H        2.4010     6.7860     1.4550 H     1 <1>   0.0800 
 42 H        2.2640     8.4830     1.1370 H     1 <1>   0.0800 
 43 H        1.8430    10.0140    -0.7670 H     1 <1>   0.0800 
 44 H        1.0640    10.0660    -2.3280 H     1 <1>   0.0800 
 45 H        2.7000     9.4700    -2.1970 H     1 <1>   0.0800 
 46 H        4.1770     6.5710    -0.2480 H     1 <1>   0.0800 
 47 H        4.6180     7.6880     1.0220 H     1 <1>   0.0800 
 48 H        4.1070     8.2930    -0.5340 H     1 <1>   0.0800 
@<TRIPOS>BOND
  1   1   2  2   
  2   2   3  am  
  3   2   4  1   
  4   3   5  1   
  5   3   6  1   
  6   4   7  ar  
  7   4   8  ar  
  8   5   9  2   
  9   5  27  1   
 10   6  10  1   
 11   6  11  1   
 12   6  28  1   
 13   7   9  1   
 14   7  12  ar  
 15   8  13  ar  
 16   8  29  1   
 17  10  14  2   
 18  10  15  am  
 19  11  16  1   
 20  11  17  1   
 21  11  30  1   
 22  12  18  ar  
 23  12  31  1   
 24  13  18  ar  
 25  13  32  1   
 26  15  19  1   
 27  15  33  1   
 28  16  34  1   
 29  16  35  1   
 30  16  36  1   
 31  17  37  1   
 32  17  38  1   
 33  17  39  1   
 34  18  40  1   
 35  19  20  1   
 36  19  21  2   
 37  20  22  1   
 38  21  23  1   
 39  21  24  1   
 40  22  23  2   
 41  23  25  1   
 42  24  26  1   
 43  24  41  1   
 44  24  42  1   
 45  25  43  1   
 46  25  44  1   
 47  25  45  1   
 48  26  46  1   
 49  26  47  1   
 50  26  48  1   
@<TRIPOS>SUBSTRUCTURE
  1 ****  15 GROUP 4 **** **** 0

# MOE 2024.06 (io_trps.svl 2023.06)
