@<TRIPOS>MOLECULE
NONAME
44 46 1 0 0 
SMALL
USER_CHARGES


@<TRIPOS>ATOM
  1 O       -1.5160     0.3410    -1.3280 O.2   1 <1>  -0.5700 
  2 C       -1.6530     0.4780    -0.1250 C.2   1 <1>   0.7160 
  3 N       -1.8720    -0.6370     0.6320 N.am  1 <1>  -0.7300 
  4 C       -1.6070     1.7860     0.5000 C.2   1 <1>   0.2030 
  5 C       -1.9490    -2.0320     0.1420 C.3   1 <1>   0.2200 
  6 N       -1.7970     2.0420     1.7610 N.2   1 <1>  -0.4100 
  7 C       -1.3540     2.9830    -0.1530 C.2   1 <1>  -0.1500 
  8 C       -3.3850    -2.5400     0.1480 C.3   1 <1>  -0.0800 
  9 C       -1.3210    -2.9560     1.1760 C.3   1 <1>   0.1200 
 10 O       -1.6850     3.3290     1.9830 O.3   1 <1>  -0.0190 
 11 C       -1.4160     3.8940     0.8240 C.2   1 <1>  -0.0400 
 12 C       -3.5770    -3.0130     1.5930 C.3   1 <1>   0.1200 
 13 C       -4.4560    -1.5450    -0.3390 C.3   1 <1>  -0.0160 
 14 O       -2.3010    -3.1360     2.1530 O.3   1 <1>  -0.5600 
 15 C       -1.2330     5.4070     0.7900 C.3   1 <1>   0.1000 
 16 C       -5.8300    -2.1960    -0.3600 C.ar  1 <1>  -0.1440 
 17 C       -1.1560     5.9390    -0.6460 C.3   1 <1>  -0.2400 
 18 C        0.0290     5.8020     1.5630 C.3   1 <1>  -0.2400 
 19 C       -6.7450    -2.0070     0.6560 C.ar  1 <1>  -0.1500 
 20 C       -6.2320    -3.0100    -1.3990 C.ar  1 <1>  -0.1500 
 21 C       -7.9800    -2.6300     0.5890 C.ar  1 <1>   0.1600 
 22 C       -7.4920    -3.5860    -1.3700 C.ar  1 <1>   0.1600 
 23 N       -8.3750    -3.4170    -0.3990 N.ar  1 <1>  -0.6200 
 24 H       -1.9970    -0.5180     1.6420 H     1 <1>   0.3700 
 25 H       -1.4800    -2.1240    -0.8230 H     1 <1>   0.0800 
 26 H       -1.1590     3.0900    -1.2040 H     1 <1>   0.1500 
 27 H       -3.4270    -3.4120    -0.4810 H     1 <1>   0.0800 
 28 H       -0.4330    -2.5420     1.6230 H     1 <1>   0.0800 
 29 H       -1.1030    -3.9180     0.7470 H     1 <1>   0.0800 
 30 H       -4.0750    -3.9670     1.6390 H     1 <1>   0.0800 
 31 H       -4.1180    -2.2910     2.1800 H     1 <1>   0.0800 
 32 H       -4.2050    -1.2080    -1.3300 H     1 <1>   0.0800 
 33 H       -4.4840    -0.6790     0.2990 H     1 <1>   0.0800 
 34 H       -2.0870     5.8550     1.2710 H     1 <1>   0.0800 
 35 H       -0.3020     5.5310    -1.1560 H     1 <1>   0.0800 
 36 H       -1.0730     7.0120    -0.6400 H     1 <1>   0.0800 
 37 H       -2.0460     5.6720    -1.1880 H     1 <1>   0.0800 
 38 H        0.8980     5.3520     1.1170 H     1 <1>   0.0800 
 39 H       -0.0420     5.4690     2.5840 H     1 <1>   0.0800 
 40 H        0.1510     6.8710     1.5620 H     1 <1>   0.0800 
 41 H       -6.5120    -1.3830     1.4990 H     1 <1>   0.1500 
 42 H       -5.5790    -3.2020    -2.2300 H     1 <1>   0.1500 
 43 H       -8.6810    -2.4720     1.3910 H     1 <1>   0.1500 
 44 H       -7.7880    -4.2180    -2.1890 H     1 <1>   0.1500 
@<TRIPOS>BOND
  1   1   2  2   
  2   2   3  am  
  3   2   4  1   
  4   3   5  1   
  5   3  24  1   
  6   4   6  2   
  7   4   7  1   
  8   5   8  1   
  9   5   9  1   
 10   5  25  1   
 11   6  10  1   
 12   7  11  2   
 13   7  26  1   
 14   8  12  1   
 15   8  13  1   
 16   8  27  1   
 17   9  14  1   
 18   9  28  1   
 19   9  29  1   
 20  10  11  1   
 21  11  15  1   
 22  12  14  1   
 23  12  30  1   
 24  12  31  1   
 25  13  16  1   
 26  13  32  1   
 27  13  33  1   
 28  15  17  1   
 29  15  18  1   
 30  15  34  1   
 31  16  19  ar  
 32  16  20  ar  
 33  17  35  1   
 34  17  36  1   
 35  17  37  1   
 36  18  38  1   
 37  18  39  1   
 38  18  40  1   
 39  19  21  ar  
 40  19  41  1   
 41  20  22  ar  
 42  20  42  1   
 43  21  23  ar  
 44  21  43  1   
 45  22  23  ar  
 46  22  44  1   
@<TRIPOS>SUBSTRUCTURE
  1 ****   3 GROUP 4 **** **** 0

# MOE 2024.06 (io_trps.svl 2023.06)
