@<TRIPOS>MOLECULE
NONAME
53 56 1 0 0 
SMALL
USER_CHARGES


@<TRIPOS>ATOM
  1 O       -1.5310     0.5940     1.0350 O.2   1 <1>  -0.5700 
  2 C       -2.4490     1.3890     0.8910 C.2   1 <1>   0.5440 
  3 N       -3.7280     0.8640     0.9380 N.am  1 <1>  -0.6600 
  4 C       -2.1550     2.8080     0.6440 C.ar  1 <1>   0.3960 
  5 C       -3.9850    -0.4830     1.5220 C.3   1 <1>   0.1400 
  6 C       -4.8400     1.3400     0.0660 C.3   1 <1>   0.1400 
  7 N       -3.0200     3.7480     0.9760 N.ar  1 <1>  -0.6200 
  8 C       -0.9220     3.1400     0.0500 C.ar  1 <1>  -0.1500 
  9 C       -4.0920    -1.5030     0.3660 C.3   1 <1>   0.4230 
 10 C       -5.0220     0.3340    -1.0810 C.3   1 <1>  -0.1600 
 11 C       -2.7120     5.0400     0.7300 C.ar  1 <1>   0.3100 
 12 C       -0.5820     4.4380    -0.2110 C.ar  1 <1>   0.0820 
 13 N       -4.2240    -2.9340     0.8060 N.4   1 <1>  -0.9590 
 14 C       -5.2620    -1.1160    -0.5680 C.3   1 <1>  -0.1060 
 15 C       -1.5020     5.4470     0.1310 C.ar  1 <1>   0.0000 
 16 C       -3.6500     6.0240     1.0860 C.ar  1 <1>  -0.1500 
 17 O        0.5860     4.8110    -0.7780 O.3   1 <1>  -0.3620 
 18 C       -4.1940    -3.8730    -0.3430 C.3   1 <1>   0.3430 
 19 C       -3.3090    -3.3460     1.9030 C.3   1 <1>   0.2630 
 20 C       -6.5800    -1.2020     0.2260 C.2   1 <1>   0.9060 
 21 C       -5.2920    -2.0770    -1.7810 C.3   1 <1>  -0.1600 
 22 C       -1.2840     6.8240    -0.0870 C.ar  1 <1>  -0.1500 
 23 C       -3.4160     7.3550     0.8650 C.ar  1 <1>  -0.1500 
 24 C        1.6000     3.8840    -1.1020 C.3   1 <1>   0.0400 
 25 C       -5.3150    -3.5460    -1.3330 C.3   1 <1>  -0.1600 
 26 O       -6.6780    -2.0380     1.1400 O.co2 1 <1>  -0.9000 
 27 O       -7.5070    -0.4450    -0.0550 O.co2 1 <1>  -0.9000 
 28 C       -2.2170     7.7590     0.2710 C.ar  1 <1>  -0.1500 
 29 H       -3.1790    -0.7390     2.1830 H     1 <1>   0.0800 
 30 H       -4.8950    -0.4520     2.0960 H     1 <1>   0.0800 
 31 H       -5.7460     1.4160     0.6460 H     1 <1>   0.0800 
 32 H       -4.6280     2.3120    -0.3430 H     1 <1>   0.0800 
 33 H       -0.2600     2.3310    -0.1890 H     1 <1>   0.1500 
 34 H       -3.1780    -1.4170    -0.1950 H     1 <1>   0.0800 
 35 H       -5.8610     0.6480    -1.6800 H     1 <1>   0.0800 
 36 H       -4.1490     0.3720    -1.7090 H     1 <1>   0.0800 
 37 H       -5.2190    -2.9360     1.1620 H     1 <1>   0.4500 
 38 H       -4.5650     5.6940     1.5420 H     1 <1>   0.1500 
 39 H       -3.2410    -3.8000    -0.8420 H     1 <1>   0.0800 
 40 H       -4.3190    -4.8830     0.0090 H     1 <1>   0.0800 
 41 H       -2.2820    -3.2290     1.5960 H     1 <1>   0.0800 
 42 H       -3.4840    -4.3760     2.1630 H     1 <1>   0.0800 
 43 H       -3.4830    -2.7420     2.7780 H     1 <1>   0.0800 
 44 H       -6.1660    -1.8700    -2.3770 H     1 <1>   0.0800 
 45 H       -4.4260    -1.9120    -2.3990 H     1 <1>   0.0800 
 46 H       -0.3590     7.1310    -0.5440 H     1 <1>   0.1500 
 47 H       -4.1430     8.0990     1.1430 H     1 <1>   0.1500 
 48 H        2.4320     4.4290    -1.5110 H     1 <1>   0.0800 
 49 H        1.2220     3.1920    -1.8340 H     1 <1>   0.0800 
 50 H        1.9040     3.3710    -0.2070 H     1 <1>   0.0800 
 51 H       -5.2220    -4.1830    -2.1950 H     1 <1>   0.0800 
 52 H       -6.2630    -3.7710    -0.8740 H     1 <1>   0.0800 
 53 H       -2.0410     8.8070     0.1010 H     1 <1>   0.1500 
@<TRIPOS>BOND
  1   1   2  2   
  2   2   3  am  
  3   2   4  1   
  4   3   5  1   
  5   3   6  1   
  6   4   7  ar  
  7   4   8  ar  
  8   5   9  1   
  9   5  29  1   
 10   5  30  1   
 11   6  10  1   
 12   6  31  1   
 13   6  32  1   
 14   7  11  ar  
 15   8  12  ar  
 16   8  33  1   
 17   9  13  1   
 18   9  14  1   
 19   9  34  1   
 20  10  14  1   
 21  10  35  1   
 22  10  36  1   
 23  11  15  ar  
 24  11  16  ar  
 25  12  15  ar  
 26  12  17  1   
 27  13  18  1   
 28  13  19  1   
 29  13  37  1   
 30  14  20  1   
 31  14  21  1   
 32  15  22  ar  
 33  16  23  ar  
 34  16  38  1   
 35  17  24  1   
 36  18  25  1   
 37  18  39  1   
 38  18  40  1   
 39  19  41  1   
 40  19  42  1   
 41  19  43  1   
 42  20  26  ar  
 43  20  27  ar  
 44  21  25  1   
 45  21  44  1   
 46  21  45  1   
 47  22  28  ar  
 48  22  46  1   
 49  23  28  ar  
 50  23  47  1   
 51  24  48  1   
 52  24  49  1   
 53  24  50  1   
 54  25  51  1   
 55  25  52  1   
 56  28  53  1   
@<TRIPOS>SUBSTRUCTURE
  1 ****   3 GROUP 4 **** **** 0

# MOE 2024.06 (io_trps.svl 2023.06)
