@<TRIPOS>MOLECULE
NONAME
60 62 1 0 0 
SMALL
USER_CHARGES


@<TRIPOS>ATOM
  1 S       -0.5810     0.3200     0.3330 S.o2  1 <1>   1.2040 
  2 O       -1.4800     1.3760    -0.0750 O.2   1 <1>  -0.6500 
  3 O       -0.0440     0.2990     1.6740 O.2   1 <1>  -0.6500 
  4 C       -1.3630    -1.2780    -0.0070 C.ar  1 <1>  -0.0090 
  5 C        0.7970     0.3240    -0.7970 C.3   1 <1>  -0.1350 
  6 C       -2.3500    -1.4050    -0.9760 C.ar  1 <1>  -0.1500 
  7 C       -0.9840    -2.4240     0.6800 C.ar  1 <1>  -0.1500 
  8 C       -2.9470    -2.6240    -1.2430 C.ar  1 <1>  -0.1500 
  9 C       -1.5740    -3.6500     0.4220 C.ar  1 <1>  -0.1500 
 10 C       -2.5700    -3.7560    -0.5370 C.ar  1 <1>  -0.1430 
 11 C       -3.2440    -5.0900    -0.8030 C.3   1 <1>   0.4860 
 12 N       -4.1480    -5.4000     0.3400 N.4   1 <1>  -0.9590 
 13 C       -4.5180    -6.8600     0.3350 C.3   1 <1>   0.3430 
 14 C       -5.3100    -4.4530     0.3610 C.3   1 <1>   0.3430 
 15 C       -5.4690    -7.3080     1.4680 C.3   1 <1>   0.1400 
 16 C       -5.8470    -4.3200     1.7850 C.3   1 <1>  -0.1600 
 17 N       -6.7850    -6.6150     1.3660 N.am  1 <1>  -0.6600 
 18 C       -6.9210    -5.3520     2.1460 C.3   1 <1>   0.1400 
 19 C       -7.7520    -6.9500     0.4540 C.2   1 <1>   0.5690 
 20 O       -8.3190    -6.0880    -0.1700 O.2   1 <1>  -0.5700 
 21 C       -8.1280    -8.4080     0.1820 C.3   1 <1>  -0.0190 
 22 C       -9.2820    -8.4630    -0.8460 C.3   1 <1>   0.3430 
 23 C       -8.5130    -9.1660     1.4710 C.3   1 <1>  -0.1600 
 24 N      -10.1870    -9.6540    -0.6770 N.4   1 <1>  -0.9590 
 25 C       -8.8770   -10.6350     1.1700 C.3   1 <1>  -0.1600 
 26 C       -9.4580   -10.8720    -0.2310 C.3   1 <1>   0.3430 
 27 C      -10.9760    -9.9040    -1.9210 C.3   1 <1>   0.2630 
 28 H        1.3520     1.2360    -0.6920 H     1 <1>   0.0800 
 29 H        0.4530     0.2510    -1.8100 H     1 <1>   0.0800 
 30 H        1.4540    -0.4980    -0.5910 H     1 <1>   0.0800 
 31 H       -2.6600    -0.5300    -1.5270 H     1 <1>   0.1500 
 32 H       -0.2160    -2.3530     1.4350 H     1 <1>   0.1500 
 33 H       -3.7090    -2.6720    -2.0050 H     1 <1>   0.1500 
 34 H       -1.2410    -4.5090     0.9790 H     1 <1>   0.1500 
 35 H       -2.4870    -5.8510    -0.8970 H     1 <1>   0.0800 
 36 H       -3.8040    -5.0470    -1.7240 H     1 <1>   0.0800 
 37 H       -3.6010    -5.1930     1.1850 H     1 <1>   0.4500 
 38 H       -3.6160    -7.4470     0.4050 H     1 <1>   0.0800 
 39 H       -4.9840    -7.1020    -0.6060 H     1 <1>   0.0800 
 40 H       -6.0910    -4.7790    -0.3080 H     1 <1>   0.0800 
 41 H       -4.9830    -3.4760     0.0420 H     1 <1>   0.0800 
 42 H       -5.0210    -7.1110     2.4270 H     1 <1>   0.0800 
 43 H       -5.6150    -8.3710     1.3970 H     1 <1>   0.0800 
 44 H       -6.3010    -3.3490     1.8820 H     1 <1>   0.0800 
 45 H       -5.0450    -4.3500     2.5000 H     1 <1>   0.0800 
 46 H       -7.8920    -4.9220     1.9570 H     1 <1>   0.0800 
 47 H       -6.8770    -5.5730     3.2000 H     1 <1>   0.0800 
 48 H       -7.2740    -8.8850    -0.2610 H     1 <1>   0.0800 
 49 H       -8.8580    -8.4590    -1.8370 H     1 <1>   0.0800 
 50 H       -9.8830    -7.5720    -0.7540 H     1 <1>   0.0800 
 51 H       -9.3620    -8.6750     1.9200 H     1 <1>   0.0800 
 52 H       -7.7160    -9.1370     2.1940 H     1 <1>   0.0800 
 53 H      -10.8500    -9.4220     0.0790 H     1 <1>   0.4500 
 54 H       -9.5800   -10.9830     1.9080 H     1 <1>   0.0800 
 55 H       -8.0000   -11.2510     1.2700 H     1 <1>   0.0800 
 56 H       -8.6590   -11.0830    -0.9240 H     1 <1>   0.0800 
 57 H      -10.1190   -11.7240    -0.2090 H     1 <1>   0.0800 
 58 H      -10.3190   -10.1600    -2.7370 H     1 <1>   0.0800 
 59 H      -11.5340    -9.0220    -2.1920 H     1 <1>   0.0800 
 60 H      -11.6700   -10.7150    -1.7690 H     1 <1>   0.0800 
@<TRIPOS>BOND
  1   1   2  2   
  2   1   3  2   
  3   1   4  1   
  4   1   5  1   
  5   4   6  ar  
  6   4   7  ar  
  7   5  28  1   
  8   5  29  1   
  9   5  30  1   
 10   6   8  ar  
 11   6  31  1   
 12   7   9  ar  
 13   7  32  1   
 14   8  10  ar  
 15   8  33  1   
 16   9  10  ar  
 17   9  34  1   
 18  10  11  1   
 19  11  12  1   
 20  11  35  1   
 21  11  36  1   
 22  12  13  1   
 23  12  14  1   
 24  12  37  1   
 25  13  15  1   
 26  13  38  1   
 27  13  39  1   
 28  14  16  1   
 29  14  40  1   
 30  14  41  1   
 31  15  17  1   
 32  15  42  1   
 33  15  43  1   
 34  16  18  1   
 35  16  44  1   
 36  16  45  1   
 37  17  18  1   
 38  17  19  am  
 39  18  46  1   
 40  18  47  1   
 41  19  20  2   
 42  19  21  1   
 43  21  22  1   
 44  21  23  1   
 45  21  48  1   
 46  22  24  1   
 47  22  49  1   
 48  22  50  1   
 49  23  25  1   
 50  23  51  1   
 51  23  52  1   
 52  24  26  1   
 53  24  27  1   
 54  24  53  1   
 55  25  26  1   
 56  25  54  1   
 57  25  55  1   
 58  26  56  1   
 59  26  57  1   
 60  27  58  1   
 61  27  59  1   
 62  27  60  1   
@<TRIPOS>SUBSTRUCTURE
  1 ****  14 GROUP 4 **** **** 0

# MOE 2024.06 (io_trps.svl 2023.06)
