@<TRIPOS>MOLECULE
NONAME
45 47 1 0 0 
SMALL
USER_CHARGES


@<TRIPOS>ATOM
  1 O       -1.0950     0.6260    -0.1290 O.2   1 <1>  -0.5700 
  2 C       -0.8450     1.7550     0.2070 C.2   1 <1>   0.5690 
  3 N       -1.8170     2.5670     0.6750 N.am  1 <1>  -0.7300 
  4 C        0.5810     2.2980     0.0690 C.3   1 <1>   0.1810 
  5 C       -1.5840     3.9670     1.1050 C.3   1 <1>   0.3640 
  6 O        0.8080     3.4700     0.8220 O.3   1 <1>  -0.5600 
  7 C       -2.6800     4.8510     0.5110 C.ar  1 <1>  -0.1440 
  8 C       -0.1840     4.4770     0.6750 C.3   1 <1>   0.2610 
  9 C       -3.2880     5.8160     1.3010 C.ar  1 <1>  -0.1500 
 10 C       -3.0750     4.7210    -0.8150 C.ar  1 <1>  -0.1500 
 11 C        0.2140     5.7540     1.4370 C.2   1 <1>   0.5690 
 12 C       -4.2740     6.6350     0.7790 C.ar  1 <1>  -0.1500 
 13 C       -4.0610     5.5400    -1.3390 C.ar  1 <1>  -0.1500 
 14 O       -0.3190     6.0000     2.4980 O.2   1 <1>  -0.5700 
 15 N        1.1570     6.6060     0.9150 N.am  1 <1>  -0.6600 
 16 C       -4.6610     6.4980    -0.5420 C.ar  1 <1>  -0.1500 
 17 C        1.4550     7.9260     1.5540 C.3   1 <1>   0.1400 
 18 C        1.9930     6.2900    -0.2820 C.3   1 <1>   0.1400 
 19 C        1.7100     9.0460     0.5050 C.3   1 <1>   0.2800 
 20 C        3.0790     7.3540    -0.5140 C.3   1 <1>   0.1200 
 21 O        2.5110     8.6310    -0.5720 O.3   1 <1>  -0.5600 
 22 C        0.3920     9.5100    -0.1180 C.3   1 <1>  -0.2400 
 23 C        2.4340    10.2320     1.1440 C.3   1 <1>  -0.2400 
 24 H       -2.7680     2.2070     0.7610 H     1 <1>   0.3700 
 25 H        0.7790     2.5150    -0.9640 H     1 <1>   0.0800 
 26 H        1.2770     1.5530     0.4070 H     1 <1>   0.0800 
 27 H       -1.6530     3.9910     2.1800 H     1 <1>   0.0800 
 28 H       -0.2310     4.7250    -0.3690 H     1 <1>   0.0800 
 29 H       -2.9940     5.9410     2.3300 H     1 <1>   0.1500 
 30 H       -2.6220     3.9800    -1.4510 H     1 <1>   0.1500 
 31 H       -4.7370     7.3810     1.4010 H     1 <1>   0.1500 
 32 H       -4.3620     5.4310    -2.3660 H     1 <1>   0.1500 
 33 H       -5.4270     7.1350    -0.9480 H     1 <1>   0.1500 
 34 H        0.6440     8.2230     2.1950 H     1 <1>   0.0800 
 35 H        2.3260     7.8150     2.1760 H     1 <1>   0.0800 
 36 H        2.4610     5.3300    -0.1500 H     1 <1>   0.0800 
 37 H        1.3650     6.2470    -1.1550 H     1 <1>   0.0800 
 38 H        3.5820     7.1770    -1.4480 H     1 <1>   0.0800 
 39 H        3.8090     7.3370     0.2770 H     1 <1>   0.0800 
 40 H       -0.2600     9.9070     0.6390 H     1 <1>   0.0800 
 41 H       -0.1050     8.6830    -0.5920 H     1 <1>   0.0800 
 42 H        0.5740    10.2770    -0.8500 H     1 <1>   0.0800 
 43 H        1.8460    10.6380     1.9470 H     1 <1>   0.0800 
 44 H        2.5950    11.0050     0.4140 H     1 <1>   0.0800 
 45 H        3.3830     9.9200     1.5380 H     1 <1>   0.0800 
@<TRIPOS>BOND
  1   1   2  2   
  2   2   3  am  
  3   2   4  1   
  4   3   5  1   
  5   3  24  1   
  6   4   6  1   
  7   4  25  1   
  8   4  26  1   
  9   5   7  1   
 10   5   8  1   
 11   5  27  1   
 12   6   8  1   
 13   7   9  ar  
 14   7  10  ar  
 15   8  11  1   
 16   8  28  1   
 17   9  12  ar  
 18   9  29  1   
 19  10  13  ar  
 20  10  30  1   
 21  11  14  2   
 22  11  15  am  
 23  12  16  ar  
 24  12  31  1   
 25  13  16  ar  
 26  13  32  1   
 27  15  17  1   
 28  15  18  1   
 29  16  33  1   
 30  17  19  1   
 31  17  34  1   
 32  17  35  1   
 33  18  20  1   
 34  18  36  1   
 35  18  37  1   
 36  19  21  1   
 37  19  22  1   
 38  19  23  1   
 39  20  21  1   
 40  20  38  1   
 41  20  39  1   
 42  22  40  1   
 43  22  41  1   
 44  22  42  1   
 45  23  43  1   
 46  23  44  1   
 47  23  45  1   
@<TRIPOS>SUBSTRUCTURE
  1 ****  11 GROUP 4 **** **** 0

# MOE 2024.06 (io_trps.svl 2023.06)
