@<TRIPOS>MOLECULE
NONAME
50 53 1 0 0 
SMALL
USER_CHARGES


@<TRIPOS>ATOM
  1 O       -1.2160     0.7090     1.5160 O.2   1 <1>  -0.5700 
  2 C       -1.4710     0.7440     0.3250 C.2   1 <1>   0.7160 
  3 N       -1.7580    -0.4330    -0.3370 N.am  1 <1>  -0.6600 
  4 C       -1.5010     2.0030    -0.3430 C.2   1 <1>  -0.0860 
  5 C       -1.9990    -1.7030     0.4160 C.3   1 <1>   0.1400 
  6 C       -2.1950    -0.4800    -1.7690 C.3   1 <1>   0.1400 
  7 C       -2.6670     2.7130    -0.6220 C.2   1 <1>   0.3720 
  8 C       -0.5200     2.7620    -0.8960 C.2   1 <1>   0.0870 
  9 C       -3.5130    -1.9710     0.5180 C.3   1 <1>   0.2000 
 10 C       -3.4860    -1.2990    -1.9370 C.3   1 <1>  -0.1600 
 11 N       -2.4110     3.7810    -1.2920 N.2   1 <1>  -0.4100 
 12 N       -3.9490     2.3020    -0.2400 N.pl3 1 <1>  -0.8210 
 13 O       -1.1110     3.7960    -1.4410 O.3   1 <1>  -0.0190 
 14 C        0.9090     2.5960    -0.9840 C.ar  1 <1>   0.0530 
 15 O       -3.7170    -3.3450     0.4880 O.3   1 <1>  -0.6800 
 16 C       -4.3070    -1.3160    -0.6440 C.3   1 <1>   0.2000 
 17 C       -4.2330     2.5140     1.2120 C.3   1 <1>   0.2090 
 18 C       -5.0740     2.8430    -1.0630 C.3   1 <1>   0.2090 
 19 C        1.6320     1.8930    -0.0190 C.ar  1 <1>  -0.1500 
 20 C        1.6250     3.1370    -2.0530 C.ar  1 <1>  -0.1500 
 21 O       -5.4900    -2.0100    -0.8950 O.3   1 <1>  -0.6800 
 22 C       -5.6100     1.9370     1.5880 C.3   1 <1>   0.1200 
 23 C       -6.4160     2.2460    -0.6040 C.3   1 <1>   0.1200 
 24 C        3.0000     1.7260    -0.1230 C.ar  1 <1>  -0.1500 
 25 C        2.9940     2.9750    -2.1610 C.ar  1 <1>  -0.1500 
 26 O       -6.6200     2.4590     0.7670 O.3   1 <1>  -0.5600 
 27 C        3.6850     2.2660    -1.1960 C.ar  1 <1>  -0.1500 
 28 H       -1.5220    -2.5080    -0.1160 H     1 <1>   0.0800 
 29 H       -1.5730    -1.6570     1.4030 H     1 <1>   0.0800 
 30 H       -2.3750     0.5140    -2.1410 H     1 <1>   0.0800 
 31 H       -1.4100    -0.9120    -2.3660 H     1 <1>   0.0800 
 32 H       -3.8800    -1.6050     1.4600 H     1 <1>   0.0800 
 33 H       -3.2250    -2.3080    -2.2060 H     1 <1>   0.0800 
 34 H       -4.0660    -0.8800    -2.7390 H     1 <1>   0.0800 
 35 H       -4.4470    -3.5100    -0.1520 H     1 <1>   0.4000 
 36 H       -4.5610    -0.3040    -0.3820 H     1 <1>   0.0800 
 37 H       -3.4760     2.0360     1.8090 H     1 <1>   0.0800 
 38 H       -4.2150     3.5670     1.4340 H     1 <1>   0.0800 
 39 H       -5.1120     3.9150    -0.9720 H     1 <1>   0.0800 
 40 H       -4.9080     2.6000    -2.0980 H     1 <1>   0.0800 
 41 H        1.1250     1.4740     0.8310 H     1 <1>   0.1500 
 42 H        1.1010     3.6910    -2.8120 H     1 <1>   0.1500 
 43 H       -6.1030    -1.9210    -0.1380 H     1 <1>   0.4000 
 44 H       -5.8510     2.1920     2.6050 H     1 <1>   0.0800 
 45 H       -5.6070     0.8670     1.4910 H     1 <1>   0.0800 
 46 H       -6.4430     1.1880    -0.7960 H     1 <1>   0.0800 
 47 H       -7.2280     2.7130    -1.1310 H     1 <1>   0.0800 
 48 H        3.5340     1.1780     0.6340 H     1 <1>   0.1500 
 49 H        3.5230     3.4010    -2.9970 H     1 <1>   0.1500 
 50 H        4.7510     2.1370    -1.2780 H     1 <1>   0.1500 
@<TRIPOS>BOND
  1   1   2  2   
  2   2   3  am  
  3   2   4  1   
  4   3   5  1   
  5   3   6  1   
  6   4   7  1   
  7   4   8  2   
  8   5   9  1   
  9   5  28  1   
 10   5  29  1   
 11   6  10  1   
 12   6  30  1   
 13   6  31  1   
 14   7  11  2   
 15   7  12  1   
 16   8  13  1   
 17   8  14  1   
 18   9  15  1   
 19   9  16  1   
 20   9  32  1   
 21  10  16  1   
 22  10  33  1   
 23  10  34  1   
 24  11  13  1   
 25  12  17  1   
 26  12  18  1   
 27  14  19  ar  
 28  14  20  ar  
 29  15  35  1   
 30  16  21  1   
 31  16  36  1   
 32  17  22  1   
 33  17  37  1   
 34  17  38  1   
 35  18  23  1   
 36  18  39  1   
 37  18  40  1   
 38  19  24  ar  
 39  19  41  1   
 40  20  25  ar  
 41  20  42  1   
 42  21  43  1   
 43  22  26  1   
 44  22  44  1   
 45  22  45  1   
 46  23  26  1   
 47  23  46  1   
 48  23  47  1   
 49  24  27  ar  
 50  24  48  1   
 51  25  27  ar  
 52  25  49  1   
 53  27  50  1   
@<TRIPOS>SUBSTRUCTURE
  1 ****   4 GROUP 4 **** **** 0

# MOE 2024.06 (io_trps.svl 2023.06)
