@<TRIPOS>MOLECULE
NONAME
52 54 1 0 0 
SMALL
USER_CHARGES


@<TRIPOS>ATOM
  1 O        1.0210     0.3490     1.3920 O.2   1 <1>  -0.5700 
  2 C        2.0100     0.2760     0.6990 C.2   1 <1>   0.7150 
  3 N        2.4310    -0.9890     0.4370 N.am  1 <1>  -0.7300 
  4 C        2.6370     1.4750     0.2230 C.2   1 <1>  -0.2370 
  5 C        3.7140    -1.5670    -0.0500 C.3   1 <1>   0.1400 
  6 N        3.5620     1.5720    -0.7610 N.pl3 1 <1>   0.3140 
  7 C        2.4240     2.7530     0.6310 C.2   1 <1>  -0.1500 
  8 C        4.7460    -0.5590    -0.5760 C.3   1 <1>   0.2000 
  9 N        3.9450     2.8320    -0.9850 N.2   1 <1>  -0.7070 
 10 C        4.1580     0.4740    -1.5340 C.3   1 <1>   0.0960 
 11 C        3.2500     3.5700    -0.1340 C.2   1 <1>   0.2030 
 12 O        5.7370    -1.2670    -1.2450 O.3   1 <1>  -0.6800 
 13 C        3.3380     5.0170    -0.0090 C.2   1 <1>   0.7160 
 14 O        2.6880     5.6390     0.8150 O.2   1 <1>  -0.5700 
 15 N        4.1850     5.7080    -0.8270 N.am  1 <1>  -0.7300 
 16 C        4.3860     7.1790    -0.8340 C.3   1 <1>   0.1400 
 17 C        5.3120     7.6070     0.3070 C.3   1 <1>   0.2090 
 18 N        5.5120     9.0850     0.2760 N.pl3 1 <1>  -0.8380 
 19 C        6.8190     9.5310     0.4490 C.ar  1 <1>   0.1000 
 20 C        4.4610     9.8730     0.9660 C.3   1 <1>   0.2090 
 21 C        7.4380    10.2560    -0.5600 C.ar  1 <1>  -0.1500 
 22 C        7.5280     9.2690     1.6160 C.ar  1 <1>  -0.1500 
 23 C        3.7490    10.7340    -0.0680 C.3   1 <1>  -0.2400 
 24 C        8.7370    10.7150    -0.4180 C.ar  1 <1>  -0.1430 
 25 C        8.8250     9.7230     1.7670 C.ar  1 <1>  -0.1500 
 26 C        9.4290    10.4440     0.7510 C.ar  1 <1>  -0.1500 
 27 C        9.4060    11.5070    -1.5260 C.3   1 <1>  -0.0970 
 28 H        1.8000    -1.6770     0.8560 H     1 <1>   0.3700 
 29 H        3.4750    -2.2610    -0.8380 H     1 <1>   0.0800 
 30 H        4.1630    -2.1220     0.7560 H     1 <1>   0.0800 
 31 H        1.7470     3.0950     1.3960 H     1 <1>   0.1500 
 32 H        5.2320    -0.0620     0.2490 H     1 <1>   0.0800 
 33 H        4.9380     0.8910    -2.1450 H     1 <1>   0.0800 
 34 H        3.4020     0.0400    -2.1600 H     1 <1>   0.0800 
 35 H        5.3930    -1.7140    -2.0430 H     1 <1>   0.4000 
 36 H        4.7320     5.1430    -1.4830 H     1 <1>   0.3700 
 37 H        3.4330     7.6630    -0.7160 H     1 <1>   0.0800 
 38 H        4.8150     7.4780    -1.7740 H     1 <1>   0.0800 
 39 H        6.2630     7.1160     0.1880 H     1 <1>   0.0800 
 40 H        4.8890     7.3130     1.2520 H     1 <1>   0.0800 
 41 H        4.9110    10.5040     1.7150 H     1 <1>   0.0800 
 42 H        3.7540     9.2220     1.4520 H     1 <1>   0.0800 
 43 H        6.8780    10.4510    -1.4550 H     1 <1>   0.1500 
 44 H        7.0540     8.7120     2.4010 H     1 <1>   0.1500 
 45 H        4.4530    11.4000    -0.5350 H     1 <1>   0.0800 
 46 H        2.9860    11.3200     0.4100 H     1 <1>   0.0800 
 47 H        3.2920    10.1150    -0.8170 H     1 <1>   0.0800 
 48 H        9.3660     9.5160     2.6740 H     1 <1>   0.1500 
 49 H       10.4390    10.7940     0.8740 H     1 <1>   0.1500 
 50 H        8.7180    11.6970    -2.3310 H     1 <1>   0.0800 
 51 H       10.2440    10.9560    -1.9130 H     1 <1>   0.0800 
 52 H        9.7530    12.4500    -1.1440 H     1 <1>   0.0800 
@<TRIPOS>BOND
  1   1   2  2   
  2   2   3  am  
  3   2   4  1   
  4   3   5  1   
  5   3  28  1   
  6   4   6  1   
  7   4   7  2   
  8   5   8  1   
  9   5  29  1   
 10   5  30  1   
 11   6   9  1   
 12   6  10  1   
 13   7  11  1   
 14   7  31  1   
 15   8  10  1   
 16   8  12  1   
 17   8  32  1   
 18   9  11  2   
 19  10  33  1   
 20  10  34  1   
 21  11  13  1   
 22  12  35  1   
 23  13  14  2   
 24  13  15  am  
 25  15  16  1   
 26  15  36  1   
 27  16  17  1   
 28  16  37  1   
 29  16  38  1   
 30  17  18  1   
 31  17  39  1   
 32  17  40  1   
 33  18  19  1   
 34  18  20  1   
 35  19  21  ar  
 36  19  22  ar  
 37  20  23  1   
 38  20  41  1   
 39  20  42  1   
 40  21  24  ar  
 41  21  43  1   
 42  22  25  ar  
 43  22  44  1   
 44  23  45  1   
 45  23  46  1   
 46  23  47  1   
 47  24  26  ar  
 48  24  27  1   
 49  25  26  ar  
 50  25  48  1   
 51  26  49  1   
 52  27  50  1   
 53  27  51  1   
 54  27  52  1   
@<TRIPOS>SUBSTRUCTURE
  1 ****  15 GROUP 4 **** **** 0

# MOE 2024.06 (io_trps.svl 2023.06)
