@<TRIPOS>MOLECULE
NONAME
54 56 1 0 0 
SMALL
USER_CHARGES


@<TRIPOS>ATOM
  1 O        0.4830    -0.2220     0.2130 O.2   1 <1>  -0.5700 
  2 C       -0.4100     0.4750    -0.2060 C.2   1 <1>   0.5690 
  3 N       -1.7050     0.0400    -0.2320 N.am  1 <1>  -0.6600 
  4 C       -0.0520     1.8630    -0.7100 C.3   1 <1>  -0.0990 
  5 C       -2.8900     0.7640    -0.7580 C.3   1 <1>   0.1400 
  6 C       -2.1170    -1.2630     0.3330 C.3   1 <1>   0.1400 
  7 C       -0.1990     2.9230     0.3940 C.3   1 <1>  -0.1600 
  8 C       -4.1030    -0.1020    -0.3900 C.3   1 <1>   0.2000 
  9 C       -3.5170    -1.5090    -0.2320 C.3   1 <1>  -0.0800 
 10 C        0.1340     4.3260    -0.1310 C.3   1 <1>  -0.1600 
 11 O       -4.6240     0.3120     0.8420 O.3   1 <1>  -0.5600 
 12 C       -4.3680    -2.4650     0.6250 C.3   1 <1>   0.0200 
 13 C        0.0140     5.3820     0.9730 C.3   1 <1>  -0.0170 
 14 C       -5.5610     1.3400     0.7770 C.3   1 <1>   0.0400 
 15 C       -3.8570    -3.8960     0.6150 C.2   1 <1>  -0.0400 
 16 C        0.3310     6.7620     0.4220 C.ar  1 <1>  -0.1440 
 17 O       -4.4610    -4.7830     1.3610 O.3   1 <1>  -0.0190 
 18 C       -2.8580    -4.5210    -0.0300 C.2   1 <1>  -0.1500 
 19 C       -0.6840     7.5750    -0.0600 C.ar  1 <1>  -0.1500 
 20 C        1.6390     7.2190     0.3930 C.ar  1 <1>  -0.1500 
 21 N       -3.9220    -5.9620     1.2530 N.2   1 <1>  -0.4100 
 22 C       -2.9520    -5.8340     0.4210 C.2   1 <1>   0.1080 
 23 C       -0.3940     8.8320    -0.5640 C.ar  1 <1>  -0.1500 
 24 C        1.9310     8.4750    -0.1110 C.ar  1 <1>  -0.1500 
 25 C       -2.0390    -6.9630    -0.0030 C.3   1 <1>  -0.0590 
 26 C        0.9140     9.2820    -0.5900 C.ar  1 <1>  -0.1500 
 27 H        0.9680     1.8430    -1.0480 H     1 <1>   0.0800 
 28 H       -0.6660     2.1130    -1.5540 H     1 <1>   0.0800 
 29 H       -2.9640     1.7490    -0.3350 H     1 <1>   0.0800 
 30 H       -2.8050     0.8320    -1.8280 H     1 <1>   0.0800 
 31 H       -1.4220    -2.0370     0.0570 H     1 <1>   0.0800 
 32 H       -2.1500    -1.1780     1.4060 H     1 <1>   0.0800 
 33 H       -1.2050     2.9090     0.7760 H     1 <1>   0.0800 
 34 H        0.4650     2.6720     1.2050 H     1 <1>   0.0800 
 35 H       -4.8800    -0.0710    -1.1340 H     1 <1>   0.0800 
 36 H       -3.4060    -1.9300    -1.2150 H     1 <1>   0.0800 
 37 H       -0.5340     4.5810    -0.9350 H     1 <1>   0.0800 
 38 H        1.1390     4.3380    -0.5180 H     1 <1>   0.0800 
 39 H       -5.3790    -2.4650     0.2590 H     1 <1>   0.0800 
 40 H       -4.3920    -2.1170     1.6440 H     1 <1>   0.0800 
 41 H        0.6930     5.1510     1.7750 H     1 <1>   0.0800 
 42 H       -0.9830     5.3760     1.3790 H     1 <1>   0.0800 
 43 H       -5.8690     1.5740     1.7810 H     1 <1>   0.0800 
 44 H       -6.4130     1.0100     0.2080 H     1 <1>   0.0800 
 45 H       -5.1160     2.2090     0.3260 H     1 <1>   0.0800 
 46 H       -2.1380    -4.1460    -0.7320 H     1 <1>   0.1500 
 47 H       -1.7030     7.2340    -0.0450 H     1 <1>   0.1500 
 48 H        2.4360     6.5980     0.7620 H     1 <1>   0.1500 
 49 H       -1.1850     9.4580    -0.9360 H     1 <1>   0.1500 
 50 H        2.9490     8.8240    -0.1300 H     1 <1>   0.1500 
 51 H       -1.0230    -6.7230     0.2490 H     1 <1>   0.0800 
 52 H       -2.1170    -7.1160    -1.0630 H     1 <1>   0.0800 
 53 H       -2.3180    -7.8700     0.5030 H     1 <1>   0.0800 
 54 H        1.1400    10.2580    -0.9820 H     1 <1>   0.1500 
@<TRIPOS>BOND
  1   1   2  2   
  2   2   3  am  
  3   2   4  1   
  4   3   5  1   
  5   3   6  1   
  6   4   7  1   
  7   4  27  1   
  8   4  28  1   
  9   5   8  1   
 10   5  29  1   
 11   5  30  1   
 12   6   9  1   
 13   6  31  1   
 14   6  32  1   
 15   7  10  1   
 16   7  33  1   
 17   7  34  1   
 18   8   9  1   
 19   8  11  1   
 20   8  35  1   
 21   9  12  1   
 22   9  36  1   
 23  10  13  1   
 24  10  37  1   
 25  10  38  1   
 26  11  14  1   
 27  12  15  1   
 28  12  39  1   
 29  12  40  1   
 30  13  16  1   
 31  13  41  1   
 32  13  42  1   
 33  14  43  1   
 34  14  44  1   
 35  14  45  1   
 36  15  17  1   
 37  15  18  2   
 38  16  19  ar  
 39  16  20  ar  
 40  17  21  1   
 41  18  22  1   
 42  18  46  1   
 43  19  23  ar  
 44  19  47  1   
 45  20  24  ar  
 46  20  48  1   
 47  21  22  2   
 48  22  25  1   
 49  23  26  ar  
 50  23  49  1   
 51  24  26  ar  
 52  24  50  1   
 53  25  51  1   
 54  25  52  1   
 55  25  53  1   
 56  26  54  1   
@<TRIPOS>SUBSTRUCTURE
  1 ****   3 GROUP 4 **** **** 0

# MOE 2024.06 (io_trps.svl 2023.06)
