@<TRIPOS>MOLECULE
NONAME
44 46 1 0 0 
SMALL
USER_CHARGES


@<TRIPOS>ATOM
  1 O       -0.0350     0.6710    -0.8150 O.2   1 <1>  -0.5700 
  2 C       -0.1340     1.8220    -0.4540 C.2   1 <1>   0.5770 
  3 N       -1.3650     2.4190    -0.3230 N.am  1 <1>  -0.6600 
  4 C        1.1430     2.6090    -0.1470 C.3   1 <1>   0.0530 
  5 C       -1.5600     3.8140     0.1830 C.3   1 <1>   0.1400 
  6 C       -2.6000     1.6700    -0.7070 C.3   1 <1>   0.1400 
  7 C        2.5010     1.9200    -0.4690 C.3   1 <1>   0.0000 
  8 C        1.5740     2.5680     1.3440 C.3   1 <1>   0.0000 
  9 C       -2.9310     3.9360     0.8460 C.3   1 <1>  -0.1600 
 10 C       -3.6690     2.6380    -1.2180 C.3   1 <1>  -0.1600 
 11 C        3.0400     2.5560     0.8380 C.3   1 <1>   0.0000 
 12 C       -4.0730     3.6960    -0.1590 C.3   1 <1>   0.2800 
 13 O       -4.2460     4.9230    -0.8190 O.3   1 <1>  -0.5600 
 14 C       -5.3720     3.3260     0.6090 C.3   1 <1>  -0.1600 
 15 C       -5.2720     5.0320    -1.7730 C.3   1 <1>   0.1200 
 16 C       -6.5800     4.1930     0.2420 C.3   1 <1>   0.2800 
 17 C       -6.5960     4.4370    -1.2650 C.3   1 <1>  -0.1600 
 18 O       -6.4110     5.4090     0.8510 O.3   1 <1>  -0.6800 
 19 C       -7.8940     3.6160     0.7580 C.3   1 <1>  -0.2400 
 20 H        1.1230     3.6150    -0.5330 H     1 <1>   0.0000 
 21 H       -1.4920     4.5060    -0.6400 H     1 <1>   0.0800 
 22 H       -0.8010     4.0610     0.9030 H     1 <1>   0.0800 
 23 H       -2.9650     1.1290     0.1500 H     1 <1>   0.0800 
 24 H       -2.3690     0.9550    -1.4800 H     1 <1>   0.0800 
 25 H        2.9780     2.2910    -1.3590 H     1 <1>   0.0000 
 26 H        2.4800     0.8450    -0.4110 H     1 <1>   0.0000 
 27 H        1.3000     1.6510     1.8380 H     1 <1>   0.0000 
 28 H        1.3160     3.4510     1.9000 H     1 <1>   0.0000 
 29 H       -3.0410     4.9070     1.2930 H     1 <1>   0.0800 
 30 H       -2.9690     3.2110     1.6400 H     1 <1>   0.0800 
 31 H       -4.5250     2.0770    -1.5440 H     1 <1>   0.0800 
 32 H       -3.2530     3.1240    -2.0830 H     1 <1>   0.0800 
 33 H        3.4360     3.5460     0.6870 H     1 <1>   0.0000 
 34 H        3.6900     1.9110     1.4010 H     1 <1>   0.0000 
 35 H       -5.2260     3.3870     1.6730 H     1 <1>   0.0800 
 36 H       -5.6100     2.2980     0.4130 H     1 <1>   0.0800 
 37 H       -4.9570     4.5530    -2.6830 H     1 <1>   0.0800 
 38 H       -5.3980     6.0830    -1.9720 H     1 <1>   0.0800 
 39 H       -6.7640     3.5030    -1.7680 H     1 <1>   0.0800 
 40 H       -7.4120     5.0850    -1.5300 H     1 <1>   0.0800 
 41 H       -5.5580     5.7660     0.5220 H     1 <1>   0.4000 
 42 H       -8.0870     2.6620     0.3050 H     1 <1>   0.0800 
 43 H       -8.7080     4.2780     0.5220 H     1 <1>   0.0800 
 44 H       -7.8480     3.4860     1.8250 H     1 <1>   0.0800 
@<TRIPOS>BOND
  1   1   2  2   
  2   2   3  am  
  3   2   4  1   
  4   3   5  1   
  5   3   6  1   
  6   4   7  1   
  7   4   8  1   
  8   4  20  1   
  9   5   9  1   
 10   5  21  1   
 11   5  22  1   
 12   6  10  1   
 13   6  23  1   
 14   6  24  1   
 15   7  11  1   
 16   7  25  1   
 17   7  26  1   
 18   8  11  1   
 19   8  27  1   
 20   8  28  1   
 21   9  12  1   
 22   9  29  1   
 23   9  30  1   
 24  10  12  1   
 25  10  31  1   
 26  10  32  1   
 27  11  33  1   
 28  11  34  1   
 29  12  13  1   
 30  12  14  1   
 31  13  15  1   
 32  14  16  1   
 33  14  35  1   
 34  14  36  1   
 35  15  17  1   
 36  15  37  1   
 37  15  38  1   
 38  16  17  1   
 39  16  18  1   
 40  16  19  1   
 41  17  39  1   
 42  17  40  1   
 43  18  41  1   
 44  19  42  1   
 45  19  43  1   
 46  19  44  1   
@<TRIPOS>SUBSTRUCTURE
  1 ****   9 GROUP 4 **** **** 0

# MOE 2024.06 (io_trps.svl 2023.06)
