@<TRIPOS>MOLECULE
NONAME
42 44 1 0 0 
SMALL
USER_CHARGES


@<TRIPOS>ATOM
  1 CL       0.2660    -1.6770     2.8140 Cl    1 <1>  -0.1770 
  2 C        1.1920    -1.6470     1.3280 C.ar  1 <1>   0.1770 
  3 C        1.3930    -2.8370     0.6050 C.ar  1 <1>   0.4100 
  4 C        1.7240    -0.4780     0.8740 C.ar  1 <1>   0.2110 
  5 N        2.0790    -2.8200    -0.5490 N.ar  1 <1>  -0.6200 
  6 N        0.9280    -4.0280     1.0320 N.pl3 1 <1>  -0.8690 
  7 N        2.4300    -0.5160    -0.2820 N.ar  1 <1>  -0.1790 
  8 C        2.5810    -1.6820    -0.9530 C.ar  1 <1>   0.5280 
  9 C        1.2860    -5.3600     0.4660 C.3   1 <1>   0.2890 
 10 C        3.3750    -1.6650    -2.2450 C.3   1 <1>  -0.0970 
 11 C        0.4330    -5.6760    -0.7670 C.3   1 <1>   0.3430 
 12 C        0.8560    -6.4400     1.4500 C.3   1 <1>  -0.1600 
 13 N       -0.8760    -6.1210    -0.2110 N.4   1 <1>  -0.9590 
 14 C       -0.5770    -6.8240     1.0710 C.3   1 <1>   0.3430 
 15 C       -1.7230    -6.9090    -1.1470 C.3   1 <1>   0.4860 
 16 C       -3.0390    -7.2080    -0.4580 C.ar  1 <1>  -0.1430 
 17 C       -3.9970    -6.2140    -0.3150 C.ar  1 <1>  -0.1500 
 18 C       -3.2930    -8.4780     0.0410 C.ar  1 <1>  -0.1500 
 19 C       -5.1890    -6.4840     0.3340 C.ar  1 <1>  -0.1500 
 20 C       -4.4860    -8.7460     0.6890 C.ar  1 <1>  -0.1500 
 21 C       -5.4330    -7.7490     0.8380 C.ar  1 <1>  -0.1500 
 22 H        1.5980     0.4520     1.4050 H     1 <1>   0.1500 
 23 H        0.4510    -4.0630     1.9420 H     1 <1>   0.4000 
 24 H        2.8570     0.3350    -0.6620 H     1 <1>   0.4570 
 25 H        2.3410    -5.4000     0.2460 H     1 <1>   0.0800 
 26 H        3.4250    -2.6550    -2.6640 H     1 <1>   0.0800 
 27 H        4.3800    -1.3290    -2.0640 H     1 <1>   0.0800 
 28 H        2.9080    -1.0190    -2.9660 H     1 <1>   0.0800 
 29 H        0.8910    -6.4820    -1.3160 H     1 <1>   0.0800 
 30 H        0.3360    -4.8130    -1.4040 H     1 <1>   0.0800 
 31 H        1.4800    -7.3070     1.3220 H     1 <1>   0.0800 
 32 H        0.9340    -6.1280     2.4770 H     1 <1>   0.0800 
 33 H       -1.4070    -5.2770     0.0420 H     1 <1>   0.4500 
 34 H       -1.2760    -6.5180     1.8340 H     1 <1>   0.0800 
 35 H       -0.6490    -7.8930     0.9470 H     1 <1>   0.0800 
 36 H       -1.9100    -6.3450    -2.0470 H     1 <1>   0.0800 
 37 H       -1.2310    -7.8300    -1.4140 H     1 <1>   0.0800 
 38 H       -3.8370    -5.2240    -0.7050 H     1 <1>   0.1500 
 39 H       -2.5760    -9.2730    -0.0680 H     1 <1>   0.1500 
 40 H       -5.9330    -5.7130     0.4460 H     1 <1>   0.1500 
 41 H       -4.6850    -9.7320     1.0760 H     1 <1>   0.1500 
 42 H       -6.3620    -7.9580     1.3420 H     1 <1>   0.1500 
@<TRIPOS>BOND
  1   1   2  1   
  2   2   3  ar  
  3   2   4  ar  
  4   3   5  ar  
  5   3   6  1   
  6   4   7  ar  
  7   4  22  1   
  8   5   8  ar  
  9   6   9  1   
 10   6  23  1   
 11   7   8  ar  
 12   7  24  1   
 13   8  10  1   
 14   9  11  1   
 15   9  12  1   
 16   9  25  1   
 17  10  26  1   
 18  10  27  1   
 19  10  28  1   
 20  11  13  1   
 21  11  29  1   
 22  11  30  1   
 23  12  14  1   
 24  12  31  1   
 25  12  32  1   
 26  13  14  1   
 27  13  15  1   
 28  13  33  1   
 29  14  34  1   
 30  14  35  1   
 31  15  16  1   
 32  15  36  1   
 33  15  37  1   
 34  16  17  ar  
 35  16  18  ar  
 36  17  19  ar  
 37  17  38  1   
 38  18  20  ar  
 39  18  39  1   
 40  19  21  ar  
 41  19  40  1   
 42  20  21  ar  
 43  20  41  1   
 44  21  42  1   
@<TRIPOS>SUBSTRUCTURE
  1 ****  13 GROUP 4 **** **** 0

# MOE 2024.06 (io_trps.svl 2023.06)
