@<TRIPOS>MOLECULE
NONAME
42 43 1 0 0 
SMALL
USER_CHARGES


@<TRIPOS>ATOM
  1 S        0.7510     1.0980    -0.8890 S.3   1 <1>  -0.4600 
  2 C        1.1140     0.9670     0.9040 C.3   1 <1>   0.1310 
  3 C        0.3670    -0.6060    -1.3840 C.3   1 <1>   0.1650 
  4 C        1.6120     2.2800     1.4960 C.2   1 <1>   0.5690 
  5 C       -0.9270    -1.0420    -0.6920 C.3   1 <1>  -0.1950 
  6 O        1.9210     2.3010     2.6630 O.2   1 <1>  -0.5700 
  7 N        1.6940     3.3860     0.7100 N.am  1 <1>  -0.7300 
  8 C       -1.8540    -2.0050    -1.3630 C.3   1 <1>  -0.2000 
  9 C       -2.2600    -0.5700    -1.1790 C.3   1 <1>  -0.2000 
 10 C        2.1440     4.7240     1.1390 C.3   1 <1>   0.1400 
 11 C        3.2830     5.1860     0.2320 C.3   1 <1>  -0.1600 
 12 C        3.8100     6.5580     0.6640 C.3   1 <1>   0.0210 
 13 C        4.9390     7.0060    -0.2490 C.2   1 <1>  -0.1810 
 14 C        4.8220     7.7680    -1.4110 C.2   1 <1>   0.1080 
 15 C        6.2630     6.7670    -0.1270 C.2   1 <1>  -0.3320 
 16 N        5.9690     7.9940    -1.9680 N.2   1 <1>  -0.7070 
 17 C        3.5340     8.2980    -1.9970 C.3   1 <1>  -0.0590 
 18 N        6.8590     7.3740    -1.1740 N.pl3 1 <1>   0.3000 
 19 C        7.0300     5.9850     0.9260 C.3   1 <1>  -0.0600 
 20 H        1.8600     0.2050     1.0270 H     1 <1>   0.0800 
 21 H        0.2060     0.6730     1.3960 H     1 <1>   0.0800 
 22 H        1.1990    -1.2280    -1.1070 H     1 <1>   0.0800 
 23 H        0.2550    -0.5990    -2.4540 H     1 <1>   0.0800 
 24 H       -0.8040    -1.1670     0.3700 H     1 <1>   0.1000 
 25 H        1.4180     3.2820    -0.2730 H     1 <1>   0.3700 
 26 H       -2.3430    -2.7570    -0.7670 H     1 <1>   0.1000 
 27 H       -1.6370    -2.3480    -2.3600 H     1 <1>   0.1000 
 28 H       -2.2980     0.0760    -2.0400 H     1 <1>   0.1000 
 29 H       -3.0180    -0.3300    -0.4530 H     1 <1>   0.1000 
 30 H        2.4800     4.6830     2.1620 H     1 <1>   0.0800 
 31 H        1.3160     5.4100     1.0790 H     1 <1>   0.0800 
 32 H        2.9370     5.2440    -0.7850 H     1 <1>   0.0800 
 33 H        4.0880     4.4740     0.2800 H     1 <1>   0.0800 
 34 H        4.1720     6.5070     1.6750 H     1 <1>   0.0800 
 35 H        3.0180     7.2860     0.6380 H     1 <1>   0.0800 
 36 H        2.7870     7.5270    -2.0090 H     1 <1>   0.0800 
 37 H        3.7040     8.6310    -3.0050 H     1 <1>   0.0800 
 38 H        3.1860     9.1280    -1.4110 H     1 <1>   0.0800 
 39 H        7.8650     7.3830    -1.3750 H     1 <1>   0.2700 
 40 H        6.3560     5.5490     1.6410 H     1 <1>   0.0800 
 41 H        7.7090     6.6350     1.4490 H     1 <1>   0.0800 
 42 H        7.5900     5.1930     0.4630 H     1 <1>   0.0800 
@<TRIPOS>BOND
  1   1   2  1   
  2   1   3  1   
  3   2   4  1   
  4   2  20  1   
  5   2  21  1   
  6   3   5  1   
  7   3  22  1   
  8   3  23  1   
  9   4   6  2   
 10   4   7  am  
 11   5   8  1   
 12   5   9  1   
 13   5  24  1   
 14   7  10  1   
 15   7  25  1   
 16   8   9  1   
 17   8  26  1   
 18   8  27  1   
 19   9  28  1   
 20   9  29  1   
 21  10  11  1   
 22  10  30  1   
 23  10  31  1   
 24  11  12  1   
 25  11  32  1   
 26  11  33  1   
 27  12  13  1   
 28  12  34  1   
 29  12  35  1   
 30  13  14  1   
 31  13  15  2   
 32  14  16  2   
 33  14  17  1   
 34  15  18  1   
 35  15  19  1   
 36  16  18  1   
 37  17  36  1   
 38  17  37  1   
 39  17  38  1   
 40  18  39  1   
 41  19  40  1   
 42  19  41  1   
 43  19  42  1   
@<TRIPOS>SUBSTRUCTURE
  1 ****   7 GROUP 4 **** **** 0

# MOE 2024.06 (io_trps.svl 2023.06)
