@<TRIPOS>MOLECULE
NONAME
49 52 1 0 0 
SMALL
USER_CHARGES


@<TRIPOS>ATOM
  1 O       -0.9080     0.9310    -0.7510 O.2   1 <1>  -0.5700 
  2 C       -0.8840     2.1330    -0.6170 C.2   1 <1>   0.5690 
  3 N       -1.3920     2.7870     0.4720 N.am  1 <1>  -0.5090 
  4 C       -0.2440     2.9740    -1.7140 C.3   1 <1>   0.1810 
  5 C       -1.3350     4.2820     0.5540 C.3   1 <1>   0.3640 
  6 C       -1.8200     2.0680     1.6970 C.3   1 <1>   0.0490 
  7 O        0.4900     4.0310    -1.1540 O.3   1 <1>  -0.5600 
  8 C       -2.7090     4.8930     0.2510 C.ar  1 <1>  -0.1440 
  9 C       -0.2780     4.9450    -0.3790 C.3   1 <1>   0.2610 
 10 C       -2.9320     1.0720     1.5870 C.3   1 <1>  -0.2000 
 11 C       -3.1520     2.3530     2.3250 C.3   1 <1>  -0.2000 
 12 C       -3.5900     4.3310    -0.6670 C.ar  1 <1>  -0.1500 
 13 C       -3.0840     6.0570     0.9090 C.ar  1 <1>  -0.1500 
 14 C        0.6490     5.8390     0.4520 C.2   1 <1>   0.5690 
 15 C       -4.8160     4.9180    -0.9230 C.ar  1 <1>  -0.1500 
 16 C       -4.3090     6.6460     0.6530 C.ar  1 <1>  -0.1500 
 17 O        0.1730     6.7080     1.1480 O.2   1 <1>  -0.5700 
 18 N        1.9930     5.6620     0.3780 N.am  1 <1>  -0.7300 
 19 C       -5.1830     6.0850    -0.2620 C.ar  1 <1>   0.0830 
 20 C        3.0070     6.4780     1.0640 C.3   1 <1>   0.3200 
 21 O       -6.3630     6.7260    -0.4530 O.3   1 <1>  -0.3630 
 22 C        3.1520     7.7830     0.3170 C.2   1 <1>  -0.3320 
 23 C       -7.3410     6.2160    -1.3310 C.3   1 <1>   0.0400 
 24 N        2.1270     8.6500     0.1940 N.pl3 1 <1>   0.3000 
 25 C        4.2060     8.3340    -0.3230 C.2   1 <1>  -0.1500 
 26 N        2.4820     9.7440    -0.5070 N.2   1 <1>  -0.7070 
 27 C        3.7290     9.5460    -0.8110 C.2   1 <1>   0.1390 
 28 H       -0.9960     3.3750    -2.3690 H     1 <1>   0.0800 
 29 H        0.4350     2.3650    -2.2840 H     1 <1>   0.0800 
 30 H       -1.0900     4.5310     1.5730 H     1 <1>   0.0800 
 31 H       -0.9900     1.8210     2.3380 H     1 <1>   0.1000 
 32 H       -0.7850     5.5870    -1.0770 H     1 <1>   0.0800 
 33 H       -3.3980     0.9320     0.6280 H     1 <1>   0.1000 
 34 H       -2.8580     0.1580     2.1490 H     1 <1>   0.1000 
 35 H       -3.2420     2.3050     3.3950 H     1 <1>   0.1000 
 36 H       -3.8310     3.0620     1.8880 H     1 <1>   0.1000 
 37 H       -3.3370     3.4250    -1.1890 H     1 <1>   0.1500 
 38 H       -2.4260     6.5190     1.6260 H     1 <1>   0.1500 
 39 H       -5.4710     4.4540    -1.6350 H     1 <1>   0.1500 
 40 H       -4.5950     7.5490     1.1630 H     1 <1>   0.1500 
 41 H        2.3390     4.9910    -0.3160 H     1 <1>   0.3700 
 42 H        2.6960     6.6670     2.0780 H     1 <1>   0.0800 
 43 H        3.9440     5.9490     1.0830 H     1 <1>   0.0800 
 44 H       -8.1880     6.8770    -1.3070 H     1 <1>   0.0800 
 45 H       -7.6330     5.2360    -0.9970 H     1 <1>   0.0800 
 46 H       -6.9330     6.1800    -2.3260 H     1 <1>   0.0800 
 47 H        1.1770     8.4950     0.5680 H     1 <1>   0.2700 
 48 H        5.2040     7.9550    -0.4500 H     1 <1>   0.1500 
 49 H        4.3170    10.2480    -1.3790 H     1 <1>   0.1500 
@<TRIPOS>BOND
  1   1   2  2   
  2   2   3  am  
  3   2   4  1   
  4   3   5  1   
  5   3   6  1   
  6   4   7  1   
  7   4  28  1   
  8   4  29  1   
  9   5   8  1   
 10   5   9  1   
 11   5  30  1   
 12   6  10  1   
 13   6  11  1   
 14   6  31  1   
 15   7   9  1   
 16   8  12  ar  
 17   8  13  ar  
 18   9  14  1   
 19   9  32  1   
 20  10  11  1   
 21  10  33  1   
 22  10  34  1   
 23  11  35  1   
 24  11  36  1   
 25  12  15  ar  
 26  12  37  1   
 27  13  16  ar  
 28  13  38  1   
 29  14  17  2   
 30  14  18  am  
 31  15  19  ar  
 32  15  39  1   
 33  16  19  ar  
 34  16  40  1   
 35  18  20  1   
 36  18  41  1   
 37  19  21  1   
 38  20  22  1   
 39  20  42  1   
 40  20  43  1   
 41  21  23  1   
 42  22  24  1   
 43  22  25  2   
 44  23  44  1   
 45  23  45  1   
 46  23  46  1   
 47  24  26  1   
 48  24  47  1   
 49  25  27  1   
 50  25  48  1   
 51  26  27  2   
 52  27  49  1   
@<TRIPOS>SUBSTRUCTURE
  1 ****   9 GROUP 4 **** **** 0

# MOE 2024.06 (io_trps.svl 2023.06)
