@<TRIPOS>MOLECULE
NONAME
46 49 1 0 0 
SMALL
USER_CHARGES


@<TRIPOS>ATOM
  1 O       -0.4030     1.3740     1.3530 O.2   1 <1>  -0.5700 
  2 C       -0.1370     2.4770     0.9040 C.2   1 <1>   0.7150 
  3 N       -1.1820     3.3100     0.5480 N.am  1 <1>  -0.6600 
  4 C        1.2620     2.8400     0.7620 C.2   1 <1>   0.0550 
  5 C       -2.5590     3.1160     1.0990 C.3   1 <1>   0.1400 
  6 C       -1.0760     4.4110    -0.4480 C.3   1 <1>   0.1400 
  7 O        1.6650     4.1220     0.7340 O.3   1 <1>  -0.2800 
  8 C        2.3490     2.0320     0.6700 C.2   1 <1>  -0.1500 
  9 C       -3.5840     2.8430    -0.0300 C.3   1 <1>   0.0000 
 10 C       -2.0790     4.1910    -1.5860 C.3   1 <1>  -0.1600 
 11 C        2.9900     4.1400     0.6160 C.ar  1 <1>   0.1400 
 12 C        3.4850     2.8510     0.5680 C.ar  1 <1>   0.0000 
 13 C       -5.0060     2.6800     0.5340 C.3   1 <1>   0.2000 
 14 C       -3.5120     3.9840    -1.0680 C.3   1 <1>  -0.1600 
 15 C       -3.3390     1.4600    -0.6590 C.3   1 <1>  -0.1600 
 16 C        3.8220     5.2500     0.5450 C.ar  1 <1>  -0.1500 
 17 C        4.8610     2.6480     0.4440 C.ar  1 <1>  -0.1500 
 18 O       -5.2600     3.5980     1.5560 O.3   1 <1>  -0.5600 
 19 C       -5.0890     1.2380     1.0440 C.3   1 <1>  -0.1600 
 20 C       -4.0060     0.4570     0.2870 C.3   1 <1>  -0.1600 
 21 C        5.1810     5.0430     0.4220 C.ar  1 <1>  -0.1500 
 22 C        5.6970     3.7440     0.3710 C.ar  1 <1>  -0.1500 
 23 C       -6.6000     3.7280     1.9090 C.3   1 <1>   0.0400 
 24 H       -2.5720     2.3120     1.8140 H     1 <1>   0.0800 
 25 H       -2.8360     4.0120     1.6250 H     1 <1>   0.0800 
 26 H       -1.2760     5.3460     0.0450 H     1 <1>   0.0800 
 27 H       -0.0880     4.4550    -0.8700 H     1 <1>   0.0800 
 28 H        2.3650     0.9570     0.6770 H     1 <1>   0.1500 
 29 H       -2.0560     5.0420    -2.2430 H     1 <1>   0.0800 
 30 H       -1.7710     3.3340    -2.1590 H     1 <1>   0.0800 
 31 H       -5.7190     2.8300    -0.2600 H     1 <1>   0.0800 
 32 H       -4.1690     3.7780    -1.8940 H     1 <1>   0.0800 
 33 H       -3.8490     4.8940    -0.6020 H     1 <1>   0.0800 
 34 H       -3.8230     1.4070    -1.6180 H     1 <1>   0.0800 
 35 H       -2.2940     1.2390    -0.7920 H     1 <1>   0.0800 
 36 H        3.3980     6.2360     0.5880 H     1 <1>   0.1500 
 37 H        5.2480     1.6460     0.4070 H     1 <1>   0.1500 
 38 H       -4.8820     1.2030     2.1000 H     1 <1>   0.0800 
 39 H       -6.0630     0.8260     0.8520 H     1 <1>   0.0800 
 40 H       -3.2760     0.0820     0.9850 H     1 <1>   0.0800 
 41 H       -4.4200    -0.3730    -0.2590 H     1 <1>   0.0800 
 42 H        5.8530     5.8820     0.3640 H     1 <1>   0.1500 
 43 H        6.7600     3.6050     0.2750 H     1 <1>   0.1500 
 44 H       -6.6700     4.4710     2.6840 H     1 <1>   0.0800 
 45 H       -6.9680     2.7870     2.2780 H     1 <1>   0.0800 
 46 H       -7.1650     4.0480     1.0500 H     1 <1>   0.0800 
@<TRIPOS>BOND
  1   1   2  2   
  2   2   3  am  
  3   2   4  1   
  4   3   5  1   
  5   3   6  1   
  6   4   7  1   
  7   4   8  2   
  8   5   9  1   
  9   5  24  1   
 10   5  25  1   
 11   6  10  1   
 12   6  26  1   
 13   6  27  1   
 14   7  11  1   
 15   8  12  1   
 16   8  28  1   
 17   9  13  1   
 18   9  14  1   
 19   9  15  1   
 20  10  14  1   
 21  10  29  1   
 22  10  30  1   
 23  11  12  ar  
 24  11  16  ar  
 25  12  17  ar  
 26  13  18  1   
 27  13  19  1   
 28  13  31  1   
 29  14  32  1   
 30  14  33  1   
 31  15  20  1   
 32  15  34  1   
 33  15  35  1   
 34  16  21  ar  
 35  16  36  1   
 36  17  22  ar  
 37  17  37  1   
 38  18  23  1   
 39  19  20  1   
 40  19  38  1   
 41  19  39  1   
 42  20  40  1   
 43  20  41  1   
 44  21  22  ar  
 45  21  42  1   
 46  22  43  1   
 47  23  44  1   
 48  23  45  1   
 49  23  46  1   
@<TRIPOS>SUBSTRUCTURE
  1 ****   3 GROUP 4 **** **** 0

# MOE 2024.06 (io_trps.svl 2023.06)
