@<TRIPOS>MOLECULE
NONAME
42 44 1 0 0 
SMALL
USER_CHARGES


@<TRIPOS>ATOM
  1 CL       0.0620     1.2640     2.5370 Cl    1 <1>  -0.1230 
  2 C        1.0910     2.3520     1.6350 C.2   1 <1>   0.4120 
  3 N        2.3730     2.2880     1.6300 N.2   1 <1>  -0.4100 
  4 C        0.6070     3.3870     0.8450 C.2   1 <1>  -0.1500 
  5 O        2.7540     3.2580     0.8460 O.3   1 <1>  -0.0190 
  6 C        1.7360     3.9330     0.3660 C.2   1 <1>  -0.0400 
  7 C        1.9810     5.1080    -0.5620 C.3   1 <1>   0.0200 
  8 C        2.8390     6.1760     0.1380 C.3   1 <1>  -0.0990 
  9 C        3.1870     7.3630    -0.7490 C.2   1 <1>   0.5690 
 10 O        2.7170     7.3990    -1.8590 O.2   1 <1>  -0.5700 
 11 N        4.0410     8.3520    -0.3170 N.am  1 <1>  -0.6600 
 12 C        4.7960     8.2930     0.9940 C.3   1 <1>   0.2200 
 13 C        4.2570     9.5430    -1.2100 C.3   1 <1>   0.1400 
 14 C        4.7340     9.6100     1.7870 C.3   1 <1>   0.1200 
 15 C        6.2640     7.8570     0.7570 C.3   1 <1>   0.3430 
 16 C        5.5750    10.3140    -0.9940 C.3   1 <1>  -0.0800 
 17 O        5.7640    10.4680     1.4020 O.3   1 <1>  -0.5600 
 18 N        6.6910     8.0340    -0.6770 N.4   1 <1>  -0.9590 
 19 C        5.5290    11.2080     0.2530 C.3   1 <1>   0.1200 
 20 C        6.8660     9.4710    -1.0610 C.3   1 <1>   0.3430 
 21 C        7.9100     7.2330    -0.9920 C.3   1 <1>   0.2630 
 22 H       -0.4240     3.6410     0.6910 H     1 <1>   0.1500 
 23 H        2.4830     4.7540    -1.4460 H     1 <1>   0.0800 
 24 H        1.0390     5.5340    -0.8620 H     1 <1>   0.0800 
 25 H        3.7500     5.7110     0.4640 H     1 <1>   0.0800 
 26 H        2.3060     6.5340     1.0000 H     1 <1>   0.0800 
 27 H        4.3390     7.5610     1.6340 H     1 <1>   0.0800 
 28 H        4.2320     9.2190    -2.2380 H     1 <1>   0.0800 
 29 H        3.4260    10.2160    -1.0820 H     1 <1>   0.0800 
 30 H        4.8900     9.4000     2.8310 H     1 <1>   0.0800 
 31 H        3.7790    10.0990     1.6830 H     1 <1>   0.0800 
 32 H        6.3450     6.8160     1.0220 H     1 <1>   0.0800 
 33 H        6.9180     8.4080     1.4130 H     1 <1>   0.0800 
 34 H        5.6360    11.0080    -1.8130 H     1 <1>   0.0800 
 35 H        5.8890     7.6910    -1.2330 H     1 <1>   0.4500 
 36 H        4.5860    11.7210     0.3470 H     1 <1>   0.0800 
 37 H        6.3070    11.9520     0.1990 H     1 <1>   0.0800 
 38 H        7.6150     9.9270    -0.4330 H     1 <1>   0.0800 
 39 H        7.2290     9.5080    -2.0750 H     1 <1>   0.0800 
 40 H        8.7470     7.5810    -0.4090 H     1 <1>   0.0800 
 41 H        8.1550     7.3220    -2.0380 H     1 <1>   0.0800 
 42 H        7.7420     6.1920    -0.7680 H     1 <1>   0.0800 
@<TRIPOS>BOND
  1   1   2  1   
  2   2   3  2   
  3   2   4  1   
  4   3   5  1   
  5   4   6  2   
  6   4  22  1   
  7   5   6  1   
  8   6   7  1   
  9   7   8  1   
 10   7  23  1   
 11   7  24  1   
 12   8   9  1   
 13   8  25  1   
 14   8  26  1   
 15   9  10  2   
 16   9  11  am  
 17  11  12  1   
 18  11  13  1   
 19  12  14  1   
 20  12  15  1   
 21  12  27  1   
 22  13  16  1   
 23  13  28  1   
 24  13  29  1   
 25  14  17  1   
 26  14  30  1   
 27  14  31  1   
 28  15  18  1   
 29  15  32  1   
 30  15  33  1   
 31  16  19  1   
 32  16  20  1   
 33  16  34  1   
 34  17  19  1   
 35  18  20  1   
 36  18  21  1   
 37  18  35  1   
 38  19  36  1   
 39  19  37  1   
 40  20  38  1   
 41  20  39  1   
 42  21  40  1   
 43  21  41  1   
 44  21  42  1   
@<TRIPOS>SUBSTRUCTURE
  1 ****   8 GROUP 4 **** **** 0

# MOE 2024.06 (io_trps.svl 2023.06)
