@<TRIPOS>MOLECULE
NONAME
47 49 1 0 0 
SMALL
USER_CHARGES


@<TRIPOS>ATOM
  1 CL      -0.1080     0.1970    -0.1940 Cl    1 <1>  -0.1770 
  2 C        0.3100     1.8620     0.1080 C.ar  1 <1>   0.1770 
  3 C        0.6270     2.7030    -0.9450 C.ar  1 <1>   0.1600 
  4 C        0.3260     2.3420     1.3960 C.ar  1 <1>  -0.1500 
  5 N        0.9570     3.9790    -0.8070 N.ar  1 <1>  -0.6200 
  6 C        0.6640     3.6700     1.5490 C.ar  1 <1>  -0.1500 
  7 C        0.9700     4.4750     0.4460 C.ar  1 <1>   0.3960 
  8 C        1.3200     5.8830     0.6610 C.2   1 <1>   0.5440 
  9 O        1.8040     6.2700     1.7140 O.2   1 <1>  -0.5700 
 10 N        1.1930     6.8460    -0.3180 N.am  1 <1>  -0.6600 
 11 C        2.2280     6.9490    -1.3910 C.3   1 <1>   0.1400 
 12 C        0.3570     8.0590    -0.1050 C.3   1 <1>   0.1400 
 13 C        3.5680     7.4710    -0.8280 C.3   1 <1>   0.3430 
 14 C        1.0870     9.1410     0.7090 C.3   1 <1>  -0.1600 
 15 N        3.3750     8.2820     0.4200 N.4   1 <1>  -0.9590 
 16 C        2.5070     9.4740     0.2420 C.3   1 <1>   0.3430 
 17 C        4.6550     8.5760     1.1260 C.3   1 <1>   0.5230 
 18 C        5.5850     9.4880     0.3380 C.2   1 <1>  -0.0400 
 19 O        6.7680     9.7100     0.8730 O.3   1 <1>  -0.2800 
 20 C        5.4780    10.1570    -0.8360 C.2   1 <1>  -0.1500 
 21 C        7.4430    10.5100     0.0740 C.2   1 <1>  -0.0400 
 22 C        6.6960    10.8250    -1.0060 C.2   1 <1>  -0.1500 
 23 C        8.8490    10.9100     0.4870 C.3   1 <1>   0.0200 
 24 C        9.5200    11.8410    -0.5290 C.3   1 <1>  -0.2400 
 25 H        0.6050     2.2960    -1.9410 H     1 <1>   0.1500 
 26 H        0.0850     1.7050     2.2300 H     1 <1>   0.1500 
 27 H        0.6910     4.1000     2.5360 H     1 <1>   0.1500 
 28 H        1.8800     7.6090    -2.1650 H     1 <1>   0.0800 
 29 H        2.3830     5.9840    -1.8440 H     1 <1>   0.0800 
 30 H       -0.5440     7.7750     0.4140 H     1 <1>   0.0800 
 31 H        0.0620     8.4550    -1.0630 H     1 <1>   0.0800 
 32 H        4.0800     8.0440    -1.5820 H     1 <1>   0.0800 
 33 H        4.1850     6.6180    -0.5970 H     1 <1>   0.0800 
 34 H        1.1100     8.8530     1.7450 H     1 <1>   0.0800 
 35 H        0.4990    10.0390     0.6580 H     1 <1>   0.0800 
 36 H        2.8240     7.6480     1.0410 H     1 <1>   0.4500 
 37 H        2.8850    10.2920     0.8350 H     1 <1>   0.0800 
 38 H        2.4980     9.7820    -0.7900 H     1 <1>   0.0800 
 39 H        5.1730     7.6530     1.3250 H     1 <1>   0.0800 
 40 H        4.4440     9.0400     2.0750 H     1 <1>   0.0800 
 41 H        4.6680    10.2140    -1.5380 H     1 <1>   0.1500 
 42 H        6.9540    11.4550    -1.8400 H     1 <1>   0.1500 
 43 H        9.4420    10.0200     0.6000 H     1 <1>   0.0800 
 44 H        8.8030    11.4000     1.4430 H     1 <1>   0.0800 
 45 H        9.5970    11.3570    -1.4860 H     1 <1>   0.0800 
 46 H       10.5100    12.0950    -0.1940 H     1 <1>   0.0800 
 47 H        8.9520    12.7470    -0.6370 H     1 <1>   0.0800 
@<TRIPOS>BOND
  1   1   2  1   
  2   2   3  ar  
  3   2   4  ar  
  4   3   5  ar  
  5   3  25  1   
  6   4   6  ar  
  7   4  26  1   
  8   5   7  ar  
  9   6   7  ar  
 10   6  27  1   
 11   7   8  1   
 12   8   9  2   
 13   8  10  am  
 14  10  11  1   
 15  10  12  1   
 16  11  13  1   
 17  11  28  1   
 18  11  29  1   
 19  12  14  1   
 20  12  30  1   
 21  12  31  1   
 22  13  15  1   
 23  13  32  1   
 24  13  33  1   
 25  14  16  1   
 26  14  34  1   
 27  14  35  1   
 28  15  16  1   
 29  15  17  1   
 30  15  36  1   
 31  16  37  1   
 32  16  38  1   
 33  17  18  1   
 34  17  39  1   
 35  17  40  1   
 36  18  19  1   
 37  18  20  2   
 38  19  21  1   
 39  20  22  1   
 40  20  41  1   
 41  21  22  2   
 42  21  23  1   
 43  22  42  1   
 44  23  24  1   
 45  23  43  1   
 46  23  44  1   
 47  24  45  1   
 48  24  46  1   
 49  24  47  1   
@<TRIPOS>SUBSTRUCTURE
  1 ****  13 GROUP 4 **** **** 0

# MOE 2024.06 (io_trps.svl 2023.06)
