@<TRIPOS>MOLECULE
NONAME
49 52 1 0 0 
SMALL
USER_CHARGES


@<TRIPOS>ATOM
  1 O        0.1420     0.3700    -0.0960 O.2   1 <1>  -0.5700 
  2 C        0.0980     1.5790    -0.0490 C.2   1 <1>   0.5690 
  3 N       -1.0920     2.2760     0.0290 N.am  1 <1>  -0.4770 
  4 C        1.4290     2.3460    -0.0650 C.3   1 <1>   0.2700 
  5 C       -2.3580     1.6680     0.0970 C.ar  1 <1>   0.1170 
  6 C       -1.0430     3.7610     0.1300 C.3   1 <1>   0.1400 
  7 N        1.3690     3.7830    -0.5470 N.pl3 1 <1>  -0.8380 
  8 C       -3.3370     1.9520    -0.8490 C.ar  1 <1>  -0.1500 
  9 C       -2.6630     0.7760     1.1200 C.ar  1 <1>  -0.1500 
 10 C        0.0150     4.3510    -0.8140 C.3   1 <1>   0.2090 
 11 C        2.5220     4.5390    -0.5790 C.ar  1 <1>   0.4100 
 12 C       -4.5920     1.3750    -0.7670 C.ar  1 <1>  -0.1500 
 13 C       -3.9160     0.1960     1.2050 C.ar  1 <1>  -0.1500 
 14 N        3.5030     4.1580     0.2310 N.ar  1 <1>  -0.6200 
 15 C        2.6480     5.6390    -1.4280 C.ar  1 <1>  -0.1500 
 16 C       -4.8840     0.4970     0.2630 C.ar  1 <1>  -0.1500 
 17 C        4.6110     4.8770     0.2010 C.ar  1 <1>   0.1600 
 18 C        3.8040     6.3810    -1.4400 C.ar  1 <1>  -0.1500 
 19 C        4.8350     6.0020    -0.5870 C.ar  1 <1>   0.0860 
 20 C        6.0930     6.7080    -0.5100 C.2   1 <1>   0.5440 
 21 O        7.1240     6.0700    -0.4060 O.2   1 <1>  -0.5700 
 22 N        6.1670     8.0850    -0.5390 N.am  1 <1>  -0.6600 
 23 C        7.4590     8.7990    -0.7810 C.3   1 <1>   0.1400 
 24 C        5.0920     8.9850    -0.0230 C.3   1 <1>   0.1400 
 25 C        7.8420     9.6540     0.4360 C.3   1 <1>   0.1200 
 26 C        5.6150     9.8420     1.1450 C.3   1 <1>   0.1200 
 27 O        6.7900    10.5110     0.7840 O.3   1 <1>  -0.5600 
 28 H        2.1190     1.8050    -0.6880 H     1 <1>   0.0800 
 29 H        1.8180     2.3300     0.9370 H     1 <1>   0.0800 
 30 H       -0.8080     4.0350     1.1430 H     1 <1>   0.0800 
 31 H       -2.0050     4.1760    -0.1110 H     1 <1>   0.0800 
 32 H       -3.1120     2.6220    -1.6580 H     1 <1>   0.1500 
 33 H       -1.9080     0.5350     1.8460 H     1 <1>   0.1500 
 34 H        0.0370     5.4190    -0.6810 H     1 <1>   0.0800 
 35 H       -0.2620     4.1420    -1.8330 H     1 <1>   0.0800 
 36 H       -5.3420     1.6030    -1.5050 H     1 <1>   0.1500 
 37 H       -4.1360    -0.4920     2.0030 H     1 <1>   0.1500 
 38 H        1.8400     5.8930    -2.0860 H     1 <1>   0.1500 
 39 H       -5.8580     0.0460     0.3280 H     1 <1>   0.1500 
 40 H        5.4120     4.5590     0.8480 H     1 <1>   0.1500 
 41 H        3.9240     7.2260    -2.0960 H     1 <1>   0.1500 
 42 H        7.3520     9.4370    -1.6410 H     1 <1>   0.0800 
 43 H        8.2490     8.0990    -0.9890 H     1 <1>   0.0800 
 44 H        4.2490     8.4140     0.3200 H     1 <1>   0.0800 
 45 H        4.7620     9.6330    -0.8150 H     1 <1>   0.0800 
 46 H        8.7000    10.2600     0.2090 H     1 <1>   0.0800 
 47 H        8.0730     9.0260     1.2790 H     1 <1>   0.0800 
 48 H        5.8190     9.2270     2.0040 H     1 <1>   0.0800 
 49 H        4.8860    10.5840     1.4170 H     1 <1>   0.0800 
@<TRIPOS>BOND
  1   1   2  2   
  2   2   3  am  
  3   2   4  1   
  4   3   5  1   
  5   3   6  1   
  6   4   7  1   
  7   4  28  1   
  8   4  29  1   
  9   5   8  ar  
 10   5   9  ar  
 11   6  10  1   
 12   6  30  1   
 13   6  31  1   
 14   7  10  1   
 15   7  11  1   
 16   8  12  ar  
 17   8  32  1   
 18   9  13  ar  
 19   9  33  1   
 20  10  34  1   
 21  10  35  1   
 22  11  14  ar  
 23  11  15  ar  
 24  12  16  ar  
 25  12  36  1   
 26  13  16  ar  
 27  13  37  1   
 28  14  17  ar  
 29  15  18  ar  
 30  15  38  1   
 31  16  39  1   
 32  17  19  ar  
 33  17  40  1   
 34  18  19  ar  
 35  18  41  1   
 36  19  20  1   
 37  20  21  2   
 38  20  22  am  
 39  22  23  1   
 40  22  24  1   
 41  23  25  1   
 42  23  42  1   
 43  23  43  1   
 44  24  26  1   
 45  24  44  1   
 46  24  45  1   
 47  25  27  1   
 48  25  46  1   
 49  25  47  1   
 50  26  27  1   
 51  26  48  1   
 52  26  49  1   
@<TRIPOS>SUBSTRUCTURE
  1 ****  11 GROUP 4 **** **** 0

# MOE 2024.06 (io_trps.svl 2023.06)
