@<TRIPOS>MOLECULE
NONAME
45 48 1 0 0 
SMALL
USER_CHARGES


@<TRIPOS>ATOM
  1 O       -2.0050     0.4410     2.7410 O.2   1 <1>  -0.5700 
  2 C       -2.3540     1.1880     1.8470 C.2   1 <1>   0.5440 
  3 N       -3.5540     1.8520     1.9670 N.am  1 <1>  -0.6600 
  4 C       -1.5130     1.3400     0.6810 C.ar  1 <1>   0.0860 
  5 C       -4.6570     1.2700     2.7810 C.3   1 <1>   0.1400 
  6 C       -3.8510     3.1580     1.3190 C.3   1 <1>   0.1400 
  7 C       -1.9930     1.0550    -0.5870 C.ar  1 <1>  -0.1500 
  8 C       -0.1710     1.7560     0.8120 C.ar  1 <1>  -0.1500 
  9 C       -5.4880     0.2890     1.9380 C.3   1 <1>   0.1400 
 10 C       -4.8590     3.0480     0.1650 C.3   1 <1>  -0.1600 
 11 C       -1.1640     1.1880    -1.6970 C.ar  1 <1>   0.2270 
 12 C        0.6560     1.8950    -0.2790 C.ar  1 <1>  -0.1500 
 13 N       -5.8660     0.8170     0.5830 N.am  1 <1>  -0.6600 
 14 C       -6.1480     2.2760     0.4800 C.3   1 <1>   0.1400 
 15 N       -1.4030     0.9630    -3.0130 N.2   1 <1>  -0.2270 
 16 C        0.1330     1.6020    -1.5420 C.ar  1 <1>  -0.1520 
 17 C       -5.8410     0.0220    -0.5550 C.2   1 <1>   0.7160 
 18 N       -0.3320     1.2160    -3.6670 N.2   1 <1>  -0.4180 
 19 N        0.6140     1.6070    -2.8010 N.pl3 1 <1>   0.3000 
 20 O       -6.0260     0.5680    -1.6330 O.2   1 <1>  -0.5700 
 21 C       -5.5610    -1.4130    -0.5220 C.2   1 <1>   0.1410 
 22 N       -6.1280    -2.2830     0.3740 N.2   1 <1>  -0.5650 
 23 C       -4.7240    -2.1250    -1.3410 C.2   1 <1>  -0.3320 
 24 C       -5.6350    -3.4360     0.0800 C.2   1 <1>   0.0360 
 25 N       -4.7730    -3.4050    -0.9550 N.pl3 1 <1>   0.0330 
 26 C       -3.8530    -1.6580    -2.4990 C.3   1 <1>  -0.0600 
 27 H       -5.2860     2.0520     3.1650 H     1 <1>   0.0800 
 28 H       -4.2520     0.7440     3.6290 H     1 <1>   0.0800 
 29 H       -2.9390     3.5950     0.9510 H     1 <1>   0.0800 
 30 H       -4.2430     3.8250     2.0680 H     1 <1>   0.0800 
 31 H       -3.0040     0.7210    -0.7290 H     1 <1>   0.1500 
 32 H        0.1960     1.9600     1.8040 H     1 <1>   0.1500 
 33 H       -6.3820     0.0220     2.4730 H     1 <1>   0.0800 
 34 H       -4.8970    -0.6030     1.8300 H     1 <1>   0.0800 
 35 H       -4.3860     2.6110    -0.6950 H     1 <1>   0.0800 
 36 H       -5.1340     4.0470    -0.1180 H     1 <1>   0.0800 
 37 H        1.6780     2.2130    -0.1690 H     1 <1>   0.1500 
 38 H       -6.8580     2.4400    -0.3130 H     1 <1>   0.0800 
 39 H       -6.5980     2.6350     1.3890 H     1 <1>   0.0800 
 40 H        1.5630     1.8620    -3.0910 H     1 <1>   0.2700 
 41 H       -5.8730    -4.3500     0.5960 H     1 <1>   0.1500 
 42 H       -4.2680    -4.2000    -1.3570 H     1 <1>   0.2700 
 43 H       -3.9760    -0.6040    -2.6760 H     1 <1>   0.0800 
 44 H       -4.1220    -2.1790    -3.4000 H     1 <1>   0.0800 
 45 H       -2.8150    -1.8420    -2.2860 H     1 <1>   0.0800 
@<TRIPOS>BOND
  1   1   2  2   
  2   2   3  am  
  3   2   4  1   
  4   3   5  1   
  5   3   6  1   
  6   4   7  ar  
  7   4   8  ar  
  8   5   9  1   
  9   5  27  1   
 10   5  28  1   
 11   6  10  1   
 12   6  29  1   
 13   6  30  1   
 14   7  11  ar  
 15   7  31  1   
 16   8  12  ar  
 17   8  32  1   
 18   9  13  1   
 19   9  33  1   
 20   9  34  1   
 21  10  14  1   
 22  10  35  1   
 23  10  36  1   
 24  11  15  1   
 25  11  16  ar  
 26  12  16  ar  
 27  12  37  1   
 28  13  14  1   
 29  13  17  am  
 30  14  38  1   
 31  14  39  1   
 32  15  18  2   
 33  16  19  1   
 34  17  20  2   
 35  17  21  1   
 36  18  19  1   
 37  19  40  1   
 38  21  22  1   
 39  21  23  2   
 40  22  24  2   
 41  23  25  1   
 42  23  26  1   
 43  24  25  1   
 44  24  41  1   
 45  25  42  1   
 46  26  43  1   
 47  26  44  1   
 48  26  45  1   
@<TRIPOS>SUBSTRUCTURE
  1 ****   7 GROUP 4 **** **** 0

# MOE 2024.06 (io_trps.svl 2023.06)
