@<TRIPOS>MOLECULE
NONAME
47 49 1 0 0 
SMALL
USER_CHARGES


@<TRIPOS>ATOM
  1 O       -0.1820    -0.3490     1.0790 O.3   1 <1>  -0.5600 
  2 C        0.5530     0.8320     1.0940 C.3   1 <1>   0.1200 
  3 C       -1.5290    -0.0950     0.8090 C.3   1 <1>   0.1200 
  4 C       -0.1860     1.7690     0.1510 C.3   1 <1>   0.2890 
  5 C       -1.6330     1.3720     0.3790 C.3   1 <1>  -0.0800 
  6 N        0.0370     3.2020     0.4710 N.pl3 1 <1>  -0.8690 
  7 C       -2.5230     1.5990    -0.8530 C.3   1 <1>  -0.0170 
  8 C        0.8240     4.1150    -0.1160 C.ar  1 <1>   0.4100 
  9 C       -3.9480     1.1340    -0.5950 C.ar  1 <1>  -0.1430 
 10 N        0.7580     5.3130     0.4150 N.ar  1 <1>  -0.6200 
 11 C        1.6640     3.8240    -1.2060 C.ar  1 <1>  -0.1500 
 12 C       -4.4340    -0.0560    -1.1000 C.ar  1 <1>  -0.1500 
 13 C       -4.8290     1.8790     0.1620 C.ar  1 <1>  -0.1500 
 14 C        1.5100     6.2730    -0.1110 C.ar  1 <1>   0.7710 
 15 C        2.4280     4.8150    -1.7260 C.ar  1 <1>   0.2180 
 16 C       -5.7390    -0.4330    -0.8260 C.ar  1 <1>   0.1600 
 17 C       -6.1150     1.4110     0.3760 C.ar  1 <1>   0.1600 
 18 N        2.3280     6.0370    -1.1520 N.ar  1 <1>  -0.1790 
 19 N        1.4600     7.5300     0.4140 N.pl3 1 <1>  -0.8380 
 20 C        3.3770     4.6250    -2.8970 C.3   1 <1>  -0.0970 
 21 N       -6.5900     0.2710    -0.0980 N.ar  1 <1>  -0.6200 
 22 C        0.6920     7.8130     1.6740 C.3   1 <1>   0.1290 
 23 C        2.0560     8.7760    -0.1660 C.3   1 <1>   0.1290 
 24 H        0.5490     1.2100     2.1020 H     1 <1>   0.0800 
 25 H        1.5560     0.6250     0.7690 H     1 <1>   0.0800 
 26 H       -1.8360    -0.7700     0.0290 H     1 <1>   0.0800 
 27 H       -2.1030    -0.2890     1.6990 H     1 <1>   0.0800 
 28 H        0.1050     1.5450    -0.8600 H     1 <1>   0.0800 
 29 H       -2.0330     1.9210     1.2130 H     1 <1>   0.0800 
 30 H       -0.4850     3.5330     1.2890 H     1 <1>   0.4000 
 31 H       -2.1200     1.0730    -1.7010 H     1 <1>   0.0800 
 32 H       -2.5350     2.6480    -1.0970 H     1 <1>   0.0800 
 33 H        1.6890     2.8270    -1.6010 H     1 <1>   0.1500 
 34 H       -3.8160    -0.6950    -1.7030 H     1 <1>   0.1500 
 35 H       -4.5300     2.8200     0.5870 H     1 <1>   0.1500 
 36 H       -6.1010    -1.3640    -1.2280 H     1 <1>   0.1500 
 37 H       -6.7880     2.0060     0.9680 H     1 <1>   0.1500 
 38 H        2.8790     6.8290    -1.4560 H     1 <1>   0.4570 
 39 H        3.3490     3.6070    -3.2440 H     1 <1>   0.0800 
 40 H        4.3880     4.8500    -2.6040 H     1 <1>   0.0800 
 41 H        3.0980     5.2650    -3.7160 H     1 <1>   0.0800 
 42 H        1.1980     8.5610     2.2600 H     1 <1>   0.0800 
 43 H        0.5960     6.9300     2.2840 H     1 <1>   0.0800 
 44 H       -0.2930     8.1710     1.4280 H     1 <1>   0.0800 
 45 H        1.3530     9.5890    -0.0810 H     1 <1>   0.0800 
 46 H        2.2940     8.6620    -1.2080 H     1 <1>   0.0800 
 47 H        2.9480     9.0430     0.3770 H     1 <1>   0.0800 
@<TRIPOS>BOND
  1   1   2  1   
  2   1   3  1   
  3   2   4  1   
  4   2  24  1   
  5   2  25  1   
  6   3   5  1   
  7   3  26  1   
  8   3  27  1   
  9   4   5  1   
 10   4   6  1   
 11   4  28  1   
 12   5   7  1   
 13   5  29  1   
 14   6   8  1   
 15   6  30  1   
 16   7   9  1   
 17   7  31  1   
 18   7  32  1   
 19   8  10  ar  
 20   8  11  ar  
 21   9  12  ar  
 22   9  13  ar  
 23  10  14  ar  
 24  11  15  ar  
 25  11  33  1   
 26  12  16  ar  
 27  12  34  1   
 28  13  17  ar  
 29  13  35  1   
 30  14  18  ar  
 31  14  19  1   
 32  15  18  ar  
 33  15  20  1   
 34  16  21  ar  
 35  16  36  1   
 36  17  21  ar  
 37  17  37  1   
 38  18  38  1   
 39  19  22  1   
 40  19  23  1   
 41  20  39  1   
 42  20  40  1   
 43  20  41  1   
 44  22  42  1   
 45  22  43  1   
 46  22  44  1   
 47  23  45  1   
 48  23  46  1   
 49  23  47  1   
@<TRIPOS>SUBSTRUCTURE
  1 ****   6 GROUP 4 **** **** 0

# MOE 2024.06 (io_trps.svl 2023.06)
