@<TRIPOS>MOLECULE
NONAME
52 55 1 0 0 
SMALL
USER_CHARGES


@<TRIPOS>ATOM
  1 O       -1.6670     0.5960     2.0020 O.2   1 <1>  -0.5700 
  2 C       -1.9010     0.5780     0.8050 C.2   1 <1>   0.7160 
  3 N       -2.1830    -0.6240     0.1920 N.am  1 <1>  -0.6600 
  4 C       -1.8670     1.8010     0.0730 C.2   1 <1>  -0.0860 
  5 C       -2.1860    -1.9180     0.9360 C.3   1 <1>   0.1400 
  6 C       -2.7180    -0.7290    -1.1920 C.3   1 <1>   0.1400 
  7 C       -2.9770     2.5850    -0.2510 C.2   1 <1>   0.3720 
  8 C       -0.8300     2.4550    -0.5110 C.2   1 <1>   0.0870 
  9 C       -3.6220    -2.4480     1.0390 C.3   1 <1>  -0.0190 
 10 C       -4.1640    -1.2330    -1.1290 C.3   1 <1>  -0.1600 
 11 N       -2.6320     3.5960    -0.9700 N.2   1 <1>  -0.4100 
 12 N       -4.2940     2.3070     0.1390 N.pl3 1 <1>  -0.8210 
 13 O       -1.3360     3.5020    -1.1120 O.3   1 <1>  -0.0190 
 14 C        0.5840     2.1820    -0.5800 C.ar  1 <1>   0.0530 
 15 C       -3.6240    -3.7880     1.7600 C.2   1 <1>   0.5690 
 16 C       -4.2700    -2.5590    -0.3570 C.3   1 <1>  -0.1600 
 17 C       -4.5580     2.4550     1.6060 C.3   1 <1>   0.2090 
 18 C       -5.3840     2.9370    -0.6750 C.3   1 <1>   0.2090 
 19 C        1.3380     2.6010    -1.6780 C.ar  1 <1>  -0.1500 
 20 C        1.2560     1.4950     0.4320 C.ar  1 <1>  -0.1500 
 21 O       -2.9040    -4.6780     1.3870 O.2   1 <1>  -0.5700 
 22 N       -4.4370    -3.9840     2.8140 N.am  1 <1>  -0.8000 
 23 C       -4.9420     3.9000     1.9730 C.3   1 <1>   0.1200 
 24 C       -5.7350     4.3530    -0.1760 C.3   1 <1>   0.1200 
 25 C        2.6920     2.3390    -1.7670 C.ar  1 <1>  -0.1500 
 26 C        2.6090     1.2280     0.3480 C.ar  1 <1>  -0.1500 
 27 O       -6.0180     4.3420     1.1950 O.3   1 <1>  -0.5600 
 28 C        3.3320     1.6490    -0.7540 C.ar  1 <1>  -0.1500 
 29 H       -1.7700    -1.7960     1.9220 H     1 <1>   0.0800 
 30 H       -1.5710    -2.6270     0.4070 H     1 <1>   0.0800 
 31 H       -2.1120    -1.4230    -1.7500 H     1 <1>   0.0800 
 32 H       -2.6880     0.2190    -1.7000 H     1 <1>   0.0800 
 33 H       -4.1840    -1.7460     1.6280 H     1 <1>   0.0800 
 34 H       -4.5370    -1.3670    -2.1290 H     1 <1>   0.0800 
 35 H       -4.7700    -0.4810    -0.6530 H     1 <1>   0.0800 
 36 H       -5.3040    -2.8400    -0.2570 H     1 <1>   0.0800 
 37 H       -3.7710    -3.3330    -0.9160 H     1 <1>   0.0800 
 38 H       -3.6890     2.1730     2.1730 H     1 <1>   0.0800 
 39 H       -5.3590     1.7940     1.8880 H     1 <1>   0.0800 
 40 H       -6.2630     2.3200    -0.6200 H     1 <1>   0.0800 
 41 H       -5.0860     2.9860    -1.7090 H     1 <1>   0.0800 
 42 H        0.8540     3.1380    -2.4750 H     1 <1>   0.1500 
 43 H        0.7190     1.1680     1.3050 H     1 <1>   0.1500 
 44 H       -4.4280    -4.8910     3.2840 H     1 <1>   0.3700 
 45 H       -5.0720    -3.2810     3.1900 H     1 <1>   0.3700 
 46 H       -4.1070     4.5610     1.8170 H     1 <1>   0.0800 
 47 H       -5.2380     3.9540     3.0050 H     1 <1>   0.0800 
 48 H       -6.6060     4.7200    -0.6890 H     1 <1>   0.0800 
 49 H       -4.9180     5.0300    -0.3560 H     1 <1>   0.0800 
 50 H        3.2510     2.6710    -2.6260 H     1 <1>   0.1500 
 51 H        3.1020     0.6940     1.1420 H     1 <1>   0.1500 
 52 H        4.3860     1.4420    -0.8200 H     1 <1>   0.1500 
@<TRIPOS>BOND
  1   1   2  2   
  2   2   3  am  
  3   2   4  1   
  4   3   5  1   
  5   3   6  1   
  6   4   7  1   
  7   4   8  2   
  8   5   9  1   
  9   5  29  1   
 10   5  30  1   
 11   6  10  1   
 12   6  31  1   
 13   6  32  1   
 14   7  11  2   
 15   7  12  1   
 16   8  13  1   
 17   8  14  1   
 18   9  15  1   
 19   9  16  1   
 20   9  33  1   
 21  10  16  1   
 22  10  34  1   
 23  10  35  1   
 24  11  13  1   
 25  12  17  1   
 26  12  18  1   
 27  14  19  ar  
 28  14  20  ar  
 29  15  21  2   
 30  15  22  am  
 31  16  36  1   
 32  16  37  1   
 33  17  23  1   
 34  17  38  1   
 35  17  39  1   
 36  18  24  1   
 37  18  40  1   
 38  18  41  1   
 39  19  25  ar  
 40  19  42  1   
 41  20  26  ar  
 42  20  43  1   
 43  22  44  1   
 44  22  45  1   
 45  23  27  1   
 46  23  46  1   
 47  23  47  1   
 48  24  27  1   
 49  24  48  1   
 50  24  49  1   
 51  25  28  ar  
 52  25  50  1   
 53  26  28  ar  
 54  26  51  1   
 55  28  52  1   
@<TRIPOS>SUBSTRUCTURE
  1 ****   2 GROUP 4 **** **** 0

# MOE 2024.06 (io_trps.svl 2023.06)
