@<TRIPOS>MOLECULE
NONAME
48 50 1 0 0 
SMALL
USER_CHARGES


@<TRIPOS>ATOM
  1 S       -0.1440    -0.1050     0.3040 S.o2  1 <1>   1.3330 
  2 O       -0.9710     1.0730     0.1780 O.2   1 <1>  -0.6500 
  3 O        0.0280    -0.7220     1.6000 O.2   1 <1>  -0.6500 
  4 N       -0.7360    -1.2900    -0.7590 N.am  1 <1>  -0.8490 
  5 C        1.4620     0.2770    -0.3990 C.3   1 <1>  -0.0550 
  6 C       -0.2870    -2.6470    -0.4290 C.3   1 <1>   0.1160 
  7 C       -2.1990    -1.2610    -0.8660 C.3   1 <1>   0.1160 
  8 C        2.1950     1.4220     0.3270 C.3   1 <1>  -0.0800 
  9 C        3.4480     1.8330    -0.4290 C.3   1 <1>   0.2200 
 10 C        2.7470     0.9880     1.6940 C.3   1 <1>   0.1200 
 11 N        3.7520     3.2470    -0.1230 N.am  1 <1>  -0.7300 
 12 C        4.5030     0.9440     0.2140 C.3   1 <1>   0.1200 
 13 O        4.1310     0.8480     1.5530 O.3   1 <1>  -0.5600 
 14 C        3.8600     4.2530    -1.0390 C.2   1 <1>   0.5440 
 15 O        3.6910     3.9830    -2.2120 O.2   1 <1>  -0.5700 
 16 C        4.1860     5.6040    -0.6200 C.ar  1 <1>   0.0860 
 17 C        3.8440     6.0890     0.6450 C.ar  1 <1>  -0.1500 
 18 C        4.8630     6.4780    -1.4700 C.ar  1 <1>  -0.1500 
 19 C        4.1720     7.3720     1.0420 C.ar  1 <1>  -0.1500 
 20 C        5.1940     7.7610    -1.0770 C.ar  1 <1>  -0.1500 
 21 C        4.8540     8.2340     0.1860 C.ar  1 <1>  -0.0230 
 22 N        5.1940     9.5580     0.5840 N.pl3 1 <1>   0.5930 
 23 N        6.3170    10.2010     0.1670 N.2   1 <1>  -0.7070 
 24 C        4.4880    10.3740     1.4090 C.2   1 <1>  -0.3020 
 25 C        6.2880    11.3660     0.7320 C.2   1 <1>   0.1390 
 26 C        5.1610    11.5360     1.5260 C.2   1 <1>  -0.1500 
 27 H        2.0740    -0.6040    -0.3950 H     1 <1>   0.0800 
 28 H        1.3110     0.5660    -1.4210 H     1 <1>   0.0800 
 29 H       -0.6140    -3.3390    -1.1870 H     1 <1>   0.0800 
 30 H       -0.6870    -2.9550     0.5230 H     1 <1>   0.0800 
 31 H        0.7880    -2.6810    -0.3790 H     1 <1>   0.0800 
 32 H       -2.5370    -2.0130    -1.5580 H     1 <1>   0.0800 
 33 H       -2.5230    -0.3000    -1.2310 H     1 <1>   0.0800 
 34 H       -2.6490    -1.4350     0.0970 H     1 <1>   0.0800 
 35 H        1.5170     2.2530     0.4270 H     1 <1>   0.0800 
 36 H        3.3790     1.6770    -1.4930 H     1 <1>   0.0800 
 37 H        2.3470     0.0500     2.0360 H     1 <1>   0.0800 
 38 H        2.5690     1.7430     2.4410 H     1 <1>   0.0800 
 39 H        4.0480     3.4030     0.8420 H     1 <1>   0.3700 
 40 H        5.4940     1.3550     0.1390 H     1 <1>   0.0800 
 41 H        4.4820    -0.0450    -0.2080 H     1 <1>   0.0800 
 42 H        3.3070     5.4540     1.3260 H     1 <1>   0.1500 
 43 H        5.1350     6.1380    -2.4550 H     1 <1>   0.1500 
 44 H        3.8970     7.7030     2.0290 H     1 <1>   0.1500 
 45 H        5.7250     8.4070    -1.7580 H     1 <1>   0.1500 
 46 H        3.5570    10.0790     1.8520 H     1 <1>   0.1500 
 47 H        7.0530    12.1130     0.5940 H     1 <1>   0.1500 
 48 H        4.9130    12.4160     2.0930 H     1 <1>   0.1500 
@<TRIPOS>BOND
  1   1   2  2   
  2   1   3  2   
  3   1   4  am  
  4   1   5  1   
  5   4   6  1   
  6   4   7  1   
  7   5   8  1   
  8   5  27  1   
  9   5  28  1   
 10   6  29  1   
 11   6  30  1   
 12   6  31  1   
 13   7  32  1   
 14   7  33  1   
 15   7  34  1   
 16   8   9  1   
 17   8  10  1   
 18   8  35  1   
 19   9  11  1   
 20   9  12  1   
 21   9  36  1   
 22  10  13  1   
 23  10  37  1   
 24  10  38  1   
 25  11  14  am  
 26  11  39  1   
 27  12  13  1   
 28  12  40  1   
 29  12  41  1   
 30  14  15  2   
 31  14  16  1   
 32  16  17  ar  
 33  16  18  ar  
 34  17  19  ar  
 35  17  42  1   
 36  18  20  ar  
 37  18  43  1   
 38  19  21  ar  
 39  19  44  1   
 40  20  21  ar  
 41  20  45  1   
 42  21  22  1   
 43  22  23  1   
 44  22  24  1   
 45  23  25  2   
 46  24  26  2   
 47  24  46  1   
 48  25  26  1   
 49  25  47  1   
 50  26  48  1   
@<TRIPOS>SUBSTRUCTURE
  1 ****  11 GROUP 4 **** **** 0

# MOE 2024.06 (io_trps.svl 2023.06)
