@<TRIPOS>MOLECULE
NONAME
38 39 1 0 0 
SMALL
USER_CHARGES


@<TRIPOS>ATOM
  1 O        1.5970    -1.0110     2.5400 O.2   1 <1>  -0.5700 
  2 C        1.6340    -1.1690     1.3420 C.2   1 <1>   0.5690 
  3 N        1.7830    -0.1330     0.4560 N.am  1 <1>  -0.4940 
  4 C        1.5570    -2.5940     0.7850 C.3   1 <1>   0.2370 
  5 C        1.9900     1.2640     0.5760 C.2   1 <1>  -0.0880 
  6 N        0.8470    -2.5710    -0.5230 N.pl3 1 <1>   0.3140 
  7 C        0.9360    -3.6260     1.7550 C.3   1 <1>  -0.2400 
  8 N        1.7550     2.0900     1.6370 N.pl3 1 <1>   0.3140 
  9 C        2.4770     2.0510    -0.4130 C.2   1 <1>  -0.1810 
 10 N        1.4780    -2.1420    -1.6410 N.2   1 <1>  -0.7070 
 11 C       -0.4360    -2.8940    -0.7950 C.2   1 <1>  -0.3020 
 12 N        2.0890     3.3680     1.3470 N.2   1 <1>  -0.7070 
 13 C        1.1430     1.7930     2.9380 C.3   1 <1>   0.0160 
 14 C        2.5210     3.3320     0.1290 C.2   1 <1>   0.1080 
 15 C        2.8910     1.6340    -1.8150 C.3   1 <1>   0.0210 
 16 C        0.5880    -2.2220    -2.5840 C.2   1 <1>   0.1390 
 17 C       -0.6330    -2.6850    -2.1130 C.2   1 <1>  -0.1500 
 18 C        3.0050     4.5760    -0.5810 C.3   1 <1>  -0.0590 
 19 C        4.3520     1.1830    -1.8290 C.3   1 <1>  -0.2400 
 20 H        1.8140    -0.4590    -0.5220 H     1 <1>   0.3700 
 21 H        2.5650    -2.9030     0.5810 H     1 <1>   0.0800 
 22 H       -0.0490    -3.3180     2.0570 H     1 <1>   0.0800 
 23 H        1.5450    -3.7000     2.6390 H     1 <1>   0.0800 
 24 H        0.8900    -4.5970     1.2940 H     1 <1>   0.0800 
 25 H       -1.1330    -3.2480    -0.0570 H     1 <1>   0.1500 
 26 H        0.2860     1.1650     2.7910 H     1 <1>   0.0800 
 27 H        0.8410     2.7110     3.4050 H     1 <1>   0.0800 
 28 H        1.8650     1.2950     3.5570 H     1 <1>   0.0800 
 29 H        2.7540     2.4570    -2.4950 H     1 <1>   0.0800 
 30 H        2.2630     0.8280    -2.1520 H     1 <1>   0.0800 
 31 H        0.7820    -1.9570    -3.6100 H     1 <1>   0.1500 
 32 H       -1.5240    -2.8320    -2.6980 H     1 <1>   0.1500 
 33 H        3.9110     4.3680    -1.1160 H     1 <1>   0.0800 
 34 H        3.1970     5.3520     0.1390 H     1 <1>   0.0800 
 35 H        2.2510     4.9160    -1.2660 H     1 <1>   0.0800 
 36 H        4.9910     1.9840    -1.5020 H     1 <1>   0.0800 
 37 H        4.6400     0.8890    -2.8220 H     1 <1>   0.0800 
 38 H        4.4840     0.3460    -1.1670 H     1 <1>   0.0800 
@<TRIPOS>BOND
  1   1   2  2   
  2   2   3  am  
  3   2   4  1   
  4   3   5  1   
  5   3  20  1   
  6   4   6  1   
  7   4   7  1   
  8   4  21  1   
  9   5   8  1   
 10   5   9  2   
 11   6  10  1   
 12   6  11  1   
 13   7  22  1   
 14   7  23  1   
 15   7  24  1   
 16   8  12  1   
 17   8  13  1   
 18   9  14  1   
 19   9  15  1   
 20  10  16  2   
 21  11  17  2   
 22  11  25  1   
 23  12  14  2   
 24  13  26  1   
 25  13  27  1   
 26  13  28  1   
 27  14  18  1   
 28  15  19  1   
 29  15  29  1   
 30  15  30  1   
 31  16  17  1   
 32  16  31  1   
 33  17  32  1   
 34  18  33  1   
 35  18  34  1   
 36  18  35  1   
 37  19  36  1   
 38  19  37  1   
 39  19  38  1   
@<TRIPOS>SUBSTRUCTURE
  1 ****   3 GROUP 4 **** **** 0

# MOE 2024.06 (io_trps.svl 2023.06)
