@<TRIPOS>MOLECULE
NONAME
44 46 1 0 0 
SMALL
USER_CHARGES


@<TRIPOS>ATOM
  1 F       -2.9330    -0.4870    -1.9550 F     1 <1>  -0.1900 
  2 C       -2.3840     0.4060    -1.1780 C.ar  1 <1>   0.1900 
  3 C       -2.3070     0.1620     0.1930 C.ar  1 <1>   0.0860 
  4 C       -1.9080     1.5580    -1.7720 C.ar  1 <1>  -0.1500 
  5 C       -2.8260    -1.0420     0.7960 C.2   1 <1>   0.5440 
  6 C       -1.6950     1.1490     0.9700 C.ar  1 <1>  -0.1500 
  7 C       -1.3200     2.5190    -0.9670 C.ar  1 <1>   0.0830 
  8 O       -2.0380    -1.8500     1.2510 O.2   1 <1>  -0.5700 
  9 N       -4.1820    -1.2900     0.9120 N.am  1 <1>  -0.6600 
 10 C       -1.2120     2.3130     0.4000 C.ar  1 <1>  -0.1500 
 11 O       -0.8460     3.6520    -1.4960 O.3   1 <1>  -0.5330 
 12 C       -5.2070    -0.2340     0.6520 C.3   1 <1>   0.2200 
 13 C       -4.6410    -2.6240     1.4110 C.3   1 <1>   0.0600 
 14 C       -6.0820    -0.5390    -0.5600 C.3   1 <1>  -0.1600 
 15 C       -6.1970    -0.0370     1.7970 C.3   1 <1>  -0.1600 
 16 C       -7.3250     0.3400    -0.3680 C.3   1 <1>  -0.0800 
 17 C       -7.3990     0.6570     1.1440 C.3   1 <1>  -0.0800 
 18 C       -8.5980    -0.2910    -0.9640 C.3   1 <1>   0.1400 
 19 C       -8.7430     0.2780     1.7930 C.3   1 <1>  -0.0990 
 20 N       -9.8020     0.3950    -0.4320 N.am  1 <1>  -0.6600 
 21 C       -9.8980     0.6850     0.9020 C.2   1 <1>   0.5690 
 22 C      -10.8870     0.7020    -1.4010 C.3   1 <1>   0.0600 
 23 O      -10.8510     1.2380     1.3950 O.2   1 <1>  -0.5700 
 24 H       -1.9960     1.6920    -2.8340 H     1 <1>   0.1500 
 25 H       -1.6010     0.9880     2.0310 H     1 <1>   0.1500 
 26 H       -0.7440     3.0680     1.0080 H     1 <1>   0.1500 
 27 H       -0.9270     3.7090    -2.4650 H     1 <1>   0.4500 
 28 H       -4.7280     0.7150     0.4820 H     1 <1>   0.0800 
 29 H       -5.6160    -2.8660     1.0310 H     1 <1>   0.0800 
 30 H       -4.6720    -2.6130     2.4860 H     1 <1>   0.0800 
 31 H       -3.9560    -3.3930     1.0960 H     1 <1>   0.0800 
 32 H       -5.5750    -0.3060    -1.4790 H     1 <1>   0.0800 
 33 H       -6.3610    -1.5760    -0.5630 H     1 <1>   0.0800 
 34 H       -6.5070    -0.9830     2.2000 H     1 <1>   0.0800 
 35 H       -5.7720     0.5630     2.5820 H     1 <1>   0.0800 
 36 H       -7.1560     1.2690    -0.8850 H     1 <1>   0.0800 
 37 H       -7.2740     1.7230     1.2510 H     1 <1>   0.0800 
 38 H       -8.6580    -1.3330    -0.6980 H     1 <1>   0.0800 
 39 H       -8.5710    -0.2170    -2.0380 H     1 <1>   0.0800 
 40 H       -8.8400     0.7580     2.7500 H     1 <1>   0.0800 
 41 H       -8.8080    -0.7840     1.9400 H     1 <1>   0.0800 
 42 H      -10.5200     1.3740    -2.1570 H     1 <1>   0.0800 
 43 H      -11.7190     1.1690    -0.9010 H     1 <1>   0.0800 
 44 H      -11.2290    -0.2050    -1.8650 H     1 <1>   0.0800 
@<TRIPOS>BOND
  1   1   2  1   
  2   2   3  ar  
  3   2   4  ar  
  4   3   5  1   
  5   3   6  ar  
  6   4   7  ar  
  7   4  24  1   
  8   5   8  2   
  9   5   9  am  
 10   6  10  ar  
 11   6  25  1   
 12   7  10  ar  
 13   7  11  1   
 14   9  12  1   
 15   9  13  1   
 16  10  26  1   
 17  11  27  1   
 18  12  14  1   
 19  12  15  1   
 20  12  28  1   
 21  13  29  1   
 22  13  30  1   
 23  13  31  1   
 24  14  16  1   
 25  14  32  1   
 26  14  33  1   
 27  15  17  1   
 28  15  34  1   
 29  15  35  1   
 30  16  17  1   
 31  16  18  1   
 32  16  36  1   
 33  17  19  1   
 34  17  37  1   
 35  18  20  1   
 36  18  38  1   
 37  18  39  1   
 38  19  21  1   
 39  19  40  1   
 40  19  41  1   
 41  20  21  am  
 42  20  22  1   
 43  21  23  2   
 44  22  42  1   
 45  22  43  1   
 46  22  44  1   
@<TRIPOS>SUBSTRUCTURE
  1 ****  12 GROUP 4 **** **** 0

# MOE 2024.06 (io_trps.svl 2023.06)
