@<TRIPOS>MOLECULE
NONAME
37 38 1 0 0 
SMALL
USER_CHARGES


@<TRIPOS>ATOM
  1 F       -0.7420    -0.8380    -0.6590 F     1 <1>  -0.1900 
  2 C       -1.8340    -1.2100    -0.0500 C.ar  1 <1>   0.1900 
  3 C       -2.6870    -0.2570     0.4830 C.ar  1 <1>  -0.1440 
  4 C       -2.0820    -2.5670     0.0270 C.ar  1 <1>  -0.1500 
  5 C       -3.8370    -0.7180     1.1190 C.ar  1 <1>  -0.1500 
  6 C       -2.3440     1.2310     0.3610 C.3   1 <1>   1.1640 
  7 C       -3.2340    -3.0100     0.6580 C.ar  1 <1>  -0.1440 
  8 C       -4.1050    -2.0770     1.2050 C.ar  1 <1>  -0.1500 
  9 F       -3.2580     2.0120     0.9240 F     1 <1>  -0.3400 
 10 F       -1.1920     1.5390     0.9430 F     1 <1>  -0.3400 
 11 F       -2.2540     1.6280    -0.9020 F     1 <1>  -0.3400 
 12 C       -3.5340    -4.4960     0.7530 C.3   1 <1>   0.4870 
 13 N       -3.9710    -4.9800    -0.5830 N.4   1 <1>  -0.9590 
 14 C       -3.8600    -6.4710    -0.6580 C.3   1 <1>   0.3430 
 15 C       -5.3550    -4.4840    -0.9070 C.3   1 <1>   0.3430 
 16 C       -4.8250    -7.1510     0.3020 C.3   1 <1>  -0.1860 
 17 C       -6.4300    -5.5750    -0.8470 C.3   1 <1>  -0.1600 
 18 C       -4.9310    -8.5350    -0.2430 C.2   1 <1>   0.9060 
 19 C       -6.2170    -6.5150     0.3370 C.3   1 <1>   0.2000 
 20 O       -5.3570    -8.6610    -1.3910 O.co2 1 <1>  -0.9000 
 21 O       -4.5230    -9.4610     0.4500 O.co2 1 <1>  -0.9000 
 22 O       -6.3210    -5.7580     1.4930 O.3   1 <1>  -0.6800 
 23 H       -1.3690    -3.2510    -0.4010 H     1 <1>   0.1500 
 24 H       -4.5370    -0.0220     1.5570 H     1 <1>   0.1500 
 25 H       -5.0030    -2.4010     1.7080 H     1 <1>   0.1500 
 26 H       -4.3020    -4.6760     1.4860 H     1 <1>   0.0800 
 27 H       -2.6440    -5.0190     1.0610 H     1 <1>   0.0800 
 28 H       -3.3270    -4.5780    -1.2710 H     1 <1>   0.4500 
 29 H       -4.0980    -6.7860    -1.6630 H     1 <1>   0.0800 
 30 H       -2.8540    -6.7960    -0.4460 H     1 <1>   0.0800 
 31 H       -5.6260    -3.7090    -0.2100 H     1 <1>   0.0800 
 32 H       -5.3620    -4.0500    -1.8940 H     1 <1>   0.0800 
 33 H       -4.4020    -7.2290     1.2860 H     1 <1>   0.0800 
 34 H       -6.4070    -6.1500    -1.7570 H     1 <1>   0.0800 
 35 H       -7.4050    -5.1270    -0.7860 H     1 <1>   0.0800 
 36 H       -6.9900    -7.2690     0.3630 H     1 <1>   0.0800 
 37 H       -6.4910    -6.3610     2.2480 H     1 <1>   0.4000 
@<TRIPOS>BOND
  1   1   2  1   
  2   2   3  ar  
  3   2   4  ar  
  4   3   5  ar  
  5   3   6  1   
  6   4   7  ar  
  7   4  23  1   
  8   5   8  ar  
  9   5  24  1   
 10   6   9  1   
 11   6  10  1   
 12   6  11  1   
 13   7   8  ar  
 14   7  12  1   
 15   8  25  1   
 16  12  13  1   
 17  12  26  1   
 18  12  27  1   
 19  13  14  1   
 20  13  15  1   
 21  13  28  1   
 22  14  16  1   
 23  14  29  1   
 24  14  30  1   
 25  15  17  1   
 26  15  31  1   
 27  15  32  1   
 28  16  18  1   
 29  16  19  1   
 30  16  33  1   
 31  17  19  1   
 32  17  34  1   
 33  17  35  1   
 34  18  20  ar  
 35  18  21  ar  
 36  19  22  1   
 37  19  36  1   
 38  22  37  1   
@<TRIPOS>SUBSTRUCTURE
  1 ****   7 GROUP 4 **** **** 0

# MOE 2024.06 (io_trps.svl 2023.06)
