@<TRIPOS>MOLECULE
NONAME
39 40 1 0 0 
SMALL
USER_CHARGES


@<TRIPOS>ATOM
  1 O       -0.3770    -0.9620     0.9030 O.co2 1 <1>  -0.9000 
  2 C        0.4350    -1.7610     1.4060 C.2   1 <1>   0.9790 
  3 O        0.3590    -1.9930     2.6280 O.co2 1 <1>  -0.9000 
  4 C        1.4460    -2.3880     0.6010 C.ar  1 <1>  -0.1790 
  5 C        1.2160    -3.6230    -0.0160 C.ar  1 <1>   0.4100 
  6 C        2.6790    -1.7880     0.4150 C.ar  1 <1>  -0.1500 
  7 N        2.1110    -4.2500    -0.7680 N.ar  1 <1>  -0.6200 
  8 N        0.0260    -4.3010     0.1090 N.pl3 1 <1>  -0.8380 
  9 C        3.6170    -2.4310    -0.3640 C.ar  1 <1>  -0.1440 
 10 C        3.2760    -3.6550    -0.9310 C.ar  1 <1>   0.1670 
 11 C       -0.3180    -4.8410     1.4550 C.3   1 <1>   0.2090 
 12 C       -1.1510    -3.7520    -0.6060 C.3   1 <1>   0.2090 
 13 C        4.9780    -1.7800    -0.5670 C.3   1 <1>  -0.0960 
 14 C        4.2600    -4.4150    -1.8010 C.3   1 <1>  -0.0970 
 15 C       -1.2550    -6.0400     1.2650 C.3   1 <1>   0.2000 
 16 C       -2.1820    -4.8700    -0.8070 C.3   1 <1>  -0.1600 
 17 O       -0.5760    -6.9600     0.4870 O.3   1 <1>  -0.6800 
 18 C       -2.5320    -5.5960     0.5170 C.3   1 <1>  -0.0800 
 19 C       -3.4670    -6.7930     0.2880 C.3   1 <1>   0.1200 
 20 O       -4.6790    -6.3520    -0.2240 O.3   1 <1>  -0.6800 
 21 H        2.8750    -0.8380     0.8810 H     1 <1>   0.1500 
 22 H        0.5760    -5.1390     1.9760 H     1 <1>   0.0800 
 23 H       -0.8130    -4.0860     2.0410 H     1 <1>   0.0800 
 24 H       -1.5850    -2.9540    -0.0270 H     1 <1>   0.0800 
 25 H       -0.8410    -3.3490    -1.5550 H     1 <1>   0.0800 
 26 H        5.0850    -0.9180     0.0670 H     1 <1>   0.0800 
 27 H        5.0840    -1.4650    -1.5890 H     1 <1>   0.0800 
 28 H        5.7620    -2.4740    -0.3250 H     1 <1>   0.0800 
 29 H        4.7360    -3.7540    -2.4990 H     1 <1>   0.0800 
 30 H        3.7480    -5.1790    -2.3570 H     1 <1>   0.0800 
 31 H        5.0020    -4.8800    -1.1790 H     1 <1>   0.0800 
 32 H       -1.4910    -6.4980     2.2090 H     1 <1>   0.0800 
 33 H       -3.0690    -4.4450    -1.2400 H     1 <1>   0.0800 
 34 H       -1.7820    -5.5730    -1.5150 H     1 <1>   0.0800 
 35 H       -0.0230    -6.4050    -0.1200 H     1 <1>   0.4000 
 36 H       -3.0350    -4.8960     1.1610 H     1 <1>   0.0800 
 37 H       -3.6620    -7.3070     1.2130 H     1 <1>   0.0800 
 38 H       -3.0370    -7.4860    -0.4150 H     1 <1>   0.0800 
 39 H       -5.0400    -5.6350     0.3320 H     1 <1>   0.4000 
@<TRIPOS>BOND
  1   1   2  ar  
  2   2   3  ar  
  3   2   4  1   
  4   4   5  ar  
  5   4   6  ar  
  6   5   7  ar  
  7   5   8  1   
  8   6   9  ar  
  9   6  21  1   
 10   7  10  ar  
 11   8  11  1   
 12   8  12  1   
 13   9  10  ar  
 14   9  13  1   
 15  10  14  1   
 16  11  15  1   
 17  11  22  1   
 18  11  23  1   
 19  12  16  1   
 20  12  24  1   
 21  12  25  1   
 22  13  26  1   
 23  13  27  1   
 24  13  28  1   
 25  14  29  1   
 26  14  30  1   
 27  14  31  1   
 28  15  17  1   
 29  15  18  1   
 30  15  32  1   
 31  16  18  1   
 32  16  33  1   
 33  16  34  1   
 34  17  35  1   
 35  18  19  1   
 36  18  36  1   
 37  19  20  1   
 38  19  37  1   
 39  19  38  1   
 40  20  39  1   
@<TRIPOS>SUBSTRUCTURE
  1 ****   8 GROUP 4 **** **** 0

# MOE 2024.06 (io_trps.svl 2023.06)
