@<TRIPOS>MOLECULE
NONAME
55 56 1 0 0 
SMALL
USER_CHARGES


@<TRIPOS>ATOM
  1 O       -0.6980     0.5770     2.1220 O.2   1 <1>  -0.5700 
  2 C       -1.3070     0.8990     1.1280 C.2   1 <1>   0.5690 
  3 N       -2.0340    -0.0280     0.4130 N.am  1 <1>  -0.6600 
  4 C       -1.1960     2.3840     0.7460 C.3   1 <1>  -0.0190 
  5 C       -2.9150     0.2630    -0.7580 C.3   1 <1>   0.2840 
  6 C       -2.0370    -1.4680     0.8300 C.3   1 <1>   0.1400 
  7 C       -2.5150     3.1730     0.9090 C.3   1 <1>  -0.1600 
  8 C       -0.4930     2.6220    -0.6150 C.3   1 <1>  -0.1600 
  9 C       -4.3900     0.0570    -0.4260 C.ar  1 <1>  -0.1440 
 10 C       -1.1620    -2.3440    -0.0890 C.3   1 <1>  -0.0800 
 11 C       -2.3250     4.6910     0.7050 C.3   1 <1>   0.2000 
 12 C       -0.8890     3.9540    -1.2790 C.3   1 <1>  -0.1600 
 13 C       -5.2340    -0.4910    -1.3810 C.ar  1 <1>  -0.1500 
 14 C       -4.9160     0.4090     0.8090 C.ar  1 <1>  -0.1500 
 15 C       -1.2100    -3.8010     0.3860 C.3   1 <1>  -0.2400 
 16 C        0.2980    -1.8680    -0.1300 C.3   1 <1>  -0.2400 
 17 O       -3.5090     5.2070     0.1440 O.3   1 <1>  -0.5600 
 18 C       -1.1310     5.0370    -0.2260 C.3   1 <1>   0.2000 
 19 C       -6.5770    -0.6830    -1.1070 C.ar  1 <1>  -0.1500 
 20 C       -6.2590     0.2180     1.0830 C.ar  1 <1>  -0.1500 
 21 C       -4.5640     5.3880     1.0380 C.3   1 <1>   0.0400 
 22 O       -1.3970     6.2190    -0.8850 O.3   1 <1>  -0.6800 
 23 C       -7.0980    -0.3280     0.1260 C.ar  1 <1>  -0.1440 
 24 C       -8.5700    -0.5400     0.4280 C.3   1 <1>  -0.0970 
 25 H       -0.5350     2.8100     1.4810 H     1 <1>   0.0800 
 26 H       -2.7800     1.2640    -1.1120 H     1 <1>   0.0800 
 27 H       -2.6370    -0.3880    -1.5670 H     1 <1>   0.0800 
 28 H       -1.6800    -1.5590     1.8420 H     1 <1>   0.0800 
 29 H       -3.0470    -1.8380     0.8240 H     1 <1>   0.0800 
 30 H       -2.9020     3.0000     1.8980 H     1 <1>   0.0800 
 31 H       -3.2430     2.8240     0.2040 H     1 <1>   0.0800 
 32 H        0.5700     2.6220    -0.4400 H     1 <1>   0.0800 
 33 H       -0.6850     1.8200    -1.3040 H     1 <1>   0.0800 
 34 H       -1.5660    -2.3140    -1.0860 H     1 <1>   0.0800 
 35 H       -2.1530     5.1740     1.6520 H     1 <1>   0.0800 
 36 H       -1.7940     3.8140    -1.8450 H     1 <1>   0.0800 
 37 H       -0.1110     4.2650    -1.9530 H     1 <1>   0.0800 
 38 H       -4.8530    -0.7730    -2.3470 H     1 <1>   0.1500 
 39 H       -4.2820     0.8280     1.5690 H     1 <1>   0.1500 
 40 H       -0.8070    -3.8880     1.3800 H     1 <1>   0.0800 
 41 H       -0.6360    -4.4290    -0.2730 H     1 <1>   0.0800 
 42 H       -2.2250    -4.1590     0.3940 H     1 <1>   0.0800 
 43 H        0.7100    -1.8370     0.8640 H     1 <1>   0.0800 
 44 H        0.3620    -0.8810    -0.5530 H     1 <1>   0.0800 
 45 H        0.8950    -2.5290    -0.7320 H     1 <1>   0.0800 
 46 H       -0.2350     5.1770     0.3530 H     1 <1>   0.0800 
 47 H       -7.2160    -1.1110    -1.8590 H     1 <1>   0.1500 
 48 H       -6.6480     0.4940     2.0470 H     1 <1>   0.1500 
 49 H       -5.3900     5.8150     0.4970 H     1 <1>   0.0800 
 50 H       -4.2570     6.0610     1.8200 H     1 <1>   0.0800 
 51 H       -4.8570     4.4370     1.4470 H     1 <1>   0.0800 
 52 H       -2.3780     6.2690    -0.9520 H     1 <1>   0.4000 
 53 H       -9.1520    -0.4840    -0.4750 H     1 <1>   0.0800 
 54 H       -8.9260     0.2140     1.1070 H     1 <1>   0.0800 
 55 H       -8.7130    -1.5070     0.8750 H     1 <1>   0.0800 
@<TRIPOS>BOND
  1   1   2  2   
  2   2   3  am  
  3   2   4  1   
  4   3   5  1   
  5   3   6  1   
  6   4   7  1   
  7   4   8  1   
  8   4  25  1   
  9   5   9  1   
 10   5  26  1   
 11   5  27  1   
 12   6  10  1   
 13   6  28  1   
 14   6  29  1   
 15   7  11  1   
 16   7  30  1   
 17   7  31  1   
 18   8  12  1   
 19   8  32  1   
 20   8  33  1   
 21   9  13  ar  
 22   9  14  ar  
 23  10  15  1   
 24  10  16  1   
 25  10  34  1   
 26  11  17  1   
 27  11  18  1   
 28  11  35  1   
 29  12  18  1   
 30  12  36  1   
 31  12  37  1   
 32  13  19  ar  
 33  13  38  1   
 34  14  20  ar  
 35  14  39  1   
 36  15  40  1   
 37  15  41  1   
 38  15  42  1   
 39  16  43  1   
 40  16  44  1   
 41  16  45  1   
 42  17  21  1   
 43  18  22  1   
 44  18  46  1   
 45  19  23  ar  
 46  19  47  1   
 47  20  23  ar  
 48  20  48  1   
 49  21  49  1   
 50  21  50  1   
 51  21  51  1   
 52  22  52  1   
 53  23  24  1   
 54  24  53  1   
 55  24  54  1   
 56  24  55  1   
@<TRIPOS>SUBSTRUCTURE
  1 ****   5 GROUP 4 **** **** 0

# MOE 2024.06 (io_trps.svl 2023.06)
