@<TRIPOS>MOLECULE
NONAME
39 40 1 0 0 
SMALL
USER_CHARGES


@<TRIPOS>ATOM
  1 O       -2.6620     1.0750    -2.2040 O.2   1 <1>  -0.5700 
  2 C       -3.2790     1.3060    -1.1920 C.2   1 <1>   0.5690 
  3 N       -4.2260     0.4510    -0.7340 N.am  1 <1>  -0.7300 
  4 C       -2.9980     2.5730    -0.3820 C.3   1 <1>  -0.0190 
  5 C       -4.5150    -0.8700    -1.3190 C.3   1 <1>   0.2840 
  6 C       -2.2170     3.6420    -1.1750 C.3   1 <1>  -0.1600 
  7 C       -2.2660     2.2310     0.9380 C.3   1 <1>  -0.1600 
  8 C       -4.4960    -1.8890    -0.1990 C.ar  1 <1>  -0.1440 
  9 C       -2.0730     4.9650    -0.3910 C.3   1 <1>   0.2000 
 10 C       -1.5290     3.4290     1.5730 C.3   1 <1>  -0.1600 
 11 C       -3.2900    -2.2480     0.3840 C.ar  1 <1>   0.1600 
 12 C       -5.6600    -2.4690     0.2660 C.ar  1 <1>  -0.1500 
 13 O       -0.8350     5.5460    -0.7200 O.3   1 <1>  -0.5600 
 14 C       -2.1460     4.7630     1.1450 C.3   1 <1>   0.2000 
 15 N       -3.1550    -3.1170     1.3740 N.ar  1 <1>  -0.6200 
 16 C       -5.5370    -3.3790     1.2950 C.ar  1 <1>  -0.1500 
 17 C       -0.7880     6.1880    -1.9570 C.3   1 <1>   0.0400 
 18 O       -1.4500     5.7760     1.7710 O.3   1 <1>  -0.6800 
 19 C       -4.2810    -3.6630     1.8040 C.ar  1 <1>   0.1600 
 20 H       -4.6870     0.6290     0.1590 H     1 <1>   0.3700 
 21 H       -3.9550     2.9980    -0.1370 H     1 <1>   0.0800 
 22 H       -5.4800    -0.8470    -1.7950 H     1 <1>   0.0800 
 23 H       -3.7760    -1.1240    -2.0610 H     1 <1>   0.0800 
 24 H       -2.7180     3.8350    -2.1070 H     1 <1>   0.0800 
 25 H       -1.2390     3.2480    -1.3960 H     1 <1>   0.0800 
 26 H       -2.9830     1.8420     1.6410 H     1 <1>   0.0800 
 27 H       -1.5430     1.4530     0.7570 H     1 <1>   0.0800 
 28 H       -2.8580     5.6470    -0.6690 H     1 <1>   0.0800 
 29 H       -0.5010     3.4130     1.2520 H     1 <1>   0.0800 
 30 H       -1.5500     3.3400     2.6450 H     1 <1>   0.0800 
 31 H       -2.3850    -1.7910     0.0170 H     1 <1>   0.1500 
 32 H       -6.6240    -2.2290    -0.1490 H     1 <1>   0.1500 
 33 H       -3.1670     4.8090     1.4820 H     1 <1>   0.0800 
 34 H       -6.4040    -3.8670     1.7010 H     1 <1>   0.1500 
 35 H        0.1950     6.6080    -2.0770 H     1 <1>   0.0800 
 36 H       -1.5230     6.9740    -1.9780 H     1 <1>   0.0800 
 37 H       -0.9710     5.4740    -2.7410 H     1 <1>   0.0800 
 38 H       -0.7260     6.0240     1.1500 H     1 <1>   0.4000 
 39 H       -4.1980    -4.3750     2.6070 H     1 <1>   0.1500 
@<TRIPOS>BOND
  1   1   2  2   
  2   2   3  am  
  3   2   4  1   
  4   3   5  1   
  5   3  20  1   
  6   4   6  1   
  7   4   7  1   
  8   4  21  1   
  9   5   8  1   
 10   5  22  1   
 11   5  23  1   
 12   6   9  1   
 13   6  24  1   
 14   6  25  1   
 15   7  10  1   
 16   7  26  1   
 17   7  27  1   
 18   8  11  ar  
 19   8  12  ar  
 20   9  13  1   
 21   9  14  1   
 22   9  28  1   
 23  10  14  1   
 24  10  29  1   
 25  10  30  1   
 26  11  15  ar  
 27  11  31  1   
 28  12  16  ar  
 29  12  32  1   
 30  13  17  1   
 31  14  18  1   
 32  14  33  1   
 33  15  19  ar  
 34  16  19  ar  
 35  16  34  1   
 36  17  35  1   
 37  17  36  1   
 38  17  37  1   
 39  18  38  1   
 40  19  39  1   
@<TRIPOS>SUBSTRUCTURE
  1 ****   2 GROUP 4 **** **** 0

# MOE 2024.06 (io_trps.svl 2023.06)
