@<TRIPOS>MOLECULE
NONAME
42 43 1 0 0 
SMALL
USER_CHARGES


@<TRIPOS>ATOM
  1 O        0.1490    -0.3450     1.4240 O.2   1 <1>  -0.5700 
  2 C        0.9790    -0.8240     0.6860 C.2   1 <1>   0.5690 
  3 N        2.0340    -0.0710     0.1890 N.am  1 <1>  -0.4770 
  4 C        0.8360    -2.3230     0.3560 C.3   1 <1>   0.1710 
  5 C        2.1330     1.3180     0.4040 C.ar  1 <1>   0.1170 
  6 C        3.1460    -0.6790    -0.5930 C.3   1 <1>   0.0600 
  7 N       -0.1360    -2.6670    -0.7290 N.3   1 <1>  -0.8100 
  8 C        3.2690     1.8710     0.9880 C.ar  1 <1>  -0.1500 
  9 C        1.1030     2.1700     0.0250 C.ar  1 <1>  -0.1500 
 10 C       -0.3220    -4.1260    -0.8820 C.3   1 <1>   0.1100 
 11 C        0.1930    -2.0440    -2.0160 C.3   1 <1>   0.0300 
 12 C        3.3780     3.2380     1.1730 C.ar  1 <1>  -0.1500 
 13 C        1.2060     3.5370     0.2080 C.ar  1 <1>  -0.1500 
 14 C       -1.1180    -4.7550     0.2730 C.3   1 <1>   0.2000 
 15 C        2.3470     4.0730     0.7810 C.ar  1 <1>  -0.1500 
 16 O       -1.3140    -6.1090    -0.0420 O.3   1 <1>  -0.5600 
 17 C       -2.4770    -4.0550     0.4890 C.3   1 <1>   0.1200 
 18 C       -2.0910    -6.7960     0.8960 C.3   1 <1>   0.1200 
 19 O       -3.2580    -4.7610     1.4150 O.3   1 <1>  -0.5600 
 20 C       -3.4500    -6.0990     1.0690 C.3   1 <1>   0.1200 
 21 H        0.5060    -2.7890     1.2660 H     1 <1>   0.0800 
 22 H        1.7950    -2.7450     0.1230 H     1 <1>   0.0800 
 23 H        2.7590    -1.3090    -1.3710 H     1 <1>   0.0800 
 24 H        3.7730    -1.2580     0.0620 H     1 <1>   0.0800 
 25 H        3.7400     0.0920    -1.0520 H     1 <1>   0.0800 
 26 H        4.0690     1.2280     1.3040 H     1 <1>   0.1500 
 27 H        0.2120     1.7530    -0.4100 H     1 <1>   0.1500 
 28 H        0.6350    -4.6110    -0.9640 H     1 <1>   0.0800 
 29 H       -0.8740    -4.3140    -1.7880 H     1 <1>   0.0800 
 30 H        0.2760    -0.9760    -1.9050 H     1 <1>   0.0800 
 31 H       -0.5930    -2.2410    -2.7250 H     1 <1>   0.0800 
 32 H        1.1160    -2.4390    -2.4040 H     1 <1>   0.0800 
 33 H        4.2620     3.6520     1.6250 H     1 <1>   0.1500 
 34 H        0.3990     4.1830    -0.0900 H     1 <1>   0.1500 
 35 H       -0.5400    -4.7120     1.1780 H     1 <1>   0.0800 
 36 H        2.4280     5.1370     0.9250 H     1 <1>   0.1500 
 37 H       -3.0170    -3.9850    -0.4380 H     1 <1>   0.0800 
 38 H       -2.3240    -3.0610     0.8720 H     1 <1>   0.0800 
 39 H       -1.5600    -6.8250     1.8320 H     1 <1>   0.0800 
 40 H       -2.2270    -7.8010     0.5390 H     1 <1>   0.0800 
 41 H       -4.0150    -6.5660     1.8560 H     1 <1>   0.0800 
 42 H       -4.0190    -6.1430     0.1560 H     1 <1>   0.0800 
@<TRIPOS>BOND
  1   1   2  2   
  2   2   3  am  
  3   2   4  1   
  4   3   5  1   
  5   3   6  1   
  6   4   7  1   
  7   4  21  1   
  8   4  22  1   
  9   5   8  ar  
 10   5   9  ar  
 11   6  23  1   
 12   6  24  1   
 13   6  25  1   
 14   7  10  1   
 15   7  11  1   
 16   8  12  ar  
 17   8  26  1   
 18   9  13  ar  
 19   9  27  1   
 20  10  14  1   
 21  10  28  1   
 22  10  29  1   
 23  11  30  1   
 24  11  31  1   
 25  11  32  1   
 26  12  15  ar  
 27  12  33  1   
 28  13  15  ar  
 29  13  34  1   
 30  14  16  1   
 31  14  17  1   
 32  14  35  1   
 33  15  36  1   
 34  16  18  1   
 35  17  19  1   
 36  17  37  1   
 37  17  38  1   
 38  18  20  1   
 39  18  39  1   
 40  18  40  1   
 41  19  20  1   
 42  20  41  1   
 43  20  42  1   
@<TRIPOS>SUBSTRUCTURE
  1 ****   4 GROUP 4 **** **** 0

# MOE 2024.06 (io_trps.svl 2023.06)
