@<TRIPOS>MOLECULE
NONAME
42 44 1 0 0 
SMALL
USER_CHARGES


@<TRIPOS>ATOM
  1 O        0.0110    -0.6850     0.6540 O.3   1 <1>  -0.3630 
  2 C        0.6590    -1.8740     0.5450 C.ar  1 <1>   0.0830 
  3 C        0.6300     0.5240     0.2740 C.3   1 <1>   0.0400 
  4 C       -0.0290    -2.9960     0.9570 C.ar  1 <1>  -0.1500 
  5 C        1.9700    -1.9960     0.0400 C.ar  1 <1>  -0.1500 
  6 C        0.5940    -4.2410     0.8640 C.ar  1 <1>  -0.1520 
  7 C        2.5740    -3.2320    -0.0460 C.ar  1 <1>  -0.1500 
  8 N        0.2060    -5.5030     1.1740 N.pl3 1 <1>   0.0330 
  9 C        1.8780    -4.3650     0.3700 C.ar  1 <1>   0.2270 
 10 C        1.2560    -6.3040     0.8550 C.2   1 <1>   0.0060 
 11 N        2.2670    -5.6710     0.3750 N.2   1 <1>  -0.5650 
 12 C        1.2180    -7.8070     1.0440 C.3   1 <1>   0.0200 
 13 C        0.7370    -8.4800    -0.2400 C.3   1 <1>   0.2090 
 14 N        0.6160    -9.9530    -0.0210 N.pl3 1 <1>  -0.8380 
 15 C       -0.6320   -10.5650    -0.0870 C.ar  1 <1>   0.4100 
 16 C        1.8400   -10.7460    -0.3230 C.3   1 <1>   0.2090 
 17 N       -1.3600   -10.2310    -1.1490 N.ar  1 <1>  -0.6200 
 18 C       -1.0930   -11.4740     0.8990 C.ar  1 <1>   0.3830 
 19 C        1.9360   -11.0140    -1.8220 C.3   1 <1>  -0.2400 
 20 C       -2.5220   -10.8490    -1.2010 C.ar  1 <1>   0.1600 
 21 N       -2.2760   -12.0890     0.8290 N.ar  1 <1>  -0.6200 
 22 C       -0.2560   -11.7340     2.0360 C.1   1 <1>   0.4840 
 23 C       -2.9660   -11.7510    -0.2460 C.ar  1 <1>   0.1600 
 24 N        0.4270   -11.9350     2.9310 N.1   1 <1>  -0.5570 
 25 H       -0.0640     1.3250     0.4530 H     1 <1>   0.0800 
 26 H        0.8730     0.4780    -0.7730 H     1 <1>   0.0800 
 27 H        1.5140     0.6660     0.8700 H     1 <1>   0.0800 
 28 H       -1.0280    -2.9050     1.3420 H     1 <1>   0.1500 
 29 H        2.5160    -1.1310    -0.2830 H     1 <1>   0.1500 
 30 H        3.5710    -3.3550    -0.4260 H     1 <1>   0.1500 
 31 H       -0.6950    -5.7800     1.5700 H     1 <1>   0.2700 
 32 H        0.5630    -8.0590     1.8580 H     1 <1>   0.0800 
 33 H        2.2080    -8.1520     1.2790 H     1 <1>   0.0800 
 34 H        1.4290    -8.2730    -1.0380 H     1 <1>   0.0800 
 35 H       -0.2170    -8.0650    -0.5190 H     1 <1>   0.0800 
 36 H        1.8090   -11.6840     0.2060 H     1 <1>   0.0800 
 37 H        2.7120   -10.2090     0.0110 H     1 <1>   0.0800 
 38 H        1.0810   -11.5730    -2.1580 H     1 <1>   0.0800 
 39 H        2.8210   -11.5870    -2.0310 H     1 <1>   0.0800 
 40 H        1.9920   -10.0910    -2.3700 H     1 <1>   0.0800 
 41 H       -3.1570   -10.6320    -2.0420 H     1 <1>   0.1500 
 42 H       -3.9310   -12.2090    -0.3760 H     1 <1>   0.1500 
@<TRIPOS>BOND
  1   1   2  1   
  2   1   3  1   
  3   2   4  ar  
  4   2   5  ar  
  5   3  25  1   
  6   3  26  1   
  7   3  27  1   
  8   4   6  ar  
  9   4  28  1   
 10   5   7  ar  
 11   5  29  1   
 12   6   8  1   
 13   6   9  ar  
 14   7   9  ar  
 15   7  30  1   
 16   8  10  1   
 17   8  31  1   
 18   9  11  1   
 19  10  11  2   
 20  10  12  1   
 21  12  13  1   
 22  12  32  1   
 23  12  33  1   
 24  13  14  1   
 25  13  34  1   
 26  13  35  1   
 27  14  15  1   
 28  14  16  1   
 29  15  17  ar  
 30  15  18  ar  
 31  16  19  1   
 32  16  36  1   
 33  16  37  1   
 34  17  20  ar  
 35  18  21  ar  
 36  18  22  1   
 37  19  38  1   
 38  19  39  1   
 39  19  40  1   
 40  20  23  ar  
 41  20  41  1   
 42  21  23  ar  
 43  22  24  3   
 44  23  42  1   
@<TRIPOS>SUBSTRUCTURE
  1 ****  12 GROUP 4 **** **** 0

# MOE 2024.06 (io_trps.svl 2023.06)
