@<TRIPOS>MOLECULE
NONAME
50 52 1 0 0 
SMALL
USER_CHARGES


@<TRIPOS>ATOM
  1 O       -2.8490     0.9090    -1.4850 O.2   1 <1>  -0.5700 
  2 C       -1.9330     1.1760    -0.7230 C.2   1 <1>   0.5440 
  3 N       -1.0180     0.1670    -0.4400 N.am  1 <1>  -0.6600 
  4 C       -1.8780     2.5180    -0.1410 C.ar  1 <1>   0.3960 
  5 C       -0.9860    -1.1090    -1.2100 C.3   1 <1>   0.0600 
  6 C       -0.0160     0.2490     0.6570 C.3   1 <1>   0.0600 
  7 N       -0.7040     3.1270     0.0940 N.ar  1 <1>  -0.6200 
  8 C       -3.0920     3.1450     0.1540 C.ar  1 <1>   0.1600 
  9 C       -0.8130     4.3370     0.6200 C.ar  1 <1>   0.4100 
 10 N       -3.2320     4.3470     0.6960 N.ar  1 <1>  -0.6200 
 11 N        0.3740     5.0160     0.8780 N.pl3 1 <1>  -0.8380 
 12 C       -2.0620     4.9080     0.9200 C.ar  1 <1>   0.1600 
 13 C        0.4730     6.4940     0.7110 C.3   1 <1>   0.2090 
 14 C        1.6950     4.4050     0.5820 C.3   1 <1>   0.2090 
 15 C        1.8690     6.7600     0.1500 C.3   1 <1>   0.0630 
 16 C        2.6790     5.5640     0.6530 C.3   1 <1>  -0.1600 
 17 C        2.3840     8.1710     0.4740 C.ar  1 <1>  -0.1430 
 18 C        1.8040     9.2680    -0.1660 C.ar  1 <1>   0.0830 
 19 C        3.4110     8.3980     1.3860 C.ar  1 <1>  -0.1500 
 20 O        0.7700     9.0370    -1.0230 O.3   1 <1>  -0.3630 
 21 C        2.2860    10.5610     0.0810 C.ar  1 <1>   0.0830 
 22 C        3.8570     9.6800     1.6560 C.ar  1 <1>  -0.1500 
 23 C       -0.4410     9.7310    -0.7980 C.3   1 <1>   0.0400 
 24 O        1.8150    11.6550    -0.5650 O.3   1 <1>  -0.3630 
 25 C        3.2950    10.7610     1.0040 C.ar  1 <1>  -0.1500 
 26 C        2.2160    11.7840    -1.9110 C.3   1 <1>   0.0400 
 27 H       -1.5770    -1.0320    -2.1070 H     1 <1>   0.0800 
 28 H       -1.3800    -1.9060    -0.6050 H     1 <1>   0.0800 
 29 H        0.0260    -1.3400    -1.4900 H     1 <1>   0.0800 
 30 H       -0.3750     0.8810     1.4510 H     1 <1>   0.0800 
 31 H        0.9040     0.6570     0.2740 H     1 <1>   0.0800 
 32 H        0.1720    -0.7290     1.0630 H     1 <1>   0.0800 
 33 H       -3.9990     2.6110    -0.0720 H     1 <1>   0.1500 
 34 H       -2.0670     5.8810     1.3730 H     1 <1>   0.1500 
 35 H        0.3680     6.9660     1.6730 H     1 <1>   0.0800 
 36 H       -0.2820     6.8650     0.0390 H     1 <1>   0.0800 
 37 H        1.6880     3.9840    -0.4100 H     1 <1>   0.0800 
 38 H        1.9290     3.6360     1.2990 H     1 <1>   0.0800 
 39 H        1.8030     6.6710    -0.9220 H     1 <1>   0.0800 
 40 H        3.5580     5.3840     0.0610 H     1 <1>   0.0800 
 41 H        2.9540     5.6820     1.6840 H     1 <1>   0.0800 
 42 H        3.8880     7.5900     1.9060 H     1 <1>   0.1500 
 43 H        4.6460     9.8370     2.3710 H     1 <1>   0.1500 
 44 H       -1.2340     9.1840    -1.2750 H     1 <1>   0.0800 
 45 H       -0.3720    10.7130    -1.2270 H     1 <1>   0.0800 
 46 H       -0.6200     9.7960     0.2610 H     1 <1>   0.0800 
 47 H        3.6410    11.7590     1.2020 H     1 <1>   0.1500 
 48 H        1.7910    12.6890    -2.3040 H     1 <1>   0.0800 
 49 H        1.8590    10.9360    -2.4690 H     1 <1>   0.0800 
 50 H        3.2890    11.8310    -1.9500 H     1 <1>   0.0800 
@<TRIPOS>BOND
  1   1   2  2   
  2   2   3  am  
  3   2   4  1   
  4   3   5  1   
  5   3   6  1   
  6   4   7  ar  
  7   4   8  ar  
  8   5  27  1   
  9   5  28  1   
 10   5  29  1   
 11   6  30  1   
 12   6  31  1   
 13   6  32  1   
 14   7   9  ar  
 15   8  10  ar  
 16   8  33  1   
 17   9  11  1   
 18   9  12  ar  
 19  10  12  ar  
 20  11  13  1   
 21  11  14  1   
 22  12  34  1   
 23  13  15  1   
 24  13  35  1   
 25  13  36  1   
 26  14  16  1   
 27  14  37  1   
 28  14  38  1   
 29  15  16  1   
 30  15  17  1   
 31  15  39  1   
 32  16  40  1   
 33  16  41  1   
 34  17  18  ar  
 35  17  19  ar  
 36  18  20  1   
 37  18  21  ar  
 38  19  22  ar  
 39  19  42  1   
 40  20  23  1   
 41  21  24  1   
 42  21  25  ar  
 43  22  25  ar  
 44  22  43  1   
 45  23  44  1   
 46  23  45  1   
 47  23  46  1   
 48  24  26  1   
 49  25  47  1   
 50  26  48  1   
 51  26  49  1   
 52  26  50  1   
@<TRIPOS>SUBSTRUCTURE
  1 ****  13 GROUP 4 **** **** 0

# MOE 2024.06 (io_trps.svl 2023.06)
