@<TRIPOS>MOLECULE
NONAME
47 49 1 0 0 
SMALL
USER_CHARGES


@<TRIPOS>ATOM
  1 S        0.6050    -1.3040     0.0520 S.o2  1 <1>   1.4470 
  2 O        1.1980    -2.4680    -0.5650 O.2   1 <1>  -0.6500 
  3 O        0.3230    -1.3950     1.4690 O.2   1 <1>  -0.6500 
  4 N       -0.9170    -1.1290    -0.6820 N.am  1 <1>  -0.8490 
  5 C        1.5480     0.1660    -0.4250 C.ar  1 <1>  -0.0090 
  6 C       -1.6750    -2.3930    -0.6760 C.3   1 <1>   0.1960 
  7 C       -1.7100    -0.0210    -0.1130 C.3   1 <1>   0.1960 
  8 C        1.4470     1.3620     0.2750 C.ar  1 <1>   0.1900 
  9 C        2.3930     0.1500    -1.5350 C.ar  1 <1>  -0.1500 
 10 C       -2.7500    -2.3410     0.4380 C.3   1 <1>   0.4230 
 11 C       -3.2390    -0.2510    -0.3040 C.3   1 <1>  -0.1600 
 12 F        0.6540     1.4390     1.3080 F     1 <1>  -0.1900 
 13 C        2.1430     2.5060    -0.0670 C.ar  1 <1>  -0.1500 
 14 C        3.1080     1.2780    -1.9110 C.ar  1 <1>  -0.1500 
 15 N       -2.7280    -3.5430     1.3460 N.4   1 <1>  -0.9590 
 16 C       -4.0580    -1.6580    -0.1760 C.3   1 <1>   0.0000 
 17 C        2.9700     2.4360    -1.1680 C.ar  1 <1>   0.1900 
 18 C       -3.2430    -4.7190     0.6730 C.3   1 <1>   0.3430 
 19 C       -1.3970    -3.7840     1.9970 C.3   1 <1>   0.2630 
 20 C       -4.9440    -3.0180    -0.1510 C.3   1 <1>  -0.1600 
 21 C       -5.3540    -0.8840    -0.7460 C.3   1 <1>   0.1200 
 22 F        3.6410     3.4960    -1.5220 F     1 <1>  -0.1900 
 23 C       -4.6940    -4.3740     0.5450 C.3   1 <1>  -0.1600 
 24 O       -6.0740    -0.3940     0.3420 O.3   1 <1>  -0.6800 
 25 H       -2.1640    -2.4940    -1.6300 H     1 <1>   0.0800 
 26 H       -1.0300    -3.2450    -0.5700 H     1 <1>   0.0800 
 27 H       -1.5160     0.0860     0.9430 H     1 <1>   0.0800 
 28 H       -1.4150     0.9060    -0.5800 H     1 <1>   0.0800 
 29 H        2.4970    -0.7560    -2.1110 H     1 <1>   0.1500 
 30 H       -2.3990    -1.6190     1.1500 H     1 <1>   0.0800 
 31 H       -3.7030     0.5010     0.3170 H     1 <1>   0.0800 
 32 H       -3.3030     0.0920    -1.3250 H     1 <1>   0.0800 
 33 H        2.0460     3.4150     0.4990 H     1 <1>   0.1500 
 34 H        3.7620     1.2630    -2.7660 H     1 <1>   0.1500 
 35 H       -3.3980    -3.3220     2.0970 H     1 <1>   0.4500 
 36 H       -2.7780    -4.8580    -0.2900 H     1 <1>   0.0800 
 37 H       -3.1150    -5.6040     1.2760 H     1 <1>   0.0800 
 38 H       -0.6420    -4.0100     1.2610 H     1 <1>   0.0800 
 39 H       -1.4600    -4.6090     2.6870 H     1 <1>   0.0800 
 40 H       -1.0840    -2.9080     2.5440 H     1 <1>   0.0800 
 41 H       -5.9490    -2.8330     0.2060 H     1 <1>   0.0800 
 42 H       -5.0390    -3.3020    -1.1890 H     1 <1>   0.0800 
 43 H       -6.0360    -1.4770    -1.3370 H     1 <1>   0.0800 
 44 H       -5.2040    -0.0390    -1.3960 H     1 <1>   0.0800 
 45 H       -5.1930    -5.1570    -0.0020 H     1 <1>   0.0800 
 46 H       -5.1350    -4.3630     1.5280 H     1 <1>   0.0800 
 47 H       -6.8770     0.0840     0.0490 H     1 <1>   0.4000 
@<TRIPOS>BOND
  1   1   2  2   
  2   1   3  2   
  3   1   4  am  
  4   1   5  1   
  5   4   6  1   
  6   4   7  1   
  7   5   8  ar  
  8   5   9  ar  
  9   6  10  1   
 10   6  25  1   
 11   6  26  1   
 12   7  11  1   
 13   7  27  1   
 14   7  28  1   
 15   8  12  1   
 16   8  13  ar  
 17   9  14  ar  
 18   9  29  1   
 19  10  15  1   
 20  10  16  1   
 21  10  30  1   
 22  11  16  1   
 23  11  31  1   
 24  11  32  1   
 25  13  17  ar  
 26  13  33  1   
 27  14  17  ar  
 28  14  34  1   
 29  15  18  1   
 30  15  19  1   
 31  15  35  1   
 32  16  20  1   
 33  16  21  1   
 34  17  22  1   
 35  18  23  1   
 36  18  36  1   
 37  18  37  1   
 38  19  38  1   
 39  19  39  1   
 40  19  40  1   
 41  20  23  1   
 42  20  41  1   
 43  20  42  1   
 44  21  24  1   
 45  21  43  1   
 46  21  44  1   
 47  23  45  1   
 48  23  46  1   
 49  24  47  1   
@<TRIPOS>SUBSTRUCTURE
  1 ****   4 GROUP 4 **** **** 0

# MOE 2024.06 (io_trps.svl 2023.06)
