@<TRIPOS>MOLECULE
NONAME
39 40 1 0 0 
SMALL
USER_CHARGES


@<TRIPOS>ATOM
  1 S       -0.5480     0.3580     1.8400 S.o2  1 <1>   1.4470 
  2 O       -1.1620     1.5870     2.3000 O.2   1 <1>  -0.6500 
  3 O       -0.1940    -0.6430     2.8250 O.2   1 <1>  -0.6500 
  4 N       -1.6410    -0.3660     0.7650 N.am  1 <1>  -0.8490 
  5 C        0.8900     0.7630     0.8050 C.ar  1 <1>  -0.0090 
  6 C       -1.1130    -1.6180     0.1720 C.3   1 <1>   0.1960 
  7 C       -2.9630    -0.5530     1.3560 C.3   1 <1>   0.1960 
  8 C        1.8640    -0.1880     0.5260 C.ar  1 <1>  -0.1500 
  9 C        1.0360     2.0250     0.2420 C.ar  1 <1>  -0.1500 
 10 C       -2.2010    -2.5570    -0.3690 C.3   1 <1>  -0.1860 
 11 C       -3.9820    -0.8620     0.2510 C.3   1 <1>  -0.1600 
 12 C        2.9460     0.1000    -0.2870 C.ar  1 <1>  -0.1440 
 13 C        2.1180     2.3370    -0.5650 C.ar  1 <1>  -0.1440 
 14 C       -1.6130    -3.4640    -1.4310 C.2   1 <1>   0.9060 
 15 C       -3.3950    -1.7400    -0.8620 C.3   1 <1>   0.2000 
 16 C        3.0710     1.3680    -0.8290 C.ar  1 <1>  -0.1500 
 17 C        3.9700    -0.9810    -0.5790 C.3   1 <1>  -0.0970 
 18 C        2.2470     3.7260    -1.1620 C.3   1 <1>  -0.0970 
 19 O       -0.4010    -3.7030    -1.4060 O.co2 1 <1>  -0.9000 
 20 O       -2.3640    -3.9650    -2.2780 O.co2 1 <1>  -0.9000 
 21 O       -4.3730    -2.6030    -1.3040 O.3   1 <1>  -0.6800 
 22 H       -0.4510    -1.3450    -0.6350 H     1 <1>   0.0800 
 23 H       -0.5320    -2.1720     0.8920 H     1 <1>   0.0800 
 24 H       -2.9250    -1.3610     2.0690 H     1 <1>   0.0800 
 25 H       -3.2740     0.3380     1.8750 H     1 <1>   0.0800 
 26 H        1.7690    -1.1750     0.9480 H     1 <1>   0.1500 
 27 H        0.2870     2.7720     0.4410 H     1 <1>   0.1500 
 28 H       -2.5230    -3.1950     0.4310 H     1 <1>   0.0800 
 29 H       -4.3160     0.0610    -0.1830 H     1 <1>   0.0800 
 30 H       -4.8300    -1.3460     0.7020 H     1 <1>   0.0800 
 31 H       -3.0880    -1.1320    -1.6970 H     1 <1>   0.0800 
 32 H        3.9090     1.5990    -1.4610 H     1 <1>   0.1500 
 33 H        4.6690    -0.6580    -1.3300 H     1 <1>   0.0800 
 34 H        3.4730    -1.8660    -0.9360 H     1 <1>   0.0800 
 35 H        4.5120    -1.2240     0.3170 H     1 <1>   0.0800 
 36 H        3.2740     3.9480    -1.3880 H     1 <1>   0.0800 
 37 H        1.8860     4.4650    -0.4690 H     1 <1>   0.0800 
 38 H        1.6700     3.7870    -2.0670 H     1 <1>   0.0800 
 39 H       -3.8850    -3.2880    -1.8520 H     1 <1>   0.4000 
@<TRIPOS>BOND
  1   1   2  2   
  2   1   3  2   
  3   1   4  am  
  4   1   5  1   
  5   4   6  1   
  6   4   7  1   
  7   5   8  ar  
  8   5   9  ar  
  9   6  10  1   
 10   6  22  1   
 11   6  23  1   
 12   7  11  1   
 13   7  24  1   
 14   7  25  1   
 15   8  12  ar  
 16   8  26  1   
 17   9  13  ar  
 18   9  27  1   
 19  10  14  1   
 20  10  15  1   
 21  10  28  1   
 22  11  15  1   
 23  11  29  1   
 24  11  30  1   
 25  12  16  ar  
 26  12  17  1   
 27  13  16  ar  
 28  13  18  1   
 29  14  19  ar  
 30  14  20  ar  
 31  15  21  1   
 32  15  31  1   
 33  16  32  1   
 34  17  33  1   
 35  17  34  1   
 36  17  35  1   
 37  18  36  1   
 38  18  37  1   
 39  18  38  1   
 40  21  39  1   
@<TRIPOS>SUBSTRUCTURE
  1 ****   6 GROUP 4 **** **** 0

# MOE 2024.06 (io_trps.svl 2023.06)
