@<TRIPOS>MOLECULE
NONAME
48 49 1 0 0 
SMALL
USER_CHARGES


@<TRIPOS>ATOM
  1 O       -0.2720     0.9340    -0.2680 O.co2 1 <1>  -0.9000 
  2 C       -1.1250     1.4840     0.4300 C.2   1 <1>   0.9060 
  3 O       -1.8440     0.9010     1.2400 O.co2 1 <1>  -0.9000 
  4 C       -1.3180     2.9580     0.2760 C.3   1 <1>  -0.1860 
  5 C       -2.7700     3.2370    -0.1130 C.3   1 <1>   0.2000 
  6 C       -0.3690     3.4700    -0.7890 C.3   1 <1>   0.3430 
  7 O       -3.4510     3.4390     1.0620 O.3   1 <1>  -0.6800 
  8 C       -2.9270     4.4910    -0.9770 C.3   1 <1>  -0.1600 
  9 N       -0.4790     4.9690    -0.9260 N.4   1 <1>  -0.9590 
 10 C       -1.8520     5.5030    -0.6020 C.3   1 <1>   0.3430 
 11 C        0.5710     5.6020    -0.0640 C.3   1 <1>   0.3430 
 12 C        0.7290     7.1040    -0.3220 C.3   1 <1>   0.1200 
 13 O        1.7820     7.5610     0.4900 O.3   1 <1>  -0.3630 
 14 C        2.1640     8.8650     0.4820 C.ar  1 <1>   0.0820 
 15 C        1.5860     9.8410    -0.3260 C.ar  1 <1>  -0.1500 
 16 C        3.1930     9.2150     1.3410 C.ar  1 <1>  -0.1500 
 17 C        2.0380    11.1490    -0.2690 C.ar  1 <1>  -0.1500 
 18 C        3.6440    10.5210     1.3960 C.ar  1 <1>  -0.1500 
 19 C        3.0740    11.4970     0.5950 C.ar  1 <1>   0.0820 
 20 O        3.5820    12.7520     0.7200 O.3   1 <1>  -0.3620 
 21 C        3.1730    13.8360    -0.0830 C.3   1 <1>   0.2000 
 22 C        3.8650    13.7350    -1.4450 C.3   1 <1>  -0.2400 
 23 C        3.5850    15.1120     0.6470 C.3   1 <1>  -0.2400 
 24 H       -1.0640     3.4090     1.2160 H     1 <1>   0.0800 
 25 H       -3.2170     2.3870    -0.6080 H     1 <1>   0.0800 
 26 H       -0.6240     2.9910    -1.7210 H     1 <1>   0.0800 
 27 H        0.6400     3.1760    -0.5440 H     1 <1>   0.0800 
 28 H       -3.3530     2.6080     1.5920 H     1 <1>   0.4000 
 29 H       -2.8310     4.2350    -2.0160 H     1 <1>   0.0800 
 30 H       -3.9080     4.9110    -0.8340 H     1 <1>   0.0800 
 31 H       -0.2680     5.1740    -1.9100 H     1 <1>   0.4500 
 32 H       -1.9300     5.6860     0.4590 H     1 <1>   0.0800 
 33 H       -2.0230     6.4320    -1.1210 H     1 <1>   0.0800 
 34 H        0.3210     5.4480     0.9730 H     1 <1>   0.0800 
 35 H        1.5190     5.1260    -0.2550 H     1 <1>   0.0800 
 36 H       -0.1590     7.6430    -0.0460 H     1 <1>   0.0800 
 37 H        0.9960     7.2900    -1.3480 H     1 <1>   0.0800 
 38 H        0.7880     9.6120    -1.0050 H     1 <1>   0.1500 
 39 H        3.6420     8.4640     1.9660 H     1 <1>   0.1500 
 40 H        1.5750    11.8800    -0.9020 H     1 <1>   0.1500 
 41 H        4.4430    10.7940     2.0630 H     1 <1>   0.1500 
 42 H        2.1010    13.8180    -0.1780 H     1 <1>   0.0800 
 43 H        4.9330    13.7420    -1.3200 H     1 <1>   0.0800 
 44 H        3.5860    14.5700    -2.0600 H     1 <1>   0.0800 
 45 H        3.5780    12.8320    -1.9520 H     1 <1>   0.0800 
 46 H        4.6510    15.1370     0.7850 H     1 <1>   0.0800 
 47 H        3.1020    15.1560     1.6060 H     1 <1>   0.0800 
 48 H        3.2910    15.9740     0.0770 H     1 <1>   0.0800 
@<TRIPOS>BOND
  1   1   2  ar  
  2   2   3  ar  
  3   2   4  1   
  4   4   5  1   
  5   4   6  1   
  6   4  24  1   
  7   5   7  1   
  8   5   8  1   
  9   5  25  1   
 10   6   9  1   
 11   6  26  1   
 12   6  27  1   
 13   7  28  1   
 14   8  10  1   
 15   8  29  1   
 16   8  30  1   
 17   9  10  1   
 18   9  11  1   
 19   9  31  1   
 20  10  32  1   
 21  10  33  1   
 22  11  12  1   
 23  11  34  1   
 24  11  35  1   
 25  12  13  1   
 26  12  36  1   
 27  12  37  1   
 28  13  14  1   
 29  14  15  ar  
 30  14  16  ar  
 31  15  17  ar  
 32  15  38  1   
 33  16  18  ar  
 34  16  39  1   
 35  17  19  ar  
 36  17  40  1   
 37  18  19  ar  
 38  18  41  1   
 39  19  20  1   
 40  20  21  1   
 41  21  22  1   
 42  21  23  1   
 43  21  42  1   
 44  22  43  1   
 45  22  44  1   
 46  22  45  1   
 47  23  46  1   
 48  23  47  1   
 49  23  48  1   
@<TRIPOS>SUBSTRUCTURE
  1 ****  12 GROUP 4 **** **** 0

# MOE 2024.06 (io_trps.svl 2023.06)
