@<TRIPOS>MOLECULE
NONAME
46 48 1 0 0 
SMALL
USER_CHARGES


@<TRIPOS>ATOM
  1 N        1.5470     0.2450    -0.9980 N.ar  1 <1>  -0.3100 
  2 N        1.9220    -0.6020    -1.9410 N.ar  1 <1>  -0.3100 
  3 C        1.2240    -0.1820     0.2040 C.ar  1 <1>   0.4100 
  4 C        1.9520    -1.8830    -1.7010 C.ar  1 <1>   0.1660 
  5 N        0.9010     0.7630     1.1660 N.pl3 1 <1>  -0.8690 
  6 C        1.2310    -1.5580     0.5510 C.ar  1 <1>   0.0000 
  7 C        1.6140    -2.4550    -0.4580 C.ar  1 <1>   0.0000 
  8 C        2.3840    -2.7720    -2.8560 C.3   1 <1>  -0.0970 
  9 C        0.5000     2.2040     1.0120 C.3   1 <1>   0.2890 
 10 C        0.8890    -2.0770     1.8210 C.ar  1 <1>  -0.1500 
 11 C        1.6380    -3.8390    -0.1650 C.ar  1 <1>  -0.1500 
 12 C        1.2200     2.9570    -0.1370 C.3   1 <1>   0.3430 
 13 C        0.8680     2.9190     2.3240 C.3   1 <1>  -0.1600 
 14 C        0.9220    -3.4190     2.0780 C.ar  1 <1>  -0.1500 
 15 C        1.3010    -4.3110     1.0730 C.ar  1 <1>  -0.1500 
 16 N        2.7080     2.7490    -0.0540 N.4   1 <1>  -0.9590 
 17 C        2.3040     3.5020     2.3150 C.3   1 <1>  -0.1600 
 18 C        3.2540     2.7820     1.3450 C.3   1 <1>   0.3430 
 19 C        3.4460     3.5810    -1.0330 C.3   1 <1>   0.3430 
 20 C        4.8100     2.9530    -1.3280 C.3   1 <1>  -0.1600 
 21 C        5.5640     3.7540    -2.3960 C.3   1 <1>  -0.2400 
 22 H        0.5680     0.3650     2.0480 H     1 <1>   0.4000 
 23 H        2.6060    -2.1820    -3.7270 H     1 <1>   0.0800 
 24 H        1.5960    -3.4580    -3.1050 H     1 <1>   0.0800 
 25 H        3.2670    -3.3230    -2.5870 H     1 <1>   0.0800 
 26 H       -0.5660     2.2500     0.8630 H     1 <1>   0.0800 
 27 H        0.5940    -1.4100     2.6080 H     1 <1>   0.1500 
 28 H        1.9260    -4.5380    -0.9280 H     1 <1>   0.1500 
 29 H        0.9900     4.0060    -0.0620 H     1 <1>   0.0800 
 30 H        0.8490     2.5990    -1.0840 H     1 <1>   0.0800 
 31 H        0.7460     2.2450     3.1550 H     1 <1>   0.0800 
 32 H        0.1800     3.7320     2.4810 H     1 <1>   0.0800 
 33 H        0.6590    -3.8070     3.0480 H     1 <1>   0.1500 
 34 H        1.3210    -5.3660     1.2880 H     1 <1>   0.1500 
 35 H        2.8020     1.7620    -0.3640 H     1 <1>   0.4500 
 36 H        2.7130     3.4520     3.3090 H     1 <1>   0.0800 
 37 H        2.2710     4.5430     2.0430 H     1 <1>   0.0800 
 38 H        4.2210     3.2570     1.3580 H     1 <1>   0.0800 
 39 H        3.3800     1.7670     1.6880 H     1 <1>   0.0800 
 40 H        3.5710     4.5820    -0.6520 H     1 <1>   0.0800 
 41 H        2.8880     3.6340    -1.9540 H     1 <1>   0.0800 
 42 H        4.6710     1.9470    -1.6880 H     1 <1>   0.0800 
 43 H        5.4110     2.9220    -0.4370 H     1 <1>   0.0800 
 44 H        5.0070     3.7810    -3.3170 H     1 <1>   0.0800 
 45 H        6.5170     3.2950    -2.5940 H     1 <1>   0.0800 
 46 H        5.7390     4.7640    -2.0650 H     1 <1>   0.0800 
@<TRIPOS>BOND
  1   1   2  ar  
  2   1   3  ar  
  3   2   4  ar  
  4   3   5  1   
  5   3   6  ar  
  6   4   7  ar  
  7   4   8  1   
  8   5   9  1   
  9   5  22  1   
 10   6   7  ar  
 11   6  10  ar  
 12   7  11  ar  
 13   8  23  1   
 14   8  24  1   
 15   8  25  1   
 16   9  12  1   
 17   9  13  1   
 18   9  26  1   
 19  10  14  ar  
 20  10  27  1   
 21  11  15  ar  
 22  11  28  1   
 23  12  16  1   
 24  12  29  1   
 25  12  30  1   
 26  13  17  1   
 27  13  31  1   
 28  13  32  1   
 29  14  15  ar  
 30  14  33  1   
 31  15  34  1   
 32  16  18  1   
 33  16  19  1   
 34  16  35  1   
 35  17  18  1   
 36  17  36  1   
 37  17  37  1   
 38  18  38  1   
 39  18  39  1   
 40  19  20  1   
 41  19  40  1   
 42  19  41  1   
 43  20  21  1   
 44  20  42  1   
 45  20  43  1   
 46  21  44  1   
 47  21  45  1   
 48  21  46  1   
@<TRIPOS>SUBSTRUCTURE
  1 ****   3 GROUP 4 **** **** 0

# MOE 2024.06 (io_trps.svl 2023.06)
