@<TRIPOS>MOLECULE
NONAME
44 46 1 0 0 
SMALL
USER_CHARGES


@<TRIPOS>ATOM
  1 S        0.7530     0.5130     1.5640 S.3   1 <1>  -0.4600 
  2 C        0.0040    -1.0750     2.0340 C.3   1 <1>   0.2140 
  3 C       -0.6610     1.4740     0.8960 C.3   1 <1>   0.1310 
  4 C       -0.8990    -1.5450     0.9060 C.ar  1 <1>  -0.1440 
  5 C       -0.2710     2.9090     0.5640 C.2   1 <1>   0.5690 
  6 C       -2.2710    -1.6130     1.0870 C.ar  1 <1>  -0.1500 
  7 C       -0.3550    -1.8990    -0.3190 C.ar  1 <1>  -0.1500 
  8 O       -1.1410     3.7360     0.4350 O.2   1 <1>  -0.5700 
  9 N        1.0330     3.2360     0.4110 N.am  1 <1>  -0.7300 
 10 C       -3.0970    -2.0270     0.0550 C.ar  1 <1>  -0.1430 
 11 C       -1.1710    -2.3110    -1.3590 C.ar  1 <1>  -0.1430 
 12 C        1.5330     4.5990     0.1020 C.3   1 <1>   0.3210 
 13 C       -2.5410    -2.3740    -1.1650 C.ar  1 <1>  -0.1500 
 14 C       -4.6000    -2.0970     0.2550 C.3   1 <1>  -0.0970 
 15 C       -0.5650    -2.6930    -2.6970 C.3   1 <1>  -0.0970 
 16 C        3.0590     4.6560     0.0230 C.2   1 <1>   0.3350 
 17 N        3.8530     3.6740     0.2090 N.2   1 <1>  -0.4100 
 18 N        3.6850     5.7920    -0.2580 N.2   1 <1>  -0.5650 
 19 O        5.0620     4.1240     0.0560 O.3   1 <1>  -0.0190 
 20 C        4.8950     5.3930    -0.2210 C.2   1 <1>   0.3930 
 21 C        6.1290     6.2480    -0.4630 C.3   1 <1>  -0.0150 
 22 C        6.0910     7.4540    -1.3540 C.3   1 <1>  -0.2000 
 23 C        6.8230     6.2200    -1.7910 C.3   1 <1>  -0.2000 
 24 H       -0.5440    -0.9120     2.9450 H     1 <1>   0.0800 
 25 H        0.8070    -1.7680     2.2090 H     1 <1>   0.0800 
 26 H       -1.4350     1.4650     1.6390 H     1 <1>   0.0800 
 27 H       -1.0020     0.9760     0.0080 H     1 <1>   0.0800 
 28 H       -2.7030    -1.3400     2.0340 H     1 <1>   0.1500 
 29 H        0.7100    -1.8460    -0.4630 H     1 <1>   0.1500 
 30 H        1.7570     2.5290     0.5860 H     1 <1>   0.3700 
 31 H        1.1960     5.2780     0.8650 H     1 <1>   0.0800 
 32 H        1.1210     4.9190    -0.8380 H     1 <1>   0.0800 
 33 H       -3.1790    -2.6950    -1.9690 H     1 <1>   0.1500 
 34 H       -4.8360    -2.2710     1.2890 H     1 <1>   0.0800 
 35 H       -5.0180    -2.8990    -0.3270 H     1 <1>   0.0800 
 36 H       -5.0510    -1.1710    -0.0540 H     1 <1>   0.0800 
 37 H        0.3010    -2.0890    -2.9010 H     1 <1>   0.0800 
 38 H       -1.2760    -2.5440    -3.4890 H     1 <1>   0.0800 
 39 H       -0.2730    -3.7270    -2.6810 H     1 <1>   0.0800 
 40 H        6.7460     6.3090     0.4160 H     1 <1>   0.1000 
 41 H        6.6560     8.3230    -1.0680 H     1 <1>   0.1000 
 42 H        5.1620     7.7060    -1.8370 H     1 <1>   0.1000 
 43 H        6.4000     5.6260    -2.5830 H     1 <1>   0.1000 
 44 H        7.8990     6.2330    -1.8130 H     1 <1>   0.1000 
@<TRIPOS>BOND
  1   1   2  1   
  2   1   3  1   
  3   2   4  1   
  4   2  24  1   
  5   2  25  1   
  6   3   5  1   
  7   3  26  1   
  8   3  27  1   
  9   4   6  ar  
 10   4   7  ar  
 11   5   8  2   
 12   5   9  am  
 13   6  10  ar  
 14   6  28  1   
 15   7  11  ar  
 16   7  29  1   
 17   9  12  1   
 18   9  30  1   
 19  10  13  ar  
 20  10  14  1   
 21  11  13  ar  
 22  11  15  1   
 23  12  16  1   
 24  12  31  1   
 25  12  32  1   
 26  13  33  1   
 27  14  34  1   
 28  14  35  1   
 29  14  36  1   
 30  15  37  1   
 31  15  38  1   
 32  15  39  1   
 33  16  17  2   
 34  16  18  1   
 35  17  19  1   
 36  18  20  2   
 37  19  20  1   
 38  20  21  1   
 39  21  22  1   
 40  21  23  1   
 41  21  40  1   
 42  22  23  1   
 43  22  41  1   
 44  22  42  1   
 45  23  43  1   
 46  23  44  1   
@<TRIPOS>SUBSTRUCTURE
  1 ****   9 GROUP 4 **** **** 0

# MOE 2024.06 (io_trps.svl 2023.06)
