@<TRIPOS>MOLECULE
NONAME
43 44 1 0 0 
SMALL
USER_CHARGES


@<TRIPOS>ATOM
  1 S        1.3020     2.4270     0.6760 S.o2  1 <1>   1.5000 
  2 O        2.6580     2.1660     0.2430 O.2   1 <1>  -0.6500 
  3 O        0.9770     3.6690     1.3350 O.2   1 <1>  -0.6500 
  4 N        0.3440     2.4730    -0.7000 N.am  1 <1>  -0.9140 
  5 C        0.6360     1.0330     1.6140 C.2   1 <1>  -0.0220 
  6 C        1.0690     2.8220    -1.9390 C.3   1 <1>   0.2570 
  7 S        0.9440    -0.5940     1.0080 S.3   1 <1>  -0.0800 
  8 C       -0.1080     0.9550     2.7380 C.2   1 <1>  -0.1500 
  9 C        1.7000     4.2240    -1.9600 C.2   1 <1>   0.5690 
 10 C        0.0450    -1.3240     2.3230 C.2   1 <1>  -0.1100 
 11 C       -0.4420    -0.3770     3.1430 C.2   1 <1>  -0.1500 
 12 O        1.0400     5.1500    -2.3670 O.2   1 <1>  -0.5700 
 13 N        2.9670     4.3960    -1.5080 N.am  1 <1>  -0.7300 
 14 C        3.6990     5.6680    -1.4740 C.3   1 <1>   0.3200 
 15 C        4.1210     5.9160    -0.0440 C.2   1 <1>  -0.3320 
 16 N        3.2910     6.3140     0.9440 N.pl3 1 <1>   0.0480 
 17 C        5.3480     5.7960     0.5100 C.2   1 <1>   0.0770 
 18 C        4.0820     6.3960     2.0370 C.2   1 <1>   0.0360 
 19 C        1.8410     6.6080     0.8770 C.3   1 <1>   0.0960 
 20 N        5.3220     6.1000     1.8200 N.2   1 <1>  -0.5650 
 21 C        1.5580     8.0450     0.4000 C.3   1 <1>  -0.0800 
 22 C        2.0820     9.1010     1.3840 C.3   1 <1>  -0.2400 
 23 C        0.0510     8.2340     0.1940 C.3   1 <1>  -0.2400 
 24 H       -0.3040     3.2380    -0.5090 H     1 <1>   0.4200 
 25 H        0.3760     2.7700    -2.7600 H     1 <1>   0.0800 
 26 H        1.8350     2.0900    -2.1280 H     1 <1>   0.0800 
 27 H       -0.4430     1.8030     3.3120 H     1 <1>   0.1500 
 28 H       -0.0240    -2.3980     2.3430 H     1 <1>   0.1500 
 29 H       -1.0310    -0.5570     4.0270 H     1 <1>   0.1500 
 30 H        3.4070     3.6460    -0.9550 H     1 <1>   0.3700 
 31 H        3.0860     6.4750    -1.8370 H     1 <1>   0.0800 
 32 H        4.5680     5.5900    -2.1040 H     1 <1>   0.0800 
 33 H        6.2650     5.4990     0.0310 H     1 <1>   0.1500 
 34 H        3.6920     6.6880     2.9960 H     1 <1>   0.1500 
 35 H        1.4110     6.4470     1.8490 H     1 <1>   0.0800 
 36 H        1.3860     5.9130     0.1990 H     1 <1>   0.0800 
 37 H        2.0400     8.1900    -0.5530 H     1 <1>   0.0800 
 38 H        1.6460     8.9630     2.3580 H     1 <1>   0.0800 
 39 H        1.8370    10.0880     1.0360 H     1 <1>   0.0800 
 40 H        3.1530     9.0400     1.4730 H     1 <1>   0.0800 
 41 H       -0.4820     8.0930     1.1190 H     1 <1>   0.0800 
 42 H       -0.3180     7.5240    -0.5270 H     1 <1>   0.0800 
 43 H       -0.1560     9.2230    -0.1750 H     1 <1>   0.0800 
@<TRIPOS>BOND
  1   1   2  2   
  2   1   3  2   
  3   1   4  am  
  4   1   5  1   
  5   4   6  1   
  6   4  24  1   
  7   5   7  1   
  8   5   8  2   
  9   6   9  1   
 10   6  25  1   
 11   6  26  1   
 12   7  10  1   
 13   8  11  1   
 14   8  27  1   
 15   9  12  2   
 16   9  13  am  
 17  10  11  2   
 18  10  28  1   
 19  11  29  1   
 20  13  14  1   
 21  13  30  1   
 22  14  15  1   
 23  14  31  1   
 24  14  32  1   
 25  15  16  1   
 26  15  17  2   
 27  16  18  1   
 28  16  19  1   
 29  17  20  1   
 30  17  33  1   
 31  18  20  2   
 32  18  34  1   
 33  19  21  1   
 34  19  35  1   
 35  19  36  1   
 36  21  22  1   
 37  21  23  1   
 38  21  37  1   
 39  22  38  1   
 40  22  39  1   
 41  22  40  1   
 42  23  41  1   
 43  23  42  1   
 44  23  43  1   
@<TRIPOS>SUBSTRUCTURE
  1 ****   3 GROUP 4 **** **** 0

# MOE 2024.06 (io_trps.svl 2023.06)
