@<TRIPOS>MOLECULE
NONAME
47 50 1 0 0 
SMALL
USER_CHARGES


@<TRIPOS>ATOM
  1 O       -0.7720    -0.1260     1.0140 O.3   1 <1>  -0.5600 
  2 C       -0.0360    -1.2590     0.6610 C.3   1 <1>   0.4180 
  3 C       -1.5190     0.5060     0.0100 C.3   1 <1>   0.1200 
  4 C       -0.8460    -2.1610    -0.2730 C.2   1 <1>  -0.2880 
  5 C        0.2460    -1.9710     1.9830 C.3   1 <1>  -0.1600 
  6 C        1.2720    -0.8040     0.0100 C.3   1 <1>  -0.1600 
  7 C       -2.6020    -0.4360    -0.5310 C.3   1 <1>  -0.0220 
  8 C       -2.0150    -1.8080    -0.8110 C.2   1 <1>  -0.2760 
  9 C        1.2270    -3.1220     1.8090 C.3   1 <1>   0.3430 
 10 C        2.2380    -1.9700    -0.1590 C.3   1 <1>   0.3430 
 11 C       -2.8570    -2.6980    -1.7100 C.3   1 <1>  -0.1020 
 12 N        2.4690    -2.6290     1.1560 N.4   1 <1>  -0.9590 
 13 C        3.5420    -3.6570     1.0740 C.3   1 <1>   0.5230 
 14 C        4.8790    -2.9390     1.1390 C.2   1 <1>   0.0070 
 15 N        5.0130    -1.6950     1.4940 N.2   1 <1>  -0.5650 
 16 N        6.0490    -3.5540     0.8390 N.pl3 1 <1>   0.2940 
 17 C        6.3420    -1.4880     1.4240 C.2   1 <1>   0.0770 
 18 C        6.9840    -2.6090     1.0280 C.2   1 <1>  -0.3020 
 19 C        6.2790    -4.9570     0.4200 C.3   1 <1>  -0.0910 
 20 C        7.1380    -5.2350    -0.7760 C.3   1 <1>  -0.2000 
 21 C        5.6630    -5.4730    -0.8490 C.3   1 <1>  -0.2000 
 22 H       -0.8530     0.8100    -0.7780 H     1 <1>   0.0800 
 23 H       -1.9700     1.3850     0.4380 H     1 <1>   0.0800 
 24 H       -0.4020    -3.1190    -0.4630 H     1 <1>   0.1500 
 25 H       -0.6780    -2.3500     2.3800 H     1 <1>   0.0800 
 26 H        0.6490    -1.2700     2.6930 H     1 <1>   0.0800 
 27 H        1.7350    -0.0440     0.6130 H     1 <1>   0.0800 
 28 H        1.0680    -0.3890    -0.9600 H     1 <1>   0.0800 
 29 H       -3.0050    -0.0100    -1.4330 H     1 <1>   0.0800 
 30 H       -3.4000    -0.5200     0.1840 H     1 <1>   0.0800 
 31 H        0.7740    -3.8910     1.2050 H     1 <1>   0.0800 
 32 H        1.4570    -3.5410     2.7760 H     1 <1>   0.0800 
 33 H        3.1730    -1.6000    -0.5520 H     1 <1>   0.0800 
 34 H        1.8280    -2.6780    -0.8600 H     1 <1>   0.0800 
 35 H       -3.8260    -2.8550    -1.2700 H     1 <1>   0.0800 
 36 H       -2.3870    -3.6550    -1.8480 H     1 <1>   0.0800 
 37 H       -2.9850    -2.2390    -2.6740 H     1 <1>   0.0800 
 38 H        2.9100    -1.9020     1.7520 H     1 <1>   0.4500 
 39 H        3.4570    -4.2220     0.1610 H     1 <1>   0.0800 
 40 H        3.4740    -4.3330     1.9110 H     1 <1>   0.0800 
 41 H        6.7790    -0.5310     1.6660 H     1 <1>   0.1500 
 42 H        8.0340    -2.7840     0.8760 H     1 <1>   0.1500 
 43 H        6.3860    -5.6150     1.2660 H     1 <1>   0.1000 
 44 H        7.7880    -6.0940    -0.7670 H     1 <1>   0.1000 
 45 H        7.5570    -4.4120    -1.3320 H     1 <1>   0.1000 
 46 H        5.1050    -4.8260    -1.5030 H     1 <1>   0.1000 
 47 H        5.3380    -6.4990    -0.9070 H     1 <1>   0.1000 
@<TRIPOS>BOND
  1   1   2  1   
  2   1   3  1   
  3   2   4  1   
  4   2   5  1   
  5   2   6  1   
  6   3   7  1   
  7   3  22  1   
  8   3  23  1   
  9   4   8  2   
 10   4  24  1   
 11   5   9  1   
 12   5  25  1   
 13   5  26  1   
 14   6  10  1   
 15   6  27  1   
 16   6  28  1   
 17   7   8  1   
 18   7  29  1   
 19   7  30  1   
 20   8  11  1   
 21   9  12  1   
 22   9  31  1   
 23   9  32  1   
 24  10  12  1   
 25  10  33  1   
 26  10  34  1   
 27  11  35  1   
 28  11  36  1   
 29  11  37  1   
 30  12  13  1   
 31  12  38  1   
 32  13  14  1   
 33  13  39  1   
 34  13  40  1   
 35  14  15  2   
 36  14  16  1   
 37  15  17  1   
 38  16  18  1   
 39  16  19  1   
 40  17  18  2   
 41  17  41  1   
 42  18  42  1   
 43  19  20  1   
 44  19  21  1   
 45  19  43  1   
 46  20  21  1   
 47  20  44  1   
 48  20  45  1   
 49  21  46  1   
 50  21  47  1   
@<TRIPOS>SUBSTRUCTURE
  1 ****  10 GROUP 4 **** **** 0

# MOE 2024.06 (io_trps.svl 2023.06)
