@<TRIPOS>MOLECULE
NONAME
48 49 1 0 0 
SMALL
USER_CHARGES


@<TRIPOS>ATOM
  1 O       -0.4060     1.3610    -0.9640 O.3   1 <1>  -0.6800 
  2 C       -0.9210     2.6630    -0.9840 C.3   1 <1>   0.2000 
  3 C       -1.5950     3.0460     0.3760 C.3   1 <1>   0.0000 
  4 C        0.2730     3.5950    -1.2620 C.3   1 <1>   0.3430 
  5 C       -0.5680     3.7560     1.3120 C.3   1 <1>  -0.1600 
  6 C       -2.1480     1.7660     1.0720 C.3   1 <1>   0.1200 
  7 C       -2.8000     3.9990     0.1090 C.3   1 <1>  -0.1600 
  8 N        1.3600     3.3200    -0.2550 N.4   1 <1>  -0.9590 
  9 C        0.8640     3.2240     1.1630 C.3   1 <1>   0.3430 
 10 O       -2.8880     2.0660     2.2080 O.3   1 <1>  -0.6800 
 11 C       -2.5490     5.2400    -0.7730 C.3   1 <1>  -0.1600 
 12 C        2.5730     4.1740    -0.4240 C.3   1 <1>   0.3430 
 13 C       -3.8230     6.0810    -0.8850 C.3   1 <1>  -0.2400 
 14 C        2.2730     5.6500    -0.1430 C.3   1 <1>  -0.1600 
 15 C        3.5340     6.5140    -0.2820 C.3   1 <1>   0.0960 
 16 N        3.1920     7.9210    -0.0080 N.pl3 1 <1>   0.0480 
 17 C        3.2060     8.5600     1.1830 C.2   1 <1>   0.0360 
 18 C        2.7350     8.8360    -0.8810 C.2   1 <1>  -0.3020 
 19 N        2.7950     9.7840     1.1260 N.2   1 <1>  -0.5650 
 20 C        2.5010     9.9630    -0.1740 C.2   1 <1>   0.0770 
 21 H       -1.1220     0.7000    -1.0920 H     1 <1>   0.4000 
 22 H       -1.6320     2.7140    -1.7920 H     1 <1>   0.0800 
 23 H       -0.0510     4.6190    -1.1930 H     1 <1>   0.0800 
 24 H        0.6360     3.4200    -2.2610 H     1 <1>   0.0800 
 25 H       -0.8670     3.6580     2.3400 H     1 <1>   0.0800 
 26 H       -0.5380     4.8120     1.1220 H     1 <1>   0.0800 
 27 H       -1.3580     1.0960     1.3650 H     1 <1>   0.0800 
 28 H       -2.8110     1.2410     0.4040 H     1 <1>   0.0800 
 29 H       -3.5920     3.4280    -0.3480 H     1 <1>   0.0800 
 30 H       -3.1860     4.3410     1.0560 H     1 <1>   0.0800 
 31 H        1.6170     2.3450    -0.4870 H     1 <1>   0.4500 
 32 H        0.8740     2.1880     1.4660 H     1 <1>   0.0800 
 33 H        1.5210     3.7650     1.8250 H     1 <1>   0.0800 
 34 H       -2.3230     2.2910     2.9710 H     1 <1>   0.4000 
 35 H       -1.7780     5.8620    -0.3570 H     1 <1>   0.0800 
 36 H       -2.2590     4.9510    -1.7670 H     1 <1>   0.0800 
 37 H        3.3450     3.8330     0.2470 H     1 <1>   0.0800 
 38 H        2.9440     4.0720    -1.4320 H     1 <1>   0.0800 
 39 H       -4.1390     6.4220     0.0860 H     1 <1>   0.0800 
 40 H       -4.6210     5.5070    -1.3230 H     1 <1>   0.0800 
 41 H       -3.6460     6.9430    -1.5040 H     1 <1>   0.0800 
 42 H        1.8940     5.7650     0.8570 H     1 <1>   0.0800 
 43 H        1.5390     6.0140    -0.8410 H     1 <1>   0.0800 
 44 H        3.9360     6.4500    -1.2780 H     1 <1>   0.0800 
 45 H        4.2910     6.2030     0.4170 H     1 <1>   0.0800 
 46 H        3.5290     8.0810     2.0910 H     1 <1>   0.1500 
 47 H        2.6030     8.6530    -1.9320 H     1 <1>   0.1500 
 48 H        2.1320    10.9090    -0.5360 H     1 <1>   0.1500 
@<TRIPOS>BOND
  1   1   2  1   
  2   1  21  1   
  3   2   3  1   
  4   2   4  1   
  5   2  22  1   
  6   3   5  1   
  7   3   6  1   
  8   3   7  1   
  9   4   8  1   
 10   4  23  1   
 11   4  24  1   
 12   5   9  1   
 13   5  25  1   
 14   5  26  1   
 15   6  10  1   
 16   6  27  1   
 17   6  28  1   
 18   7  11  1   
 19   7  29  1   
 20   7  30  1   
 21   8   9  1   
 22   8  12  1   
 23   8  31  1   
 24   9  32  1   
 25   9  33  1   
 26  10  34  1   
 27  11  13  1   
 28  11  35  1   
 29  11  36  1   
 30  12  14  1   
 31  12  37  1   
 32  12  38  1   
 33  13  39  1   
 34  13  40  1   
 35  13  41  1   
 36  14  15  1   
 37  14  42  1   
 38  14  43  1   
 39  15  16  1   
 40  15  44  1   
 41  15  45  1   
 42  16  17  1   
 43  16  18  1   
 44  17  19  2   
 45  17  46  1   
 46  18  20  2   
 47  18  47  1   
 48  19  20  1   
 49  20  48  1   
@<TRIPOS>SUBSTRUCTURE
  1 ****  14 GROUP 4 **** **** 0

# MOE 2024.06 (io_trps.svl 2023.06)
