@<TRIPOS>MOLECULE
NONAME
49 52 1 0 0 
SMALL
USER_CHARGES


@<TRIPOS>ATOM
  1 F       -0.2440    -0.0070     0.4700 F     1 <1>  -0.1900 
  2 C        0.9570    -0.5340     0.3970 C.ar  1 <1>   0.1900 
  3 C        1.1170    -1.9070     0.2080 C.ar  1 <1>   0.1000 
  4 C        2.0440     0.3110     0.4990 C.ar  1 <1>   0.1600 
  5 N        0.1010    -2.8600     0.0900 N.pl3 1 <1>  -0.8380 
  6 C        2.4390    -2.3120     0.1350 C.ar  1 <1>  -0.1500 
  7 N        3.3110    -0.0870     0.4290 N.ar  1 <1>  -0.6200 
  8 C       -0.1420    -3.4680    -1.2430 C.3   1 <1>   0.2090 
  9 C       -1.1310    -2.7520     0.9140 C.3   1 <1>   0.2090 
 10 C        3.4690    -1.3930     0.2480 C.ar  1 <1>   0.1600 
 11 C       -0.6780    -4.8850    -1.0440 C.3   1 <1>  -0.1600 
 12 C       -1.6820    -4.1570     1.1510 C.3   1 <1>  -0.1600 
 13 C       -1.9440    -4.8940    -0.1740 C.3   1 <1>   0.4240 
 14 O       -2.9000    -4.1620    -0.9070 O.3   1 <1>  -0.5600 
 15 C       -2.4110    -6.3450     0.0790 C.ar  1 <1>  -0.1430 
 16 C       -4.2440    -4.3720    -0.6040 C.3   1 <1>   0.1200 
 17 C       -3.6740    -6.7750    -0.3070 C.ar  1 <1>  -0.1430 
 18 C       -1.5720    -7.2550     0.7090 C.ar  1 <1>  -0.1500 
 19 C       -4.6160    -5.8010    -0.9860 C.3   1 <1>  -0.0170 
 20 C       -4.0770    -8.0800    -0.0730 C.ar  1 <1>  -0.1500 
 21 C       -1.9550    -8.5640     0.9460 C.ar  1 <1>   0.0830 
 22 C       -3.2350    -8.9910     0.5600 C.ar  1 <1>   0.0830 
 23 O       -1.0100    -9.3310     1.5600 O.3   1 <1>  -0.3630 
 24 O       -3.6390   -10.2690     0.8240 O.3   1 <1>  -0.3630 
 25 C       -0.9100   -10.7140     1.3040 C.3   1 <1>   0.0400 
 26 C       -4.9650   -10.6990     0.6040 C.3   1 <1>   0.0400 
 27 H        1.8650     1.3610     0.6430 H     1 <1>   0.1500 
 28 H        2.6570    -3.3540    -0.0030 H     1 <1>   0.1500 
 29 H        0.7730    -3.4970    -1.8100 H     1 <1>   0.0800 
 30 H       -0.8580    -2.8720    -1.7840 H     1 <1>   0.0800 
 31 H       -1.8590    -2.1480     0.3980 H     1 <1>   0.0800 
 32 H       -0.8990    -2.2850     1.8560 H     1 <1>   0.0800 
 33 H        4.4830    -1.7510     0.1890 H     1 <1>   0.1500 
 34 H        0.0950    -5.4690    -0.5820 H     1 <1>   0.0800 
 35 H       -0.8990    -5.3310    -1.9950 H     1 <1>   0.0800 
 36 H       -2.5810    -4.1080     1.7340 H     1 <1>   0.0800 
 37 H       -0.9600    -4.7010     1.7290 H     1 <1>   0.0800 
 38 H       -4.8240    -3.6670    -1.1720 H     1 <1>   0.0800 
 39 H       -4.4040    -4.1960     0.4450 H     1 <1>   0.0800 
 40 H       -0.5910    -6.9590     1.0300 H     1 <1>   0.1500 
 41 H       -4.5480    -5.9150    -2.0530 H     1 <1>   0.0800 
 42 H       -5.6310    -5.9930    -0.6880 H     1 <1>   0.0800 
 43 H       -5.0590    -8.3690    -0.3920 H     1 <1>   0.1500 
 44 H        0.0760   -11.0360     1.5840 H     1 <1>   0.0800 
 45 H       -1.0740   -10.8910     0.2560 H     1 <1>   0.0800 
 46 H       -1.6430   -11.2300     1.8980 H     1 <1>   0.0800 
 47 H       -5.0470   -11.7140     0.9500 H     1 <1>   0.0800 
 48 H       -5.1760   -10.6560    -0.4490 H     1 <1>   0.0800 
 49 H       -5.6340   -10.0690     1.1620 H     1 <1>   0.0800 
@<TRIPOS>BOND
  1   1   2  1   
  2   2   3  ar  
  3   2   4  ar  
  4   3   5  1   
  5   3   6  ar  
  6   4   7  ar  
  7   4  27  1   
  8   5   8  1   
  9   5   9  1   
 10   6  10  ar  
 11   6  28  1   
 12   7  10  ar  
 13   8  11  1   
 14   8  29  1   
 15   8  30  1   
 16   9  12  1   
 17   9  31  1   
 18   9  32  1   
 19  10  33  1   
 20  11  13  1   
 21  11  34  1   
 22  11  35  1   
 23  12  13  1   
 24  12  36  1   
 25  12  37  1   
 26  13  14  1   
 27  13  15  1   
 28  14  16  1   
 29  15  17  ar  
 30  15  18  ar  
 31  16  19  1   
 32  16  38  1   
 33  16  39  1   
 34  17  19  1   
 35  17  20  ar  
 36  18  21  ar  
 37  18  40  1   
 38  19  41  1   
 39  19  42  1   
 40  20  22  ar  
 41  20  43  1   
 42  21  22  ar  
 43  21  23  1   
 44  22  24  1   
 45  23  25  1   
 46  24  26  1   
 47  25  44  1   
 48  25  45  1   
 49  25  46  1   
 50  26  47  1   
 51  26  48  1   
 52  26  49  1   
@<TRIPOS>SUBSTRUCTURE
  1 ****  13 GROUP 4 **** **** 0

# MOE 2024.06 (io_trps.svl 2023.06)
