@<TRIPOS>MOLECULE
Untitled Document
64 69 1 0 0 
SMALL
USER_CHARGES


@<TRIPOS>ATOM
  1 O       -0.1770     0.6450    -0.1000 O.2   1 <1>  -0.5700 
  2 C       -0.7480     1.6990    -0.2710 C.2   1 <1>   0.7150 
  3 N       -0.0050     2.8200    -0.3850 N.am  1 <1>  -0.7300 
  4 C       -2.1740     1.8100    -0.3730 C.2   1 <1>  -0.2370 
  5 C       -0.5710     4.0950    -0.8920 C.3   1 <1>   0.1400 
  6 N       -2.7990     3.0440    -0.4950 N.pl3 1 <1>   0.0480 
  7 C       -3.1260     0.8360    -0.3460 C.2   1 <1>  -0.1500 
  8 C       -2.0380     4.3490    -0.4270 C.3   1 <1>   0.2560 
  9 C       -4.1560     2.8140    -0.4900 C.ar  1 <1>   0.1050 
 10 C       -4.3840     1.4530    -0.4190 C.ar  1 <1>   0.0000 
 11 C       -2.6510     5.4360    -1.3500 C.3   1 <1>  -0.1600 
 12 C       -2.0760     4.8410     1.0400 C.3   1 <1>  -0.1600 
 13 N       -5.1600     3.6960    -0.5190 N.ar  1 <1>  -0.5670 
 14 C       -5.7090     1.0310    -0.4140 C.ar  1 <1>   0.1600 
 15 C       -1.9830     6.8110    -1.1780 C.3   1 <1>  -0.1600 
 16 C       -1.4620     6.2380     1.2460 C.3   1 <1>  -0.1600 
 17 C       -6.3710     3.1880    -0.5070 C.ar  1 <1>   0.7200 
 18 N       -6.6950     1.8770    -0.4610 N.ar  1 <1>  -0.6200 
 19 C       -2.0650     7.2700     0.2840 C.3   1 <1>  -0.1600 
 20 N       -7.3740     4.1080    -0.5280 N.pl3 1 <1>  -0.6000 
 21 C       -8.7410     4.0190    -0.4020 C.ar  1 <1>   0.4100 
 22 N       -9.2750     5.0680     0.2030 N.ar  1 <1>  -0.6200 
 23 C       -9.4960     2.9540    -0.8880 C.ar  1 <1>  -0.1500 
 24 C      -10.5900     5.0390     0.3540 C.ar  1 <1>   0.1600 
 25 C      -10.8620     2.9410    -0.7230 C.ar  1 <1>  -0.1500 
 26 C      -11.4390     4.0190    -0.0730 C.ar  1 <1>   0.1000 
 27 N      -12.8220     4.0780     0.1460 N.pl3 1 <1>  -0.8380 
 28 C      -13.3510     3.0940     1.1380 C.3   1 <1>   0.2090 
 29 C      -13.6620     4.2220    -1.0810 C.3   1 <1>   0.2090 
 30 C      -14.8280     3.3870     1.4800 C.3   1 <1>   0.3430 
 31 C      -15.1360     4.5040    -0.7160 C.3   1 <1>   0.3430 
 32 N      -15.7020     3.4890     0.2510 N.4   1 <1>  -0.9590 
 33 C      -17.1130     3.8190     0.6170 C.3   1 <1>   0.2630 
 34 H        1.0070     2.6840    -0.4020 H     1 <1>   0.3700 
 35 H       -0.5460     4.0620    -1.9670 H     1 <1>   0.0800 
 36 H        0.0670     4.9040    -0.5870 H     1 <1>   0.0800 
 37 H       -2.9620    -0.2260    -0.2660 H     1 <1>   0.1500 
 38 H       -3.6880     5.5780    -1.1180 H     1 <1>   0.0800 
 39 H       -2.5870     5.1270    -2.3780 H     1 <1>   0.0800 
 40 H       -1.5660     4.1350     1.6720 H     1 <1>   0.0800 
 41 H       -3.1040     4.8820     1.3590 H     1 <1>   0.0800 
 42 H       -5.9190    -0.0230    -0.3670 H     1 <1>   0.1500 
 43 H       -2.4890     7.5300    -1.8010 H     1 <1>   0.0800 
 44 H       -0.9550     6.7800    -1.4940 H     1 <1>   0.0800 
 45 H       -0.3950     6.2000     1.1100 H     1 <1>   0.0800 
 46 H       -1.6390     6.5550     2.2590 H     1 <1>   0.0800 
 47 H       -3.0980     7.4300     0.5450 H     1 <1>   0.0800 
 48 H       -1.5540     8.2110     0.3970 H     1 <1>   0.0800 
 49 H       -7.0350     5.0390    -0.3210 H     1 <1>   0.4000 
 50 H       -9.0090     2.1440    -1.3960 H     1 <1>   0.1500 
 51 H      -11.0390     5.8790     0.8520 H     1 <1>   0.1500 
 52 H      -11.4530     2.1230    -1.0860 H     1 <1>   0.1500 
 53 H      -12.7600     3.1500     2.0380 H     1 <1>   0.0800 
 54 H      -13.2570     2.0960     0.7460 H     1 <1>   0.0800 
 55 H      -13.5980     3.3260    -1.6740 H     1 <1>   0.0800 
 56 H      -13.2810     5.0360    -1.6750 H     1 <1>   0.0800 
 57 H      -14.8640     4.3160     2.0240 H     1 <1>   0.0800 
 58 H      -15.1970     2.6110     2.1300 H     1 <1>   0.0800 
 59 H      -15.7240     4.5190    -1.6190 H     1 <1>   0.0800 
 60 H      -15.1870     5.4860    -0.2750 H     1 <1>   0.0800 
 61 H      -15.6820     2.5720    -0.2180 H     1 <1>   0.4500 
 62 H      -17.1580     4.7760     1.1100 H     1 <1>   0.0800 
 63 H      -17.5130     3.0700     1.2810 H     1 <1>   0.0800 
 64 H      -17.7300     3.8570    -0.2660 H     1 <1>   0.0800 
@<TRIPOS>BOND
  1   1   2  2   
  2   2   3  am  
  3   2   4  1   
  4   3   5  1   
  5   3  34  1   
  6   4   6  1   
  7   4   7  2   
  8   5   8  1   
  9   5  35  1   
 10   5  36  1   
 11   6   8  1   
 12   6   9  1   
 13   7  10  1   
 14   7  37  1   
 15   8  11  1   
 16   8  12  1   
 17   9  10  ar  
 18   9  13  ar  
 19  10  14  ar  
 20  11  15  1   
 21  11  38  1   
 22  11  39  1   
 23  12  16  1   
 24  12  40  1   
 25  12  41  1   
 26  13  17  ar  
 27  14  18  ar  
 28  14  42  1   
 29  15  19  1   
 30  15  43  1   
 31  15  44  1   
 32  16  19  1   
 33  16  45  1   
 34  16  46  1   
 35  17  18  ar  
 36  17  20  1   
 37  19  47  1   
 38  19  48  1   
 39  20  21  1   
 40  20  49  1   
 41  21  22  ar  
 42  21  23  ar  
 43  22  24  ar  
 44  23  25  ar  
 45  23  50  1   
 46  24  26  ar  
 47  24  51  1   
 48  25  26  ar  
 49  25  52  1   
 50  26  27  1   
 51  27  28  1   
 52  27  29  1   
 53  28  30  1   
 54  28  53  1   
 55  28  54  1   
 56  29  31  1   
 57  29  55  1   
 58  29  56  1   
 59  30  32  1   
 60  30  57  1   
 61  30  58  1   
 62  31  32  1   
 63  31  59  1   
 64  31  60  1   
 65  32  33  1   
 66  32  61  1   
 67  33  62  1   
 68  33  63  1   
 69  33  64  1   
@<TRIPOS>SUBSTRUCTURE
  1 ****  17 GROUP 4 **** **** 0

# MOE 2024.06 (io_trps.svl 2023.06)
