@<TRIPOS>MOLECULE
NONAME
47 49 1 0 0 
SMALL
USER_CHARGES


@<TRIPOS>ATOM
  1 O       -1.4280     0.2480    -3.0390 O.2   1 <1>  -0.5700 
  2 C       -1.7740     0.9370    -2.1080 C.2   1 <1>   0.5690 
  3 N       -2.3080     0.3830    -0.9750 N.am  1 <1>  -0.6600 
  4 C       -1.6120     2.4460    -2.2420 C.3   1 <1>   0.0440 
  5 C       -2.7120     1.1080     0.2570 C.3   1 <1>   0.1400 
  6 C       -2.4150    -1.0830    -0.7780 C.3   1 <1>   0.1400 
  7 C       -0.6610     3.0430    -1.2090 C.ar  1 <1>  -0.1440 
  8 C       -3.3010     0.0300     1.1650 C.3   1 <1>   0.2000 
  9 C       -2.6360    -1.2700     0.7240 C.3   1 <1>  -0.0800 
 10 C        0.5980     2.4920    -1.0210 C.ar  1 <1>  -0.1500 
 11 C       -1.0450     4.1350    -0.4430 C.ar  1 <1>  -0.1500 
 12 O       -3.0340     0.2830     2.5000 O.3   1 <1>  -0.6800 
 13 C       -3.4520    -2.5220     1.0770 C.3   1 <1>   0.0210 
 14 C        1.4620     3.0150    -0.0750 C.ar  1 <1>  -0.1500 
 15 C       -0.1830     4.6580     0.5040 C.ar  1 <1>  -0.1500 
 16 C       -2.8080    -3.7710     0.5090 C.2   1 <1>   0.1080 
 17 C        1.0710     4.1040     0.6980 C.ar  1 <1>   0.0830 
 18 N       -1.6140    -4.1570     0.8360 N.2   1 <1>  -0.7070 
 19 C       -3.4010    -4.6220    -0.4170 C.2   1 <1>  -0.1500 
 20 O        1.8510     4.6750     1.6500 O.3   1 <1>  -0.3630 
 21 N       -1.4110    -5.2780     0.1190 N.pl3 1 <1>   0.3000 
 22 C       -2.4790    -5.5800    -0.6490 C.2   1 <1>  -0.3320 
 23 C        3.1590     4.2090     1.9000 C.3   1 <1>   0.0400 
 24 C       -2.5530    -6.7830    -1.5710 C.3   1 <1>  -0.0600 
 25 H       -1.2320     2.6640    -3.2230 H     1 <1>   0.0800 
 26 H       -2.5830     2.8960    -2.1650 H     1 <1>   0.0800 
 27 H       -1.8400     1.5470     0.7120 H     1 <1>   0.0800 
 28 H       -3.4420     1.8650     0.0330 H     1 <1>   0.0800 
 29 H       -3.2550    -1.4500    -1.3430 H     1 <1>   0.0800 
 30 H       -1.5200    -1.5850    -1.1070 H     1 <1>   0.0800 
 31 H       -4.3690    -0.0100     1.0340 H     1 <1>   0.0800 
 32 H       -1.6620    -1.3480     1.1750 H     1 <1>   0.0800 
 33 H        0.9100     1.6470    -1.6130 H     1 <1>   0.1500 
 34 H       -2.0130     4.5840    -0.5770 H     1 <1>   0.1500 
 35 H       -2.0720     0.2290     2.6670 H     1 <1>   0.4000 
 36 H       -4.4520    -2.4320     0.6940 H     1 <1>   0.0800 
 37 H       -3.5110    -2.6210     2.1460 H     1 <1>   0.0800 
 38 H        2.4270     2.5620     0.0450 H     1 <1>   0.1500 
 39 H       -0.4770     5.5030     1.1000 H     1 <1>   0.1500 
 40 H       -4.3830    -4.5160    -0.8420 H     1 <1>   0.1500 
 41 H       -0.5350    -5.8120     0.1760 H     1 <1>   0.2700 
 42 H        3.5850     4.8150     2.6790 H     1 <1>   0.0800 
 43 H        3.7410     4.3070     1.0010 H     1 <1>   0.0800 
 44 H        3.1090     3.1830     2.2190 H     1 <1>   0.0800 
 45 H       -3.5040    -6.8050    -2.0740 H     1 <1>   0.0800 
 46 H       -2.4430    -7.6920    -1.0080 H     1 <1>   0.0800 
 47 H       -1.7750    -6.7320    -2.3130 H     1 <1>   0.0800 
@<TRIPOS>BOND
  1   1   2  2   
  2   2   3  am  
  3   2   4  1   
  4   3   5  1   
  5   3   6  1   
  6   4   7  1   
  7   4  25  1   
  8   4  26  1   
  9   5   8  1   
 10   5  27  1   
 11   5  28  1   
 12   6   9  1   
 13   6  29  1   
 14   6  30  1   
 15   7  10  ar  
 16   7  11  ar  
 17   8   9  1   
 18   8  12  1   
 19   8  31  1   
 20   9  13  1   
 21   9  32  1   
 22  10  14  ar  
 23  10  33  1   
 24  11  15  ar  
 25  11  34  1   
 26  12  35  1   
 27  13  16  1   
 28  13  36  1   
 29  13  37  1   
 30  14  17  ar  
 31  14  38  1   
 32  15  17  ar  
 33  15  39  1   
 34  16  18  2   
 35  16  19  1   
 36  17  20  1   
 37  18  21  1   
 38  19  22  2   
 39  19  40  1   
 40  20  23  1   
 41  21  22  1   
 42  21  41  1   
 43  22  24  1   
 44  23  42  1   
 45  23  43  1   
 46  23  44  1   
 47  24  45  1   
 48  24  46  1   
 49  24  47  1   
@<TRIPOS>SUBSTRUCTURE
  1 ****   3 GROUP 4 **** **** 0

# MOE 2024.06 (io_trps.svl 2023.06)
