@<TRIPOS>MOLECULE
NONAME
27 28 1 0 0 
SMALL
USER_CHARGES


@<TRIPOS>ATOM
  1 O       -1.2770     0.1440     2.3360 O.2   1 <1>  -0.5700 
  2 C       -1.9990     0.8040     1.6070 C.2   1 <1>   0.6160 
  3 N       -3.0670     0.1890     1.0170 N.am  1 <1>  -0.4940 
  4 C       -1.7810     2.1890     1.3400 C.2   1 <1>  -0.1360 
  5 C       -3.9200     0.9000     0.1760 C.2   1 <1>  -0.0880 
  6 C       -2.6040     2.9020     0.5210 C.2   1 <1>  -0.0920 
  7 N       -5.0260     0.5250    -0.5160 N.pl3 1 <1>   0.3140 
  8 C       -3.7070     2.2250    -0.0760 C.2   1 <1>  -0.0460 
  9 C       -2.3970     4.3750     0.2200 C.3   1 <1>  -0.1020 
 10 N       -5.5360     1.5770    -1.2110 N.2   1 <1>  -0.7070 
 11 C       -5.6780    -0.8140    -0.5810 C.3   1 <1>   0.1760 
 12 C       -4.7510     2.5710    -0.9430 C.2   1 <1>   0.1390 
 13 C       -6.1850    -1.2520     0.8010 C.3   1 <1>  -0.2400 
 14 C       -4.7350    -1.8630    -1.1880 C.3   1 <1>  -0.2400 
 15 H       -3.1850    -0.8000     1.2340 H     1 <1>   0.3700 
 16 H       -0.9310     2.6270     1.8260 H     1 <1>   0.1500 
 17 H       -3.2570     4.9380     0.5360 H     1 <1>   0.0800 
 18 H       -2.2560     4.5170    -0.8360 H     1 <1>   0.0800 
 19 H       -1.5320     4.7530     0.7350 H     1 <1>   0.0800 
 20 H       -6.5280    -0.7120    -1.2320 H     1 <1>   0.0800 
 21 H       -4.8870     3.5590    -1.3470 H     1 <1>   0.1500 
 22 H       -5.3710    -1.3960     1.4870 H     1 <1>   0.0800 
 23 H       -6.7270    -2.1770     0.7160 H     1 <1>   0.0800 
 24 H       -6.8530    -0.5070     1.1970 H     1 <1>   0.0800 
 25 H       -3.8770    -2.0250    -0.5610 H     1 <1>   0.0800 
 26 H       -4.4050    -1.5380    -2.1590 H     1 <1>   0.0800 
 27 H       -5.2530    -2.7970    -1.3040 H     1 <1>   0.0800 
@<TRIPOS>BOND
  1   1   2  2   
  2   2   3  am  
  3   2   4  1   
  4   3   5  1   
  5   3  15  1   
  6   4   6  2   
  7   4  16  1   
  8   5   7  1   
  9   5   8  2   
 10   6   8  1   
 11   6   9  1   
 12   7  10  1   
 13   7  11  1   
 14   8  12  1   
 15   9  17  1   
 16   9  18  1   
 17   9  19  1   
 18  10  12  2   
 19  11  13  1   
 20  11  14  1   
 21  11  20  1   
 22  12  21  1   
 23  13  22  1   
 24  13  23  1   
 25  13  24  1   
 26  14  25  1   
 27  14  26  1   
 28  14  27  1   
@<TRIPOS>SUBSTRUCTURE
  1 ****   5 GROUP 4 **** **** 0

# MOE 2024.06 (io_trps.svl 2023.06)
