@<TRIPOS>MOLECULE
NONAME
50 52 1 0 0 
SMALL
USER_CHARGES


@<TRIPOS>ATOM
  1 O        0.2180     1.6500    -2.1000 O.co2 1 <1>  -0.9000 
  2 C       -0.9680     1.5040    -1.7790 C.2   1 <1>   0.9060 
  3 O       -1.7530     0.8650    -2.5050 O.co2 1 <1>  -0.9000 
  4 C       -1.4300     2.0390    -0.3940 C.3   1 <1>   0.2280 
  5 N       -2.6400     1.3820     0.1640 N.3   1 <1>  -0.6890 
  6 C       -1.6480     3.5620    -0.3550 C.ar  1 <1>  -0.1440 
  7 C       -2.8380     1.4650     1.6290 C.3   1 <1>   0.2100 
  8 C       -2.5380    -0.0880     0.3380 C.3   1 <1>   0.2100 
  9 C       -2.8390     4.2110    -0.7060 C.ar  1 <1>   0.0830 
 10 C       -0.5860     4.3410     0.0850 C.ar  1 <1>  -0.1500 
 11 C       -3.6430     0.1440     1.4120 C.3   1 <1>   0.4720 
 12 O       -3.9360     3.5600    -1.1670 O.3   1 <1>  -0.3630 
 13 C       -2.9520     5.5870    -0.5810 C.ar  1 <1>  -0.1500 
 14 C       -0.6920     5.7170     0.2070 C.ar  1 <1>   0.0830 
 15 N       -4.9900     0.4030     0.7850 N.4   1 <1>  -0.9280 
 16 C       -3.8480     3.0450    -2.4810 C.3   1 <1>   0.0400 
 17 C       -1.8880     6.3430    -0.1260 C.ar  1 <1>  -0.1500 
 18 O        0.4050     6.3800     0.6590 O.3   1 <1>  -0.3630 
 19 C       -5.9460     1.0880     1.6870 C.3   1 <1>   0.3430 
 20 C       -5.5500    -0.7770     0.0790 C.3   1 <1>   0.3430 
 21 C        0.4570     7.7880     0.6450 C.3   1 <1>   0.0400 
 22 C       -7.1660     1.5410     0.8830 C.3   1 <1>  -0.1600 
 23 C       -6.7690    -0.3470    -0.7390 C.3   1 <1>  -0.1600 
 24 C       -7.8140     0.3760     0.1230 C.3   1 <1>  -0.1600 
 25 H       -0.6100     1.8130     0.2600 H     1 <1>   0.0800 
 26 H       -3.4230     2.3190     1.9200 H     1 <1>   0.0000 
 27 H       -1.9210     1.3440     2.1830 H     1 <1>   0.0000 
 28 H       -1.5850    -0.3970     0.7370 H     1 <1>   0.0000 
 29 H       -2.8500    -0.6340    -0.5340 H     1 <1>   0.0000 
 30 H        0.3520     3.8800     0.3380 H     1 <1>   0.1500 
 31 H       -3.6610    -0.5460     2.2350 H     1 <1>   0.0000 
 32 H       -3.8790     6.0590    -0.8470 H     1 <1>   0.1500 
 33 H       -4.7090     1.0890     0.0530 H     1 <1>   0.4500 
 34 H       -3.9810     1.9800    -2.4390 H     1 <1>   0.0800 
 35 H       -2.8830     3.2690    -2.9050 H     1 <1>   0.0800 
 36 H       -4.6210     3.4930    -3.0770 H     1 <1>   0.0800 
 37 H       -2.0080     7.4050    -0.0410 H     1 <1>   0.1500 
 38 H       -5.4790     1.9490     2.1380 H     1 <1>   0.0800 
 39 H       -6.2560     0.4140     2.4690 H     1 <1>   0.0800 
 40 H       -5.8390    -1.5270     0.7960 H     1 <1>   0.0800 
 41 H       -4.8110    -1.1990    -0.5830 H     1 <1>   0.0800 
 42 H        1.4360     8.0880     0.9740 H     1 <1>   0.0800 
 43 H       -0.2880     8.1720     1.3180 H     1 <1>   0.0800 
 44 H        0.2880     8.1330    -0.3600 H     1 <1>   0.0800 
 45 H       -6.8620     2.3070     0.1890 H     1 <1>   0.0800 
 46 H       -7.8860     1.9800     1.5510 H     1 <1>   0.0800 
 47 H       -7.2140    -1.2160    -1.1910 H     1 <1>   0.0800 
 48 H       -6.4430     0.2990    -1.5370 H     1 <1>   0.0800 
 49 H       -8.6090     0.7470    -0.5030 H     1 <1>   0.0800 
 50 H       -8.2450    -0.3180     0.8250 H     1 <1>   0.0800 
@<TRIPOS>BOND
  1   1   2  ar  
  2   2   3  ar  
  3   2   4  1   
  4   4   5  1   
  5   4   6  1   
  6   4  25  1   
  7   5   7  1   
  8   5   8  1   
  9   6   9  ar  
 10   6  10  ar  
 11   7  11  1   
 12   7  26  1   
 13   7  27  1   
 14   8  11  1   
 15   8  28  1   
 16   8  29  1   
 17   9  12  1   
 18   9  13  ar  
 19  10  14  ar  
 20  10  30  1   
 21  11  15  1   
 22  11  31  1   
 23  12  16  1   
 24  13  17  ar  
 25  13  32  1   
 26  14  17  ar  
 27  14  18  1   
 28  15  19  1   
 29  15  20  1   
 30  15  33  1   
 31  16  34  1   
 32  16  35  1   
 33  16  36  1   
 34  17  37  1   
 35  18  21  1   
 36  19  22  1   
 37  19  38  1   
 38  19  39  1   
 39  20  23  1   
 40  20  40  1   
 41  20  41  1   
 42  21  42  1   
 43  21  43  1   
 44  21  44  1   
 45  22  24  1   
 46  22  45  1   
 47  22  46  1   
 48  23  24  1   
 49  23  47  1   
 50  23  48  1   
 51  24  49  1   
 52  24  50  1   
@<TRIPOS>SUBSTRUCTURE
  1 ****   5 GROUP 4 **** **** 0

# MOE 2024.06 (io_trps.svl 2023.06)
