@<TRIPOS>MOLECULE
NONAME
45 48 1 0 0 
SMALL
USER_CHARGES


@<TRIPOS>ATOM
  1 O        1.9210    -1.4470    -3.6340 O.2   1 <1>  -0.5700 
  2 C        2.2800    -1.7660    -2.5160 C.2   1 <1>   0.7160 
  3 N        2.5360    -3.0770    -2.2610 N.am  1 <1>  -0.4900 
  4 C        2.4470    -0.8800    -1.4260 C.2   1 <1>  -0.0860 
  5 C        2.9270    -3.5160    -1.0140 C.2   1 <1>   0.4490 
  6 C        2.8430    -1.3820    -0.2260 C.2   1 <1>  -0.0260 
  7 C        2.3110     0.4890    -1.2040 C.2   1 <1>   0.1390 
  8 N        3.0840    -2.7240    -0.0100 N.2   1 <1>  -0.5760 
  9 C        3.1600    -5.0280    -0.8570 C.3   1 <1>   0.1710 
 10 N        2.9310    -0.3360     0.6270 N.pl3 1 <1>   0.3140 
 11 N        2.5940     0.8240     0.0180 N.2   1 <1>  -0.7070 
 12 N        2.1190    -5.7730    -0.0870 N.3   1 <1>  -0.8100 
 13 C        3.3360    -0.3760     2.0370 C.3   1 <1>   0.0160 
 14 C        0.7410    -5.4760    -0.5390 C.3   1 <1>   0.2780 
 15 C        2.2860    -5.5550     1.3620 C.3   1 <1>   0.0300 
 16 C       -0.3040    -6.3880     0.1130 C.2   1 <1>   0.1820 
 17 N       -0.2320    -7.7720     0.0750 N.pl3 1 <1>  -0.6290 
 18 C       -1.4190    -6.0540     0.8010 C.2   1 <1>   0.1820 
 19 C       -1.3100    -8.2480     0.7370 C.cat 1 <1>   0.7910 
 20 C        0.7100    -8.6370    -0.4380 C.2   1 <1>   0.2290 
 21 N       -2.0390    -7.2120     1.1800 N.pl3 1 <1>  -0.7000 
 22 C       -2.0070    -4.7040     1.1680 C.3   1 <1>  -0.0720 
 23 C       -1.5120    -9.6320     0.8740 C.2   1 <1>  -0.1410 
 24 C        0.5360    -9.9850    -0.3110 C.2   1 <1>  -0.1500 
 25 C       -0.5960   -10.5040     0.3510 C.2   1 <1>  -0.1500 
 26 H        2.4560    -3.6950    -3.0620 H     1 <1>   0.3700 
 27 H        2.0050     1.1920    -1.9620 H     1 <1>   0.1500 
 28 H        4.1160    -5.1710    -0.3830 H     1 <1>   0.0800 
 29 H        3.2360    -5.4690    -1.8350 H     1 <1>   0.0800 
 30 H        3.8530    -1.2960     2.2360 H     1 <1>   0.0800 
 31 H        2.4600    -0.3060     2.6540 H     1 <1>   0.0800 
 32 H        3.9860     0.4560     2.2360 H     1 <1>   0.0800 
 33 H        0.6850    -5.6160    -1.6040 H     1 <1>   0.0800 
 34 H        0.5050    -4.4470    -0.3260 H     1 <1>   0.0800 
 35 H        3.3020    -5.7640     1.6520 H     1 <1>   0.0800 
 36 H        1.6450    -6.2160     1.9190 H     1 <1>   0.0800 
 37 H        2.0550    -4.5370     1.6280 H     1 <1>   0.0800 
 38 H        1.5750    -8.2170    -0.9280 H     1 <1>   0.1500 
 39 H       -2.9040    -7.2980     1.7180 H     1 <1>   0.4500 
 40 H       -1.3920    -3.9020     0.8040 H     1 <1>   0.0800 
 41 H       -2.0830    -4.6150     2.2370 H     1 <1>   0.0800 
 42 H       -2.9880    -4.6020     0.7410 H     1 <1>   0.0800 
 43 H       -2.3870    -9.9770     1.3920 H     1 <1>   0.1500 
 44 H        1.2620   -10.6720    -0.7110 H     1 <1>   0.1500 
 45 H       -0.7150   -11.5730     0.4350 H     1 <1>   0.1500 
@<TRIPOS>BOND
  1   1   2  2   
  2   2   3  am  
  3   2   4  1   
  4   3   5  1   
  5   3  26  1   
  6   4   6  2   
  7   4   7  1   
  8   5   8  2   
  9   5   9  1   
 10   6   8  1   
 11   6  10  1   
 12   7  11  2   
 13   7  27  1   
 14   9  12  1   
 15   9  28  1   
 16   9  29  1   
 17  10  11  1   
 18  10  13  1   
 19  12  14  1   
 20  12  15  1   
 21  13  30  1   
 22  13  31  1   
 23  13  32  1   
 24  14  16  1   
 25  14  33  1   
 26  14  34  1   
 27  15  35  1   
 28  15  36  1   
 29  15  37  1   
 30  16  17  1   
 31  16  18  2   
 32  17  19  ar  
 33  17  20  1   
 34  18  21  1   
 35  18  22  1   
 36  19  21  ar  
 37  19  23  1   
 38  20  24  2   
 39  20  38  1   
 40  21  39  1   
 41  22  40  1   
 42  22  41  1   
 43  22  42  1   
 44  23  25  2   
 45  23  43  1   
 46  24  25  1   
 47  24  44  1   
 48  25  45  1   
@<TRIPOS>SUBSTRUCTURE
  1 ****  14 GROUP 4 **** **** 0

# MOE 2024.06 (io_trps.svl 2023.06)
