@<TRIPOS>MOLECULE
NONAME
42 43 1 0 0 
SMALL
USER_CHARGES


@<TRIPOS>ATOM
  1 CL      -2.2260    -0.6790     3.0870 Cl    1 <1>  -0.1770 
  2 C       -2.8840    -1.0240     1.5030 C.ar  1 <1>   0.1770 
  3 C       -3.5370    -0.0360     0.7750 C.ar  1 <1>   0.0830 
  4 C       -2.7280    -2.3070     1.0100 C.ar  1 <1>  -0.1500 
  5 O       -3.6410     1.2120     1.2960 O.3   1 <1>  -0.3630 
  6 C       -4.0660    -0.3690    -0.4800 C.ar  1 <1>   0.0830 
  7 C       -3.2380    -2.6310    -0.2380 C.ar  1 <1>  -0.1440 
  8 C       -2.5500     2.0720     1.0510 C.3   1 <1>   0.0400 
  9 O       -4.7610     0.4710    -1.2940 O.3   1 <1>  -0.3630 
 10 C       -3.8940    -1.6540    -0.9730 C.ar  1 <1>  -0.1500 
 11 C       -3.0990    -4.0370    -0.7910 C.3   1 <1>   0.4860 
 12 C       -5.5850     1.4860    -0.7610 C.3   1 <1>   0.0400 
 13 N       -4.0830    -4.9090    -0.1100 N.4   1 <1>  -0.9590 
 14 C       -3.8160    -6.3730    -0.3950 C.3   1 <1>   0.3430 
 15 C       -5.4910    -4.5300    -0.4400 C.3   1 <1>   0.3430 
 16 C       -5.0660    -7.2690    -0.2930 C.3   1 <1>   0.2000 
 17 C       -6.4490    -5.2690     0.4980 C.3   1 <1>  -0.1600 
 18 O       -5.7160    -7.2450    -1.5150 O.3   1 <1>  -0.6800 
 19 C       -6.0280    -6.7360     0.7740 C.3   1 <1>  -0.1860 
 20 C       -7.2170    -7.6600     0.8930 C.2   1 <1>   0.9060 
 21 O       -7.4920    -8.1090     2.0020 O.co2 1 <1>  -0.9000 
 22 O       -7.8360    -7.9340    -0.1420 O.co2 1 <1>  -0.9000 
 23 H       -2.2080    -3.0290     1.6150 H     1 <1>   0.1500 
 24 H       -2.7710     3.0280     1.4910 H     1 <1>   0.0800 
 25 H       -2.4190     2.1750    -0.0120 H     1 <1>   0.0800 
 26 H       -1.6660     1.6570     1.5010 H     1 <1>   0.0800 
 27 H       -4.2960    -1.8720    -1.9480 H     1 <1>   0.1500 
 28 H       -2.0980    -4.3940    -0.6090 H     1 <1>   0.0800 
 29 H       -3.2760    -4.0390    -1.8540 H     1 <1>   0.0800 
 30 H       -6.2970     1.7710    -1.5150 H     1 <1>   0.0800 
 31 H       -4.9760     2.3330    -0.5030 H     1 <1>   0.0800 
 32 H       -6.0990     1.1090     0.1060 H     1 <1>   0.0800 
 33 H       -3.9990    -4.7640     0.9020 H     1 <1>   0.4500 
 34 H       -3.4120    -6.4950    -1.3860 H     1 <1>   0.0800 
 35 H       -3.0830    -6.7330     0.3080 H     1 <1>   0.0800 
 36 H       -5.6420    -3.4680    -0.3390 H     1 <1>   0.0800 
 37 H       -5.7090    -4.8120    -1.4590 H     1 <1>   0.0800 
 38 H       -4.7950    -8.2920    -0.0920 H     1 <1>   0.0800 
 39 H       -6.5430    -4.7400     1.4300 H     1 <1>   0.0800 
 40 H       -7.4230    -5.2590     0.0370 H     1 <1>   0.0800 
 41 H       -6.6420    -7.6020    -1.3350 H     1 <1>   0.4000 
 42 H       -5.5200    -6.7720     1.7200 H     1 <1>   0.0800 
@<TRIPOS>BOND
  1   1   2  1   
  2   2   3  ar  
  3   2   4  ar  
  4   3   5  1   
  5   3   6  ar  
  6   4   7  ar  
  7   4  23  1   
  8   5   8  1   
  9   6   9  1   
 10   6  10  ar  
 11   7  10  ar  
 12   7  11  1   
 13   8  24  1   
 14   8  25  1   
 15   8  26  1   
 16   9  12  1   
 17  10  27  1   
 18  11  13  1   
 19  11  28  1   
 20  11  29  1   
 21  12  30  1   
 22  12  31  1   
 23  12  32  1   
 24  13  14  1   
 25  13  15  1   
 26  13  33  1   
 27  14  16  1   
 28  14  34  1   
 29  14  35  1   
 30  15  17  1   
 31  15  36  1   
 32  15  37  1   
 33  16  18  1   
 34  16  19  1   
 35  16  38  1   
 36  17  19  1   
 37  17  39  1   
 38  17  40  1   
 39  18  41  1   
 40  19  20  1   
 41  19  42  1   
 42  20  21  ar  
 43  20  22  ar  
@<TRIPOS>SUBSTRUCTURE
  1 ****   7 GROUP 4 **** **** 0

# MOE 2024.06 (io_trps.svl 2023.06)
