@<TRIPOS>MOLECULE
NONAME
57 59 1 0 0 
SMALL
USER_CHARGES


@<TRIPOS>ATOM
  1 O        6.8480     5.2330     0.3920 O.co2 1 <1>  -0.9000 
  2 C        6.7250     4.4430    -0.5600 C.2   1 <1>   0.9790 
  3 O        7.4370     4.6250    -1.5610 O.co2 1 <1>  -0.9000 
  4 C        6.0130     3.1890    -0.4140 C.ar  1 <1>  -0.1790 
  5 C        6.2350     2.4020     0.7090 C.ar  1 <1>  -0.1500 
  6 C        5.1850     2.6660    -1.4020 C.ar  1 <1>  -0.1500 
  7 C        5.8030     1.0910     0.7890 C.ar  1 <1>  -0.1440 
  8 C        4.6550     1.3930    -1.2870 C.ar  1 <1>  -0.1500 
  9 C        4.9730     0.5840    -0.2050 C.ar  1 <1>  -0.1430 
 10 C        6.4010     0.2530     1.9060 C.3   1 <1>   0.2840 
 11 C        4.4230    -0.8330    -0.1500 C.3   1 <1>  -0.0960 
 12 N        7.7390    -0.0880     1.3740 N.am  1 <1>  -0.7300 
 13 C        8.7780     0.7770     1.5410 C.2   1 <1>   0.5690 
 14 O        9.1810     1.0660     2.6430 O.2   1 <1>  -0.5700 
 15 C        9.3790     1.4710     0.2910 C.3   1 <1>   0.4040 
 16 N       10.1230     2.7870     0.4660 N.4   1 <1>  -0.9590 
 17 C        9.3910     3.7190     1.3850 C.3   1 <1>   0.3430 
 18 C       10.3130     3.4100    -0.8830 C.3   1 <1>   0.3430 
 19 C       10.1000     5.0630     1.5040 C.3   1 <1>  -0.1600 
 20 C       11.0590     4.7370    -0.7780 C.3   1 <1>  -0.1600 
 21 C       10.2730     5.7010     0.1210 C.3   1 <1>  -0.0190 
 22 C       10.8960     7.0920     0.2290 C.2   1 <1>   0.5690 
 23 O       12.1020     7.1750     0.3080 O.2   1 <1>  -0.5700 
 24 N       10.0940     8.1990     0.2590 N.am  1 <1>  -0.6600 
 25 C       10.6280     9.5730     0.3400 C.3   1 <1>   0.1400 
 26 C        8.6090     8.2040     0.1900 C.3   1 <1>   0.1400 
 27 C        9.4320    10.4710     0.0410 C.3   1 <1>  -0.1600 
 28 C        8.2150     9.6510     0.4630 C.3   1 <1>  -0.1600 
 29 H        6.8040     2.8240     1.5180 H     1 <1>   0.1500 
 30 H        4.9740     3.2680    -2.2700 H     1 <1>   0.1500 
 31 H        4.0070     1.0300    -2.0660 H     1 <1>   0.1500 
 32 H        5.8340    -0.6400     2.1010 H     1 <1>   0.0800 
 33 H        6.4880     0.8230     2.8170 H     1 <1>   0.0800 
 34 H        3.8400    -0.9660     0.7430 H     1 <1>   0.0800 
 35 H        5.2260    -1.5480    -0.1580 H     1 <1>   0.0800 
 36 H        3.7870    -1.0310    -0.9950 H     1 <1>   0.0800 
 37 H        7.6170    -0.5160     0.4540 H     1 <1>   0.3700 
 38 H        8.5530     1.6490    -0.3780 H     1 <1>   0.0800 
 39 H       10.0310     0.7660    -0.1910 H     1 <1>   0.0800 
 40 H       11.0340     2.6070     0.9020 H     1 <1>   0.4500 
 41 H        9.2970     3.2870     2.3670 H     1 <1>   0.0800 
 42 H        8.4060     3.8900     1.0040 H     1 <1>   0.0800 
 43 H        9.3520     3.5890    -1.3380 H     1 <1>   0.0800 
 44 H       10.8650     2.7430    -1.5250 H     1 <1>   0.0800 
 45 H       11.0520     4.9430     1.9890 H     1 <1>   0.0800 
 46 H        9.4960     5.7100     2.1150 H     1 <1>   0.0800 
 47 H       11.1420     5.1690    -1.7600 H     1 <1>   0.0800 
 48 H       12.0530     4.5820    -0.3970 H     1 <1>   0.0800 
 49 H        9.3030     5.8090    -0.3250 H     1 <1>   0.0800 
 50 H       11.4260     9.7160    -0.3700 H     1 <1>   0.0800 
 51 H       10.9950     9.7450     1.3370 H     1 <1>   0.0800 
 52 H        8.1760     7.5340     0.9140 H     1 <1>   0.0800 
 53 H        8.2960     7.9080    -0.7980 H     1 <1>   0.0800 
 54 H        9.3950    10.6580    -1.0180 H     1 <1>   0.0800 
 55 H        9.4970    11.4090     0.5620 H     1 <1>   0.0800 
 56 H        8.0400     9.7690     1.5180 H     1 <1>   0.0800 
 57 H        7.3250     9.9250    -0.0740 H     1 <1>   0.0800 
@<TRIPOS>BOND
  1   1   2  ar  
  2   2   3  ar  
  3   2   4  1   
  4   4   5  ar  
  5   4   6  ar  
  6   5   7  ar  
  7   5  29  1   
  8   6   8  ar  
  9   6  30  1   
 10   7   9  ar  
 11   7  10  1   
 12   8   9  ar  
 13   8  31  1   
 14   9  11  1   
 15  10  12  1   
 16  10  32  1   
 17  10  33  1   
 18  11  34  1   
 19  11  35  1   
 20  11  36  1   
 21  12  13  am  
 22  12  37  1   
 23  13  14  2   
 24  13  15  1   
 25  15  16  1   
 26  15  38  1   
 27  15  39  1   
 28  16  17  1   
 29  16  18  1   
 30  16  40  1   
 31  17  19  1   
 32  17  41  1   
 33  17  42  1   
 34  18  20  1   
 35  18  43  1   
 36  18  44  1   
 37  19  21  1   
 38  19  45  1   
 39  19  46  1   
 40  20  21  1   
 41  20  47  1   
 42  20  48  1   
 43  21  22  1   
 44  21  49  1   
 45  22  23  2   
 46  22  24  am  
 47  24  25  1   
 48  24  26  1   
 49  25  27  1   
 50  25  50  1   
 51  25  51  1   
 52  26  28  1   
 53  26  52  1   
 54  26  53  1   
 55  27  28  1   
 56  27  54  1   
 57  27  55  1   
 58  28  56  1   
 59  28  57  1   
@<TRIPOS>SUBSTRUCTURE
  1 ****  17 GROUP 4 **** **** 0

# MOE 2024.06 (io_trps.svl 2023.06)
