@<TRIPOS>MOLECULE
NONAME
49 51 1 0 0 
SMALL
USER_CHARGES


@<TRIPOS>ATOM
  1 CL      -0.7260    -0.6170    -1.2200 Cl    1 <1>  -0.1770 
  2 C       -1.7810     0.4960    -0.3680 C.ar  1 <1>   0.1770 
  3 C       -1.5560     1.8660    -0.4550 C.ar  1 <1>   0.0820 
  4 C       -2.8250    -0.0350     0.3690 C.ar  1 <1>  -0.1440 
  5 O       -0.4980     2.2560    -1.2240 O.3   1 <1>  -0.3630 
  6 C       -2.4240     2.7410     0.2220 C.ar  1 <1>   0.0830 
  7 C       -3.6590     0.8450     1.0320 C.ar  1 <1>   0.1770 
  8 C       -3.0430    -1.5320     0.4490 C.3   1 <1>   0.4870 
  9 C        0.2950     3.3710    -0.8740 C.3   1 <1>   0.0400 
 10 O       -2.2420     4.0880     0.1170 O.3   1 <1>  -0.3630 
 11 C       -3.4730     2.2120     0.9710 C.ar  1 <1>  -0.1500 
 12 CL      -5.0020     0.2180     1.9580 Cl    1 <1>  -0.1770 
 13 N       -3.5400    -2.0490    -0.8580 N.4   1 <1>  -0.9590 
 14 C       -3.1090     5.0250     0.7210 C.3   1 <1>   0.0400 
 15 C       -4.8330    -1.4310    -1.3010 C.3   1 <1>   0.3430 
 16 C       -3.8020    -3.5120    -0.7860 C.3   1 <1>   0.3430 
 17 C       -5.9470    -2.4220    -0.9330 C.3   1 <1>   0.2000 
 18 C       -5.2550    -3.6450    -0.3290 C.3   1 <1>  -0.0800 
 19 O       -6.8240    -1.8740    -0.0090 O.3   1 <1>  -0.6800 
 20 C       -5.9100    -4.9720    -0.7520 C.3   1 <1>  -0.0170 
 21 C       -5.1990    -6.1730    -0.1480 C.ar  1 <1>   0.1670 
 22 N       -3.9650    -6.3990    -0.5760 N.ar  1 <1>  -0.6200 
 23 C       -5.8510    -6.9580     0.7920 C.ar  1 <1>  -0.1500 
 24 C       -3.3650    -7.4610    -0.0570 C.ar  1 <1>   0.1600 
 25 C       -5.2090    -8.0520     1.3310 C.ar  1 <1>  -0.1500 
 26 C       -3.9300    -8.3030     0.8850 C.ar  1 <1>  -0.1500 
 27 H       -3.7480    -1.7640     1.2300 H     1 <1>   0.0800 
 28 H       -2.1080    -2.0100     0.6960 H     1 <1>   0.0800 
 29 H        1.2530     3.2640    -1.3510 H     1 <1>   0.0800 
 30 H        0.4180     3.4000     0.1950 H     1 <1>   0.0800 
 31 H       -0.1850     4.2650    -1.2270 H     1 <1>   0.0800 
 32 H       -4.1590     2.8380     1.5100 H     1 <1>   0.1500 
 33 H       -2.8010    -1.8590    -1.5550 H     1 <1>   0.4500 
 34 H       -2.7590     6.0110     0.4710 H     1 <1>   0.0800 
 35 H       -3.0850     4.8920     1.7880 H     1 <1>   0.0800 
 36 H       -4.1030     4.8860     0.3330 H     1 <1>   0.0800 
 37 H       -5.0040    -0.4720    -0.8420 H     1 <1>   0.0800 
 38 H       -4.8210    -1.3080    -2.3720 H     1 <1>   0.0800 
 39 H       -3.6990    -3.9500    -1.7670 H     1 <1>   0.0800 
 40 H       -3.1270    -4.0180    -0.1140 H     1 <1>   0.0800 
 41 H       -6.5150    -2.6690    -1.8150 H     1 <1>   0.0800 
 42 H       -5.2650    -3.5860     0.7450 H     1 <1>   0.0800 
 43 H       -6.4160    -1.6990     0.8630 H     1 <1>   0.4000 
 44 H       -5.8950    -5.0720    -1.8240 H     1 <1>   0.0800 
 45 H       -6.9420    -4.9700    -0.4450 H     1 <1>   0.0800 
 46 H       -6.8530    -6.7250     1.1040 H     1 <1>   0.1500 
 47 H       -2.3660    -7.6770    -0.4000 H     1 <1>   0.1500 
 48 H       -5.6850    -8.6830     2.0620 H     1 <1>   0.1500 
 49 H       -3.3760    -9.1450     1.2600 H     1 <1>   0.1500 
@<TRIPOS>BOND
  1   1   2  1   
  2   2   3  ar  
  3   2   4  ar  
  4   3   5  1   
  5   3   6  ar  
  6   4   7  ar  
  7   4   8  1   
  8   5   9  1   
  9   6  10  1   
 10   6  11  ar  
 11   7  11  ar  
 12   7  12  1   
 13   8  13  1   
 14   8  27  1   
 15   8  28  1   
 16   9  29  1   
 17   9  30  1   
 18   9  31  1   
 19  10  14  1   
 20  11  32  1   
 21  13  15  1   
 22  13  16  1   
 23  13  33  1   
 24  14  34  1   
 25  14  35  1   
 26  14  36  1   
 27  15  17  1   
 28  15  37  1   
 29  15  38  1   
 30  16  18  1   
 31  16  39  1   
 32  16  40  1   
 33  17  18  1   
 34  17  19  1   
 35  17  41  1   
 36  18  20  1   
 37  18  42  1   
 38  19  43  1   
 39  20  21  1   
 40  20  44  1   
 41  20  45  1   
 42  21  22  ar  
 43  21  23  ar  
 44  22  24  ar  
 45  23  25  ar  
 46  23  46  1   
 47  24  26  ar  
 48  24  47  1   
 49  25  26  ar  
 50  25  48  1   
 51  26  49  1   
@<TRIPOS>SUBSTRUCTURE
  1 ****   8 GROUP 4 **** **** 0

# MOE 2024.06 (io_trps.svl 2023.06)
