@<TRIPOS>MOLECULE
NONAME
62 66 1 0 0 
SMALL
USER_CHARGES


@<TRIPOS>ATOM
  1 O       -2.4200    -2.6410    -2.1340 O.3   1 <1>  -0.6800 
  2 C       -3.2890    -3.4810    -1.4590 C.3   1 <1>   0.2000 
  3 C       -2.7670    -4.9290    -1.5330 C.3   1 <1>   0.2090 
  4 C       -4.6670    -3.3350    -2.1080 C.3   1 <1>  -0.1600 
  5 N       -3.7740    -5.8980    -0.9640 N.pl3 1 <1>  -0.8380 
  6 C       -5.6440    -4.3690    -1.5300 C.3   1 <1>  -0.1600 
  7 C       -3.5470    -6.6940     0.1170 C.ar  1 <1>   0.4100 
  8 C       -5.0920    -5.7920    -1.6620 C.3   1 <1>   0.2090 
  9 N       -4.5950    -7.0760     0.8290 N.ar  1 <1>  -0.6200 
 10 C       -2.2410    -7.0930     0.4760 C.ar  1 <1>  -0.1500 
 11 C       -4.3660    -7.7530     1.9420 C.ar  1 <1>   0.7710 
 12 C       -2.0470    -7.8070     1.6110 C.ar  1 <1>   0.2110 
 13 N       -3.1390    -8.1200     2.3470 N.ar  1 <1>  -0.1790 
 14 N       -5.4310    -8.1100     2.6870 N.pl3 1 <1>  -0.8380 
 15 C       -6.0240    -9.4920     2.6090 C.3   1 <1>   0.2090 
 16 C       -6.3440    -7.0740     3.2680 C.3   1 <1>   0.2090 
 17 C       -6.8300    -9.7210     1.3080 C.3   1 <1>   0.3430 
 18 C       -7.4070    -6.5790     2.2750 C.3   1 <1>  -0.1600 
 19 N       -7.3140    -8.4410     0.6670 N.4   1 <1>  -0.9590 
 20 C       -8.2120    -7.6660     1.5630 C.3   1 <1>   0.3430 
 21 C       -7.9010    -8.6280    -0.7110 C.3   1 <1>   0.4230 
 22 C       -9.0240    -9.6890    -0.7200 C.3   1 <1>  -0.0170 
 23 C       -6.8330    -9.1780    -1.6800 C.3   1 <1>  -0.0170 
 24 C       -8.2910   -10.9560    -1.0890 C.ar  1 <1>  -0.1430 
 25 C       -7.0620   -10.6680    -1.6310 C.ar  1 <1>  -0.1430 
 26 C       -8.7080   -12.2650    -0.9330 C.ar  1 <1>  -0.1500 
 27 C       -6.2120   -11.6790    -2.0370 C.ar  1 <1>  -0.1500 
 28 C       -7.8600   -13.2860    -1.3320 C.ar  1 <1>  -0.1500 
 29 C       -6.6200   -12.9950    -1.8820 C.ar  1 <1>  -0.1500 
 30 H       -1.6310    -2.4400    -1.5950 H     1 <1>   0.4000 
 31 H       -3.3320    -3.1580    -0.4320 H     1 <1>   0.0800 
 32 H       -1.8370    -4.9720    -0.9990 H     1 <1>   0.0800 
 33 H       -2.5850    -5.1840    -2.5640 H     1 <1>   0.0800 
 34 H       -4.5780    -3.4860    -3.1700 H     1 <1>   0.0800 
 35 H       -5.0430    -2.3420    -1.9350 H     1 <1>   0.0800 
 36 H       -6.5810    -4.3000    -2.0540 H     1 <1>   0.0800 
 37 H       -5.8280    -4.1580    -0.4920 H     1 <1>   0.0800 
 38 H       -5.8010    -6.4880    -1.2580 H     1 <1>   0.0800 
 39 H       -4.9550    -6.0280    -2.7050 H     1 <1>   0.0800 
 40 H       -1.4140    -6.8370    -0.1570 H     1 <1>   0.1500 
 41 H       -1.0710    -8.1310     1.9420 H     1 <1>   0.1500 
 42 H       -3.0880    -8.6060     3.2400 H     1 <1>   0.4570 
 43 H       -6.6730    -9.6540     3.4530 H     1 <1>   0.0800 
 44 H       -5.2480   -10.2370     2.6680 H     1 <1>   0.0800 
 45 H       -5.7600    -6.2280     3.5950 H     1 <1>   0.0800 
 46 H       -6.8290    -7.4770     4.1430 H     1 <1>   0.0800 
 47 H       -7.6610   -10.3770     1.5110 H     1 <1>   0.0800 
 48 H       -6.1890   -10.2400     0.6150 H     1 <1>   0.0800 
 49 H       -6.9520    -5.9300     1.5470 H     1 <1>   0.0800 
 50 H       -8.0990    -5.9660     2.8250 H     1 <1>   0.0800 
 51 H       -6.4640    -7.8520     0.5680 H     1 <1>   0.4500 
 52 H       -8.9870    -7.1920     0.9810 H     1 <1>   0.0800 
 53 H       -8.6860    -8.3180     2.2800 H     1 <1>   0.0800 
 54 H       -8.2740    -7.6840    -1.0730 H     1 <1>   0.0800 
 55 H       -9.7300    -9.4660    -1.5000 H     1 <1>   0.0800 
 56 H       -9.5450    -9.7710     0.2160 H     1 <1>   0.0800 
 57 H       -5.8310    -8.9060    -1.4030 H     1 <1>   0.0800 
 58 H       -7.0350    -8.8340    -2.6800 H     1 <1>   0.0800 
 59 H       -9.6730   -12.4960    -0.5150 H     1 <1>   0.1500 
 60 H       -5.2520   -11.4590    -2.4730 H     1 <1>   0.1500 
 61 H       -8.1680   -14.3120    -1.2220 H     1 <1>   0.1500 
 62 H       -5.9740   -13.7980    -2.1950 H     1 <1>   0.1500 
@<TRIPOS>BOND
  1   1   2  1   
  2   1  30  1   
  3   2   3  1   
  4   2   4  1   
  5   2  31  1   
  6   3   5  1   
  7   3  32  1   
  8   3  33  1   
  9   4   6  1   
 10   4  34  1   
 11   4  35  1   
 12   5   7  1   
 13   5   8  1   
 14   6   8  1   
 15   6  36  1   
 16   6  37  1   
 17   7   9  ar  
 18   7  10  ar  
 19   8  38  1   
 20   8  39  1   
 21   9  11  ar  
 22  10  12  ar  
 23  10  40  1   
 24  11  13  ar  
 25  11  14  1   
 26  12  13  ar  
 27  12  41  1   
 28  13  42  1   
 29  14  15  1   
 30  14  16  1   
 31  15  17  1   
 32  15  43  1   
 33  15  44  1   
 34  16  18  1   
 35  16  45  1   
 36  16  46  1   
 37  17  19  1   
 38  17  47  1   
 39  17  48  1   
 40  18  20  1   
 41  18  49  1   
 42  18  50  1   
 43  19  20  1   
 44  19  21  1   
 45  19  51  1   
 46  20  52  1   
 47  20  53  1   
 48  21  22  1   
 49  21  23  1   
 50  21  54  1   
 51  22  24  1   
 52  22  55  1   
 53  22  56  1   
 54  23  25  1   
 55  23  57  1   
 56  23  58  1   
 57  24  25  ar  
 58  24  26  ar  
 59  25  27  ar  
 60  26  28  ar  
 61  26  59  1   
 62  27  29  ar  
 63  27  60  1   
 64  28  29  ar  
 65  28  61  1   
 66  29  62  1   
@<TRIPOS>SUBSTRUCTURE
  1 ****   9 GROUP 4 **** **** 0

# MOE 2024.06 (io_trps.svl 2023.06)
