@<TRIPOS>MOLECULE
NONAME
46 48 1 0 0 
SMALL
USER_CHARGES


@<TRIPOS>ATOM
  1 S        0.4820    -0.3430     1.4530 S.o2  1 <1>   1.4470 
  2 O       -0.0950     0.5690     2.4200 O.2   1 <1>  -0.6500 
  3 O        1.1730    -1.5050     1.9720 O.2   1 <1>  -0.6500 
  4 N        1.6280     0.5570     0.5820 N.am  1 <1>  -0.8490 
  5 C       -0.8070    -0.7570     0.2430 C.ar  1 <1>  -0.0090 
  6 C        2.5380     1.2740     1.5020 C.3   1 <1>   0.1960 
  7 C        2.3420    -0.2700    -0.4090 C.3   1 <1>   0.1960 
  8 C       -0.7740    -1.9190    -0.5240 C.ar  1 <1>   0.0820 
  9 C       -1.8720     0.1150     0.0390 C.ar  1 <1>  -0.1500 
 10 C        3.4820     2.3240     0.8590 C.3   1 <1>   0.2200 
 11 C        3.2430     0.5080    -1.3880 C.3   1 <1>  -0.0190 
 12 O        0.2470    -2.7910    -0.4140 O.3   1 <1>  -0.3620 
 13 C       -1.7710    -2.1970    -1.4480 C.ar  1 <1>  -0.1500 
 14 C       -2.8770    -0.1540    -0.8770 C.ar  1 <1>  -0.1430 
 15 N        3.0000     2.8190    -0.4680 N.am  1 <1>  -0.6600 
 16 C        4.9360     1.8200     0.7630 C.3   1 <1>   0.1200 
 17 C        2.8610     1.9690    -1.5320 C.2   1 <1>   0.5690 
 18 C        4.7420     0.3580    -1.0910 C.3   1 <1>   0.1200 
 19 C       -0.0010    -3.9640     0.3280 C.3   1 <1>   0.0400 
 20 C       -2.8220    -1.3180    -1.6220 C.ar  1 <1>  -0.1500 
 21 C       -4.0190     0.8280    -1.0630 C.3   1 <1>  -0.0970 
 22 C        2.5310     4.2300    -0.5180 C.3   1 <1>   0.0600 
 23 O        5.0260     0.5170     0.2640 O.3   1 <1>  -0.5600 
 24 O        2.4750     2.3470    -2.6140 O.2   1 <1>  -0.5700 
 25 H        1.9420     1.8140     2.2170 H     1 <1>   0.0800 
 26 H        3.1160     0.5590     2.0660 H     1 <1>   0.0800 
 27 H        2.9130    -1.0340     0.0930 H     1 <1>   0.0800 
 28 H        1.6080    -0.7690    -1.0140 H     1 <1>   0.0800 
 29 H       -1.9130     1.0260     0.6130 H     1 <1>   0.1500 
 30 H        3.5120     3.1660     1.5280 H     1 <1>   0.0800 
 31 H        3.1000     0.0630    -2.3550 H     1 <1>   0.0800 
 32 H       -1.7160    -3.0960    -2.0350 H     1 <1>   0.1500 
 33 H        5.3620     1.7950     1.7500 H     1 <1>   0.0800 
 34 H        5.5330     2.4770     0.1550 H     1 <1>   0.0800 
 35 H        5.3250     1.0610    -1.6610 H     1 <1>   0.0800 
 36 H        5.0580    -0.6360    -1.3550 H     1 <1>   0.0800 
 37 H        0.9090    -4.5350     0.3680 H     1 <1>   0.0800 
 38 H       -0.7750    -4.5310    -0.1560 H     1 <1>   0.0800 
 39 H       -0.3020    -3.6890     1.3240 H     1 <1>   0.0800 
 40 H       -3.5910    -1.5400    -2.3420 H     1 <1>   0.1500 
 41 H       -4.8890     0.3290    -1.4500 H     1 <1>   0.0800 
 42 H       -3.7260     1.5990    -1.7530 H     1 <1>   0.0800 
 43 H       -4.2790     1.2830    -0.1240 H     1 <1>   0.0800 
 44 H        3.3360     4.8930    -0.2530 H     1 <1>   0.0800 
 45 H        1.7140     4.3640     0.1700 H     1 <1>   0.0800 
 46 H        2.1890     4.4840    -1.5070 H     1 <1>   0.0800 
@<TRIPOS>BOND
  1   1   2  2   
  2   1   3  2   
  3   1   4  am  
  4   1   5  1   
  5   4   6  1   
  6   4   7  1   
  7   5   8  ar  
  8   5   9  ar  
  9   6  10  1   
 10   6  25  1   
 11   6  26  1   
 12   7  11  1   
 13   7  27  1   
 14   7  28  1   
 15   8  12  1   
 16   8  13  ar  
 17   9  14  ar  
 18   9  29  1   
 19  10  15  1   
 20  10  16  1   
 21  10  30  1   
 22  11  17  1   
 23  11  18  1   
 24  11  31  1   
 25  12  19  1   
 26  13  20  ar  
 27  13  32  1   
 28  14  20  ar  
 29  14  21  1   
 30  15  17  am  
 31  15  22  1   
 32  16  23  1   
 33  16  33  1   
 34  16  34  1   
 35  17  24  2   
 36  18  23  1   
 37  18  35  1   
 38  18  36  1   
 39  19  37  1   
 40  19  38  1   
 41  19  39  1   
 42  20  40  1   
 43  21  41  1   
 44  21  42  1   
 45  21  43  1   
 46  22  44  1   
 47  22  45  1   
 48  22  46  1   
@<TRIPOS>SUBSTRUCTURE
  1 ****   4 GROUP 4 **** **** 0

# MOE 2024.06 (io_trps.svl 2023.06)
