@<TRIPOS>MOLECULE
NONAME
43 44 1 0 0 
SMALL
USER_CHARGES


@<TRIPOS>ATOM
  1 O        0.4230     0.8940    -0.7660 O.3   1 <1>  -0.0190 
  2 N        1.5770     1.5060    -0.7490 N.2   1 <1>  -0.4100 
  3 C        0.7390    -0.3720    -0.6530 C.2   1 <1>   0.2980 
  4 C        2.4760     0.6050    -0.6330 C.2   1 <1>   0.5990 
  5 N        1.9790    -0.6250    -0.5700 N.2   1 <1>  -0.5650 
  6 C       -0.3740    -1.4030    -0.6340 C.3   1 <1>   0.0200 
  7 N        3.8540     0.8360    -0.5680 N.pl3 1 <1>  -0.8210 
  8 C       -1.2310    -1.2890     0.6360 C.3   1 <1>  -0.1600 
  9 C        4.3910     2.0450    -1.2420 C.3   1 <1>   0.2090 
 10 C        4.7680    -0.3380    -0.5540 C.3   1 <1>   0.1290 
 11 C       -2.3450    -2.3410     0.6620 C.3   1 <1>  -0.2400 
 12 C        4.9850     2.9780    -0.1890 C.3   1 <1>  -0.1600 
 13 C        5.4810     4.2840    -0.8180 C.3   1 <1>   0.0210 
 14 C        6.0990     5.1890     0.2350 C.2   1 <1>  -0.1810 
 15 C        5.4180     6.0690     1.0740 C.2   1 <1>   0.1080 
 16 C        7.4010     5.3310     0.5720 C.2   1 <1>  -0.3320 
 17 N        6.2170     6.7130     1.8650 N.2   1 <1>  -0.7070 
 18 C        3.9220     6.2870     1.1010 C.3   1 <1>  -0.0590 
 19 N        7.4410     6.2560     1.5540 N.pl3 1 <1>   0.3000 
 20 C        8.6440     4.6440     0.0330 C.3   1 <1>  -0.0600 
 21 H        0.0650    -2.3840    -0.6840 H     1 <1>   0.0800 
 22 H       -0.9860    -1.2650    -1.5060 H     1 <1>   0.0800 
 23 H       -1.6690    -0.3060     0.6860 H     1 <1>   0.0800 
 24 H       -0.6010    -1.4140     1.5000 H     1 <1>   0.0800 
 25 H        3.6100     2.5560    -1.7800 H     1 <1>   0.0800 
 26 H        5.1470     1.7610    -1.9540 H     1 <1>   0.0800 
 27 H        4.4510    -1.0400     0.1980 H     1 <1>   0.0800 
 28 H        5.7710    -0.0250    -0.3250 H     1 <1>   0.0800 
 29 H        4.7540    -0.8240    -1.5140 H     1 <1>   0.0800 
 30 H       -3.0010    -2.2200    -0.1830 H     1 <1>   0.0800 
 31 H       -2.9260    -2.2370     1.5620 H     1 <1>   0.0800 
 32 H       -1.9290    -3.3330     0.6390 H     1 <1>   0.0800 
 33 H        5.8040     2.4880     0.3060 H     1 <1>   0.0800 
 34 H        4.2310     3.2010     0.5450 H     1 <1>   0.0800 
 35 H        4.6640     4.7970    -1.2930 H     1 <1>   0.0800 
 36 H        6.2130     4.0680    -1.5750 H     1 <1>   0.0800 
 37 H        3.4270     5.3790     1.3920 H     1 <1>   0.0800 
 38 H        3.5780     6.5870     0.1300 H     1 <1>   0.0800 
 39 H        3.6780     7.0570     1.8100 H     1 <1>   0.0800 
 40 H        8.2840     6.5940     2.0320 H     1 <1>   0.2700 
 41 H        8.3840     3.9120    -0.7090 H     1 <1>   0.0800 
 42 H        9.1650     4.1460     0.8310 H     1 <1>   0.0800 
 43 H        9.3010     5.3680    -0.4160 H     1 <1>   0.0800 
@<TRIPOS>BOND
  1   1   2  1   
  2   1   3  1   
  3   2   4  2   
  4   3   5  2   
  5   3   6  1   
  6   4   5  1   
  7   4   7  1   
  8   6   8  1   
  9   6  21  1   
 10   6  22  1   
 11   7   9  1   
 12   7  10  1   
 13   8  11  1   
 14   8  23  1   
 15   8  24  1   
 16   9  12  1   
 17   9  25  1   
 18   9  26  1   
 19  10  27  1   
 20  10  28  1   
 21  10  29  1   
 22  11  30  1   
 23  11  31  1   
 24  11  32  1   
 25  12  13  1   
 26  12  33  1   
 27  12  34  1   
 28  13  14  1   
 29  13  35  1   
 30  13  36  1   
 31  14  15  1   
 32  14  16  2   
 33  15  17  2   
 34  15  18  1   
 35  16  19  1   
 36  16  20  1   
 37  17  19  1   
 38  18  37  1   
 39  18  38  1   
 40  18  39  1   
 41  19  40  1   
 42  20  41  1   
 43  20  42  1   
 44  20  43  1   
@<TRIPOS>SUBSTRUCTURE
  1 ****   9 GROUP 4 **** **** 0

# MOE 2024.06 (io_trps.svl 2023.06)
