@<TRIPOS>MOLECULE
NONAME
45 46 1 0 0 
SMALL
USER_CHARGES


@<TRIPOS>ATOM
  1 CL      -0.1360     0.1010    -0.6630 Cl    1 <1>  -0.1770 
  2 C       -0.2490    -1.6130    -0.3400 C.ar  1 <1>   0.1770 
  3 C        0.5720    -2.2010     0.6100 C.ar  1 <1>  -0.1440 
  4 C       -1.1730    -2.3520    -1.0540 C.ar  1 <1>  -0.1500 
  5 C        0.4460    -3.5620     0.8320 C.ar  1 <1>  -0.1500 
  6 C        1.5880    -1.3820     1.3920 C.3   1 <1>  -0.0960 
  7 C       -1.3080    -3.7160    -0.8340 C.ar  1 <1>  -0.0090 
  8 C       -0.4810    -4.3040     0.1170 C.ar  1 <1>  -0.1500 
  9 S       -2.5120    -4.7080    -1.7610 S.o2  1 <1>   1.4470 
 10 O       -1.7780    -5.5880    -2.6430 O.2   1 <1>  -0.6500 
 11 O       -3.5330    -3.8350    -2.3030 O.2   1 <1>  -0.6500 
 12 N       -3.2260    -5.6340    -0.5360 N.am  1 <1>  -0.8490 
 13 C       -3.8840    -6.8510    -1.0570 C.3   1 <1>   0.1960 
 14 C       -4.1670    -4.8590     0.2760 C.3   1 <1>   0.1960 
 15 C       -4.2630    -7.8050     0.0930 C.3   1 <1>  -0.1060 
 16 C       -4.6250    -5.6730     1.4860 C.3   1 <1>  -0.1600 
 17 C       -5.1230    -8.9470    -0.4520 C.2   1 <1>   0.9060 
 18 C       -5.1990    -7.0160     1.0330 C.3   1 <1>   0.2000 
 19 C       -2.9890    -8.3390     0.8370 C.3   1 <1>  -0.1600 
 20 O       -5.3950    -8.9970    -1.6570 O.co2 1 <1>  -0.9000 
 21 O       -5.5950    -9.7640     0.3540 O.co2 1 <1>  -0.9000 
 22 O       -5.4920    -7.7670     2.1530 O.3   1 <1>  -0.6800 
 23 C       -1.8300    -8.8910    -0.0190 C.3   1 <1>  -0.1600 
 24 C       -2.2100   -10.1060    -0.8710 C.3   1 <1>  -0.2400 
 25 H       -1.7910    -1.8590    -1.7850 H     1 <1>   0.1500 
 26 H        1.0670    -4.0560     1.5610 H     1 <1>   0.1500 
 27 H        2.1350    -1.9990     2.0820 H     1 <1>   0.0800 
 28 H        1.0880    -0.6090     1.9490 H     1 <1>   0.0800 
 29 H        2.2880    -0.9230     0.7160 H     1 <1>   0.0800 
 30 H       -0.5690    -5.3630     0.3000 H     1 <1>   0.1500 
 31 H       -4.7660    -6.5740    -1.6120 H     1 <1>   0.0800 
 32 H       -3.2370    -7.3700    -1.7440 H     1 <1>   0.0800 
 33 H       -3.6930    -3.9560     0.6230 H     1 <1>   0.0800 
 34 H       -5.0220    -4.5820    -0.3210 H     1 <1>   0.0800 
 35 H       -5.3840    -5.1260     2.0140 H     1 <1>   0.0800 
 36 H       -3.7940    -5.8220     2.1490 H     1 <1>   0.0800 
 37 H       -6.1320    -6.8420     0.5210 H     1 <1>   0.0800 
 38 H       -2.5770    -7.5460     1.4320 H     1 <1>   0.0800 
 39 H       -3.2930    -9.1090     1.5250 H     1 <1>   0.0800 
 40 H       -5.6660    -8.6910     1.8110 H     1 <1>   0.4000 
 41 H       -1.4330    -8.1170    -0.6530 H     1 <1>   0.0800 
 42 H       -1.0410    -9.1870     0.6490 H     1 <1>   0.0800 
 43 H       -2.8610    -9.8190    -1.6780 H     1 <1>   0.0800 
 44 H       -2.7170   -10.8430    -0.2720 H     1 <1>   0.0800 
 45 H       -1.3290   -10.5500    -1.2970 H     1 <1>   0.0800 
@<TRIPOS>BOND
  1   1   2  1   
  2   2   3  ar  
  3   2   4  ar  
  4   3   5  ar  
  5   3   6  1   
  6   4   7  ar  
  7   4  25  1   
  8   5   8  ar  
  9   5  26  1   
 10   6  27  1   
 11   6  28  1   
 12   6  29  1   
 13   7   8  ar  
 14   7   9  1   
 15   8  30  1   
 16   9  10  2   
 17   9  11  2   
 18   9  12  am  
 19  12  13  1   
 20  12  14  1   
 21  13  15  1   
 22  13  31  1   
 23  13  32  1   
 24  14  16  1   
 25  14  33  1   
 26  14  34  1   
 27  15  17  1   
 28  15  18  1   
 29  15  19  1   
 30  16  18  1   
 31  16  35  1   
 32  16  36  1   
 33  17  20  ar  
 34  17  21  ar  
 35  18  22  1   
 36  18  37  1   
 37  19  23  1   
 38  19  38  1   
 39  19  39  1   
 40  22  40  1   
 41  23  24  1   
 42  23  41  1   
 43  23  42  1   
 44  24  43  1   
 45  24  44  1   
 46  24  45  1   
@<TRIPOS>SUBSTRUCTURE
  1 ****  12 GROUP 4 **** **** 0

# MOE 2024.06 (io_trps.svl 2023.06)
