@<TRIPOS>MOLECULE
NONAME
41 43 1 0 0 
SMALL
USER_CHARGES


@<TRIPOS>ATOM
  1 O        0.0000     0.5850     1.1750 O.2   1 <1>  -0.5700 
  2 C       -0.0270     1.7100     0.7100 C.2   1 <1>   0.7160 
  3 N       -1.2060     2.1690     0.1590 N.am  1 <1>  -0.6600 
  4 C        1.1640     2.5230     0.7580 C.2   1 <1>  -0.0860 
  5 C       -2.3070     1.2090    -0.1420 C.3   1 <1>   0.1400 
  6 C       -1.5280     3.6210     0.0320 C.3   1 <1>   0.1400 
  7 C        1.6110     3.4170    -0.2200 C.2   1 <1>   0.1390 
  8 C        2.1310     2.6080     1.7140 C.2   1 <1>  -0.3020 
  9 C       -3.2860     1.8230    -1.1450 C.3   1 <1>  -0.1600 
 10 C       -3.0030     3.8520     0.3640 C.3   1 <1>  -0.1600 
 11 N        2.7190     4.0100     0.0970 N.2   1 <1>  -0.7070 
 12 N        3.0430     3.4990     1.2990 N.pl3 1 <1>   0.3000 
 13 C       -3.9460     3.1240    -0.6280 C.3   1 <1>   0.2800 
 14 O       -4.1110     3.9140    -1.7760 O.3   1 <1>  -0.5600 
 15 C       -5.3310     2.8070    -0.0140 C.3   1 <1>  -0.1600 
 16 C       -4.8820     5.0820    -1.7210 C.3   1 <1>   0.1200 
 17 C       -6.2770     4.0050     0.0930 C.3   1 <1>   0.2800 
 18 C       -6.2960     4.7670    -1.2310 C.3   1 <1>  -0.1600 
 19 O       -5.8180     4.8500     1.0730 O.3   1 <1>  -0.6800 
 20 C       -7.6810     3.5840     0.5190 C.3   1 <1>  -0.2400 
 21 H       -2.8170     0.9580     0.7720 H     1 <1>   0.0800 
 22 H       -1.8890     0.3040    -0.5520 H     1 <1>   0.0800 
 23 H       -1.3300     3.9460    -0.9760 H     1 <1>   0.0800 
 24 H       -0.9170     4.1960     0.7070 H     1 <1>   0.0800 
 25 H        1.0940     3.5950    -1.1490 H     1 <1>   0.1500 
 26 H        2.1960     2.0740     2.6450 H     1 <1>   0.1500 
 27 H       -4.0260     1.0880    -1.3990 H     1 <1>   0.0800 
 28 H       -2.7330     2.0300    -2.0450 H     1 <1>   0.0800 
 29 H       -3.1860     4.9060     0.3920 H     1 <1>   0.0800 
 30 H       -3.1690     3.4800     1.3600 H     1 <1>   0.0800 
 31 H        3.8960     3.7790     1.7990 H     1 <1>   0.2700 
 32 H       -5.2180     2.3410     0.9490 H     1 <1>   0.0800 
 33 H       -5.8180     2.0870    -0.6450 H     1 <1>   0.0800 
 34 H       -4.9220     5.4860    -2.7180 H     1 <1>   0.0800 
 35 H       -4.3980     5.8040    -1.0900 H     1 <1>   0.0800 
 36 H       -6.7820     4.1680    -1.9800 H     1 <1>   0.0800 
 37 H       -6.8620     5.6750    -1.1250 H     1 <1>   0.0800 
 38 H       -4.9090     5.1200     0.8590 H     1 <1>   0.4000 
 39 H       -8.1110     2.9230    -0.2110 H     1 <1>   0.0800 
 40 H       -8.3160     4.4460     0.6130 H     1 <1>   0.0800 
 41 H       -7.6450     3.0700     1.4640 H     1 <1>   0.0800 
@<TRIPOS>BOND
  1   1   2  2   
  2   2   3  am  
  3   2   4  1   
  4   3   5  1   
  5   3   6  1   
  6   4   7  1   
  7   4   8  2   
  8   5   9  1   
  9   5  21  1   
 10   5  22  1   
 11   6  10  1   
 12   6  23  1   
 13   6  24  1   
 14   7  11  2   
 15   7  25  1   
 16   8  12  1   
 17   8  26  1   
 18   9  13  1   
 19   9  27  1   
 20   9  28  1   
 21  10  13  1   
 22  10  29  1   
 23  10  30  1   
 24  11  12  1   
 25  12  31  1   
 26  13  14  1   
 27  13  15  1   
 28  14  16  1   
 29  15  17  1   
 30  15  32  1   
 31  15  33  1   
 32  16  18  1   
 33  16  34  1   
 34  16  35  1   
 35  17  18  1   
 36  17  19  1   
 37  17  20  1   
 38  18  36  1   
 39  18  37  1   
 40  19  38  1   
 41  20  39  1   
 42  20  40  1   
 43  20  41  1   
@<TRIPOS>SUBSTRUCTURE
  1 ****   6 GROUP 4 **** **** 0

# MOE 2024.06 (io_trps.svl 2023.06)
