@<TRIPOS>MOLECULE
NONAME
45 48 1 0 0 
SMALL
USER_CHARGES


@<TRIPOS>ATOM
  1 O       -1.0480    -0.0290     2.7890 O.2   1 <1>  -0.5700 
  2 C       -1.8770     0.6140     2.1670 C.2   1 <1>   0.5440 
  3 N       -3.0390    -0.0400     1.7930 N.am  1 <1>  -0.6600 
  4 C       -1.5950     2.0200     1.8650 C.ar  1 <1>   0.3960 
  5 C       -3.1010    -1.5290     1.6580 C.3   1 <1>   0.1400 
  6 C       -4.2480     0.6110     1.2050 C.3   1 <1>   0.1400 
  7 N       -1.9280     2.5600     0.6890 N.ar  1 <1>  -0.6200 
  8 C       -0.9550     2.8040     2.8070 C.ar  1 <1>  -0.1500 
  9 C       -3.3850    -1.9260     0.1950 C.3   1 <1>   0.3440 
 10 C       -4.4320     0.1490    -0.2570 C.3   1 <1>   0.2950 
 11 C       -1.6280     3.8300     0.5080 C.ar  1 <1>   0.4760 
 12 C       -0.6940     4.1160     2.5090 C.ar  1 <1>   0.1600 
 13 O       -4.5190    -1.2490    -0.2930 O.3   1 <1>  -0.5600 
 14 C       -3.6010    -3.4320     0.0800 C.ar  1 <1>  -0.1440 
 15 C       -5.6910     0.6940    -0.9540 C.3   1 <1>  -0.1950 
 16 N       -1.0320     4.6460     1.3560 N.ar  1 <1>  -0.6200 
 17 C       -2.0100     4.4310    -0.8230 C.3   1 <1>  -0.0970 
 18 C       -4.8590    -3.9980     0.2380 C.ar  1 <1>  -0.1500 
 19 C       -2.5170    -4.2620    -0.1750 C.ar  1 <1>  -0.1500 
 20 C       -6.2490     2.0630    -0.7060 C.3   1 <1>  -0.2000 
 21 C       -7.0210     0.8430    -0.2830 C.3   1 <1>  -0.2000 
 22 C       -5.0310    -5.3690     0.1450 C.ar  1 <1>  -0.1500 
 23 C       -2.6880    -5.6330    -0.2680 C.ar  1 <1>  -0.1500 
 24 C       -3.9450    -6.1870    -0.1070 C.ar  1 <1>  -0.1500 
 25 H       -2.1750    -1.9810     1.9690 H     1 <1>   0.0800 
 26 H       -3.8820    -1.9140     2.2890 H     1 <1>   0.0800 
 27 H       -5.1090     0.3230     1.7790 H     1 <1>   0.0800 
 28 H       -4.1740     1.6800     1.2520 H     1 <1>   0.0800 
 29 H       -0.6670     2.3840     3.7530 H     1 <1>   0.1500 
 30 H       -2.5480    -1.6420    -0.4200 H     1 <1>   0.0800 
 31 H       -3.5700     0.4480    -0.8290 H     1 <1>   0.0800 
 32 H       -0.1970     4.7460     3.2280 H     1 <1>   0.1500 
 33 H       -5.7110     0.3640    -1.9790 H     1 <1>   0.1000 
 34 H       -2.5920     5.3200    -0.6620 H     1 <1>   0.0800 
 35 H       -2.5870     3.7360    -1.4040 H     1 <1>   0.0800 
 36 H       -1.1200     4.6880    -1.3650 H     1 <1>   0.0800 
 37 H       -5.7110    -3.3690     0.4310 H     1 <1>   0.1500 
 38 H       -1.5330    -3.8460    -0.3000 H     1 <1>   0.1500 
 39 H       -5.8390     2.6940     0.0630 H     1 <1>   0.1000 
 40 H       -6.6090     2.6310    -1.5460 H     1 <1>   0.1000 
 41 H       -7.9000     0.5630    -0.8380 H     1 <1>   0.1000 
 42 H       -7.1190     0.6250     0.7650 H     1 <1>   0.1000 
 43 H       -6.0110    -5.7950     0.2680 H     1 <1>   0.1500 
 44 H       -1.8420    -6.2680    -0.4650 H     1 <1>   0.1500 
 45 H       -4.0780    -7.2520    -0.1800 H     1 <1>   0.1500 
@<TRIPOS>BOND
  1   1   2  2   
  2   2   3  am  
  3   2   4  1   
  4   3   5  1   
  5   3   6  1   
  6   4   7  ar  
  7   4   8  ar  
  8   5   9  1   
  9   5  25  1   
 10   5  26  1   
 11   6  10  1   
 12   6  27  1   
 13   6  28  1   
 14   7  11  ar  
 15   8  12  ar  
 16   8  29  1   
 17   9  13  1   
 18   9  14  1   
 19   9  30  1   
 20  10  13  1   
 21  10  15  1   
 22  10  31  1   
 23  11  16  ar  
 24  11  17  1   
 25  12  16  ar  
 26  12  32  1   
 27  14  18  ar  
 28  14  19  ar  
 29  15  20  1   
 30  15  21  1   
 31  15  33  1   
 32  17  34  1   
 33  17  35  1   
 34  17  36  1   
 35  18  22  ar  
 36  18  37  1   
 37  19  23  ar  
 38  19  38  1   
 39  20  21  1   
 40  20  39  1   
 41  20  40  1   
 42  21  41  1   
 43  21  42  1   
 44  22  24  ar  
 45  22  43  1   
 46  23  24  ar  
 47  23  44  1   
 48  24  45  1   
@<TRIPOS>SUBSTRUCTURE
  1 ****   3 GROUP 4 **** **** 0

# MOE 2024.06 (io_trps.svl 2023.06)
