@<TRIPOS>MOLECULE
NONAME
43 46 1 0 0 
SMALL
USER_CHARGES


@<TRIPOS>ATOM
  1 O       -0.6570    -0.2490     0.4760 O.3   1 <1>  -0.2800 
  2 C       -0.2480     0.7800    -0.1910 C.2   1 <1>   0.3930 
  3 C       -0.8700    -1.1400    -0.4390 C.2   1 <1>   0.2980 
  4 N       -0.2000     0.5560    -1.4500 N.2   1 <1>  -0.3380 
  5 C        0.1050     2.0600     0.5500 C.3   1 <1>  -0.0150 
  6 N       -0.6060    -0.7040    -1.6130 N.2   1 <1>  -0.3380 
  7 C       -1.3810    -2.5290    -0.0720 C.3   1 <1>   0.2900 
  8 C        1.1120     3.0280     0.0050 C.3   1 <1>  -0.2000 
  9 C        1.4390     2.2070     1.2170 C.3   1 <1>  -0.2000 
 10 N       -2.7760    -2.5240     0.4320 N.3   1 <1>  -0.8100 
 11 C       -3.2890    -3.8790     0.7460 C.3   1 <1>   0.1100 
 12 C       -3.7280    -1.8920    -0.4920 C.3   1 <1>   0.1100 
 13 C       -4.4840    -4.1670    -0.1780 C.3   1 <1>   0.4240 
 14 C       -4.9880    -2.7480    -0.4260 C.3   1 <1>  -0.1600 
 15 O       -3.9950    -4.6160    -1.3940 O.3   1 <1>  -0.6800 
 16 C       -5.5090    -5.1930     0.3640 C.ar  1 <1>  -0.1440 
 17 C       -5.1450    -6.4710     0.8090 C.ar  1 <1>  -0.1440 
 18 C       -6.8610    -4.8490     0.4160 C.ar  1 <1>  -0.1500 
 19 C       -6.1100    -7.3320     1.3130 C.ar  1 <1>  -0.1500 
 20 C       -3.7210    -7.0130     0.7650 C.3   1 <1>  -0.0970 
 21 C       -7.8140    -5.7160     0.9150 C.ar  1 <1>  -0.1500 
 22 C       -7.4380    -6.9610     1.3720 C.ar  1 <1>  -0.1500 
 23 H       -0.7490     2.4710     1.0560 H     1 <1>   0.1000 
 24 H       -0.7360    -2.9360     0.6870 H     1 <1>   0.0800 
 25 H       -1.3140    -3.1580    -0.9410 H     1 <1>   0.0800 
 26 H        0.9250     4.0810     0.1210 H     1 <1>   0.1000 
 27 H        1.5980     2.7950    -0.9270 H     1 <1>   0.1000 
 28 H        2.1560     1.4110     1.1200 H     1 <1>   0.1000 
 29 H        1.4820     2.6890     2.1780 H     1 <1>   0.1000 
 30 H       -3.6390    -3.8760     1.7640 H     1 <1>   0.0800 
 31 H       -2.5240    -4.6280     0.6500 H     1 <1>   0.0800 
 32 H       -3.3420    -1.8930    -1.4990 H     1 <1>   0.0800 
 33 H       -3.9240    -0.8750    -0.1950 H     1 <1>   0.0800 
 34 H       -5.5900    -2.6690    -1.3130 H     1 <1>   0.0800 
 35 H       -5.5610    -2.4120     0.4190 H     1 <1>   0.0800 
 36 H       -3.3980    -3.9340    -1.7440 H     1 <1>   0.4000 
 37 H       -7.2100    -3.8980     0.0630 H     1 <1>   0.1500 
 38 H       -5.8340    -8.3100     1.6650 H     1 <1>   0.1500 
 39 H       -3.2360    -6.7450    -0.1550 H     1 <1>   0.0800 
 40 H       -3.7200    -8.0860     0.8220 H     1 <1>   0.0800 
 41 H       -3.1560    -6.6340     1.5970 H     1 <1>   0.0800 
 42 H       -8.8480    -5.4210     0.9470 H     1 <1>   0.1500 
 43 H       -8.1740    -7.6390     1.7650 H     1 <1>   0.1500 
@<TRIPOS>BOND
  1   1   2  1   
  2   1   3  1   
  3   2   4  2   
  4   2   5  1   
  5   3   6  2   
  6   3   7  1   
  7   4   6  1   
  8   5   8  1   
  9   5   9  1   
 10   5  23  1   
 11   7  10  1   
 12   7  24  1   
 13   7  25  1   
 14   8   9  1   
 15   8  26  1   
 16   8  27  1   
 17   9  28  1   
 18   9  29  1   
 19  10  11  1   
 20  10  12  1   
 21  11  13  1   
 22  11  30  1   
 23  11  31  1   
 24  12  14  1   
 25  12  32  1   
 26  12  33  1   
 27  13  14  1   
 28  13  15  1   
 29  13  16  1   
 30  14  34  1   
 31  14  35  1   
 32  15  36  1   
 33  16  17  ar  
 34  16  18  ar  
 35  17  19  ar  
 36  17  20  1   
 37  18  21  ar  
 38  18  37  1   
 39  19  22  ar  
 40  19  38  1   
 41  20  39  1   
 42  20  40  1   
 43  20  41  1   
 44  21  22  ar  
 45  21  42  1   
 46  22  43  1   
@<TRIPOS>SUBSTRUCTURE
  1 ****  10 GROUP 4 **** **** 0

# MOE 2024.06 (io_trps.svl 2023.06)
