@<TRIPOS>MOLECULE
NONAME
60 64 1 0 0 
SMALL
USER_CHARGES


@<TRIPOS>ATOM
  1 O        0.6360     0.9630     0.6910 O.3   1 <1>  -0.1650 
  2 C        1.2410    -0.2450     0.8130 C.ar  1 <1>   0.0830 
  3 C        0.9320     1.8020    -0.3320 C.ar  1 <1>   0.0830 
  4 C        1.5450    -0.7010     2.0850 C.ar  1 <1>  -0.1500 
  5 C        1.5460    -1.0310    -0.2910 C.ar  1 <1>  -0.1500 
  6 C       -0.1020     2.5180    -0.9150 C.ar  1 <1>  -0.1500 
  7 C        2.2340     1.9670    -0.7920 C.ar  1 <1>  -0.1500 
  8 C        2.1590    -1.9290     2.2550 C.ar  1 <1>  -0.1500 
  9 C        2.1610    -2.2580    -0.1190 C.ar  1 <1>  -0.1500 
 10 C        0.1590     3.3830    -1.9640 C.ar  1 <1>  -0.1500 
 11 C        2.4920     2.8320    -1.8410 C.ar  1 <1>  -0.1500 
 12 C        2.4730    -2.7270     1.1560 C.ar  1 <1>  -0.0230 
 13 C        1.4550     3.5380    -2.4270 C.ar  1 <1>  -0.1500 
 14 N        3.0950    -3.9970     1.3370 N.pl3 1 <1>   0.5930 
 15 N        4.0760    -4.2220     2.2090 N.2   1 <1>  -0.4180 
 16 C        2.8480    -5.1800     0.7310 C.2   1 <1>   0.2700 
 17 N        4.3980    -5.4550     2.1050 N.2   1 <1>   0.0000 
 18 N        3.6540    -6.0710     1.1940 N.2   1 <1>  -0.3380 
 19 N        1.8660    -5.4710    -0.2400 N.pl3 1 <1>  -0.8220 
 20 C        2.0760    -6.6980    -1.0620 C.3   1 <1>   0.2090 
 21 C        0.4400    -5.2480     0.1390 C.3   1 <1>   0.2090 
 22 C        1.5670    -7.9520    -0.3030 C.3   1 <1>   0.4230 
 23 C       -0.0660    -6.4720     0.9130 C.3   1 <1>  -0.1600 
 24 N        1.8920    -9.2770    -0.9860 N.4   1 <1>  -0.9590 
 25 C        0.0780    -7.8090     0.1300 C.3   1 <1>   0.0000 
 26 C        1.0750   -10.4340    -0.4960 C.3   1 <1>   0.3430 
 27 C        1.8940    -9.2510    -2.4850 C.3   1 <1>   0.2630 
 28 C       -0.2970    -8.9840     1.0830 C.3   1 <1>  -0.1600 
 29 C       -0.8460    -7.8080    -1.1210 C.3   1 <1>   0.1200 
 30 C        0.6210   -10.2130     0.9460 C.3   1 <1>  -0.1600 
 31 O       -2.1470    -7.4610    -0.7960 O.3   1 <1>  -0.6800 
 32 H        1.3030    -0.0890     2.9360 H     1 <1>   0.1500 
 33 H        1.3010    -0.6860    -1.2810 H     1 <1>   0.1500 
 34 H       -1.1050     2.3930    -0.5480 H     1 <1>   0.1500 
 35 H        3.0420     1.4280    -0.3310 H     1 <1>   0.1500 
 36 H        2.3970    -2.2680     3.2500 H     1 <1>   0.1500 
 37 H        2.3960    -2.8530    -0.9850 H     1 <1>   0.1500 
 38 H       -0.6450     3.9360    -2.4180 H     1 <1>   0.1500 
 39 H        3.4990     2.9590    -2.1990 H     1 <1>   0.1500 
 40 H        1.6560     4.2110    -3.2430 H     1 <1>   0.1500 
 41 H        1.5630    -6.5730    -1.9970 H     1 <1>   0.0800 
 42 H        3.1280    -6.8040    -1.2680 H     1 <1>   0.0800 
 43 H        0.3470    -4.3700     0.7560 H     1 <1>   0.0800 
 44 H       -0.1530    -5.0860    -0.7460 H     1 <1>   0.0800 
 45 H        2.1220    -7.9540     0.6210 H     1 <1>   0.0800 
 46 H        0.4920    -6.5230     1.8320 H     1 <1>   0.0800 
 47 H       -1.0920    -6.3030     1.1890 H     1 <1>   0.0800 
 48 H        2.8610    -9.4770    -0.6910 H     1 <1>   0.4500 
 49 H        0.2000   -10.5510    -1.1140 H     1 <1>   0.0800 
 50 H        1.6510   -11.3440    -0.5620 H     1 <1>   0.0800 
 51 H        0.9140    -9.0040    -2.8610 H     1 <1>   0.0800 
 52 H        2.1760   -10.2160    -2.8750 H     1 <1>   0.0800 
 53 H        2.5990    -8.5220    -2.8520 H     1 <1>   0.0800 
 54 H       -0.2530    -8.6660     2.1120 H     1 <1>   0.0800 
 55 H       -1.3150    -9.2880     0.9110 H     1 <1>   0.0800 
 56 H       -0.8800    -8.7760    -1.5890 H     1 <1>   0.0800 
 57 H       -0.5180    -7.0900    -1.8510 H     1 <1>   0.0800 
 58 H        0.0930   -11.0870     1.2900 H     1 <1>   0.0800 
 59 H        1.4880   -10.1020     1.5750 H     1 <1>   0.0800 
 60 H       -2.5680    -8.1120    -0.2000 H     1 <1>   0.4000 
@<TRIPOS>BOND
  1   1   2  1   
  2   1   3  1   
  3   2   4  ar  
  4   2   5  ar  
  5   3   6  ar  
  6   3   7  ar  
  7   4   8  ar  
  8   4  32  1   
  9   5   9  ar  
 10   5  33  1   
 11   6  10  ar  
 12   6  34  1   
 13   7  11  ar  
 14   7  35  1   
 15   8  12  ar  
 16   8  36  1   
 17   9  12  ar  
 18   9  37  1   
 19  10  13  ar  
 20  10  38  1   
 21  11  13  ar  
 22  11  39  1   
 23  12  14  1   
 24  13  40  1   
 25  14  15  1   
 26  14  16  1   
 27  15  17  2   
 28  16  18  2   
 29  16  19  1   
 30  17  18  1   
 31  19  20  1   
 32  19  21  1   
 33  20  22  1   
 34  20  41  1   
 35  20  42  1   
 36  21  23  1   
 37  21  43  1   
 38  21  44  1   
 39  22  24  1   
 40  22  25  1   
 41  22  45  1   
 42  23  25  1   
 43  23  46  1   
 44  23  47  1   
 45  24  26  1   
 46  24  27  1   
 47  24  48  1   
 48  25  28  1   
 49  25  29  1   
 50  26  30  1   
 51  26  49  1   
 52  26  50  1   
 53  27  51  1   
 54  27  52  1   
 55  27  53  1   
 56  28  30  1   
 57  28  54  1   
 58  28  55  1   
 59  29  31  1   
 60  29  56  1   
 61  29  57  1   
 62  30  58  1   
 63  30  59  1   
 64  31  60  1   
@<TRIPOS>SUBSTRUCTURE
  1 ****  19 GROUP 4 **** **** 0

# MOE 2024.06 (io_trps.svl 2023.06)
