@<TRIPOS>MOLECULE
NONAME
41 44 1 0 0 
SMALL
USER_CHARGES


@<TRIPOS>ATOM
  1 CL      -1.7590     0.5680     1.0710 Cl    1 <1>  -0.1240 
  2 C       -3.1170    -0.2120     0.3090 C.2   1 <1>   0.1640 
  3 S       -4.2190     0.8200    -0.5740 S.3   1 <1>  -0.0800 
  4 C       -3.4940    -1.4990     0.2700 C.2   1 <1>  -0.1500 
  5 C       -5.2290    -0.5660    -1.0080 C.2   1 <1>  -0.0220 
  6 C       -4.6990    -1.6940    -0.4800 C.2   1 <1>  -0.1500 
  7 S       -6.7230    -0.2690    -1.9900 S.o2  1 <1>   1.5000 
  8 O       -7.1120    -1.5310    -2.5810 O.2   1 <1>  -0.6500 
  9 O       -6.5180     0.8930    -2.8270 O.2   1 <1>  -0.6500 
 10 N       -7.8940     0.1270    -0.8280 N.am  1 <1>  -0.8490 
 11 C       -7.7070     1.4470    -0.2060 C.3   1 <1>   0.1960 
 12 C       -8.1810    -0.9410     0.1270 C.3   1 <1>   0.1960 
 13 C       -8.8940     1.8910     0.6810 C.3   1 <1>   0.1440 
 14 C       -9.4240    -0.5990     0.9520 C.3   1 <1>  -0.1600 
 15 C      -10.0390     2.4060    -0.1890 C.ar  1 <1>   0.1660 
 16 C       -9.2990     0.7630     1.6560 C.3   1 <1>  -0.1600 
 17 C       -8.5070     3.1690     1.4720 C.3   1 <1>  -0.1600 
 18 N      -10.9130     1.6810    -0.8460 N.ar  1 <1>  -0.6200 
 19 C      -10.0620     3.7720    -0.2130 C.ar  1 <1>  -0.1440 
 20 C       -8.9690     4.3710     0.6320 C.3   1 <1>  -0.0170 
 21 C      -11.8010     2.3780    -1.5330 C.ar  1 <1>   0.7200 
 22 C      -11.0330     4.3900    -0.9650 C.ar  1 <1>   0.1600 
 23 N      -11.9180     3.6940    -1.6420 N.ar  1 <1>  -0.6200 
 24 N      -12.6760     1.6590    -2.2360 N.pl3 1 <1>  -0.9000 
 25 H       -2.9740    -2.3180     0.7370 H     1 <1>   0.1500 
 26 H       -5.1200    -2.6790    -0.5980 H     1 <1>   0.1500 
 27 H       -7.5630     2.1870    -0.9750 H     1 <1>   0.0800 
 28 H       -6.8180     1.4190     0.3990 H     1 <1>   0.0800 
 29 H       -7.3380    -1.0850     0.7830 H     1 <1>   0.0800 
 30 H       -8.3630    -1.8610    -0.4030 H     1 <1>   0.0800 
 31 H       -9.5870    -1.3680     1.6850 H     1 <1>   0.0800 
 32 H      -10.2780    -0.5980     0.2980 H     1 <1>   0.0800 
 33 H      -10.2370     1.0090     2.1250 H     1 <1>   0.0800 
 34 H       -8.5540     0.6790     2.4270 H     1 <1>   0.0800 
 35 H       -7.4580     3.2210     1.7010 H     1 <1>   0.0800 
 36 H       -9.0550     3.1890     2.3980 H     1 <1>   0.0800 
 37 H       -8.1750     4.7260    -0.0020 H     1 <1>   0.0800 
 38 H       -9.3330     5.1720     1.2510 H     1 <1>   0.0800 
 39 H      -11.0840     5.4640    -1.0120 H     1 <1>   0.1500 
 40 H      -13.1050     2.1590    -3.0080 H     1 <1>   0.4000 
 41 H      -12.3640     0.7120    -2.4300 H     1 <1>   0.4000 
@<TRIPOS>BOND
  1   1   2  1   
  2   2   3  1   
  3   2   4  2   
  4   3   5  1   
  5   4   6  1   
  6   4  25  1   
  7   5   6  2   
  8   5   7  1   
  9   6  26  1   
 10   7   8  2   
 11   7   9  2   
 12   7  10  am  
 13  10  11  1   
 14  10  12  1   
 15  11  13  1   
 16  11  27  1   
 17  11  28  1   
 18  12  14  1   
 19  12  29  1   
 20  12  30  1   
 21  13  15  1   
 22  13  16  1   
 23  13  17  1   
 24  14  16  1   
 25  14  31  1   
 26  14  32  1   
 27  15  18  ar  
 28  15  19  ar  
 29  16  33  1   
 30  16  34  1   
 31  17  20  1   
 32  17  35  1   
 33  17  36  1   
 34  18  21  ar  
 35  19  20  1   
 36  19  22  ar  
 37  20  37  1   
 38  20  38  1   
 39  21  23  ar  
 40  21  24  1   
 41  22  23  ar  
 42  22  39  1   
 43  24  40  1   
 44  24  41  1   
@<TRIPOS>SUBSTRUCTURE
  1 ****  11 GROUP 4 **** **** 0

# MOE 2024.06 (io_trps.svl 2023.06)
