@<TRIPOS>MOLECULE
NONAME
50 52 1 0 0 
SMALL
USER_CHARGES


@<TRIPOS>ATOM
  1 O       -0.0370     0.0740    -0.6400 O.co2 1 <1>  -0.9000 
  2 C       -0.8050     1.0400    -0.7170 C.2   1 <1>   0.9060 
  3 O       -0.4040     2.1070    -1.2220 O.co2 1 <1>  -0.9000 
  4 C       -2.2100     0.9580    -0.0300 C.3   1 <1>   0.1830 
  5 N       -2.3440     1.6660     1.3200 N.pl3 1 <1>  -0.8690 
  6 C       -3.2720     1.5230    -0.9870 C.3   1 <1>  -0.0160 
  7 C       -1.3370     2.4690     1.6680 C.ar  1 <1>   0.4100 
  8 C       -4.6670     1.5770    -0.3730 C.ar  1 <1>  -0.1440 
  9 N       -1.5090     3.7430     1.4150 N.ar  1 <1>  -0.6200 
 10 C       -0.0850     1.9030     1.9450 C.ar  1 <1>  -0.1500 
 11 C       -5.4630     0.4410    -0.3380 C.ar  1 <1>  -0.1500 
 12 C       -5.1480     2.7660     0.1590 C.ar  1 <1>  -0.1500 
 13 C       -0.4380     4.3550     0.9170 C.ar  1 <1>   0.7710 
 14 C        1.0040     2.5710     1.5060 C.ar  1 <1>   0.2180 
 15 C       -6.7290     0.4930     0.2200 C.ar  1 <1>  -0.1500 
 16 C       -6.4120     2.8230     0.7190 C.ar  1 <1>  -0.1500 
 17 N        0.7820     3.7750     0.9290 N.ar  1 <1>  -0.1790 
 18 N       -0.5740     5.6000     0.3740 N.pl3 1 <1>  -0.8380 
 19 C        2.4120     2.0140     1.5630 C.3   1 <1>  -0.0970 
 20 C       -7.2000     1.6830     0.7460 C.ar  1 <1>   0.0830 
 21 C       -1.9010     6.2890     0.3390 C.3   1 <1>   0.2090 
 22 C        0.3870     6.2340    -0.5760 C.3   1 <1>   0.2090 
 23 O       -8.4290     1.7230     1.2820 O.3   1 <1>  -0.5330 
 24 C       -2.5000     6.1300    -1.0630 C.3   1 <1>  -0.1600 
 25 C       -0.1520     6.0570    -1.9990 C.3   1 <1>  -0.1600 
 26 C       -1.5550     6.6670    -2.1490 C.3   1 <1>  -0.1600 
 27 H       -2.4140    -0.0850     0.1270 H     1 <1>   0.0800 
 28 H       -3.2910     2.0430     1.4200 H     1 <1>   0.4000 
 29 H       -2.9740     2.5120    -1.2900 H     1 <1>   0.0800 
 30 H       -3.2920     0.9200    -1.8770 H     1 <1>   0.0800 
 31 H       -0.0470     0.9250     2.3860 H     1 <1>   0.1500 
 32 H       -5.0980    -0.4860    -0.7440 H     1 <1>   0.1500 
 33 H       -4.5310     3.6480     0.1390 H     1 <1>   0.1500 
 34 H       -7.3510    -0.3820     0.2510 H     1 <1>   0.1500 
 35 H       -6.7740     3.7470     1.1280 H     1 <1>   0.1500 
 36 H        1.4860     4.2250     0.3710 H     1 <1>   0.4570 
 37 H        2.4110     1.0560     2.0530 H     1 <1>   0.0800 
 38 H        3.0650     2.6770     2.1000 H     1 <1>   0.0800 
 39 H        2.7840     1.8710     0.5630 H     1 <1>   0.0800 
 40 H       -2.5790     5.8900     1.0740 H     1 <1>   0.0800 
 41 H       -1.7660     7.3340     0.5610 H     1 <1>   0.0800 
 42 H        0.4720     7.2850    -0.3490 H     1 <1>   0.0800 
 43 H        1.3690     5.8040    -0.5080 H     1 <1>   0.0800 
 44 H       -8.6660     2.6020     1.6250 H     1 <1>   0.4500 
 45 H       -2.6910     5.0840    -1.2360 H     1 <1>   0.0800 
 46 H       -3.4410     6.6470    -1.1120 H     1 <1>   0.0800 
 47 H        0.5180     6.5220    -2.7000 H     1 <1>   0.0800 
 48 H       -0.1910     5.0050    -2.2300 H     1 <1>   0.0800 
 49 H       -1.4900     7.7390    -2.0650 H     1 <1>   0.0800 
 50 H       -1.9510     6.4330    -3.1220 H     1 <1>   0.0800 
@<TRIPOS>BOND
  1   1   2  ar  
  2   2   3  ar  
  3   2   4  1   
  4   4   5  1   
  5   4   6  1   
  6   4  27  1   
  7   5   7  1   
  8   5  28  1   
  9   6   8  1   
 10   6  29  1   
 11   6  30  1   
 12   7   9  ar  
 13   7  10  ar  
 14   8  11  ar  
 15   8  12  ar  
 16   9  13  ar  
 17  10  14  ar  
 18  10  31  1   
 19  11  15  ar  
 20  11  32  1   
 21  12  16  ar  
 22  12  33  1   
 23  13  17  ar  
 24  13  18  1   
 25  14  17  ar  
 26  14  19  1   
 27  15  20  ar  
 28  15  34  1   
 29  16  20  ar  
 30  16  35  1   
 31  17  36  1   
 32  18  21  1   
 33  18  22  1   
 34  19  37  1   
 35  19  38  1   
 36  19  39  1   
 37  20  23  1   
 38  21  24  1   
 39  21  40  1   
 40  21  41  1   
 41  22  25  1   
 42  22  42  1   
 43  22  43  1   
 44  23  44  1   
 45  24  26  1   
 46  24  45  1   
 47  24  46  1   
 48  25  26  1   
 49  25  47  1   
 50  25  48  1   
 51  26  49  1   
 52  26  50  1   
@<TRIPOS>SUBSTRUCTURE
  1 ****   9 GROUP 4 **** **** 0

# MOE 2024.06 (io_trps.svl 2023.06)
