@<TRIPOS>MOLECULE
NONAME
48 49 1 0 0 
SMALL
USER_CHARGES


@<TRIPOS>ATOM
  1 S       -0.7680     0.6150     1.5120 S.o2  1 <1>   1.4470 
  2 O       -0.7120    -0.6000     2.2960 O.2   1 <1>  -0.6500 
  3 O       -1.4180     1.7880     2.0580 O.2   1 <1>  -0.6500 
  4 N       -1.4930     0.2690     0.0180 N.am  1 <1>  -0.8490 
  5 C        0.9160     1.0760     1.0150 C.ar  1 <1>  -0.0090 
  6 C       -1.0240    -0.9930    -0.6160 C.3   1 <1>   0.1960 
  7 C       -2.9540     0.4070     0.0080 C.3   1 <1>   0.1960 
  8 C        1.1360     2.0150     0.0190 C.ar  1 <1>  -0.1500 
  9 C        2.0310     0.5080     1.6120 C.ar  1 <1>  -0.1500 
 10 C       -2.0800    -2.1170    -0.7440 C.3   1 <1>   0.2000 
 11 C       -3.6580    -0.7510     0.7350 C.3   1 <1>  -0.1600 
 12 C        2.4170     2.3650    -0.3690 C.ar  1 <1>  -0.1500 
 13 C        3.3150     0.8560     1.2270 C.ar  1 <1>  -0.1500 
 14 O       -2.8270    -1.9220    -1.8970 O.3   1 <1>  -0.6800 
 15 C       -3.0290    -2.1410     0.4590 C.3   1 <1>  -0.1860 
 16 C        3.5390     1.7950     0.2230 C.ar  1 <1>  -0.1430 
 17 C       -4.0610    -3.2400     0.2930 C.2   1 <1>   0.9060 
 18 C        4.9540     2.2200    -0.2480 C.3   1 <1>   0.1440 
 19 O       -4.1550    -4.1120     1.1590 O.co2 1 <1>  -0.9000 
 20 O       -4.7610    -3.2390    -0.7310 O.co2 1 <1>  -0.9000 
 21 C        6.0760     1.4760     0.5290 C.3   1 <1>  -0.1600 
 22 C        5.0850     1.9080    -1.7510 C.3   1 <1>  -0.2400 
 23 C        5.1080     3.7370    -0.0330 C.3   1 <1>  -0.2400 
 24 C        7.5360     1.8020     0.1600 C.3   1 <1>  -0.2400 
 25 H       -0.6530    -0.7690    -1.6010 H     1 <1>   0.0800 
 26 H       -0.1970    -1.3890    -0.0540 H     1 <1>   0.0800 
 27 H       -3.2470     1.3470     0.4450 H     1 <1>   0.0800 
 28 H       -3.2840     0.4220    -1.0170 H     1 <1>   0.0800 
 29 H        0.2880     2.4750    -0.4610 H     1 <1>   0.1500 
 30 H        1.8940    -0.2220     2.3930 H     1 <1>   0.1500 
 31 H       -1.5940    -3.0720    -0.8470 H     1 <1>   0.0800 
 32 H       -3.6580    -0.5690     1.7950 H     1 <1>   0.0800 
 33 H       -4.6860    -0.7580     0.4190 H     1 <1>   0.0800 
 34 H        2.5230     3.0980    -1.1480 H     1 <1>   0.1500 
 35 H        4.1240     0.3710     1.7380 H     1 <1>   0.1500 
 36 H       -3.6910    -2.4160    -1.7440 H     1 <1>   0.4000 
 37 H       -2.4400    -2.4060     1.3170 H     1 <1>   0.0800 
 38 H        5.9590     1.6840     1.5780 H     1 <1>   0.0800 
 39 H        5.9430     0.4170     0.3900 H     1 <1>   0.0800 
 40 H        6.0280     2.2450    -2.1380 H     1 <1>   0.0800 
 41 H        4.3150     2.3940    -2.3190 H     1 <1>   0.0800 
 42 H        5.0030     0.8480    -1.9140 H     1 <1>   0.0800 
 43 H        6.0520     4.0900    -0.4030 H     1 <1>   0.0800 
 44 H        5.0410     3.9670     1.0160 H     1 <1>   0.0800 
 45 H        4.3400     4.2850    -0.5450 H     1 <1>   0.0800 
 46 H        7.7630     2.8390     0.3320 H     1 <1>   0.0800 
 47 H        7.7460     1.5610    -0.8660 H     1 <1>   0.0800 
 48 H        8.1980     1.2170     0.7740 H     1 <1>   0.0800 
@<TRIPOS>BOND
  1   1   2  2   
  2   1   3  2   
  3   1   4  am  
  4   1   5  1   
  5   4   6  1   
  6   4   7  1   
  7   5   8  ar  
  8   5   9  ar  
  9   6  10  1   
 10   6  25  1   
 11   6  26  1   
 12   7  11  1   
 13   7  27  1   
 14   7  28  1   
 15   8  12  ar  
 16   8  29  1   
 17   9  13  ar  
 18   9  30  1   
 19  10  14  1   
 20  10  15  1   
 21  10  31  1   
 22  11  15  1   
 23  11  32  1   
 24  11  33  1   
 25  12  16  ar  
 26  12  34  1   
 27  13  16  ar  
 28  13  35  1   
 29  14  36  1   
 30  15  17  1   
 31  15  37  1   
 32  16  18  1   
 33  17  19  ar  
 34  17  20  ar  
 35  18  21  1   
 36  18  22  1   
 37  18  23  1   
 38  21  24  1   
 39  21  38  1   
 40  21  39  1   
 41  22  40  1   
 42  22  41  1   
 43  22  42  1   
 44  23  43  1   
 45  23  44  1   
 46  23  45  1   
 47  24  46  1   
 48  24  47  1   
 49  24  48  1   
@<TRIPOS>SUBSTRUCTURE
  1 ****   5 GROUP 4 **** **** 0

# MOE 2024.06 (io_trps.svl 2023.06)
