@<TRIPOS>MOLECULE
NONAME
46 48 1 0 0 
SMALL
USER_CHARGES


@<TRIPOS>ATOM
  1 O       -2.9780    -0.3520    -2.5850 O.co2 1 <1>  -0.9000 
  2 C       -2.4770     0.1150    -1.5450 C.2   1 <1>   0.9790 
  3 O       -1.4020     0.7310    -1.6140 O.co2 1 <1>  -0.9000 
  4 C       -3.1000    -0.2160    -0.2830 C.ar  1 <1>  -0.1790 
  5 C       -3.7080     0.6480     0.6470 C.ar  1 <1>   0.0820 
  6 C       -3.1520    -1.5800    -0.0170 C.ar  1 <1>  -0.1500 
  7 O       -3.7840     2.0010     0.5730 O.3   1 <1>  -0.3630 
  8 C       -4.3410     0.1160     1.7620 C.ar  1 <1>  -0.1500 
  9 C       -3.8300    -2.1090     1.0640 C.ar  1 <1>  -0.1430 
 10 C       -3.0570     2.7840    -0.3460 C.3   1 <1>   0.0400 
 11 C       -4.4150    -1.2470     1.9760 C.ar  1 <1>  -0.1500 
 12 C       -3.9670    -3.6110     1.1850 C.3   1 <1>   0.4870 
 13 N       -4.4870    -4.1340    -0.1150 N.4   1 <1>  -0.9590 
 14 C       -5.7450    -3.4430    -0.5630 C.3   1 <1>   0.3430 
 15 C       -4.7350    -5.6020    -0.1100 C.3   1 <1>   0.3430 
 16 C       -6.7470    -4.5560    -0.8840 C.3   1 <1>   0.2000 
 17 C       -6.2530    -5.7750    -0.1150 C.3   1 <1>  -0.0800 
 18 O       -8.0390    -4.2420    -0.4880 O.3   1 <1>  -0.6800 
 19 C       -6.7240    -7.1060    -0.7330 C.3   1 <1>  -0.0170 
 20 C       -6.2690    -8.3100     0.0800 C.ar  1 <1>   0.1670 
 21 N       -4.9610    -8.5050     0.1680 N.ar  1 <1>  -0.6200 
 22 C       -7.2130    -9.1430     0.6810 C.ar  1 <1>   0.1600 
 23 C       -4.6670    -9.5870     0.8750 C.ar  1 <1>   0.1600 
 24 N       -6.9170   -10.2110     1.4000 N.ar  1 <1>  -0.6200 
 25 C       -5.6130   -10.4110     1.4720 C.ar  1 <1>   0.1600 
 26 H       -2.6560    -2.2210    -0.7270 H     1 <1>   0.1500 
 27 H       -4.7890     0.7960     2.4630 H     1 <1>   0.1500 
 28 H       -3.2770     3.8170    -0.1560 H     1 <1>   0.0800 
 29 H       -3.3560     2.5290    -1.3470 H     1 <1>   0.0800 
 30 H       -2.0060     2.6050    -0.2020 H     1 <1>   0.0800 
 31 H       -4.9340    -1.6150     2.8440 H     1 <1>   0.1500 
 32 H       -4.6490    -3.8510     1.9830 H     1 <1>   0.0800 
 33 H       -3.0050    -4.0440     1.4060 H     1 <1>   0.0800 
 34 H       -3.7650    -3.9050    -0.8160 H     1 <1>   0.4500 
 35 H       -6.1310    -2.8190     0.2250 H     1 <1>   0.0800 
 36 H       -5.5560    -2.8330    -1.4330 H     1 <1>   0.0800 
 37 H       -4.3250    -6.0410    -1.0060 H     1 <1>   0.0800 
 38 H       -4.2890    -6.0880     0.7440 H     1 <1>   0.0800 
 39 H       -6.7580    -4.7360    -1.9470 H     1 <1>   0.0800 
 40 H       -6.5880    -5.7220     0.9070 H     1 <1>   0.0800 
 41 H       -8.1140    -4.0770     0.4730 H     1 <1>   0.4000 
 42 H       -6.3430    -7.2060    -1.7340 H     1 <1>   0.0800 
 43 H       -7.7980    -7.1010    -0.7990 H     1 <1>   0.0800 
 44 H       -8.2600    -8.9210     0.5630 H     1 <1>   0.1500 
 45 H       -3.6270    -9.8390     0.9890 H     1 <1>   0.1500 
 46 H       -5.2780   -11.2680     2.0300 H     1 <1>   0.1500 
@<TRIPOS>BOND
  1   1   2  ar  
  2   2   3  ar  
  3   2   4  1   
  4   4   5  ar  
  5   4   6  ar  
  6   5   7  1   
  7   5   8  ar  
  8   6   9  ar  
  9   6  26  1   
 10   7  10  1   
 11   8  11  ar  
 12   8  27  1   
 13   9  11  ar  
 14   9  12  1   
 15  10  28  1   
 16  10  29  1   
 17  10  30  1   
 18  11  31  1   
 19  12  13  1   
 20  12  32  1   
 21  12  33  1   
 22  13  14  1   
 23  13  15  1   
 24  13  34  1   
 25  14  16  1   
 26  14  35  1   
 27  14  36  1   
 28  15  17  1   
 29  15  37  1   
 30  15  38  1   
 31  16  17  1   
 32  16  18  1   
 33  16  39  1   
 34  17  19  1   
 35  17  40  1   
 36  18  41  1   
 37  19  20  1   
 38  19  42  1   
 39  19  43  1   
 40  20  21  ar  
 41  20  22  ar  
 42  21  23  ar  
 43  22  24  ar  
 44  22  44  1   
 45  23  25  ar  
 46  23  45  1   
 47  24  25  ar  
 48  25  46  1   
@<TRIPOS>SUBSTRUCTURE
  1 ****  13 GROUP 4 **** **** 0

# MOE 2024.06 (io_trps.svl 2023.06)
