@<TRIPOS>MOLECULE
NONAME
54 57 1 0 0 
SMALL
USER_CHARGES


@<TRIPOS>ATOM
  1 S       -1.9910     2.0580     1.2870 S.3   1 <1>  -0.4600 
  2 C       -0.5660     1.4990     0.3190 C.3   1 <1>   0.1500 
  3 C       -2.4510     0.5670     2.2410 C.3   1 <1>   0.1310 
  4 C        0.4640     2.6250     0.3550 C.3   1 <1>  -0.2400 
  5 C       -1.0490     1.2030    -1.0990 C.3   1 <1>  -0.2400 
  6 C       -2.9280    -0.5600     1.3300 C.2   1 <1>   0.5690 
  7 O       -2.1440    -1.4550     1.1100 O.2   1 <1>  -0.5700 
  8 N       -4.1970    -0.5780     0.8010 N.am  1 <1>  -0.6600 
  9 C       -5.2090     0.5130     0.9780 C.3   1 <1>   0.1400 
 10 C       -4.6500    -1.7740     0.0280 C.3   1 <1>   0.1400 
 11 C       -5.8250     0.9640    -0.3670 C.3   1 <1>   0.1430 
 12 C       -6.0440    -1.5820    -0.5890 C.3   1 <1>  -0.1600 
 13 C       -7.0560     1.7900    -0.0290 C.ar  1 <1>   0.1670 
 14 C       -6.1390    -0.2300    -1.3090 C.3   1 <1>  -0.1600 
 15 C       -4.9300     2.0140    -1.0740 C.3   1 <1>  -0.1600 
 16 N       -8.2130     1.3100     0.3590 N.ar  1 <1>  -0.6200 
 17 C       -6.8130     3.1230    -0.1510 C.ar  1 <1>  -0.1440 
 18 C       -5.3970     3.3970    -0.5930 C.3   1 <1>  -0.0160 
 19 C       -9.1670     2.2160     0.6160 C.ar  1 <1>   0.6200 
 20 C       -7.8360     3.9880     0.1360 C.ar  1 <1>   0.1600 
 21 N       -9.0130     3.5450     0.5170 N.ar  1 <1>  -0.6200 
 22 C      -10.4700     1.7170     1.0370 C.ar  1 <1>   0.0000 
 23 C      -11.6430     2.4420     0.8060 C.ar  1 <1>  -0.1500 
 24 C      -10.6110     0.4880     1.6900 C.ar  1 <1>  -0.1500 
 25 C      -12.8820     1.9720     1.2030 C.ar  1 <1>  -0.1500 
 26 C      -11.8460     0.0110     2.0890 C.ar  1 <1>  -0.1500 
 27 C      -12.9860     0.7530     1.8460 C.ar  1 <1>  -0.1500 
 28 H       -0.1780     0.6100     0.7870 H     1 <1>   0.0800 
 29 H       -3.2170     0.8500     2.9380 H     1 <1>   0.0800 
 30 H       -1.5760     0.2590     2.7820 H     1 <1>   0.0800 
 31 H        0.0530     3.5240    -0.0670 H     1 <1>   0.0800 
 32 H        1.3370     2.3450    -0.2060 H     1 <1>   0.0800 
 33 H        0.7590     2.8200     1.3710 H     1 <1>   0.0800 
 34 H       -1.4770     2.0840    -1.5430 H     1 <1>   0.0800 
 35 H       -1.7870     0.4210    -1.0850 H     1 <1>   0.0800 
 36 H       -0.2240     0.8760    -1.7050 H     1 <1>   0.0800 
 37 H       -4.7860     1.3660     1.4730 H     1 <1>   0.0800 
 38 H       -5.9950     0.1350     1.6100 H     1 <1>   0.0800 
 39 H       -4.6530    -2.6340     0.6760 H     1 <1>   0.0800 
 40 H       -3.9370    -1.9580    -0.7590 H     1 <1>   0.0800 
 41 H       -6.7940    -1.6420     0.1820 H     1 <1>   0.0800 
 42 H       -6.2350    -2.3800    -1.2850 H     1 <1>   0.0800 
 43 H       -5.4320    -0.2500    -2.1200 H     1 <1>   0.0800 
 44 H       -7.1180    -0.1150    -1.7410 H     1 <1>   0.0800 
 45 H       -5.0920     1.9710    -2.1370 H     1 <1>   0.0800 
 46 H       -3.8860     1.8510    -0.8860 H     1 <1>   0.0800 
 47 H       -5.3540     4.1270    -1.3820 H     1 <1>   0.0800 
 48 H       -4.8070     3.7260     0.2460 H     1 <1>   0.0800 
 49 H       -7.6910     5.0510     0.0540 H     1 <1>   0.1500 
 50 H      -11.5830     3.3930     0.3060 H     1 <1>   0.1500 
 51 H       -9.7350    -0.1050     1.8880 H     1 <1>   0.1500 
 52 H      -13.7650     2.5560     1.0110 H     1 <1>   0.1500 
 53 H      -11.9200    -0.9390     2.5890 H     1 <1>   0.1500 
 54 H      -13.9490     0.3850     2.1560 H     1 <1>   0.1500 
@<TRIPOS>BOND
  1   1   2  1   
  2   1   3  1   
  3   2   4  1   
  4   2   5  1   
  5   2  28  1   
  6   3   6  1   
  7   3  29  1   
  8   3  30  1   
  9   4  31  1   
 10   4  32  1   
 11   4  33  1   
 12   5  34  1   
 13   5  35  1   
 14   5  36  1   
 15   6   7  2   
 16   6   8  am  
 17   8   9  1   
 18   8  10  1   
 19   9  11  1   
 20   9  37  1   
 21   9  38  1   
 22  10  12  1   
 23  10  39  1   
 24  10  40  1   
 25  11  13  1   
 26  11  14  1   
 27  11  15  1   
 28  12  14  1   
 29  12  41  1   
 30  12  42  1   
 31  13  16  ar  
 32  13  17  ar  
 33  14  43  1   
 34  14  44  1   
 35  15  18  1   
 36  15  45  1   
 37  15  46  1   
 38  16  19  ar  
 39  17  18  1   
 40  17  20  ar  
 41  18  47  1   
 42  18  48  1   
 43  19  21  ar  
 44  19  22  1   
 45  20  21  ar  
 46  20  49  1   
 47  22  23  ar  
 48  22  24  ar  
 49  23  25  ar  
 50  23  50  1   
 51  24  26  ar  
 52  24  51  1   
 53  25  27  ar  
 54  25  52  1   
 55  26  27  ar  
 56  26  53  1   
 57  27  54  1   
@<TRIPOS>SUBSTRUCTURE
  1 ****  11 GROUP 4 **** **** 0

# MOE 2024.06 (io_trps.svl 2023.06)
