@<TRIPOS>MOLECULE
NONAME
51 52 1 0 0 
SMALL
USER_CHARGES


@<TRIPOS>ATOM
  1 O       -0.5890     1.0280    -1.5140 O.2   1 <1>  -0.5700 
  2 C       -0.6980     1.8670    -0.6330 C.2   1 <1>   0.5440 
  3 N       -0.3560     1.4890     0.6610 N.am  1 <1>  -0.6600 
  4 C       -1.2080     3.1990    -0.9860 C.ar  1 <1>   0.3960 
  5 C        0.3470     0.2080     0.9510 C.3   1 <1>   0.0600 
  6 C       -0.6690     2.3070     1.8640 C.3   1 <1>   0.0600 
  7 N       -0.6910     4.3000    -0.4120 N.ar  1 <1>  -0.6200 
  8 C       -2.2270     3.2830    -1.9360 C.ar  1 <1>  -0.1500 
  9 C       -1.1910     5.4580    -0.7850 C.ar  1 <1>   0.4100 
 10 C       -2.7520     4.5010    -2.3140 C.ar  1 <1>  -0.1500 
 11 N       -0.6130     6.5290    -0.1720 N.pl3 1 <1>  -0.8690 
 12 C       -2.2140     5.6110    -1.7140 C.ar  1 <1>  -0.1500 
 13 C       -0.0490     7.6240    -0.9810 C.3   1 <1>   0.2090 
 14 C        1.3610     7.9250    -0.4790 C.3   1 <1>  -0.1600 
 15 C        2.0230     9.0350    -1.3030 C.3   1 <1>  -0.0170 
 16 C        3.4220     9.3150    -0.7810 C.ar  1 <1>  -0.1430 
 17 C        4.4970     8.5600    -1.2200 C.ar  1 <1>  -0.1500 
 18 C        3.6390    10.3240     0.1420 C.ar  1 <1>  -0.1500 
 19 C        5.7720     8.8110    -0.7430 C.ar  1 <1>  -0.1500 
 20 C        4.9150    10.5750     0.6180 C.ar  1 <1>  -0.1500 
 21 C        5.9950     9.8210     0.1810 C.ar  1 <1>  -0.1430 
 22 C        7.4070    10.0830     0.6990 C.3   1 <1>   0.0630 
 23 C        7.4860     9.8500     2.2110 C.3   1 <1>  -0.2400 
 24 C        7.8680    11.5000     0.3410 C.3   1 <1>  -0.2400 
 25 H        0.7300    -0.2330     0.0460 H     1 <1>   0.0800 
 26 H       -0.3360    -0.4840     1.4100 H     1 <1>   0.0800 
 27 H        1.1740     0.3880     1.6150 H     1 <1>   0.0800 
 28 H       -1.5380     2.9170     1.6910 H     1 <1>   0.0800 
 29 H        0.1670     2.9450     2.0920 H     1 <1>   0.0800 
 30 H       -0.8670     1.6680     2.7070 H     1 <1>   0.0800 
 31 H       -2.6050     2.3780    -2.3770 H     1 <1>   0.1500 
 32 H       -3.5430     4.5730    -3.0420 H     1 <1>   0.1500 
 33 H        0.0590     6.1930     0.5230 H     1 <1>   0.4000 
 34 H       -2.5720     6.5950    -1.9450 H     1 <1>   0.1500 
 35 H       -0.6740     8.4950    -0.8820 H     1 <1>   0.0800 
 36 H       -0.0150     7.3350    -2.0190 H     1 <1>   0.0800 
 37 H        1.9610     7.0340    -0.5480 H     1 <1>   0.0800 
 38 H        1.3170     8.2320     0.5510 H     1 <1>   0.0800 
 39 H        1.4330     9.9330    -1.2510 H     1 <1>   0.0800 
 40 H        2.0820     8.7390    -2.3370 H     1 <1>   0.0800 
 41 H        4.3470     7.7700    -1.9340 H     1 <1>   0.1500 
 42 H        2.8180    10.9200     0.4970 H     1 <1>   0.1500 
 43 H        6.5910     8.2120    -1.0980 H     1 <1>   0.1500 
 44 H        5.0610    11.3630     1.3340 H     1 <1>   0.1500 
 45 H        8.0820     9.3910     0.2250 H     1 <1>   0.0800 
 46 H        6.8670    10.5520     2.7390 H     1 <1>   0.0800 
 47 H        8.4990     9.9580     2.5530 H     1 <1>   0.0800 
 48 H        7.1490     8.8550     2.4430 H     1 <1>   0.0800 
 49 H        7.2570    12.2370     0.8310 H     1 <1>   0.0800 
 50 H        7.7980    11.6480    -0.7220 H     1 <1>   0.0800 
 51 H        8.8900    11.6460     0.6410 H     1 <1>   0.0800 
@<TRIPOS>BOND
  1   1   2  2   
  2   2   3  am  
  3   2   4  1   
  4   3   5  1   
  5   3   6  1   
  6   4   7  ar  
  7   4   8  ar  
  8   5  25  1   
  9   5  26  1   
 10   5  27  1   
 11   6  28  1   
 12   6  29  1   
 13   6  30  1   
 14   7   9  ar  
 15   8  10  ar  
 16   8  31  1   
 17   9  11  1   
 18   9  12  ar  
 19  10  12  ar  
 20  10  32  1   
 21  11  13  1   
 22  11  33  1   
 23  12  34  1   
 24  13  14  1   
 25  13  35  1   
 26  13  36  1   
 27  14  15  1   
 28  14  37  1   
 29  14  38  1   
 30  15  16  1   
 31  15  39  1   
 32  15  40  1   
 33  16  17  ar  
 34  16  18  ar  
 35  17  19  ar  
 36  17  41  1   
 37  18  20  ar  
 38  18  42  1   
 39  19  21  ar  
 40  19  43  1   
 41  20  21  ar  
 42  20  44  1   
 43  21  22  1   
 44  22  23  1   
 45  22  24  1   
 46  22  45  1   
 47  23  46  1   
 48  23  47  1   
 49  23  48  1   
 50  24  49  1   
 51  24  50  1   
 52  24  51  1   
@<TRIPOS>SUBSTRUCTURE
  1 ****  14 GROUP 4 **** **** 0

# MOE 2024.06 (io_trps.svl 2023.06)
