@<TRIPOS>MOLECULE
NONAME
52 53 1 0 0 
SMALL
USER_CHARGES


@<TRIPOS>ATOM
  1 O        0.1640     0.7780    -0.4240 O.2   1 <1>  -0.5700 
  2 C        0.1080     1.9790    -0.3530 C.2   1 <1>   0.5690 
  3 N       -0.9650     2.5860     0.1980 N.am  1 <1>  -0.7300 
  4 C        1.2410     2.8350    -0.9230 C.3   1 <1>   0.1810 
  5 C       -1.1140     4.0590     0.3080 C.3   1 <1>   0.3640 
  6 O        1.2280     4.1600    -0.4380 O.3   1 <1>  -0.5600 
  7 C       -2.5130     4.4360    -0.1730 C.ar  1 <1>  -0.1440 
  8 C       -0.0300     4.8160    -0.5110 C.3   1 <1>   0.2610 
  9 C       -3.2630     5.3640     0.5370 C.ar  1 <1>   0.1600 
 10 C       -3.0630     3.8800    -1.3150 C.ar  1 <1>  -0.1500 
 11 C        0.1080     6.2850    -0.0680 C.2   1 <1>   0.5690 
 12 N       -4.4820     5.7630     0.2110 N.ar  1 <1>  -0.6200 
 13 C       -4.3310     4.2870    -1.6680 C.ar  1 <1>  -0.1500 
 14 O       -0.4460     6.6330     0.9520 O.2   1 <1>  -0.5700 
 15 N        0.8490     7.1820    -0.8120 N.am  1 <1>  -0.6600 
 16 C       -4.9880     5.2170    -0.8820 C.ar  1 <1>   0.1600 
 17 C        1.0380     8.5990    -0.3410 C.3   1 <1>   0.1400 
 18 C        1.4320     6.8340    -2.1410 C.3   1 <1>   0.0600 
 19 C        2.3380     8.8600     0.4810 C.3   1 <1>   0.0000 
 20 C        3.6000     8.4700    -0.3300 C.3   1 <1>   0.1200 
 21 C        2.3060     8.0000     1.7770 C.3   1 <1>  -0.1600 
 22 C        2.4210    10.3800     0.8110 C.3   1 <1>  -0.1600 
 23 O        3.6710     9.1570    -1.5370 O.3   1 <1>  -0.6800 
 24 C        3.4520     8.2260     2.7790 C.3   1 <1>  -0.2400 
 25 C        1.3100    10.9420     1.7150 C.3   1 <1>  -0.2400 
 26 H       -1.7130     2.0080     0.5840 H     1 <1>   0.3700 
 27 H        1.1630     2.8640    -1.9940 H     1 <1>   0.0800 
 28 H        2.1850     2.3980    -0.6550 H     1 <1>   0.0800 
 29 H       -1.0130     4.3150     1.3490 H     1 <1>   0.0800 
 30 H       -0.3330     4.8090    -1.5400 H     1 <1>   0.0800 
 31 H       -2.8410     5.8090     1.4240 H     1 <1>   0.1500 
 32 H       -2.5340     3.1540    -1.9100 H     1 <1>   0.1500 
 33 H       -4.8110     3.8890    -2.5440 H     1 <1>   0.1500 
 34 H       -5.9790     5.5270    -1.1650 H     1 <1>   0.1500 
 35 H        1.0110     9.2570    -1.1920 H     1 <1>   0.0800 
 36 H        0.1920     8.8650     0.2660 H     1 <1>   0.0800 
 37 H        1.6860     7.7220    -2.6910 H     1 <1>   0.0800 
 38 H        0.7230     6.2780    -2.7280 H     1 <1>   0.0800 
 39 H        2.3180     6.2380    -2.0050 H     1 <1>   0.0800 
 40 H        3.6070     7.4150    -0.5410 H     1 <1>   0.0800 
 41 H        4.4930     8.7090     0.2190 H     1 <1>   0.0800 
 42 H        1.3740     8.1640     2.2890 H     1 <1>   0.0800 
 43 H        2.3200     6.9590     1.5030 H     1 <1>   0.0800 
 44 H        3.3700    10.5900     1.2730 H     1 <1>   0.0800 
 45 H        2.4080    10.9400    -0.1080 H     1 <1>   0.0800 
 46 H        2.8410     9.0470    -2.0340 H     1 <1>   0.4000 
 47 H        3.4520     9.2340     3.1520 H     1 <1>   0.0800 
 48 H        4.4090     8.0160     2.3360 H     1 <1>   0.0800 
 49 H        3.3250     7.5650     3.6190 H     1 <1>   0.0800 
 50 H        1.3050    10.4560     2.6740 H     1 <1>   0.0800 
 51 H        0.3410    10.8310     1.2640 H     1 <1>   0.0800 
 52 H        1.4790    11.9920     1.8790 H     1 <1>   0.0800 
@<TRIPOS>BOND
  1   1   2  2   
  2   2   3  am  
  3   2   4  1   
  4   3   5  1   
  5   3  26  1   
  6   4   6  1   
  7   4  27  1   
  8   4  28  1   
  9   5   7  1   
 10   5   8  1   
 11   5  29  1   
 12   6   8  1   
 13   7   9  ar  
 14   7  10  ar  
 15   8  11  1   
 16   8  30  1   
 17   9  12  ar  
 18   9  31  1   
 19  10  13  ar  
 20  10  32  1   
 21  11  14  2   
 22  11  15  am  
 23  12  16  ar  
 24  13  16  ar  
 25  13  33  1   
 26  15  17  1   
 27  15  18  1   
 28  16  34  1   
 29  17  19  1   
 30  17  35  1   
 31  17  36  1   
 32  18  37  1   
 33  18  38  1   
 34  18  39  1   
 35  19  20  1   
 36  19  21  1   
 37  19  22  1   
 38  20  23  1   
 39  20  40  1   
 40  20  41  1   
 41  21  24  1   
 42  21  42  1   
 43  21  43  1   
 44  22  25  1   
 45  22  44  1   
 46  22  45  1   
 47  23  46  1   
 48  24  47  1   
 49  24  48  1   
 50  24  49  1   
 51  25  50  1   
 52  25  51  1   
 53  25  52  1   
@<TRIPOS>SUBSTRUCTURE
  1 ****  11 GROUP 4 **** **** 0

# MOE 2024.06 (io_trps.svl 2023.06)
