@<TRIPOS>MOLECULE
NONAME
43 44 1 0 0 
SMALL
USER_CHARGES


@<TRIPOS>ATOM
  1 O       -1.0880    -1.9850    -0.4950 O.2   1 <1>  -0.5700 
  2 C       -1.7730    -1.0610    -0.0940 C.2   1 <1>   0.5440 
  3 N       -1.1510     0.1060     0.3110 N.am  1 <1>  -0.6600 
  4 C       -3.2070    -1.2240    -0.0710 C.ar  1 <1>   0.0860 
  5 C        0.3220     0.1630     0.5240 C.3   1 <1>   0.0600 
  6 C       -1.8350     1.4270     0.3770 C.3   1 <1>   0.0600 
  7 C       -3.8570    -1.7980    -1.1590 C.ar  1 <1>   0.1600 
  8 C       -4.0010    -0.8570     1.0110 C.ar  1 <1>  -0.1500 
  9 N       -5.1540    -2.0330    -1.2550 N.ar  1 <1>  -0.6200 
 10 C       -5.3520    -1.0930     0.9290 C.ar  1 <1>  -0.1500 
 11 C       -5.8900    -1.6970    -0.2040 C.ar  1 <1>   0.4100 
 12 N       -7.2240    -1.9960    -0.2470 N.pl3 1 <1>  -0.8690 
 13 C       -7.7910    -3.0550    -1.1010 C.3   1 <1>   0.3890 
 14 C       -8.4560    -4.0870    -0.2120 C.2   1 <1>  -0.3320 
 15 N       -7.8740    -4.7860     0.7920 N.pl3 1 <1>   0.0480 
 16 C       -9.7380    -4.5100    -0.2800 C.2   1 <1>   0.0770 
 17 C       -8.8610    -5.5850     1.2580 C.2   1 <1>   0.0360 
 18 C       -6.5160    -4.6960     1.3760 C.3   1 <1>   0.0960 
 19 N       -9.9900    -5.4520     0.6440 N.2   1 <1>  -0.5650 
 20 C       -5.4390    -5.1650     0.4020 C.3   1 <1>   0.1200 
 21 O       -4.2170    -5.0640     1.0590 O.3   1 <1>  -0.5600 
 22 C       -3.1090    -5.2120     0.2280 C.3   1 <1>   0.0400 
 23 H        0.7250    -0.8270     0.6570 H     1 <1>   0.0800 
 24 H        0.5430     0.7410     1.4040 H     1 <1>   0.0800 
 25 H        0.7940     0.6170    -0.3290 H     1 <1>   0.0800 
 26 H       -2.8010     1.3840    -0.0940 H     1 <1>   0.0800 
 27 H       -1.2450     2.1680    -0.1340 H     1 <1>   0.0800 
 28 H       -1.9540     1.7220     1.4050 H     1 <1>   0.0800 
 29 H       -3.2500    -2.0810    -2.0020 H     1 <1>   0.1500 
 30 H       -3.5580    -0.4130     1.8850 H     1 <1>   0.1500 
 31 H       -6.0040    -0.8280     1.7400 H     1 <1>   0.1500 
 32 H       -7.7970    -1.8130     0.5770 H     1 <1>   0.4000 
 33 H       -7.0350    -3.5280    -1.7030 H     1 <1>   0.0800 
 34 H       -8.5160    -2.6170    -1.7650 H     1 <1>   0.0800 
 35 H      -10.5090    -4.1850    -0.9590 H     1 <1>   0.1500 
 36 H       -8.7040    -6.2650     2.0770 H     1 <1>   0.1500 
 37 H       -6.4790    -5.3090     2.2570 H     1 <1>   0.0800 
 38 H       -6.3280    -3.6790     1.6590 H     1 <1>   0.0800 
 39 H       -5.4170    -4.5380    -0.4710 H     1 <1>   0.0800 
 40 H       -5.5920    -6.1930     0.1210 H     1 <1>   0.0800 
 41 H       -2.2220    -5.1100     0.8290 H     1 <1>   0.0800 
 42 H       -3.1210    -4.4430    -0.5240 H     1 <1>   0.0800 
 43 H       -3.1320    -6.1870    -0.2260 H     1 <1>   0.0800 
@<TRIPOS>BOND
  1   1   2  2   
  2   2   3  am  
  3   2   4  1   
  4   3   5  1   
  5   3   6  1   
  6   4   7  ar  
  7   4   8  ar  
  8   5  23  1   
  9   5  24  1   
 10   5  25  1   
 11   6  26  1   
 12   6  27  1   
 13   6  28  1   
 14   7   9  ar  
 15   7  29  1   
 16   8  10  ar  
 17   8  30  1   
 18   9  11  ar  
 19  10  11  ar  
 20  10  31  1   
 21  11  12  1   
 22  12  13  1   
 23  12  32  1   
 24  13  14  1   
 25  13  33  1   
 26  13  34  1   
 27  14  15  1   
 28  14  16  2   
 29  15  17  1   
 30  15  18  1   
 31  16  19  1   
 32  16  35  1   
 33  17  19  2   
 34  17  36  1   
 35  18  20  1   
 36  18  37  1   
 37  18  38  1   
 38  20  21  1   
 39  20  39  1   
 40  20  40  1   
 41  21  22  1   
 42  22  41  1   
 43  22  42  1   
 44  22  43  1   
@<TRIPOS>SUBSTRUCTURE
  1 ****  11 GROUP 4 **** **** 0

# MOE 2024.06 (io_trps.svl 2023.06)
