@<TRIPOS>MOLECULE
NONAME
53 56 1 0 0 
SMALL
USER_CHARGES


@<TRIPOS>ATOM
  1 O       -0.1660     0.5700     0.9450 O.2   1 <1>  -0.5700 
  2 C       -1.1180     1.0310     0.3460 C.2   1 <1>   0.5440 
  3 N       -1.9430     0.1720    -0.3360 N.am  1 <1>  -0.6600 
  4 C       -1.3300     2.4620     0.3640 C.ar  1 <1>   0.0860 
  5 C       -3.0910     0.5540    -1.2020 C.3   1 <1>   0.1400 
  6 C       -2.1600    -1.2060     0.1760 C.3   1 <1>   0.1400 
  7 C       -0.3620     3.3460    -0.1390 C.ar  1 <1>   0.0170 
  8 C       -2.5020     2.9850     0.9070 C.ar  1 <1>  -0.1500 
  9 C       -4.2330    -0.3650    -0.7700 C.3   1 <1>   0.2000 
 10 C       -3.5110    -1.6630    -0.3910 C.3   1 <1>  -0.0800 
 11 C        0.8780     2.8590    -0.6900 C.cat 1 <1>   0.7830 
 12 C       -0.6160     4.7180    -0.0990 C.ar  1 <1>  -0.1500 
 13 C       -2.7370     4.3460     0.9390 C.ar  1 <1>  -0.1500 
 14 O       -4.8450     0.1730     0.3690 O.3   1 <1>  -0.5600 
 15 C       -4.3050    -2.5700     0.5680 C.3   1 <1>   0.0200 
 16 N        1.1120     2.6870    -1.9900 N.pl3 1 <1>  -0.7000 
 17 N        1.9880     2.5280    -0.0160 N.pl3 1 <1>  -0.7640 
 18 C       -1.7900     5.2150     0.4310 C.ar  1 <1>  -0.1500 
 19 C       -5.9270     1.0140     0.1180 C.3   1 <1>   0.0400 
 20 C       -3.6510    -3.9230     0.7960 C.2   1 <1>  -0.0400 
 21 C        2.3840     2.2100    -2.1500 C.2   1 <1>   0.2000 
 22 C        2.9290     2.1080    -0.9210 C.2   1 <1>   0.2000 
 23 C        2.1520     2.4730     1.4630 C.3   1 <1>   0.2740 
 24 O       -4.1920    -4.7420     1.6580 O.3   1 <1>  -0.0190 
 25 C       -2.5680    -4.5300     0.2820 C.2   1 <1>  -0.1500 
 26 N       -3.5320    -5.8600     1.7510 N.2   1 <1>  -0.4100 
 27 C       -2.5470    -5.7600     0.9340 C.2   1 <1>   0.1080 
 28 C       -1.5090    -6.8380     0.7170 C.3   1 <1>  -0.0590 
 29 H       -3.3630     1.5890    -1.1150 H     1 <1>   0.0800 
 30 H       -2.8310     0.3430    -2.2250 H     1 <1>   0.0800 
 31 H       -1.3580    -1.8510    -0.1350 H     1 <1>   0.0800 
 32 H       -2.1920    -1.1790     1.2530 H     1 <1>   0.0800 
 33 H       -3.2390     2.3080     1.3120 H     1 <1>   0.1500 
 34 H       -4.9690    -0.5210    -1.5410 H     1 <1>   0.0800 
 35 H       -3.3200    -2.2060    -1.2990 H     1 <1>   0.0800 
 36 H        0.1150     5.4110    -0.4840 H     1 <1>   0.1500 
 37 H       -3.6510     4.7300     1.3620 H     1 <1>   0.1500 
 38 H       -5.2900    -2.7350     0.1680 H     1 <1>   0.0800 
 39 H       -4.4200    -2.0820     1.5200 H     1 <1>   0.0800 
 40 H        0.4330     2.8670    -2.7320 H     1 <1>   0.4500 
 41 H       -1.9710     6.2780     0.4560 H     1 <1>   0.1500 
 42 H       -6.2950     1.3750     1.0620 H     1 <1>   0.0800 
 43 H       -6.7020     0.4560    -0.3790 H     1 <1>   0.0800 
 44 H       -5.6080     1.8440    -0.4880 H     1 <1>   0.0800 
 45 H        2.8190     1.9710    -3.1080 H     1 <1>   0.1500 
 46 H        3.9120     1.7620    -0.6420 H     1 <1>   0.1500 
 47 H        3.0260     3.0270     1.7580 H     1 <1>   0.0800 
 48 H        2.2620     1.4480     1.7780 H     1 <1>   0.0800 
 49 H        1.2930     2.8890     1.9600 H     1 <1>   0.0800 
 50 H       -1.8620    -4.1960    -0.4530 H     1 <1>   0.1500 
 51 H       -0.5290    -6.4470     0.9170 H     1 <1>   0.0800 
 52 H       -1.5530    -7.1870    -0.2980 H     1 <1>   0.0800 
 53 H       -1.6960    -7.6650     1.3780 H     1 <1>   0.0800 
@<TRIPOS>BOND
  1   1   2  2   
  2   2   3  am  
  3   2   4  1   
  4   3   5  1   
  5   3   6  1   
  6   4   7  ar  
  7   4   8  ar  
  8   5   9  1   
  9   5  29  1   
 10   5  30  1   
 11   6  10  1   
 12   6  31  1   
 13   6  32  1   
 14   7  11  1   
 15   7  12  ar  
 16   8  13  ar  
 17   8  33  1   
 18   9  10  1   
 19   9  14  1   
 20   9  34  1   
 21  10  15  1   
 22  10  35  1   
 23  11  16  ar  
 24  11  17  ar  
 25  12  18  ar  
 26  12  36  1   
 27  13  18  ar  
 28  13  37  1   
 29  14  19  1   
 30  15  20  1   
 31  15  38  1   
 32  15  39  1   
 33  16  21  1   
 34  16  40  1   
 35  17  22  1   
 36  17  23  1   
 37  18  41  1   
 38  19  42  1   
 39  19  43  1   
 40  19  44  1   
 41  20  24  1   
 42  20  25  2   
 43  21  22  2   
 44  21  45  1   
 45  22  46  1   
 46  23  47  1   
 47  23  48  1   
 48  23  49  1   
 49  24  26  1   
 50  25  27  1   
 51  25  50  1   
 52  26  27  2   
 53  27  28  1   
 54  28  51  1   
 55  28  52  1   
 56  28  53  1   
@<TRIPOS>SUBSTRUCTURE
  1 ****   3 GROUP 4 **** **** 0

# MOE 2024.06 (io_trps.svl 2023.06)
