@<TRIPOS>MOLECULE
NONAME
49 50 1 0 0 
SMALL
USER_CHARGES


@<TRIPOS>ATOM
  1 S        0.5960     0.3950    -1.1490 S.o2  1 <1>   1.3330 
  2 O        2.0290     0.5340    -1.0190 O.2   1 <1>  -0.6500 
  3 O       -0.0450     0.7110    -2.4060 O.2   1 <1>  -0.6500 
  4 N        0.1850    -1.1960    -0.7250 N.am  1 <1>  -0.8490 
  5 C       -0.2030     1.3680     0.1230 C.3   1 <1>  -0.0550 
  6 C        1.0510    -1.7660     0.3120 C.3   1 <1>   0.1160 
  7 C        0.1470    -2.0870    -1.8880 C.3   1 <1>   0.1160 
  8 C       -0.0600     2.8880    -0.0950 C.3   1 <1>  -0.0800 
  9 C       -0.8470     3.7420     0.9020 C.3   1 <1>   0.2000 
 10 C        1.3810     3.4100     0.0090 C.3   1 <1>   0.1400 
 11 O       -0.6550     3.2430     2.1810 O.3   1 <1>  -0.6800 
 12 C       -0.1650     5.1050     0.8250 C.3   1 <1>   0.1400 
 13 N        1.2640     4.7820     0.5740 N.am  1 <1>  -0.6600 
 14 C        2.3040     5.6870     0.5370 C.2   1 <1>   0.7160 
 15 O        3.3490     5.3400     0.0190 O.2   1 <1>  -0.5700 
 16 C        2.1830     7.0290     1.1000 C.2   1 <1>   0.1410 
 17 N        2.6530     8.1430     0.3810 N.2   1 <1>  -0.5650 
 18 C        1.6640     7.3450     2.3090 C.2   1 <1>  -0.1100 
 19 C        2.5060     9.2350     1.0180 C.2   1 <1>   0.1980 
 20 S        1.7460     9.0570     2.5770 S.3   1 <1>  -0.0800 
 21 C        2.9380    10.6290     0.5820 C.3   1 <1>   0.5230 
 22 N        3.5640    10.5490    -0.7810 N.4   1 <1>  -0.9590 
 23 C        4.5770    11.6190    -1.0230 C.3   1 <1>   0.2630 
 24 C        2.5320    10.4920    -1.8610 C.3   1 <1>   0.2630 
 25 H       -1.2470     1.1230     0.1350 H     1 <1>   0.0800 
 26 H        0.2030     1.1010     1.0790 H     1 <1>   0.0800 
 27 H        0.6910    -2.7390     0.6000 H     1 <1>   0.0800 
 28 H        1.0550    -1.1350     1.1830 H     1 <1>   0.0800 
 29 H        2.0620    -1.8600    -0.0510 H     1 <1>   0.0800 
 30 H       -0.1340    -3.0820    -1.5880 H     1 <1>   0.0800 
 31 H        1.1120    -2.1190    -2.3670 H     1 <1>   0.0800 
 32 H       -0.5800    -1.7340    -2.6000 H     1 <1>   0.0800 
 33 H       -0.4180     3.1240    -1.0830 H     1 <1>   0.0800 
 34 H       -1.9040     3.7790     0.7000 H     1 <1>   0.0800 
 35 H        1.8620     3.4290    -0.9560 H     1 <1>   0.0800 
 36 H        1.9690     2.8040     0.6790 H     1 <1>   0.0800 
 37 H        0.2900     3.3390     2.4200 H     1 <1>   0.4000 
 38 H       -0.3150     5.6630     1.7310 H     1 <1>   0.0800 
 39 H       -0.5530     5.6600    -0.0120 H     1 <1>   0.0800 
 40 H        1.2460     6.7320     3.0870 H     1 <1>   0.1500 
 41 H        3.6560    10.9970     1.2950 H     1 <1>   0.0800 
 42 H        2.0900    11.2930     0.5710 H     1 <1>   0.0800 
 43 H        4.0290     9.6190    -0.7800 H     1 <1>   0.4500 
 44 H        4.1090    12.5900    -1.0100 H     1 <1>   0.0800 
 45 H        5.0460    11.4760    -1.9830 H     1 <1>   0.0800 
 46 H        5.3420    11.5910    -0.2630 H     1 <1>   0.0800 
 47 H        1.9600    11.4050    -1.8880 H     1 <1>   0.0800 
 48 H        1.8600     9.6650    -1.6880 H     1 <1>   0.0800 
 49 H        3.0030    10.3490    -2.8200 H     1 <1>   0.0800 
@<TRIPOS>BOND
  1   1   2  2   
  2   1   3  2   
  3   1   4  am  
  4   1   5  1   
  5   4   6  1   
  6   4   7  1   
  7   5   8  1   
  8   5  25  1   
  9   5  26  1   
 10   6  27  1   
 11   6  28  1   
 12   6  29  1   
 13   7  30  1   
 14   7  31  1   
 15   7  32  1   
 16   8   9  1   
 17   8  10  1   
 18   8  33  1   
 19   9  11  1   
 20   9  12  1   
 21   9  34  1   
 22  10  13  1   
 23  10  35  1   
 24  10  36  1   
 25  11  37  1   
 26  12  13  1   
 27  12  38  1   
 28  12  39  1   
 29  13  14  am  
 30  14  15  2   
 31  14  16  1   
 32  16  17  1   
 33  16  18  2   
 34  17  19  2   
 35  18  20  1   
 36  18  40  1   
 37  19  20  1   
 38  19  21  1   
 39  21  22  1   
 40  21  41  1   
 41  21  42  1   
 42  22  23  1   
 43  22  24  1   
 44  22  43  1   
 45  23  44  1   
 46  23  45  1   
 47  23  46  1   
 48  24  47  1   
 49  24  48  1   
 50  24  49  1   
@<TRIPOS>SUBSTRUCTURE
  1 ****  13 GROUP 4 **** **** 0

# MOE 2024.06 (io_trps.svl 2023.06)
