@<TRIPOS>MOLECULE
NONAME
55 59 1 0 0 
SMALL
USER_CHARGES


@<TRIPOS>ATOM
  1 O        0.5570    -0.6510     1.6960 O.3   1 <1>  -0.5600 
  2 C        1.6690    -0.8740     0.8510 C.3   1 <1>   0.4600 
  3 C       -0.7230    -0.9770     1.2090 C.3   1 <1>   0.1200 
  4 C        1.4760    -2.1900     0.1070 C.2   1 <1>  -0.3320 
  5 C        2.8960    -0.9600     1.7610 C.3   1 <1>  -0.1600 
  6 C        1.8000     0.2950    -0.1320 C.3   1 <1>  -0.1600 
  7 C       -0.8510    -2.4860     0.9390 C.3   1 <1>   0.0210 
  8 N        2.3980    -2.8090    -0.6900 N.pl3 1 <1>   0.0330 
  9 C        0.3490    -2.9280     0.1400 C.2   1 <1>  -0.1810 
 10 C        3.1780     0.3720     2.4540 C.3   1 <1>   0.2090 
 11 C        2.0730     1.6090     0.5960 C.3   1 <1>   0.2090 
 12 C        1.8360    -3.9690    -1.1660 C.ar  1 <1>  -0.1520 
 13 C        0.5440    -4.0740    -0.6580 C.ar  1 <1>   0.0000 
 14 N        3.2880     1.4490     1.4320 N.pl3 1 <1>  -0.8380 
 15 C        2.3550    -4.9530    -2.0110 C.ar  1 <1>  -0.1500 
 16 C       -0.2450    -5.1790    -0.9950 C.ar  1 <1>  -0.1500 
 17 C        4.5210     1.8730     0.9670 C.ar  1 <1>   0.4100 
 18 C        1.5680    -6.0340    -2.3360 C.ar  1 <1>  -0.1500 
 19 C        0.2670    -6.1470    -1.8270 C.ar  1 <1>  -0.1500 
 20 N        5.5130     0.9990     0.9630 N.ar  1 <1>  -0.6200 
 21 C        4.7120     3.1570     0.5160 C.ar  1 <1>  -0.1500 
 22 C        6.6610     1.4520     0.5010 C.ar  1 <1>   0.4700 
 23 C        5.9530     3.5150     0.0470 C.ar  1 <1>   0.4100 
 24 N        6.9510     2.6500     0.0370 N.ar  1 <1>  -0.6200 
 25 N        6.1910     4.7880    -0.4390 N.pl3 1 <1>  -0.8380 
 26 C        7.5400     5.3980    -0.3000 C.3   1 <1>   0.2090 
 27 C        5.3640     5.2890    -1.5700 C.3   1 <1>   0.1290 
 28 C        7.4010     6.8420     0.1710 C.3   1 <1>  -0.2400 
 29 H       -0.8970    -0.4210     0.3050 H     1 <1>   0.0800 
 30 H       -1.4430    -0.6710     1.9470 H     1 <1>   0.0800 
 31 H        3.7600    -1.2260     1.1830 H     1 <1>   0.0800 
 32 H        2.7420    -1.7300     2.4940 H     1 <1>   0.0800 
 33 H        0.9150     0.3780    -0.7320 H     1 <1>   0.0800 
 34 H        2.6210     0.1050    -0.7990 H     1 <1>   0.0800 
 35 H       -1.7540    -2.6820     0.3910 H     1 <1>   0.0800 
 36 H       -0.8860    -3.0240     1.8690 H     1 <1>   0.0800 
 37 H        3.3490    -2.4820    -0.8910 H     1 <1>   0.2700 
 38 H        4.0900     0.3070     3.0230 H     1 <1>   0.0800 
 39 H        2.3770     0.6100     3.1320 H     1 <1>   0.0800 
 40 H        1.2390     1.8650     1.2270 H     1 <1>   0.0800 
 41 H        2.2120     2.3990    -0.1220 H     1 <1>   0.0800 
 42 H        3.3540    -4.8590    -2.3970 H     1 <1>   0.1500 
 43 H       -1.2390    -5.2520    -0.5970 H     1 <1>   0.1500 
 44 H        1.9440    -6.8060    -2.9850 H     1 <1>   0.1500 
 45 H       -0.3270    -7.0020    -2.0960 H     1 <1>   0.1500 
 46 H        3.9180     3.8710     0.5430 H     1 <1>   0.1500 
 47 H        7.4730     0.7450     0.5010 H     1 <1>   0.1500 
 48 H        8.0590     5.3520    -1.2420 H     1 <1>   0.0800 
 49 H        8.1170     4.8510     0.4270 H     1 <1>   0.0800 
 50 H        4.6250     4.5580    -1.8490 H     1 <1>   0.0800 
 51 H        5.9890     5.4850    -2.4250 H     1 <1>   0.0800 
 52 H        4.8660     6.1970    -1.2800 H     1 <1>   0.0800 
 53 H        6.8990     7.4370    -0.5690 H     1 <1>   0.0800 
 54 H        8.3760     7.2600     0.3390 H     1 <1>   0.0800 
 55 H        6.8510     6.8720     1.0940 H     1 <1>   0.0800 
@<TRIPOS>BOND
  1   1   2  1   
  2   1   3  1   
  3   2   4  1   
  4   2   5  1   
  5   2   6  1   
  6   3   7  1   
  7   3  29  1   
  8   3  30  1   
  9   4   8  1   
 10   4   9  2   
 11   5  10  1   
 12   5  31  1   
 13   5  32  1   
 14   6  11  1   
 15   6  33  1   
 16   6  34  1   
 17   7   9  1   
 18   7  35  1   
 19   7  36  1   
 20   8  12  1   
 21   8  37  1   
 22   9  13  1   
 23  10  14  1   
 24  10  38  1   
 25  10  39  1   
 26  11  14  1   
 27  11  40  1   
 28  11  41  1   
 29  12  13  ar  
 30  12  15  ar  
 31  13  16  ar  
 32  14  17  1   
 33  15  18  ar  
 34  15  42  1   
 35  16  19  ar  
 36  16  43  1   
 37  17  20  ar  
 38  17  21  ar  
 39  18  19  ar  
 40  18  44  1   
 41  19  45  1   
 42  20  22  ar  
 43  21  23  ar  
 44  21  46  1   
 45  22  24  ar  
 46  22  47  1   
 47  23  24  ar  
 48  23  25  1   
 49  25  26  1   
 50  25  27  1   
 51  26  28  1   
 52  26  48  1   
 53  26  49  1   
 54  27  50  1   
 55  27  51  1   
 56  27  52  1   
 57  28  53  1   
 58  28  54  1   
 59  28  55  1   
@<TRIPOS>SUBSTRUCTURE
  1 ****   6 GROUP 4 **** **** 0

# MOE 2024.06 (io_trps.svl 2023.06)
