@<TRIPOS>MOLECULE
NONAME
39 41 1 0 0 
SMALL
USER_CHARGES


@<TRIPOS>ATOM
  1 CL      -0.0630    -0.0870     1.8740 Cl    1 <1>  -0.1770 
  2 C        1.2580    -0.8980     1.0460 C.ar  1 <1>   0.1770 
  3 C        1.1380    -2.1760     0.5010 C.ar  1 <1>   0.4100 
  4 C        2.4630    -0.2590     0.9430 C.ar  1 <1>   0.1600 
  5 N        2.1850    -2.7400    -0.0820 N.ar  1 <1>  -0.6200 
  6 N       -0.0310    -2.9250     0.5220 N.pl3 1 <1>  -0.8380 
  7 N        3.5050    -0.8150     0.3500 N.ar  1 <1>  -0.6200 
  8 C        3.2970    -2.0300    -0.1260 C.ar  1 <1>   0.4770 
  9 C       -1.3270    -2.3180     0.0740 C.3   1 <1>   0.2090 
 10 C        0.0470    -4.4200     0.4470 C.3   1 <1>   0.2090 
 11 C        4.4800    -2.6850    -0.7980 C.3   1 <1>  -0.0960 
 12 C       -2.1430    -3.2600    -0.8290 C.3   1 <1>   0.1400 
 13 C       -1.3110    -5.0870     0.7250 C.3   1 <1>   0.1400 
 14 N       -2.4000    -4.5870    -0.1780 N.am  1 <1>  -0.6600 
 15 C       -3.5810    -5.2520    -0.3960 C.2   1 <1>   0.5770 
 16 O       -4.4170    -4.8050    -1.1480 O.2   1 <1>  -0.5700 
 17 C       -3.8600    -6.5770     0.3170 C.3   1 <1>   0.0530 
 18 C       -3.2800    -7.8240    -0.4030 C.3   1 <1>   0.0000 
 19 C       -5.2630    -7.2170     0.1090 C.3   1 <1>   0.0000 
 20 C       -4.5420    -8.5880     0.0730 C.3   1 <1>   0.0000 
 21 H        2.5820     0.7270     1.3550 H     1 <1>   0.1500 
 22 H       -1.1320    -1.4060    -0.4640 H     1 <1>   0.0800 
 23 H       -1.9170    -2.0730     0.9400 H     1 <1>   0.0800 
 24 H        0.7710    -4.7700     1.1620 H     1 <1>   0.0800 
 25 H        0.3870    -4.7080    -0.5340 H     1 <1>   0.0800 
 26 H        4.1520    -3.4800    -1.4430 H     1 <1>   0.0800 
 27 H        5.1350    -3.0870    -0.0490 H     1 <1>   0.0800 
 28 H        5.0150    -1.9610    -1.3840 H     1 <1>   0.0800 
 29 H       -1.6060    -3.4180    -1.7480 H     1 <1>   0.0800 
 30 H       -3.0760    -2.7820    -1.0720 H     1 <1>   0.0800 
 31 H       -1.5860    -4.8900     1.7470 H     1 <1>   0.0800 
 32 H       -1.1970    -6.1490     0.6060 H     1 <1>   0.0800 
 33 H       -3.5970    -6.5580     1.3620 H     1 <1>   0.0000 
 34 H       -2.3640    -8.1910     0.0250 H     1 <1>   0.0000 
 35 H       -3.2420    -7.7140    -1.4740 H     1 <1>   0.0000 
 36 H       -5.7230    -6.9830    -0.8360 H     1 <1>   0.0000 
 37 H       -5.9250    -7.0980     0.9490 H     1 <1>   0.0000 
 38 H       -4.4210    -9.0220     1.0510 H     1 <1>   0.0000 
 39 H       -4.9390    -9.2720    -0.6570 H     1 <1>   0.0000 
@<TRIPOS>BOND
  1   1   2  1   
  2   2   3  ar  
  3   2   4  ar  
  4   3   5  ar  
  5   3   6  1   
  6   4   7  ar  
  7   4  21  1   
  8   5   8  ar  
  9   6   9  1   
 10   6  10  1   
 11   7   8  ar  
 12   8  11  1   
 13   9  12  1   
 14   9  22  1   
 15   9  23  1   
 16  10  13  1   
 17  10  24  1   
 18  10  25  1   
 19  11  26  1   
 20  11  27  1   
 21  11  28  1   
 22  12  14  1   
 23  12  29  1   
 24  12  30  1   
 25  13  14  1   
 26  13  31  1   
 27  13  32  1   
 28  14  15  am  
 29  15  16  2   
 30  15  17  1   
 31  17  18  1   
 32  17  19  1   
 33  17  33  1   
 34  18  20  1   
 35  18  34  1   
 36  18  35  1   
 37  19  20  1   
 38  19  36  1   
 39  19  37  1   
 40  20  38  1   
 41  20  39  1   
@<TRIPOS>SUBSTRUCTURE
  1 ****  10 GROUP 4 **** **** 0

# MOE 2024.06 (io_trps.svl 2023.06)
