@<TRIPOS>MOLECULE
NONAME
53 56 1 0 0 
SMALL
USER_CHARGES


@<TRIPOS>ATOM
  1 O       -2.4770    -2.4780    -2.0770 O.co2 1 <1>  -0.9000 
  2 C       -2.5590    -1.6540    -1.1470 C.2   1 <1>   1.0330 
  3 O       -1.9110    -1.9090    -0.1100 O.co2 1 <1>  -0.9000 
  4 C       -3.6370    -0.6560    -1.0910 C.2   1 <1>   0.0560 
  5 N       -3.9540     0.3070    -1.9450 N.2   1 <1>  -0.7070 
  6 C       -4.5500    -0.6560    -0.0240 C.2   1 <1>  -0.1810 
  7 N       -5.0350     0.9080    -1.4340 N.pl3 1 <1>   0.3000 
  8 C       -5.4200     0.3440    -0.2730 C.2   1 <1>  -0.3020 
  9 C       -4.4810    -1.6260     1.1420 C.3   1 <1>   0.5240 
 10 N       -5.2160    -2.8710     0.7910 N.4   1 <1>  -0.9590 
 11 C       -5.6030    -3.6650     1.9750 C.3   1 <1>   0.3430 
 12 C       -4.4750    -3.6960    -0.2210 C.3   1 <1>   0.3430 
 13 C       -6.6070    -4.7550     1.5810 C.3   1 <1>  -0.1600 
 14 C       -5.0830    -5.0910    -0.3780 C.3   1 <1>  -0.1600 
 15 C       -6.5420    -5.1470     0.0930 C.3   1 <1>   0.4240 
 16 O       -7.2620    -4.1340    -0.5760 O.3   1 <1>  -0.5600 
 17 C       -7.1620    -6.5370    -0.1440 C.ar  1 <1>  -0.1430 
 18 C       -7.7190    -4.4240    -1.8630 C.3   1 <1>   0.1200 
 19 C       -8.2260    -6.7120    -1.0170 C.ar  1 <1>  -0.1430 
 20 C       -6.6540    -7.6560     0.5030 C.ar  1 <1>  -0.1500 
 21 C       -8.7800    -5.5170    -1.7700 C.3   1 <1>  -0.0170 
 22 C       -8.7780    -7.9680    -1.2100 C.ar  1 <1>  -0.1500 
 23 C       -7.1870    -8.9210     0.3210 C.ar  1 <1>   0.0830 
 24 C       -8.2800    -9.0870    -0.5470 C.ar  1 <1>   0.0830 
 25 O       -6.5520    -9.8890     1.0460 O.3   1 <1>  -0.3620 
 26 O       -8.8380   -10.3190    -0.7330 O.3   1 <1>  -0.3620 
 27 C       -6.8370   -11.2640     0.9240 C.3   1 <1>   0.0400 
 28 C      -10.0170   -10.5130    -1.4850 C.3   1 <1>   0.0400 
 29 H       -5.4830     1.7030    -1.9050 H     1 <1>   0.2700 
 30 H       -6.2690     0.6920     0.2870 H     1 <1>   0.1500 
 31 H       -4.9450    -1.1610     1.9940 H     1 <1>   0.0800 
 32 H       -3.4590    -1.8480     1.3990 H     1 <1>   0.0800 
 33 H       -6.0820    -2.5940     0.3030 H     1 <1>   0.4500 
 34 H       -6.0420    -3.0300     2.7270 H     1 <1>   0.0800 
 35 H       -4.7200    -4.1240     2.3910 H     1 <1>   0.0800 
 36 H       -3.4320    -3.7810     0.0450 H     1 <1>   0.0800 
 37 H       -4.5230    -3.1970    -1.1770 H     1 <1>   0.0800 
 38 H       -7.6070    -4.4370     1.8150 H     1 <1>   0.0800 
 39 H       -6.4070    -5.6060     2.2030 H     1 <1>   0.0800 
 40 H       -4.4940    -5.7800     0.1980 H     1 <1>   0.0800 
 41 H       -4.9990    -5.4050    -1.4020 H     1 <1>   0.0800 
 42 H       -6.8900    -4.7370    -2.4740 H     1 <1>   0.0800 
 43 H       -8.1400    -3.5250    -2.2780 H     1 <1>   0.0800 
 44 H       -5.8170    -7.5700     1.1700 H     1 <1>   0.1500 
 45 H       -9.0730    -5.8070    -2.7630 H     1 <1>   0.0800 
 46 H       -9.6460    -5.1350    -1.2600 H     1 <1>   0.0800 
 47 H       -9.6030    -8.0540    -1.8900 H     1 <1>   0.1500 
 48 H       -6.1450   -11.8060     1.5430 H     1 <1>   0.0800 
 49 H       -6.7160   -11.5560    -0.1040 H     1 <1>   0.0800 
 50 H       -7.8430   -11.4420     1.2590 H     1 <1>   0.0800 
 51 H      -10.2830   -11.5530    -1.4250 H     1 <1>   0.0800 
 52 H       -9.8270   -10.2450    -2.5090 H     1 <1>   0.0800 
 53 H      -10.8030    -9.9120    -1.0640 H     1 <1>   0.0800 
@<TRIPOS>BOND
  1   1   2  ar  
  2   2   3  ar  
  3   2   4  1   
  4   4   5  2   
  5   4   6  1   
  6   5   7  1   
  7   6   8  2   
  8   6   9  1   
  9   7   8  1   
 10   7  29  1   
 11   8  30  1   
 12   9  10  1   
 13   9  31  1   
 14   9  32  1   
 15  10  11  1   
 16  10  12  1   
 17  10  33  1   
 18  11  13  1   
 19  11  34  1   
 20  11  35  1   
 21  12  14  1   
 22  12  36  1   
 23  12  37  1   
 24  13  15  1   
 25  13  38  1   
 26  13  39  1   
 27  14  15  1   
 28  14  40  1   
 29  14  41  1   
 30  15  16  1   
 31  15  17  1   
 32  16  18  1   
 33  17  19  ar  
 34  17  20  ar  
 35  18  21  1   
 36  18  42  1   
 37  18  43  1   
 38  19  21  1   
 39  19  22  ar  
 40  20  23  ar  
 41  20  44  1   
 42  21  45  1   
 43  21  46  1   
 44  22  24  ar  
 45  22  47  1   
 46  23  24  ar  
 47  23  25  1   
 48  24  26  1   
 49  25  27  1   
 50  26  28  1   
 51  27  48  1   
 52  27  49  1   
 53  27  50  1   
 54  28  51  1   
 55  28  52  1   
 56  28  53  1   
@<TRIPOS>SUBSTRUCTURE
  1 ****  15 GROUP 4 **** **** 0

# MOE 2024.06 (io_trps.svl 2023.06)
