@<TRIPOS>MOLECULE
NONAME
40 41 1 0 0 
SMALL
USER_CHARGES


@<TRIPOS>ATOM
  1 O        0.4010     0.3130     0.2720 O.2   1 <1>  -0.5700 
  2 C        1.3470    -0.3120     0.7100 C.2   1 <1>   0.7800 
  3 O        1.3340    -1.6480     0.7340 O.3   1 <1>  -0.4300 
  4 N        2.4600     0.3090     1.2060 N.am  1 <1>  -0.6600 
  5 C        0.3130    -2.5040     0.2700 C.3   1 <1>   0.2800 
  6 C        3.6490    -0.4380     1.6900 C.3   1 <1>   0.2840 
  7 C        2.5800     1.7830     1.2720 C.3   1 <1>   0.1400 
  8 C        0.1040    -2.3150    -1.2370 C.3   1 <1>  -0.2400 
  9 C        0.8310    -3.9190     0.5320 C.3   1 <1>  -0.2400 
 10 C       -0.9740    -2.2820     1.0740 C.3   1 <1>  -0.2400 
 11 C        4.9680     0.2350     1.3070 C.ar  1 <1>  -0.1440 
 12 C        3.7340     2.2300     0.3770 C.3   1 <1>  -0.0170 
 13 C        5.0330     1.4860     0.6940 C.ar  1 <1>  -0.1440 
 14 C        6.1380    -0.4500     1.5940 C.ar  1 <1>  -0.1500 
 15 C        6.2750     2.0310     0.3630 C.ar  1 <1>  -0.1440 
 16 C        7.3660     0.0910     1.2730 C.ar  1 <1>  -0.1500 
 17 C        7.4320     1.3260     0.6590 C.ar  1 <1>  -0.1500 
 18 C        6.4270     3.3800    -0.3290 C.3   1 <1>   0.2630 
 19 O        5.9410     3.2540    -1.6140 O.3   1 <1>  -0.6800 
 20 H        3.6480    -1.4350     1.2870 H     1 <1>   0.0800 
 21 H        3.5920    -0.5120     2.7620 H     1 <1>   0.0800 
 22 H        2.7750     2.0740     2.2890 H     1 <1>   0.0800 
 23 H        1.6680     2.2580     0.9530 H     1 <1>   0.0800 
 24 H        1.0390    -2.4060    -1.7580 H     1 <1>   0.0800 
 25 H       -0.3270    -1.3540    -1.4510 H     1 <1>   0.0800 
 26 H       -0.5710    -3.0630    -1.6100 H     1 <1>   0.0800 
 27 H        1.7490    -4.0850    -0.0040 H     1 <1>   0.0800 
 28 H        0.1120    -4.6480     0.2050 H     1 <1>   0.0800 
 29 H        1.0070    -4.0640     1.5830 H     1 <1>   0.0800 
 30 H       -1.4040    -1.3210     0.8590 H     1 <1>   0.0800 
 31 H       -0.7730    -2.3510     2.1280 H     1 <1>   0.0800 
 32 H       -1.7020    -3.0280     0.8150 H     1 <1>   0.0800 
 33 H        3.8580     3.2880     0.5090 H     1 <1>   0.0800 
 34 H        3.4680     2.0550    -0.6500 H     1 <1>   0.0800 
 35 H        6.0990    -1.4150     2.0690 H     1 <1>   0.1500 
 36 H        8.2700    -0.4480     1.4980 H     1 <1>   0.1500 
 37 H        8.3970     1.7320     0.4100 H     1 <1>   0.1500 
 38 H        7.4610     3.6700    -0.3940 H     1 <1>   0.0800 
 39 H        5.8790     4.1580     0.1730 H     1 <1>   0.0800 
 40 H        6.0200     2.3140    -1.8740 H     1 <1>   0.4000 
@<TRIPOS>BOND
  1   1   2  2   
  2   2   3  1   
  3   2   4  am  
  4   3   5  1   
  5   4   6  1   
  6   4   7  1   
  7   5   8  1   
  8   5   9  1   
  9   5  10  1   
 10   6  11  1   
 11   6  20  1   
 12   6  21  1   
 13   7  12  1   
 14   7  22  1   
 15   7  23  1   
 16   8  24  1   
 17   8  25  1   
 18   8  26  1   
 19   9  27  1   
 20   9  28  1   
 21   9  29  1   
 22  10  30  1   
 23  10  31  1   
 24  10  32  1   
 25  11  13  ar  
 26  11  14  ar  
 27  12  13  1   
 28  12  33  1   
 29  12  34  1   
 30  13  15  ar  
 31  14  16  ar  
 32  14  35  1   
 33  15  17  ar  
 34  15  18  1   
 35  16  17  ar  
 36  16  36  1   
 37  17  37  1   
 38  18  19  1   
 39  18  38  1   
 40  18  39  1   
 41  19  40  1   
@<TRIPOS>SUBSTRUCTURE
  1 ****   4 GROUP 4 **** **** 0

# MOE 2024.06 (io_trps.svl 2023.06)
