@<TRIPOS>MOLECULE
NONAME
46 49 1 0 0 
SMALL
USER_CHARGES


@<TRIPOS>ATOM
  1 N        0.2010    -0.4260    -0.4520 N.ar  1 <1>  -0.1790 
  2 C        0.2980    -1.7480    -0.3020 C.ar  1 <1>   0.4610 
  3 C        1.2360     0.4630    -0.2220 C.ar  1 <1>   0.3610 
  4 N       -0.7750    -2.5190    -0.5490 N.pl3 1 <1>  -0.8690 
  5 C        1.5520    -2.2620     0.1130 C.ar  1 <1>  -0.1500 
  6 C        2.4860    -0.0380     0.1960 C.ar  1 <1>   0.0000 
  7 C        1.0440     1.8390    -0.4020 C.ar  1 <1>  -0.1500 
  8 C       -0.8690    -3.9920    -0.3970 C.3   1 <1>   0.2090 
  9 C        2.6190    -1.4520     0.3590 C.ar  1 <1>  -0.1430 
 10 C        3.5240     0.8830     0.4260 C.ar  1 <1>  -0.1500 
 11 C        2.0820     2.7030    -0.1670 C.ar  1 <1>  -0.1430 
 12 C       -2.3420    -4.3760    -0.2860 C.3   1 <1>  -0.1600 
 13 C        3.9500    -2.0480     0.8040 C.3   1 <1>  -0.0970 
 14 C        3.3100     2.2250     0.2430 C.ar  1 <1>  -0.1430 
 15 C        2.1020     4.2080    -0.2970 C.3   1 <1>  -0.0170 
 16 C       -2.5140    -5.8920    -0.1130 C.3   1 <1>   0.0960 
 17 C        4.2930     3.3540     0.4350 C.3   1 <1>  -0.0170 
 18 C        3.5990     4.5510    -0.2350 C.3   1 <1>  -0.1600 
 19 N       -3.9470    -6.2260    -0.0160 N.pl3 1 <1>   0.0480 
 20 C       -4.7800    -6.6030    -1.0110 C.2   1 <1>   0.0360 
 21 C       -4.7210    -6.1950     1.0840 C.2   1 <1>  -0.3020 
 22 N       -5.9980    -6.8060    -0.6290 N.2   1 <1>  -0.5650 
 23 C       -5.9640    -6.5510     0.6920 C.2   1 <1>   0.0770 
 24 H       -0.6890    -0.0410    -0.7480 H     1 <1>   0.4570 
 25 H       -1.6620    -2.1300    -0.8880 H     1 <1>   0.4000 
 26 H        1.6470    -3.3250     0.2280 H     1 <1>   0.1500 
 27 H        0.0940     2.2280    -0.7220 H     1 <1>   0.1500 
 28 H       -0.3440    -4.3080     0.4910 H     1 <1>   0.0800 
 29 H       -0.4240    -4.4710    -1.2550 H     1 <1>   0.0800 
 30 H        4.4940     0.5460     0.7450 H     1 <1>   0.1500 
 31 H       -2.8600    -4.0690    -1.1780 H     1 <1>   0.0800 
 32 H       -2.7750    -3.8790     0.5650 H     1 <1>   0.0800 
 33 H        3.8930    -3.1200     0.8790 H     1 <1>   0.0800 
 34 H        4.2270    -1.6610     1.7690 H     1 <1>   0.0800 
 35 H        4.7220    -1.8040     0.0960 H     1 <1>   0.0800 
 36 H        1.5820     4.6490     0.5360 H     1 <1>   0.0800 
 37 H        1.6600     4.5390    -1.2210 H     1 <1>   0.0800 
 38 H       -2.0250    -6.2280     0.7850 H     1 <1>   0.0800 
 39 H       -2.0950    -6.4190    -0.9520 H     1 <1>   0.0800 
 40 H        5.2430     3.1410    -0.0240 H     1 <1>   0.0800 
 41 H        4.4300     3.5380     1.4860 H     1 <1>   0.0800 
 42 H        3.7800     5.4690     0.2960 H     1 <1>   0.0800 
 43 H        3.9740     4.6500    -1.2400 H     1 <1>   0.0800 
 44 H       -4.4450    -6.7180    -2.0270 H     1 <1>   0.1500 
 45 H       -4.3630    -5.9310     2.0620 H     1 <1>   0.1500 
 46 H       -6.8490    -6.6390     1.3000 H     1 <1>   0.1500 
@<TRIPOS>BOND
  1   1   2  ar  
  2   1   3  ar  
  3   1  24  1   
  4   2   4  1   
  5   2   5  ar  
  6   3   6  ar  
  7   3   7  ar  
  8   4   8  1   
  9   4  25  1   
 10   5   9  ar  
 11   5  26  1   
 12   6   9  ar  
 13   6  10  ar  
 14   7  11  ar  
 15   7  27  1   
 16   8  12  1   
 17   8  28  1   
 18   8  29  1   
 19   9  13  1   
 20  10  14  ar  
 21  10  30  1   
 22  11  14  ar  
 23  11  15  1   
 24  12  16  1   
 25  12  31  1   
 26  12  32  1   
 27  13  33  1   
 28  13  34  1   
 29  13  35  1   
 30  14  17  1   
 31  15  18  1   
 32  15  36  1   
 33  15  37  1   
 34  16  19  1   
 35  16  38  1   
 36  16  39  1   
 37  17  18  1   
 38  17  40  1   
 39  17  41  1   
 40  18  42  1   
 41  18  43  1   
 42  19  20  1   
 43  19  21  1   
 44  20  22  2   
 45  20  44  1   
 46  21  23  2   
 47  21  45  1   
 48  22  23  1   
 49  23  46  1   
@<TRIPOS>SUBSTRUCTURE
  1 ****   2 GROUP 4 **** **** 0

# MOE 2024.06 (io_trps.svl 2023.06)
