@<TRIPOS>MOLECULE
NONAME
37 38 1 0 0 
SMALL
USER_CHARGES


@<TRIPOS>ATOM
  1 O       -0.2660    -0.9050     0.6570 O.co2 1 <1>  -0.9000 
  2 C       -1.0390    -0.1500     0.0540 C.2   1 <1>   0.9060 
  3 O       -0.7250     0.2880    -1.0700 O.co2 1 <1>  -0.9000 
  4 C       -2.3480     0.3400     0.7570 C.3   1 <1>   0.1830 
  5 N       -2.5100     1.8540     0.9030 N.pl3 1 <1>  -0.8690 
  6 C       -3.5620    -0.2240     0.0010 C.3   1 <1>   0.0200 
  7 C       -1.4190     2.5790     0.6600 C.ar  1 <1>   0.4100 
  8 C       -4.8850     0.4160     0.4130 C.2   1 <1>  -0.3320 
  9 N       -0.3800     2.3290     1.4600 N.ar  1 <1>  -0.6200 
 10 C       -1.2780     3.2570    -0.5590 C.ar  1 <1>  -0.1430 
 11 N       -5.2660     0.5960     1.6920 N.pl3 1 <1>   0.0330 
 12 C       -5.8770     0.9230    -0.3520 C.2   1 <1>   0.0770 
 13 C        0.7820     2.3210     0.8880 C.ar  1 <1>   0.5280 
 14 C       -0.0200     3.2940    -1.0840 C.ar  1 <1>   0.2110 
 15 C       -2.4860     3.7800    -1.3310 C.3   1 <1>  -0.0170 
 16 C       -6.4660     1.2090     1.6200 C.2   1 <1>   0.0360 
 17 N       -6.8690     1.4230     0.4090 N.2   1 <1>  -0.5650 
 18 N        0.9940     2.7590    -0.3690 N.ar  1 <1>  -0.1790 
 19 C        1.9540     1.7690     1.6700 C.3   1 <1>  -0.0970 
 20 C       -3.1610     4.9350    -0.5880 C.3   1 <1>  -0.2400 
 21 H       -2.3360    -0.0790     1.7460 H     1 <1>   0.0800 
 22 H       -3.4060     2.1440     0.5020 H     1 <1>   0.4000 
 23 H       -3.6050    -1.2870     0.1640 H     1 <1>   0.0800 
 24 H       -3.4130    -0.0730    -1.0550 H     1 <1>   0.0800 
 25 H       -4.7370     0.3560     2.5370 H     1 <1>   0.2700 
 26 H       -5.9290     0.9570    -1.4270 H     1 <1>   0.1500 
 27 H        0.1820     3.6990    -2.0610 H     1 <1>   0.1500 
 28 H       -2.1850     4.1180    -2.3080 H     1 <1>   0.0800 
 29 H       -3.1930     2.9800    -1.4770 H     1 <1>   0.0800 
 30 H       -7.0170     1.4890     2.5000 H     1 <1>   0.1500 
 31 H        1.9140     2.6280    -0.7790 H     1 <1>   0.4570 
 32 H        1.6710     1.6240     2.6970 H     1 <1>   0.0800 
 33 H        2.7930     2.4370     1.6330 H     1 <1>   0.0800 
 34 H        2.2280     0.8100     1.2650 H     1 <1>   0.0800 
 35 H       -2.4720     5.7490    -0.4490 H     1 <1>   0.0800 
 36 H       -3.5090     4.6090     0.3780 H     1 <1>   0.0800 
 37 H       -4.0070     5.2910    -1.1490 H     1 <1>   0.0800 
@<TRIPOS>BOND
  1   1   2  ar  
  2   2   3  ar  
  3   2   4  1   
  4   4   5  1   
  5   4   6  1   
  6   4  21  1   
  7   5   7  1   
  8   5  22  1   
  9   6   8  1   
 10   6  23  1   
 11   6  24  1   
 12   7   9  ar  
 13   7  10  ar  
 14   8  11  1   
 15   8  12  2   
 16   9  13  ar  
 17  10  14  ar  
 18  10  15  1   
 19  11  16  1   
 20  11  25  1   
 21  12  17  1   
 22  12  26  1   
 23  13  18  ar  
 24  13  19  1   
 25  14  18  ar  
 26  14  27  1   
 27  15  20  1   
 28  15  28  1   
 29  15  29  1   
 30  16  17  2   
 31  16  30  1   
 32  18  31  1   
 33  19  32  1   
 34  19  33  1   
 35  19  34  1   
 36  20  35  1   
 37  20  36  1   
 38  20  37  1   
@<TRIPOS>SUBSTRUCTURE
  1 ****   5 GROUP 4 **** **** 0

# MOE 2024.06 (io_trps.svl 2023.06)
