@<TRIPOS>MOLECULE
NONAME
55 59 1 0 0 
SMALL
USER_CHARGES


@<TRIPOS>ATOM
  1 O       -1.5180    -0.3680     1.9210 O.2   1 <1>  -0.5700 
  2 C       -2.5880    -0.9260     1.8130 C.2   1 <1>   0.6900 
  3 N       -3.5230    -0.5720     0.8550 N.am  1 <1>  -0.4770 
  4 N       -2.8500    -1.9530     2.6580 N.am  1 <1>  -0.4900 
  5 C       -3.2700     0.4050    -0.1300 C.ar  1 <1>   0.1170 
  6 C       -4.8950    -1.1540     0.9630 C.3   1 <1>   0.1400 
  7 C       -3.8960    -2.7990     2.5510 C.2   1 <1>   0.5690 
  8 C       -4.0640     1.5560    -0.2950 C.ar  1 <1>   0.0860 
  9 C       -2.1790     0.2190    -0.9760 C.ar  1 <1>  -0.1500 
 10 C       -4.8340    -2.6240     1.3800 C.3   1 <1>  -0.0990 
 11 O       -4.0740    -3.6820     3.3460 O.2   1 <1>  -0.5700 
 12 C       -5.2300     1.8100     0.5180 C.2   1 <1>   0.5440 
 13 C       -3.7180     2.4730    -1.2890 C.ar  1 <1>  -0.1500 
 14 C       -1.8610     1.1330    -1.9610 C.ar  1 <1>  -0.1500 
 15 O       -5.1000     2.1230     1.6870 O.2   1 <1>  -0.5700 
 16 N       -6.5040     1.6770     0.0030 N.am  1 <1>  -0.6600 
 17 C       -2.6340     2.2680    -2.1180 C.ar  1 <1>  -0.1500 
 18 C       -7.7070     1.8990     0.8800 C.3   1 <1>   0.1400 
 19 C       -6.7650     1.3070    -1.4220 C.3   1 <1>   0.1400 
 20 C       -8.9130     2.4400     0.0900 C.3   1 <1>   0.1430 
 21 C       -8.1210     0.6090    -1.5650 C.3   1 <1>  -0.1600 
 22 C      -10.0490     2.6650     1.0740 C.ar  1 <1>   0.1670 
 23 C       -9.2990     1.4630    -1.0550 C.3   1 <1>  -0.1600 
 24 C       -8.6340     3.8830    -0.4230 C.3   1 <1>  -0.1600 
 25 N      -10.7770     1.7230     1.6260 N.ar  1 <1>  -0.6200 
 26 C      -10.2190     3.9900     1.3520 C.ar  1 <1>  -0.1430 
 27 C       -9.2340     4.8540     0.6090 C.3   1 <1>  -0.0170 
 28 C      -11.6930     2.1730     2.4710 C.ar  1 <1>   0.7200 
 29 C      -11.2100     4.3380     2.2390 C.ar  1 <1>   0.1600 
 30 N      -11.9660     3.4260     2.8060 N.ar  1 <1>  -0.6200 
 31 N      -12.4600     1.2440     3.0410 N.pl3 1 <1>  -0.9000 
 32 H       -2.1780    -2.1060     3.4010 H     1 <1>   0.3700 
 33 H       -5.4080    -1.0630     0.0210 H     1 <1>   0.0800 
 34 H       -5.4430    -0.5980     1.7060 H     1 <1>   0.0800 
 35 H       -1.5630    -0.6540    -0.8510 H     1 <1>   0.1500 
 36 H       -4.4830    -3.2220     0.5600 H     1 <1>   0.0800 
 37 H       -5.8160    -2.9670     1.6510 H     1 <1>   0.0800 
 38 H       -4.3130     3.3620    -1.4050 H     1 <1>   0.1500 
 39 H       -1.0100     0.9660    -2.5990 H     1 <1>   0.1500 
 40 H       -2.3830     2.9880    -2.8790 H     1 <1>   0.1500 
 41 H       -7.4650     2.5900     1.6690 H     1 <1>   0.0800 
 42 H       -7.9770     0.9640     1.3390 H     1 <1>   0.0800 
 43 H       -5.9920     0.6500    -1.7820 H     1 <1>   0.0800 
 44 H       -6.7540     2.2000    -2.0240 H     1 <1>   0.0800 
 45 H       -8.0820    -0.3100    -1.0070 H     1 <1>   0.0800 
 46 H       -8.2860     0.3490    -2.5960 H     1 <1>   0.0800 
 47 H       -9.7350     2.0060    -1.8740 H     1 <1>   0.0800 
 48 H      -10.0570     0.7830    -0.7080 H     1 <1>   0.0800 
 49 H       -9.1400     4.0480    -1.3580 H     1 <1>   0.0800 
 50 H       -7.5860     4.0760    -0.5700 H     1 <1>   0.0800 
 51 H       -9.7140     5.6920     0.1340 H     1 <1>   0.0800 
 52 H       -8.4740     5.2010     1.2880 H     1 <1>   0.0800 
 53 H      -11.3810     5.3710     2.4870 H     1 <1>   0.1500 
 54 H      -13.3310     1.5890     3.4320 H     1 <1>   0.4000 
 55 H      -12.4940     0.3530     2.5560 H     1 <1>   0.4000 
@<TRIPOS>BOND
  1   1   2  2   
  2   2   3  am  
  3   2   4  am  
  4   3   5  1   
  5   3   6  1   
  6   4   7  am  
  7   4  32  1   
  8   5   8  ar  
  9   5   9  ar  
 10   6  10  1   
 11   6  33  1   
 12   6  34  1   
 13   7  10  1   
 14   7  11  2   
 15   8  12  1   
 16   8  13  ar  
 17   9  14  ar  
 18   9  35  1   
 19  10  36  1   
 20  10  37  1   
 21  12  15  2   
 22  12  16  am  
 23  13  17  ar  
 24  13  38  1   
 25  14  17  ar  
 26  14  39  1   
 27  16  18  1   
 28  16  19  1   
 29  17  40  1   
 30  18  20  1   
 31  18  41  1   
 32  18  42  1   
 33  19  21  1   
 34  19  43  1   
 35  19  44  1   
 36  20  22  1   
 37  20  23  1   
 38  20  24  1   
 39  21  23  1   
 40  21  45  1   
 41  21  46  1   
 42  22  25  ar  
 43  22  26  ar  
 44  23  47  1   
 45  23  48  1   
 46  24  27  1   
 47  24  49  1   
 48  24  50  1   
 49  25  28  ar  
 50  26  27  1   
 51  26  29  ar  
 52  27  51  1   
 53  27  52  1   
 54  28  30  ar  
 55  28  31  1   
 56  29  30  ar  
 57  29  53  1   
 58  31  54  1   
 59  31  55  1   
@<TRIPOS>SUBSTRUCTURE
  1 ****  16 GROUP 4 **** **** 0

# MOE 2024.06 (io_trps.svl 2023.06)
