@<TRIPOS>MOLECULE
NONAME
48 50 1 0 0 
SMALL
USER_CHARGES


@<TRIPOS>ATOM
  1 O       -0.5460    -1.5220     1.4880 O.2   1 <1>  -0.5700 
  2 C       -0.6170    -0.7300     0.5800 C.2   1 <1>   0.5690 
  3 N       -1.1180    -1.1190    -0.6430 N.am  1 <1>  -0.6600 
  4 C       -0.1730     0.6950     0.8630 C.3   1 <1>   0.0440 
  5 C       -1.5340    -0.1860    -1.7380 C.3   1 <1>   0.1400 
  6 C       -1.8730    -2.4020    -0.7240 C.3   1 <1>   0.1400 
  7 C       -1.2990     1.7230     0.7850 C.ar  1 <1>   0.1660 
  8 C       -3.0760     0.0140    -1.7520 C.3   1 <1>   0.4230 
  9 C       -3.3660    -2.1340    -0.4350 C.3   1 <1>   0.3430 
 10 N       -2.5230     1.3560     1.1570 N.ar  1 <1>  -0.6200 
 11 C       -0.9850     3.0000     0.3390 C.ar  1 <1>  -0.1500 
 12 N       -3.7540    -0.6740    -0.5860 N.4   1 <1>  -0.9590 
 13 C       -3.7190    -0.4360    -3.0820 C.3   1 <1>   0.1200 
 14 C       -3.4410     2.3130     1.1390 C.ar  1 <1>   0.1600 
 15 C       -1.9610     3.9700     0.2860 C.ar  1 <1>  -0.1500 
 16 C       -5.2240    -0.4130    -0.6360 C.3   1 <1>   0.4230 
 17 O       -5.1020    -0.2110    -3.0570 O.3   1 <1>  -0.5600 
 18 C       -3.2200     3.6080     0.7090 C.ar  1 <1>  -0.1500 
 19 C       -5.8030    -0.8310    -2.0110 C.3   1 <1>   0.1200 
 20 C       -5.9310    -1.0800     0.5540 C.3   1 <1>  -0.1600 
 21 C       -7.3640    -0.5590     0.7510 C.3   1 <1>  -0.1600 
 22 C       -8.0020    -1.1800     1.9950 C.3   1 <1>  -0.2400 
 23 H        0.2350     0.7280     1.8560 H     1 <1>   0.0800 
 24 H        0.6170     0.9460     0.1820 H     1 <1>   0.0800 
 25 H       -1.0530     0.7690    -1.6350 H     1 <1>   0.0800 
 26 H       -1.2060    -0.5890    -2.6810 H     1 <1>   0.0800 
 27 H       -1.7600    -2.8220    -1.7080 H     1 <1>   0.0800 
 28 H       -1.4890    -3.1260    -0.0240 H     1 <1>   0.0800 
 29 H       -3.2520     1.0740    -1.6690 H     1 <1>   0.0800 
 30 H       -3.5740    -2.4480     0.5750 H     1 <1>   0.0800 
 31 H       -3.9590    -2.7470    -1.0920 H     1 <1>   0.0800 
 32 H        0.0200     3.2470     0.0450 H     1 <1>   0.1500 
 33 H       -3.3600    -0.1870     0.2470 H     1 <1>   0.4500 
 34 H       -3.5420    -1.4800    -3.2720 H     1 <1>   0.0800 
 35 H       -3.3160     0.1340    -3.9010 H     1 <1>   0.0800 
 36 H       -4.4270     2.0570     1.4890 H     1 <1>   0.1500 
 37 H       -1.7460     4.9700    -0.0540 H     1 <1>   0.1500 
 38 H       -5.3770     0.6500    -0.5430 H     1 <1>   0.0800 
 39 H       -4.0200     4.3280     0.7150 H     1 <1>   0.1500 
 40 H       -6.8300    -0.5230    -2.0910 H     1 <1>   0.0800 
 41 H       -5.7570    -1.8970    -2.1480 H     1 <1>   0.0800 
 42 H       -5.9690    -2.1460     0.4180 H     1 <1>   0.0800 
 43 H       -5.3740    -0.8680     1.4510 H     1 <1>   0.0800 
 44 H       -7.3550     0.5130     0.8640 H     1 <1>   0.0800 
 45 H       -7.9750    -0.7990    -0.1030 H     1 <1>   0.0800 
 46 H       -7.4380    -0.9330     2.8780 H     1 <1>   0.0800 
 47 H       -8.0520    -2.2510     1.9050 H     1 <1>   0.0800 
 48 H       -9.0040    -0.8050     2.1210 H     1 <1>   0.0800 
@<TRIPOS>BOND
  1   1   2  2   
  2   2   3  am  
  3   2   4  1   
  4   3   5  1   
  5   3   6  1   
  6   4   7  1   
  7   4  23  1   
  8   4  24  1   
  9   5   8  1   
 10   5  25  1   
 11   5  26  1   
 12   6   9  1   
 13   6  27  1   
 14   6  28  1   
 15   7  10  ar  
 16   7  11  ar  
 17   8  12  1   
 18   8  13  1   
 19   8  29  1   
 20   9  12  1   
 21   9  30  1   
 22   9  31  1   
 23  10  14  ar  
 24  11  15  ar  
 25  11  32  1   
 26  12  16  1   
 27  12  33  1   
 28  13  17  1   
 29  13  34  1   
 30  13  35  1   
 31  14  18  ar  
 32  14  36  1   
 33  15  18  ar  
 34  15  37  1   
 35  16  19  1   
 36  16  20  1   
 37  16  38  1   
 38  17  19  1   
 39  18  39  1   
 40  19  40  1   
 41  19  41  1   
 42  20  21  1   
 43  20  42  1   
 44  20  43  1   
 45  21  22  1   
 46  21  44  1   
 47  21  45  1   
 48  22  46  1   
 49  22  47  1   
 50  22  48  1   
@<TRIPOS>SUBSTRUCTURE
  1 ****  12 GROUP 4 **** **** 0

# MOE 2024.06 (io_trps.svl 2023.06)
