@<TRIPOS>MOLECULE
NONAME
46 48 1 0 0 
SMALL
USER_CHARGES


@<TRIPOS>ATOM
  1 F       -0.1920    -1.0770     0.6740 F     1 <1>  -0.3400 
  2 C       -0.0600    -1.7000    -0.4910 C.3   1 <1>   1.0200 
  3 F       -0.8720    -1.0800    -1.3420 F     1 <1>  -0.3400 
  4 F        1.1730    -1.4450    -0.9110 F     1 <1>  -0.3400 
  5 C       -0.3250    -3.2310    -0.4060 C.3   1 <1>   0.1100 
  6 N       -1.5910    -3.7260     0.2320 N.3   1 <1>  -0.8100 
  7 C       -2.8050    -3.3470    -0.5380 C.3   1 <1>   0.1100 
  8 C       -1.5480    -5.1970     0.4070 C.3   1 <1>   0.1100 
  9 C       -4.1050    -3.8850     0.0940 C.3   1 <1>   0.2090 
 10 C       -2.8220    -5.7510     1.0740 C.3   1 <1>   0.2090 
 11 N       -4.0350    -5.3630     0.3010 N.pl3 1 <1>  -0.8380 
 12 C       -5.2000    -6.0880     0.4650 C.ar  1 <1>   0.4100 
 13 N       -6.2820    -5.4400     0.8610 N.ar  1 <1>  -0.6200 
 14 C       -5.2400    -7.4410     0.2240 C.ar  1 <1>  -0.1500 
 15 C       -7.3630    -6.1790     1.0090 C.ar  1 <1>   0.4700 
 16 C       -6.4240    -8.1110     0.4170 C.ar  1 <1>   0.4100 
 17 N       -7.5100    -7.4740     0.8170 N.ar  1 <1>  -0.6200 
 18 N       -6.5160    -9.4740     0.2080 N.pl3 1 <1>  -0.8380 
 19 C       -7.8170   -10.0480    -0.2310 C.3   1 <1>   0.2090 
 20 C       -5.7070   -10.3700     1.0710 C.3   1 <1>   0.2090 
 21 C       -7.5660   -11.3520    -0.9890 C.3   1 <1>  -0.1600 
 22 C       -5.4260   -11.6740     0.3230 C.3   1 <1>  -0.1600 
 23 C       -6.7380   -12.3110    -0.1350 C.3   1 <1>   0.2000 
 24 O       -6.4420   -13.4250    -0.8910 O.3   1 <1>  -0.6800 
 25 H        0.5000    -3.6370     0.1510 H     1 <1>   0.0800 
 26 H       -0.2600    -3.6250    -1.4040 H     1 <1>   0.0800 
 27 H       -2.7350    -3.7250    -1.5430 H     1 <1>   0.0800 
 28 H       -2.8850    -2.2760    -0.5850 H     1 <1>   0.0800 
 29 H       -0.7020    -5.4570     1.0200 H     1 <1>   0.0800 
 30 H       -1.4280    -5.6750    -0.5500 H     1 <1>   0.0800 
 31 H       -4.9350    -3.6500    -0.5490 H     1 <1>   0.0800 
 32 H       -4.2690    -3.4000     1.0410 H     1 <1>   0.0800 
 33 H       -2.8980    -5.3570     2.0720 H     1 <1>   0.0800 
 34 H       -2.7530    -6.8220     1.1420 H     1 <1>   0.0800 
 35 H       -4.3740    -7.9600    -0.1220 H     1 <1>   0.1500 
 36 H       -8.2450    -5.6530     1.3320 H     1 <1>   0.1500 
 37 H       -8.3260    -9.3480    -0.8720 H     1 <1>   0.0800 
 38 H       -8.4350   -10.2280     0.6320 H     1 <1>   0.0800 
 39 H       -6.2530   -10.5730     1.9770 H     1 <1>   0.0800 
 40 H       -4.7790    -9.8940     1.3370 H     1 <1>   0.0800 
 41 H       -7.0470   -11.1180    -1.9010 H     1 <1>   0.0800 
 42 H       -8.5100   -11.8050    -1.2320 H     1 <1>   0.0800 
 43 H       -4.9040   -12.3500     0.9750 H     1 <1>   0.0800 
 44 H       -4.8020   -11.4520    -0.5230 H     1 <1>   0.0800 
 45 H       -7.3100   -12.6370     0.7180 H     1 <1>   0.0800 
 46 H       -5.9420   -13.1580    -1.6850 H     1 <1>   0.4000 
@<TRIPOS>BOND
  1   1   2  1   
  2   2   3  1   
  3   2   4  1   
  4   2   5  1   
  5   5   6  1   
  6   5  25  1   
  7   5  26  1   
  8   6   7  1   
  9   6   8  1   
 10   7   9  1   
 11   7  27  1   
 12   7  28  1   
 13   8  10  1   
 14   8  29  1   
 15   8  30  1   
 16   9  11  1   
 17   9  31  1   
 18   9  32  1   
 19  10  11  1   
 20  10  33  1   
 21  10  34  1   
 22  11  12  1   
 23  12  13  ar  
 24  12  14  ar  
 25  13  15  ar  
 26  14  16  ar  
 27  14  35  1   
 28  15  17  ar  
 29  15  36  1   
 30  16  17  ar  
 31  16  18  1   
 32  18  19  1   
 33  18  20  1   
 34  19  21  1   
 35  19  37  1   
 36  19  38  1   
 37  20  22  1   
 38  20  39  1   
 39  20  40  1   
 40  21  23  1   
 41  21  41  1   
 42  21  42  1   
 43  22  23  1   
 44  22  43  1   
 45  22  44  1   
 46  23  24  1   
 47  23  45  1   
 48  24  46  1   
@<TRIPOS>SUBSTRUCTURE
  1 ****  12 GROUP 4 **** **** 0

# MOE 2024.06 (io_trps.svl 2023.06)
