@<TRIPOS>MOLECULE
NONAME
45 47 1 0 0 
SMALL
USER_CHARGES


@<TRIPOS>ATOM
  1 F       -0.3080    -0.3010     0.0990 F     1 <1>  -0.1900 
  2 C       -0.4050    -1.5810     0.3550 C.ar  1 <1>   0.1900 
  3 C        0.6840    -2.4480     0.2120 C.ar  1 <1>   0.0830 
  4 C       -1.6440    -2.0310     0.7720 C.ar  1 <1>  -0.1500 
  5 O        1.9460    -2.1310    -0.1890 O.3   1 <1>  -0.3630 
  6 C        0.4820    -3.7890     0.5010 C.ar  1 <1>  -0.1500 
  7 C       -1.8210    -3.3760     1.0500 C.ar  1 <1>  -0.1500 
  8 C        2.3630    -0.8040    -0.4300 C.3   1 <1>   0.0400 
  9 C       -0.7590    -4.2610     0.9100 C.ar  1 <1>  -0.1430 
 10 C       -0.9550    -5.7370     1.1990 C.3   1 <1>   0.4870 
 11 N       -0.9140    -6.4860    -0.0880 N.4   1 <1>  -0.9590 
 12 C       -2.0870    -6.1320    -0.9510 C.3   1 <1>   0.3430 
 13 C       -0.9970    -7.9570     0.1630 C.3   1 <1>   0.3430 
 14 C       -3.1380    -7.2110    -0.6800 C.3   1 <1>   0.2000 
 15 C       -2.2780    -8.4650    -0.5140 C.3   1 <1>  -0.0800 
 16 O       -3.7740    -6.9110     0.5220 O.3   1 <1>  -0.6800 
 17 C       -2.9390    -9.6430     0.2290 C.3   1 <1>   0.0200 
 18 C       -1.9870   -10.8190     0.3250 C.2   1 <1>  -0.0400 
 19 O       -0.9090   -10.7230     1.0570 O.3   1 <1>  -0.0190 
 20 C       -2.0020   -12.0430    -0.2240 C.2   1 <1>  -0.1500 
 21 N       -0.1940   -11.8040     1.0140 N.2   1 <1>  -0.4100 
 22 C       -0.8300   -12.6240     0.2550 C.2   1 <1>   0.1080 
 23 C       -0.3600   -14.0250    -0.0670 C.3   1 <1>  -0.0590 
 24 H       -2.4570    -1.3330     0.8760 H     1 <1>   0.1500 
 25 H        1.3230    -4.4530     0.4010 H     1 <1>   0.1500 
 26 H       -2.7890    -3.7210     1.3760 H     1 <1>   0.1500 
 27 H        3.4090    -0.8210    -0.6790 H     1 <1>   0.0800 
 28 H        2.2110    -0.2210     0.4610 H     1 <1>   0.0800 
 29 H        1.8010    -0.4030    -1.2540 H     1 <1>   0.0800 
 30 H       -1.9020    -5.8940     1.6910 H     1 <1>   0.0800 
 31 H       -0.1690    -6.0790     1.8530 H     1 <1>   0.0800 
 32 H       -0.0400    -6.2330    -0.5660 H     1 <1>   0.4500 
 33 H       -2.4730    -5.1470    -0.7430 H     1 <1>   0.0800 
 34 H       -1.7950    -6.1800    -1.9870 H     1 <1>   0.0800 
 35 H       -0.1340    -8.4730    -0.2300 H     1 <1>   0.0800 
 36 H       -1.0540    -8.1480     1.2230 H     1 <1>   0.0800 
 37 H       -3.8740    -7.2800    -1.4640 H     1 <1>   0.0800 
 38 H       -2.0010    -8.8090    -1.4960 H     1 <1>   0.0800 
 39 H       -4.6300    -7.3860     0.6010 H     1 <1>   0.4000 
 40 H       -3.8240    -9.9540    -0.2990 H     1 <1>   0.0800 
 41 H       -3.2280    -9.3600     1.2260 H     1 <1>   0.0800 
 42 H       -2.7180   -12.5050    -0.8790 H     1 <1>   0.1500 
 43 H       -1.0920   -14.7400     0.2600 H     1 <1>   0.0800 
 44 H        0.5700   -14.2260     0.4350 H     1 <1>   0.0800 
 45 H       -0.2120   -14.1280    -1.1260 H     1 <1>   0.0800 
@<TRIPOS>BOND
  1   1   2  1   
  2   2   3  ar  
  3   2   4  ar  
  4   3   5  1   
  5   3   6  ar  
  6   4   7  ar  
  7   4  24  1   
  8   5   8  1   
  9   6   9  ar  
 10   6  25  1   
 11   7   9  ar  
 12   7  26  1   
 13   8  27  1   
 14   8  28  1   
 15   8  29  1   
 16   9  10  1   
 17  10  11  1   
 18  10  30  1   
 19  10  31  1   
 20  11  12  1   
 21  11  13  1   
 22  11  32  1   
 23  12  14  1   
 24  12  33  1   
 25  12  34  1   
 26  13  15  1   
 27  13  35  1   
 28  13  36  1   
 29  14  15  1   
 30  14  16  1   
 31  14  37  1   
 32  15  17  1   
 33  15  38  1   
 34  16  39  1   
 35  17  18  1   
 36  17  40  1   
 37  17  41  1   
 38  18  19  1   
 39  18  20  2   
 40  19  21  1   
 41  20  22  1   
 42  20  42  1   
 43  21  22  2   
 44  22  23  1   
 45  23  43  1   
 46  23  44  1   
 47  23  45  1   
@<TRIPOS>SUBSTRUCTURE
  1 ****  11 GROUP 4 **** **** 0

# MOE 2024.06 (io_trps.svl 2023.06)
