@<TRIPOS>MOLECULE
NONAME
47 50 1 0 0 
SMALL
USER_CHARGES


@<TRIPOS>ATOM
  1 O       -1.2740     0.2430    -1.0870 O.2   1 <1>  -0.5700 
  2 C       -1.9330     0.9310    -0.3270 C.2   1 <1>   0.6900 
  3 N       -2.8530     0.3340     0.4910 N.am  1 <1>  -0.6600 
  4 N       -1.7710     2.2920    -0.3110 N.am  1 <1>  -0.6600 
  5 C       -2.7520    -1.1300     0.7790 C.3   1 <1>   0.1400 
  6 C       -4.2700     0.8000     0.4620 C.3   1 <1>   0.1400 
  7 C       -1.9000     3.0910     0.9420 C.3   1 <1>   0.1400 
  8 C       -0.9880     2.9930    -1.3710 C.3   1 <1>   0.1400 
  9 C       -3.6740    -1.9380    -0.1530 C.3   1 <1>   0.3440 
 10 C       -5.1240    -0.1090    -0.4460 C.3   1 <1>   0.2950 
 11 C       -0.5280     3.6310     1.3810 C.3   1 <1>   0.1200 
 12 C        0.3330     3.5290    -0.7980 C.3   1 <1>   0.1200 
 13 O       -4.9880    -1.4480    -0.0670 O.3   1 <1>  -0.5600 
 14 C       -3.6470    -3.4180     0.2170 C.ar  1 <1>  -0.1440 
 15 C       -6.6110     0.2470    -0.3560 C.3   1 <1>  -0.1950 
 16 O        0.0930     4.3200     0.3320 O.3   1 <1>  -0.5600 
 17 C       -2.6870    -4.2430    -0.3540 C.ar  1 <1>  -0.1500 
 18 C       -4.5490    -3.9620     1.1220 C.ar  1 <1>  -0.1500 
 19 C       -7.5620    -0.1170    -1.4520 C.3   1 <1>  -0.2000 
 20 C       -7.2010     1.3230    -1.2140 C.3   1 <1>  -0.2000 
 21 C       -2.6290    -5.5870    -0.0260 C.ar  1 <1>  -0.1500 
 22 C       -4.4930    -5.3060     1.4510 C.ar  1 <1>  -0.1500 
 23 C       -3.5320    -6.1200     0.8770 C.ar  1 <1>  -0.1500 
 24 H       -1.7370    -1.4640     0.6520 H     1 <1>   0.0800 
 25 H       -3.0320    -1.3160     1.8000 H     1 <1>   0.0800 
 26 H       -4.6700     0.7880     1.4600 H     1 <1>   0.0800 
 27 H       -4.3250     1.8090     0.0930 H     1 <1>   0.0800 
 28 H       -2.5680     3.9160     0.7700 H     1 <1>   0.0800 
 29 H       -2.3060     2.4900     1.7360 H     1 <1>   0.0800 
 30 H       -0.7800     2.3290    -2.1920 H     1 <1>   0.0800 
 31 H       -1.5670     3.8150    -1.7520 H     1 <1>   0.0800 
 32 H       -3.3430    -1.8230    -1.1720 H     1 <1>   0.0800 
 33 H       -4.7930    -0.0140    -1.4670 H     1 <1>   0.0800 
 34 H        0.1140     2.8240     1.6900 H     1 <1>   0.0800 
 35 H       -0.6420     4.3170     2.2010 H     1 <1>   0.0800 
 36 H        0.8350     4.1390    -1.5280 H     1 <1>   0.0800 
 37 H        0.9810     2.7140    -0.5220 H     1 <1>   0.0800 
 38 H       -6.9810     0.1690     0.6520 H     1 <1>   0.1000 
 39 H       -1.9780    -3.8420    -1.0570 H     1 <1>   0.1500 
 40 H       -5.3030    -3.3390     1.5710 H     1 <1>   0.1500 
 41 H       -7.1750    -0.6200    -2.3220 H     1 <1>   0.1000 
 42 H       -8.5430    -0.4650    -1.1800 H     1 <1>   0.1000 
 43 H       -7.9470     1.9750    -0.7920 H     1 <1>   0.1000 
 44 H       -6.5870     1.8190    -1.9460 H     1 <1>   0.1000 
 45 H       -1.8810    -6.2170    -0.4740 H     1 <1>   0.1500 
 46 H       -5.1980    -5.7160     2.1510 H     1 <1>   0.1500 
 47 H       -3.4880    -7.1640     1.1320 H     1 <1>   0.1500 
@<TRIPOS>BOND
  1   1   2  2   
  2   2   3  am  
  3   2   4  am  
  4   3   5  1   
  5   3   6  1   
  6   4   7  1   
  7   4   8  1   
  8   5   9  1   
  9   5  24  1   
 10   5  25  1   
 11   6  10  1   
 12   6  26  1   
 13   6  27  1   
 14   7  11  1   
 15   7  28  1   
 16   7  29  1   
 17   8  12  1   
 18   8  30  1   
 19   8  31  1   
 20   9  13  1   
 21   9  14  1   
 22   9  32  1   
 23  10  13  1   
 24  10  15  1   
 25  10  33  1   
 26  11  16  1   
 27  11  34  1   
 28  11  35  1   
 29  12  16  1   
 30  12  36  1   
 31  12  37  1   
 32  14  17  ar  
 33  14  18  ar  
 34  15  19  1   
 35  15  20  1   
 36  15  38  1   
 37  17  21  ar  
 38  17  39  1   
 39  18  22  ar  
 40  18  40  1   
 41  19  20  1   
 42  19  41  1   
 43  19  42  1   
 44  20  43  1   
 45  20  44  1   
 46  21  23  ar  
 47  21  45  1   
 48  22  23  ar  
 49  22  46  1   
 50  23  47  1   
@<TRIPOS>SUBSTRUCTURE
  1 ****   3 GROUP 4 **** **** 0

# MOE 2024.06 (io_trps.svl 2023.06)
