@<TRIPOS>MOLECULE
NONAME
40 41 1 0 0 
SMALL
USER_CHARGES


@<TRIPOS>ATOM
  1 N        0.4500    -0.1460     0.0810 N.ar  1 <1>  -0.6200 
  2 C        1.5920    -0.8290     0.1390 C.ar  1 <1>   0.7200 
  3 C       -0.5940    -0.7880    -0.3800 C.ar  1 <1>   0.1600 
  4 N        1.7520    -2.1040    -0.2200 N.ar  1 <1>  -0.6200 
  5 N        2.7020    -0.1640     0.6190 N.pl3 1 <1>  -0.8380 
  6 C       -0.5350    -2.1020    -0.7840 C.ar  1 <1>  -0.1430 
  7 C        0.6890    -2.7190    -0.6760 C.ar  1 <1>   0.1600 
  8 C        4.0380    -0.8290     0.5580 C.3   1 <1>   0.3900 
  9 C        2.5450     0.9820     1.5560 C.3   1 <1>   0.2090 
 10 C       -1.7570    -2.8310    -1.3190 C.3   1 <1>  -0.0160 
 11 C        5.1940     0.1590     0.5770 C.2   1 <1>  -0.1810 
 12 C        2.6030     2.2970     0.7830 C.3   1 <1>  -0.2400 
 13 C       -2.5210    -3.5090    -0.1790 C.3   1 <1>  -0.2400 
 14 C        5.9410     0.5300     1.6890 C.2   1 <1>   0.1390 
 15 C        5.7390     0.8570    -0.4420 C.2   1 <1>  -0.3020 
 16 N        6.8670     1.3900     1.3970 N.2   1 <1>  -0.7070 
 17 N        6.7420     1.5940     0.0730 N.pl3 1 <1>   0.3140 
 18 C        7.6160     2.5290    -0.6620 C.3   1 <1>   0.0960 
 19 C        8.7560     1.7840    -1.3680 C.3   1 <1>  -0.2400 
 20 H       -1.5250    -0.2510    -0.4370 H     1 <1>   0.1500 
 21 H        0.7970    -3.7490    -0.9720 H     1 <1>   0.1500 
 22 H        4.1170    -1.3990    -0.3520 H     1 <1>   0.0800 
 23 H        4.1290    -1.5120     1.3840 H     1 <1>   0.0800 
 24 H        3.3150     0.9610     2.3070 H     1 <1>   0.0800 
 25 H        1.5990     0.9100     2.0670 H     1 <1>   0.0800 
 26 H       -1.4530    -3.5710    -2.0390 H     1 <1>   0.0800 
 27 H       -2.4050    -2.1330    -1.8220 H     1 <1>   0.0800 
 28 H        3.5570     2.4110     0.3040 H     1 <1>   0.0800 
 29 H        2.4590     3.1190     1.4580 H     1 <1>   0.0800 
 30 H        1.8270     2.3200     0.0400 H     1 <1>   0.0800 
 31 H       -1.8900    -4.2240     0.3200 H     1 <1>   0.0800 
 32 H       -3.3840    -4.0220    -0.5650 H     1 <1>   0.0800 
 33 H       -2.8470    -2.7780     0.5390 H     1 <1>   0.0800 
 34 H        5.7780     0.1550     2.6860 H     1 <1>   0.1500 
 35 H        5.4660     0.8710    -1.4810 H     1 <1>   0.1500 
 36 H        8.0180     3.2340     0.0430 H     1 <1>   0.0800 
 37 H        7.0180     3.0630    -1.3780 H     1 <1>   0.0800 
 38 H        9.3490     1.2530    -0.6450 H     1 <1>   0.0800 
 39 H        9.3880     2.4860    -1.8820 H     1 <1>   0.0800 
 40 H        8.3610     1.0870    -2.0850 H     1 <1>   0.0800 
@<TRIPOS>BOND
  1   1   2  ar  
  2   1   3  ar  
  3   2   4  ar  
  4   2   5  1   
  5   3   6  ar  
  6   3  20  1   
  7   4   7  ar  
  8   5   8  1   
  9   5   9  1   
 10   6   7  ar  
 11   6  10  1   
 12   7  21  1   
 13   8  11  1   
 14   8  22  1   
 15   8  23  1   
 16   9  12  1   
 17   9  24  1   
 18   9  25  1   
 19  10  13  1   
 20  10  26  1   
 21  10  27  1   
 22  11  14  1   
 23  11  15  2   
 24  12  28  1   
 25  12  29  1   
 26  12  30  1   
 27  13  31  1   
 28  13  32  1   
 29  13  33  1   
 30  14  16  2   
 31  14  34  1   
 32  15  17  1   
 33  15  35  1   
 34  16  17  1   
 35  17  18  1   
 36  18  19  1   
 37  18  36  1   
 38  18  37  1   
 39  19  38  1   
 40  19  39  1   
 41  19  40  1   
@<TRIPOS>SUBSTRUCTURE
  1 ****   5 GROUP 4 **** **** 0

# MOE 2024.06 (io_trps.svl 2023.06)
