@<TRIPOS>MOLECULE
NONAME
50 52 1 0 0 
SMALL
USER_CHARGES


@<TRIPOS>ATOM
  1 O       -0.3650     0.5630     0.3340 O.2   1 <1>  -0.5700 
  2 C       -0.2070     1.7520     0.4460 C.2   1 <1>   0.5690 
  3 N       -1.2710     2.5820     0.5250 N.am  1 <1>  -0.7300 
  4 C        1.2100     2.3400     0.4630 C.3   1 <1>   0.1810 
  5 C       -1.1440     4.0470     0.7030 C.3   1 <1>   0.3640 
  6 O        1.2620     3.6740     0.9250 O.3   1 <1>  -0.5600 
  7 C       -2.1580     4.7670    -0.1830 C.ar  1 <1>  -0.1440 
  8 C        0.2820     4.5340     0.3630 C.3   1 <1>   0.2610 
  9 C       -2.4200     4.3480    -1.4810 C.ar  1 <1>  -0.1500 
 10 C       -2.8150     5.8860     0.3090 C.ar  1 <1>  -0.1500 
 11 C        0.4390     5.9870     0.8480 C.2   1 <1>   0.5690 
 12 C       -3.3220     5.0370    -2.2730 C.ar  1 <1>  -0.1500 
 13 C       -3.7170     6.5760    -0.4820 C.ar  1 <1>  -0.1500 
 14 O        0.2460     6.1930     2.0280 O.2   1 <1>  -0.5700 
 15 N        0.7230     7.0260    -0.0190 N.am  1 <1>  -0.6600 
 16 C       -3.9710     6.1520    -1.7740 C.ar  1 <1>  -0.1500 
 17 C        0.8050     8.4240     0.5200 C.3   1 <1>   0.2200 
 18 C        0.7440     6.8720    -1.5040 C.3   1 <1>   0.1400 
 19 C       -0.5060     9.1780     0.2490 C.3   1 <1>  -0.1600 
 20 C        2.0210     9.1950    -0.0170 C.3   1 <1>  -0.1600 
 21 C        2.1040     6.3400    -1.9590 C.3   1 <1>  -0.2400 
 22 C       -0.4530    10.6000     0.8260 C.3   1 <1>  -0.1600 
 23 C        2.0710    10.6130     0.5710 C.3   1 <1>  -0.1600 
 24 C        0.7650    11.3720     0.2970 C.3   1 <1>  -0.1600 
 25 H       -2.2120     2.1860     0.5400 H     1 <1>   0.3700 
 26 H        1.6180     2.3120    -0.5310 H     1 <1>   0.0800 
 27 H        1.8320     1.7480     1.1090 H     1 <1>   0.0800 
 28 H       -1.3520     4.2740     1.7350 H     1 <1>   0.0800 
 29 H        0.4050     4.4830    -0.6980 H     1 <1>   0.0800 
 30 H       -1.9240     3.4830    -1.8880 H     1 <1>   0.1500 
 31 H       -2.6230     6.2340     1.3110 H     1 <1>   0.1500 
 32 H       -3.5220     4.7040    -3.2770 H     1 <1>   0.1500 
 33 H       -4.2200     7.4440    -0.0920 H     1 <1>   0.1500 
 34 H       -4.6740     6.6880    -2.3890 H     1 <1>   0.1500 
 35 H        0.9280     8.3780     1.5890 H     1 <1>   0.0800 
 36 H       -0.0440     6.2070    -1.8140 H     1 <1>   0.0800 
 37 H        0.5540     7.8160    -1.9810 H     1 <1>   0.0800 
 38 H       -0.6890     9.2400    -0.8080 H     1 <1>   0.0800 
 39 H       -1.3200     8.6420     0.7040 H     1 <1>   0.0800 
 40 H        2.9200     8.6680     0.2510 H     1 <1>   0.0800 
 41 H        1.9750     9.2790    -1.0870 H     1 <1>   0.0800 
 42 H        2.3290     5.3970    -1.4980 H     1 <1>   0.0800 
 43 H        2.8810     7.0400    -1.7130 H     1 <1>   0.0800 
 44 H        2.0990     6.2060    -3.0250 H     1 <1>   0.0800 
 45 H       -1.3550    11.1270     0.5690 H     1 <1>   0.0800 
 46 H       -0.3980    10.5450     1.9000 H     1 <1>   0.0800 
 47 H        2.2310    10.5520     1.6340 H     1 <1>   0.0800 
 48 H        2.8990    11.1520     0.1430 H     1 <1>   0.0800 
 49 H        0.8070    12.3400     0.7640 H     1 <1>   0.0800 
 50 H        0.6570    11.5230    -0.7640 H     1 <1>   0.0800 
@<TRIPOS>BOND
  1   1   2  2   
  2   2   3  am  
  3   2   4  1   
  4   3   5  1   
  5   3  25  1   
  6   4   6  1   
  7   4  26  1   
  8   4  27  1   
  9   5   7  1   
 10   5   8  1   
 11   5  28  1   
 12   6   8  1   
 13   7   9  ar  
 14   7  10  ar  
 15   8  11  1   
 16   8  29  1   
 17   9  12  ar  
 18   9  30  1   
 19  10  13  ar  
 20  10  31  1   
 21  11  14  2   
 22  11  15  am  
 23  12  16  ar  
 24  12  32  1   
 25  13  16  ar  
 26  13  33  1   
 27  15  17  1   
 28  15  18  1   
 29  16  34  1   
 30  17  19  1   
 31  17  20  1   
 32  17  35  1   
 33  18  21  1   
 34  18  36  1   
 35  18  37  1   
 36  19  22  1   
 37  19  38  1   
 38  19  39  1   
 39  20  23  1   
 40  20  40  1   
 41  20  41  1   
 42  21  42  1   
 43  21  43  1   
 44  21  44  1   
 45  22  24  1   
 46  22  45  1   
 47  22  46  1   
 48  23  24  1   
 49  23  47  1   
 50  23  48  1   
 51  24  49  1   
 52  24  50  1   
@<TRIPOS>SUBSTRUCTURE
  1 ****  11 GROUP 4 **** **** 0

# MOE 2024.06 (io_trps.svl 2023.06)
