@<TRIPOS>MOLECULE
NONAME
49 52 1 0 0 
SMALL
USER_CHARGES


@<TRIPOS>ATOM
  1 O       -1.3110    -0.5220    -0.9710 O.2   1 <1>  -0.5700 
  2 C       -1.3500     0.2460    -0.0270 C.2   1 <1>   0.7160 
  3 N       -1.3730    -0.2700     1.2330 N.am  1 <1>  -0.7300 
  4 C       -1.4030     1.6560    -0.2010 C.2   1 <1>  -0.0860 
  5 C       -1.8490    -1.6540     1.5300 C.3   1 <1>   0.2010 
  6 C       -2.5790     2.4040    -0.2300 C.2   1 <1>   0.3720 
  7 C       -0.4240     2.5870    -0.3310 C.2   1 <1>   0.0870 
  8 C       -3.3250    -1.8430     1.1790 C.2   1 <1>   0.5690 
  9 N       -2.3240     3.6600    -0.3450 N.2   1 <1>  -0.4100 
 10 N       -3.8650     1.8630    -0.1450 N.pl3 1 <1>  -0.8210 
 11 O       -1.0210     3.7500    -0.4060 O.3   1 <1>  -0.0190 
 12 C        1.0130     2.4870    -0.3720 C.ar  1 <1>   0.0530 
 13 O       -4.1390    -1.8280     2.0740 O.2   1 <1>  -0.5700 
 14 N       -3.6590    -1.9800    -0.1330 N.am  1 <1>  -0.5790 
 15 C       -4.8810     2.5610    -0.9930 C.3   1 <1>   0.2090 
 16 C       -4.3850     1.7050     1.2490 C.3   1 <1>   0.2090 
 17 C        1.6570     1.3590    -0.8820 C.ar  1 <1>  -0.1500 
 18 C        1.8150     3.5250     0.1030 C.ar  1 <1>  -0.1500 
 19 C       -5.0050    -2.1610    -0.6970 C.3   1 <1>   0.0490 
 20 C       -6.2570     1.8770    -0.8910 C.3   1 <1>   0.1200 
 21 C       -5.7840     1.0630     1.2570 C.3   1 <1>   0.1200 
 22 C        3.0370     1.2660    -0.9040 C.ar  1 <1>  -0.1500 
 23 C        3.1950     3.4380     0.0830 C.ar  1 <1>  -0.1500 
 24 C       -5.8890    -3.2400    -0.1610 C.3   1 <1>  -0.2000 
 25 C       -5.2490    -3.3920    -1.5060 C.3   1 <1>  -0.2000 
 26 O       -6.6710     1.7820     0.4440 O.3   1 <1>  -0.5600 
 27 C        3.8090     2.3050    -0.4200 C.ar  1 <1>  -0.1500 
 28 H       -1.4560     0.3920     2.0050 H     1 <1>   0.3700 
 29 H       -1.7100    -1.8620     2.5760 H     1 <1>   0.0800 
 30 H       -1.2640    -2.3600     0.9670 H     1 <1>   0.0800 
 31 H       -2.9330    -1.7390    -0.8230 H     1 <1>   0.3700 
 32 H       -4.5530     2.5530    -2.0170 H     1 <1>   0.0800 
 33 H       -4.9770     3.5870    -0.6800 H     1 <1>   0.0800 
 34 H       -4.4360     2.6690     1.7260 H     1 <1>   0.0800 
 35 H       -3.7170     1.0850     1.8180 H     1 <1>   0.0800 
 36 H        1.0770     0.5440    -1.2770 H     1 <1>   0.1500 
 37 H        1.3510     4.4120     0.4970 H     1 <1>   0.1500 
 38 H       -5.4500    -1.2370    -1.0230 H     1 <1>   0.1000 
 39 H       -6.2170     0.8890    -1.3110 H     1 <1>   0.0800 
 40 H       -6.9940     2.4500    -1.4220 H     1 <1>   0.0800 
 41 H       -6.1840     1.0570     2.2550 H     1 <1>   0.0800 
 42 H       -5.7360     0.0480     0.9050 H     1 <1>   0.0800 
 43 H        3.5110     0.3850    -1.3010 H     1 <1>   0.1500 
 44 H        3.7930     4.2520     0.4570 H     1 <1>   0.1500 
 45 H       -6.9480    -3.0560    -0.1110 H     1 <1>   0.1000 
 46 H       -5.5320    -3.8290     0.6650 H     1 <1>   0.1000 
 47 H       -4.4560    -4.1100    -1.6180 H     1 <1>   0.1000 
 48 H       -5.8800    -3.3280    -2.3750 H     1 <1>   0.1000 
 49 H        4.8830     2.2350    -0.4360 H     1 <1>   0.1500 
@<TRIPOS>BOND
  1   1   2  2   
  2   2   3  am  
  3   2   4  1   
  4   3   5  1   
  5   3  28  1   
  6   4   6  1   
  7   4   7  2   
  8   5   8  1   
  9   5  29  1   
 10   5  30  1   
 11   6   9  2   
 12   6  10  1   
 13   7  11  1   
 14   7  12  1   
 15   8  13  2   
 16   8  14  am  
 17   9  11  1   
 18  10  15  1   
 19  10  16  1   
 20  12  17  ar  
 21  12  18  ar  
 22  14  19  1   
 23  14  31  1   
 24  15  20  1   
 25  15  32  1   
 26  15  33  1   
 27  16  21  1   
 28  16  34  1   
 29  16  35  1   
 30  17  22  ar  
 31  17  36  1   
 32  18  23  ar  
 33  18  37  1   
 34  19  24  1   
 35  19  25  1   
 36  19  38  1   
 37  20  26  1   
 38  20  39  1   
 39  20  40  1   
 40  21  26  1   
 41  21  41  1   
 42  21  42  1   
 43  22  27  ar  
 44  22  43  1   
 45  23  27  ar  
 46  23  44  1   
 47  24  25  1   
 48  24  45  1   
 49  24  46  1   
 50  25  47  1   
 51  25  48  1   
 52  27  49  1   
@<TRIPOS>SUBSTRUCTURE
  1 ****   2 GROUP 4 **** **** 0

# MOE 2024.06 (io_trps.svl 2023.06)
