@<TRIPOS>MOLECULE
NONAME
42 43 1 0 0 
SMALL
USER_CHARGES


@<TRIPOS>ATOM
  1 O        0.2370    -1.3530    -2.1600 O.2   1 <1>  -0.5700 
  2 C        0.5510    -1.7270    -1.0580 C.2   1 <1>   0.5690 
  3 N        1.7940    -1.7110    -0.5130 N.am  1 <1>  -0.6600 
  4 C       -0.4510    -2.2990    -0.0950 C.3   1 <1>  -0.0990 
  5 C        3.0510    -1.1980    -1.0990 C.3   1 <1>   0.2200 
  6 C        1.7870    -2.2690     0.8530 C.3   1 <1>   0.1400 
  7 C        0.4320    -2.9880     0.9480 C.3   1 <1>   0.2200 
  8 C        2.9100     0.2890    -1.4170 C.3   1 <1>  -0.2400 
  9 C        3.4110    -2.0130    -2.3390 C.3   1 <1>  -0.2400 
 10 N        0.6030    -4.4080     0.5600 N.am  1 <1>  -0.7300 
 11 C        0.6060    -5.4430     1.4320 C.2   1 <1>   0.5690 
 12 O        0.4830    -5.2800     2.6200 O.2   1 <1>  -0.5700 
 13 C        0.7700    -6.8500     0.8960 C.3   1 <1>  -0.0990 
 14 C       -0.5580    -7.4090     0.3600 C.3   1 <1>  -0.1600 
 15 C       -0.4100    -8.8660    -0.1000 C.3   1 <1>   0.0960 
 16 N       -1.6760    -9.3640    -0.6680 N.pl3 1 <1>   0.3140 
 17 N       -1.8930    -9.3950    -1.9950 N.2   1 <1>  -0.7070 
 18 C       -2.7420    -9.8290     0.0130 C.2   1 <1>  -0.3020 
 19 C       -3.0910    -9.8780    -2.1250 C.2   1 <1>   0.1390 
 20 C       -3.6760   -10.1710    -0.8990 C.2   1 <1>  -0.1500 
 21 H       -1.1330    -2.9730    -0.5790 H     1 <1>   0.0800 
 22 H       -0.9950    -1.4870     0.3500 H     1 <1>   0.0800 
 23 H        3.8400    -1.3150    -0.3750 H     1 <1>   0.0800 
 24 H        1.8370    -1.4620     1.5640 H     1 <1>   0.0800 
 25 H        2.6070    -2.9490     1.0100 H     1 <1>   0.0800 
 26 H        0.0170    -2.9220     1.9400 H     1 <1>   0.0800 
 27 H        2.1630     0.4470    -2.1740 H     1 <1>   0.0800 
 28 H        3.8450     0.6760    -1.7790 H     1 <1>   0.0800 
 29 H        2.6360     0.8320    -0.5310 H     1 <1>   0.0800 
 30 H        2.6630    -1.8910    -3.1030 H     1 <1>   0.0800 
 31 H        3.4940    -3.0540    -2.0860 H     1 <1>   0.0800 
 32 H        4.3540    -1.6810    -2.7330 H     1 <1>   0.0800 
 33 H        0.7630    -4.5700    -0.4360 H     1 <1>   0.3700 
 34 H        1.1310    -7.4730     1.6950 H     1 <1>   0.0800 
 35 H        1.5110    -6.8450     0.1180 H     1 <1>   0.0800 
 36 H       -0.8910    -6.8080    -0.4690 H     1 <1>   0.0800 
 37 H       -1.3010    -7.3550     1.1380 H     1 <1>   0.0800 
 38 H       -0.1350    -9.4970     0.7260 H     1 <1>   0.0800 
 39 H        0.3470    -8.9410    -0.8590 H     1 <1>   0.0800 
 40 H       -2.7760    -9.8890     1.0850 H     1 <1>   0.1500 
 41 H       -3.5670   -10.0310    -3.0790 H     1 <1>   0.1500 
 42 H       -4.6590   -10.5780    -0.7450 H     1 <1>   0.1500 
@<TRIPOS>BOND
  1   1   2  2   
  2   2   3  am  
  3   2   4  1   
  4   3   5  1   
  5   3   6  1   
  6   4   7  1   
  7   4  21  1   
  8   4  22  1   
  9   5   8  1   
 10   5   9  1   
 11   5  23  1   
 12   6   7  1   
 13   6  24  1   
 14   6  25  1   
 15   7  10  1   
 16   7  26  1   
 17   8  27  1   
 18   8  28  1   
 19   8  29  1   
 20   9  30  1   
 21   9  31  1   
 22   9  32  1   
 23  10  11  am  
 24  10  33  1   
 25  11  12  2   
 26  11  13  1   
 27  13  14  1   
 28  13  34  1   
 29  13  35  1   
 30  14  15  1   
 31  14  36  1   
 32  14  37  1   
 33  15  16  1   
 34  15  38  1   
 35  15  39  1   
 36  16  17  1   
 37  16  18  1   
 38  17  19  2   
 39  18  20  2   
 40  18  40  1   
 41  19  20  1   
 42  19  41  1   
 43  20  42  1   
@<TRIPOS>SUBSTRUCTURE
  1 ****  10 GROUP 4 **** **** 0

# MOE 2024.06 (io_trps.svl 2023.06)
