@<TRIPOS>MOLECULE
NONAME
54 58 1 0 0 
SMALL
USER_CHARGES


@<TRIPOS>ATOM
  1 O        3.3930     0.0810    -3.4310 O.2   1 <1>  -0.5700 
  2 C        3.8200    -0.4540    -2.4120 C.2   1 <1>   0.6160 
  3 N        3.7630     0.1990    -1.1910 N.am  1 <1>  -0.4690 
  4 C        4.3650    -1.7660    -2.4580 C.2   1 <1>  -0.1360 
  5 C        4.2470    -0.4240    -0.0420 C.2   1 <1>  -0.0290 
  6 C        3.1250     1.5560    -1.1720 C.3   1 <1>   0.1400 
  7 C        4.8240    -2.3790    -1.3370 C.2   1 <1>  -0.1500 
  8 C        4.7590    -1.6850    -0.1060 C.2   1 <1>  -0.1500 
  9 C        4.2040     0.3270     1.2880 C.3   1 <1>   0.0580 
 10 C        3.1230     2.2680     0.1970 C.3   1 <1>  -0.0800 
 11 C        5.4980     1.1420     1.4800 C.3   1 <1>   0.2090 
 12 C        2.9790     1.2490     1.3360 C.3   1 <1>  -0.1600 
 13 C        4.3930     3.1180     0.3930 C.3   1 <1>   0.2090 
 14 N        5.5940     2.2520     0.4920 N.pl3 1 <1>  -0.8380 
 15 C        6.8300     2.7490     0.1430 C.ar  1 <1>   0.4100 
 16 N        7.0780     3.9980     0.3870 N.ar  1 <1>  -0.6200 
 17 C        7.7630     1.8980    -0.4590 C.ar  1 <1>  -0.1500 
 18 C        8.3060     4.4930     0.0690 C.ar  1 <1>   0.3100 
 19 C        9.0090     2.3330    -0.7860 C.ar  1 <1>  -0.1430 
 20 C        9.3420     3.6880    -0.4910 C.ar  1 <1>   0.0000 
 21 C        8.5700     5.8700     0.3240 C.ar  1 <1>   0.0820 
 22 C        9.9470     1.3330    -1.4540 C.3   1 <1>  -0.0970 
 23 C       10.6170     4.2940    -0.7070 C.ar  1 <1>   0.0820 
 24 O        7.6410     6.7390     0.8130 O.3   1 <1>  -0.3630 
 25 C        9.8060     6.4070     0.0990 C.ar  1 <1>  -0.1500 
 26 O       11.6280     3.5330    -1.2050 O.3   1 <1>  -0.3630 
 27 C       10.8300     5.6230    -0.4130 C.ar  1 <1>  -0.1500 
 28 C        6.4030     6.8610     0.1450 C.3   1 <1>   0.0400 
 29 C       12.9390     4.0180    -1.4050 C.3   1 <1>   0.0400 
 30 H        4.3880    -2.2350    -3.4220 H     1 <1>   0.1500 
 31 H        3.6170     2.1780    -1.9010 H     1 <1>   0.0800 
 32 H        2.1050     1.4330    -1.4920 H     1 <1>   0.0800 
 33 H        5.2360    -3.3730    -1.3560 H     1 <1>   0.1500 
 34 H        5.1340    -2.1860     0.7690 H     1 <1>   0.1500 
 35 H        4.1340    -0.3860     2.0900 H     1 <1>   0.0800 
 36 H        2.2860     2.9410     0.2160 H     1 <1>   0.0800 
 37 H        6.3500     0.4930     1.3860 H     1 <1>   0.0800 
 38 H        5.5120     1.5660     2.4690 H     1 <1>   0.0800 
 39 H        2.0790     0.6720     1.2070 H     1 <1>   0.0800 
 40 H        2.9290     1.7540     2.2850 H     1 <1>   0.0800 
 41 H        4.3130     3.7000     1.2950 H     1 <1>   0.0800 
 42 H        4.5120     3.7990    -0.4330 H     1 <1>   0.0800 
 43 H        7.4390     0.8950    -0.6600 H     1 <1>   0.1500 
 44 H        9.4550     0.3940    -1.6300 H     1 <1>   0.0800 
 45 H       10.8000     1.1510    -0.8260 H     1 <1>   0.0800 
 46 H       10.2780     1.7170    -2.4020 H     1 <1>   0.0800 
 47 H        9.9860     7.4450     0.3190 H     1 <1>   0.1500 
 48 H       11.7780     6.1020    -0.5650 H     1 <1>   0.1500 
 49 H        6.0230     7.8510     0.3210 H     1 <1>   0.0800 
 50 H        5.7200     6.1340     0.5470 H     1 <1>   0.0800 
 51 H        6.5490     6.7000    -0.9080 H     1 <1>   0.0800 
 52 H       13.5390     3.2100    -1.7830 H     1 <1>   0.0800 
 53 H       13.3340     4.3560    -0.4630 H     1 <1>   0.0800 
 54 H       12.9100     4.8170    -2.1230 H     1 <1>   0.0800 
@<TRIPOS>BOND
  1   1   2  2   
  2   2   3  am  
  3   2   4  1   
  4   3   5  1   
  5   3   6  1   
  6   4   7  2   
  7   4  30  1   
  8   5   8  2   
  9   5   9  1   
 10   6  10  1   
 11   6  31  1   
 12   6  32  1   
 13   7   8  1   
 14   7  33  1   
 15   8  34  1   
 16   9  11  1   
 17   9  12  1   
 18   9  35  1   
 19  10  12  1   
 20  10  13  1   
 21  10  36  1   
 22  11  14  1   
 23  11  37  1   
 24  11  38  1   
 25  12  39  1   
 26  12  40  1   
 27  13  14  1   
 28  13  41  1   
 29  13  42  1   
 30  14  15  1   
 31  15  16  ar  
 32  15  17  ar  
 33  16  18  ar  
 34  17  19  ar  
 35  17  43  1   
 36  18  20  ar  
 37  18  21  ar  
 38  19  20  ar  
 39  19  22  1   
 40  20  23  ar  
 41  21  24  1   
 42  21  25  ar  
 43  22  44  1   
 44  22  45  1   
 45  22  46  1   
 46  23  26  1   
 47  23  27  ar  
 48  24  28  1   
 49  25  27  ar  
 50  25  47  1   
 51  26  29  1   
 52  27  48  1   
 53  28  49  1   
 54  28  50  1   
 55  28  51  1   
 56  29  52  1   
 57  29  53  1   
 58  29  54  1   
@<TRIPOS>SUBSTRUCTURE
  1 ****  15 GROUP 4 **** **** 0

# MOE 2024.06 (io_trps.svl 2023.06)
