@<TRIPOS>MOLECULE
NONAME
47 48 1 0 0 
SMALL
USER_CHARGES


@<TRIPOS>ATOM
  1 S        0.2330     0.1590    -1.1550 S.o2  1 <1>   1.3330 
  2 O        0.5370    -1.0810    -1.8330 O.2   1 <1>  -0.6500 
  3 O       -0.8190     1.0130    -1.6560 O.2   1 <1>  -0.6500 
  4 N       -0.1440    -0.2080     0.4610 N.am  1 <1>  -0.8490 
  5 C        1.7490     1.1090    -1.0330 C.3   1 <1>  -0.0550 
  6 C       -0.8370     0.8810     1.1580 C.3   1 <1>   0.1160 
  7 C       -0.9240    -1.4440     0.5790 C.3   1 <1>   0.1160 
  8 C        2.9760     0.2940    -0.5660 C.3   1 <1>  -0.0800 
  9 C        4.2990     1.0430    -0.6270 C.3   1 <1>   0.2200 
 10 C        2.9250    -0.1870     0.8900 C.3   1 <1>   0.1200 
 11 N        4.1400     2.4300    -0.1280 N.am  1 <1>  -0.7300 
 12 C        5.1160     0.2490     0.3810 C.3   1 <1>   0.1200 
 13 O        4.2200    -0.0570     1.4050 O.3   1 <1>  -0.5600 
 14 C        4.0620     3.5320    -0.9070 C.2   1 <1>   0.5690 
 15 O        4.1040     3.4700    -2.1100 O.2   1 <1>  -0.5700 
 16 C        3.9150     4.8800    -0.2520 C.3   1 <1>  -0.0990 
 17 C        5.2470     5.6280    -0.3100 C.3   1 <1>   0.0960 
 18 N        5.1330     6.9120     0.4030 N.pl3 1 <1>   0.3140 
 19 N        5.0960     6.9460     1.7470 N.2   1 <1>  -0.7070 
 20 C        5.0240     8.1540    -0.1240 C.2   1 <1>  -0.3320 
 21 C        4.9740     8.2020     2.0460 C.2   1 <1>   0.1390 
 22 C        4.9220     9.0080     0.9160 C.2   1 <1>  -0.1500 
 23 C        5.0190     8.4790    -1.6090 C.3   1 <1>  -0.0600 
 24 H        1.9710     1.5100    -2.0040 H     1 <1>   0.0800 
 25 H        1.5910     1.9390    -0.3760 H     1 <1>   0.0800 
 26 H       -0.9680     0.6310     2.1970 H     1 <1>   0.0800 
 27 H       -1.8050     1.0570     0.7160 H     1 <1>   0.0800 
 28 H       -0.2610     1.7880     1.0970 H     1 <1>   0.0800 
 29 H       -1.1370    -1.6560     1.6120 H     1 <1>   0.0800 
 30 H       -0.3660    -2.2730     0.1750 H     1 <1>   0.0800 
 31 H       -1.8510    -1.3560     0.0350 H     1 <1>   0.0800 
 32 H        3.0630    -0.5770    -1.1920 H     1 <1>   0.0800 
 33 H        4.7390     1.0380    -1.6110 H     1 <1>   0.0800 
 34 H        2.6210    -1.2180     0.9600 H     1 <1>   0.0800 
 35 H        2.2760     0.4240     1.4930 H     1 <1>   0.0800 
 36 H        4.1020     2.4980     0.8940 H     1 <1>   0.3700 
 37 H        5.9480     0.8030     0.7780 H     1 <1>   0.0800 
 38 H        5.4590    -0.6770    -0.0470 H     1 <1>   0.0800 
 39 H        3.1600     5.4380    -0.7740 H     1 <1>   0.0800 
 40 H        3.6090     4.7540     0.7710 H     1 <1>   0.0800 
 41 H        5.5340     5.8050    -1.3300 H     1 <1>   0.0800 
 42 H        6.0160     5.0500     0.1690 H     1 <1>   0.0800 
 43 H        4.9180     8.5680     3.0570 H     1 <1>   0.1500 
 44 H        4.8210    10.0790     0.9080 H     1 <1>   0.1500 
 45 H        4.9020     9.5390    -1.7550 H     1 <1>   0.0800 
 46 H        4.2040     7.9760    -2.0990 H     1 <1>   0.0800 
 47 H        5.9450     8.1730    -2.0610 H     1 <1>   0.0800 
@<TRIPOS>BOND
  1   1   2  2   
  2   1   3  2   
  3   1   4  am  
  4   1   5  1   
  5   4   6  1   
  6   4   7  1   
  7   5   8  1   
  8   5  24  1   
  9   5  25  1   
 10   6  26  1   
 11   6  27  1   
 12   6  28  1   
 13   7  29  1   
 14   7  30  1   
 15   7  31  1   
 16   8   9  1   
 17   8  10  1   
 18   8  32  1   
 19   9  11  1   
 20   9  12  1   
 21   9  33  1   
 22  10  13  1   
 23  10  34  1   
 24  10  35  1   
 25  11  14  am  
 26  11  36  1   
 27  12  13  1   
 28  12  37  1   
 29  12  38  1   
 30  14  15  2   
 31  14  16  1   
 32  16  17  1   
 33  16  39  1   
 34  16  40  1   
 35  17  18  1   
 36  17  41  1   
 37  17  42  1   
 38  18  19  1   
 39  18  20  1   
 40  19  21  2   
 41  20  22  2   
 42  20  23  1   
 43  21  22  1   
 44  21  43  1   
 45  22  44  1   
 46  23  45  1   
 47  23  46  1   
 48  23  47  1   
@<TRIPOS>SUBSTRUCTURE
  1 ****  11 GROUP 4 **** **** 0

# MOE 2024.06 (io_trps.svl 2023.06)
