@<TRIPOS>MOLECULE
NONAME
50 51 1 0 0 
SMALL
USER_CHARGES


@<TRIPOS>ATOM
  1 S        1.9400     1.0910     1.0830 S.o2  1 <1>   1.3330 
  2 O        1.8880     1.7920     2.3470 O.2   1 <1>  -0.6500 
  3 O        0.7880     0.3370     0.6410 O.2   1 <1>  -0.6500 
  4 N        3.2530     0.0170     1.1620 N.am  1 <1>  -0.8490 
  5 C        2.3830     2.2390    -0.2220 C.3   1 <1>  -0.0550 
  6 C        2.8940    -1.2300     1.8410 C.3   1 <1>   0.1160 
  7 C        4.4410     0.6020     1.7950 C.3   1 <1>   0.1160 
  8 C        2.4340     1.6220    -1.6380 C.3   1 <1>  -0.0800 
  9 C        2.6400     2.6280    -2.7640 C.3   1 <1>   0.2200 
 10 C        3.5750     0.6220    -1.8610 C.3   1 <1>   0.1200 
 11 N        3.6370     3.6450    -2.3630 N.am  1 <1>  -0.7300 
 12 C        3.2470     1.7360    -3.8360 C.3   1 <1>   0.1200 
 13 O        4.0770     0.8550    -3.1450 O.3   1 <1>  -0.5600 
 14 C        3.3520     4.9160    -1.9850 C.2   1 <1>   0.5690 
 15 O        2.2440     5.3800    -2.1010 O.2   1 <1>  -0.5700 
 16 C        4.4530     5.7480    -1.3550 C.3   1 <1>   0.0440 
 17 C        5.0320     5.0350    -0.1380 C.ar  1 <1>  -0.1440 
 18 C        4.2890     4.9620     1.0290 C.ar  1 <1>  -0.1500 
 19 C        6.2830     4.4400    -0.1870 C.ar  1 <1>  -0.1500 
 20 C        4.7820     4.2960     2.1380 C.ar  1 <1>  -0.1440 
 21 C        6.7900     3.7790     0.9200 C.ar  1 <1>  -0.1440 
 22 C        6.0360     3.7130     2.0800 C.ar  1 <1>  -0.1500 
 23 C        3.9520     4.2080     3.4060 C.3   1 <1>  -0.0970 
 24 C        8.1630     3.1350     0.8530 C.3   1 <1>  -0.0970 
 25 H        1.6590     3.0310    -0.2310 H     1 <1>   0.0800 
 26 H        3.3300     2.6790     0.0120 H     1 <1>   0.0800 
 27 H        3.7340    -1.9020     1.8590 H     1 <1>   0.0800 
 28 H        2.0870    -1.7150     1.3170 H     1 <1>   0.0800 
 29 H        2.5770    -1.0290     2.8510 H     1 <1>   0.0800 
 30 H        5.2550    -0.1030     1.7770 H     1 <1>   0.0800 
 31 H        4.2330     0.8710     2.8170 H     1 <1>   0.0800 
 32 H        4.7500     1.4820     1.2600 H     1 <1>   0.0800 
 33 H        1.5070     1.1060    -1.8210 H     1 <1>   0.0800 
 34 H        1.7240     3.0950    -3.0850 H     1 <1>   0.0800 
 35 H        3.2320    -0.3970    -1.7970 H     1 <1>   0.0800 
 36 H        4.3850     0.7750    -1.1690 H     1 <1>   0.0800 
 37 H        4.5730     3.2640    -2.1990 H     1 <1>   0.3700 
 38 H        3.8200     2.2850    -4.5620 H     1 <1>   0.0800 
 39 H        2.4850     1.1560    -4.3280 H     1 <1>   0.0800 
 40 H        5.2150     5.9290    -2.0890 H     1 <1>   0.0800 
 41 H        4.0490     6.6980    -1.0560 H     1 <1>   0.0800 
 42 H        3.3160     5.4220     1.0730 H     1 <1>   0.1500 
 43 H        6.8710     4.4910    -1.0870 H     1 <1>   0.1500 
 44 H        6.4270     3.2070     2.9450 H     1 <1>   0.1500 
 45 H        4.1150     3.2670     3.9000 H     1 <1>   0.0800 
 46 H        2.9030     4.2860     3.1790 H     1 <1>   0.0800 
 47 H        4.2220     5.0050     4.0750 H     1 <1>   0.0800 
 48 H        8.5390     2.9340     1.8410 H     1 <1>   0.0800 
 49 H        8.8560     3.7910     0.3570 H     1 <1>   0.0800 
 50 H        8.1080     2.2110     0.3080 H     1 <1>   0.0800 
@<TRIPOS>BOND
  1   1   2  2   
  2   1   3  2   
  3   1   4  am  
  4   1   5  1   
  5   4   6  1   
  6   4   7  1   
  7   5   8  1   
  8   5  25  1   
  9   5  26  1   
 10   6  27  1   
 11   6  28  1   
 12   6  29  1   
 13   7  30  1   
 14   7  31  1   
 15   7  32  1   
 16   8   9  1   
 17   8  10  1   
 18   8  33  1   
 19   9  11  1   
 20   9  12  1   
 21   9  34  1   
 22  10  13  1   
 23  10  35  1   
 24  10  36  1   
 25  11  14  am  
 26  11  37  1   
 27  12  13  1   
 28  12  38  1   
 29  12  39  1   
 30  14  15  2   
 31  14  16  1   
 32  16  17  1   
 33  16  40  1   
 34  16  41  1   
 35  17  18  ar  
 36  17  19  ar  
 37  18  20  ar  
 38  18  42  1   
 39  19  21  ar  
 40  19  43  1   
 41  20  22  ar  
 42  20  23  1   
 43  21  22  ar  
 44  21  24  1   
 45  22  44  1   
 46  23  45  1   
 47  23  46  1   
 48  23  47  1   
 49  24  48  1   
 50  24  49  1   
 51  24  50  1   
@<TRIPOS>SUBSTRUCTURE
  1 ****   5 GROUP 4 **** **** 0

# MOE 2024.06 (io_trps.svl 2023.06)
