@<TRIPOS>MOLECULE
NONAME
49 52 1 0 0 
SMALL
USER_CHARGES


@<TRIPOS>ATOM
  1 S        2.6650     1.5980     2.8070 S.3   1 <1>  -0.0800 
  2 C        1.9000     2.8040     1.7940 C.2   1 <1>  -0.1400 
  3 C        4.2540     2.1620     2.3100 C.2   1 <1>  -0.1100 
  4 C        2.7980     3.5460     1.1350 C.2   1 <1>  -0.1810 
  5 C        0.4070     2.9660     1.7070 C.3   1 <1>   0.0200 
  6 C        4.1530     3.1840     1.4370 C.2   1 <1>  -0.1500 
  7 C        2.3550     4.6530     0.1750 C.3   1 <1>   0.4610 
  8 C        0.1380     4.3650     1.1300 C.3   1 <1>   0.1200 
  9 O        0.9490     4.6200     0.0060 O.3   1 <1>  -0.5600 
 10 C        2.7590     6.0350     0.7090 C.3   1 <1>  -0.1600 
 11 C        2.9470     4.4120    -1.2210 C.3   1 <1>  -0.1600 
 12 C        2.4350     7.1430    -0.2960 C.3   1 <1>   0.1400 
 13 C        2.6130     5.5520    -2.1850 C.3   1 <1>   0.1400 
 14 N        3.1010     6.8250    -1.5890 N.am  1 <1>  -0.6600 
 15 C        4.2030     7.4790    -2.0980 C.2   1 <1>   0.5690 
 16 O        4.7120     7.1280    -3.1440 O.2   1 <1>  -0.5700 
 17 C        4.8730     8.6510    -1.3390 C.3   1 <1>   0.4040 
 18 O        5.8390     9.2750    -2.1270 O.3   1 <1>  -0.6800 
 19 C        5.5470     8.1740    -0.0520 C.ar  1 <1>  -0.1440 
 20 C        5.3240     8.8430     1.1430 C.ar  1 <1>  -0.1500 
 21 C        6.3670     7.0520    -0.0540 C.ar  1 <1>  -0.1500 
 22 C        5.8880     8.3820     2.3190 C.ar  1 <1>  -0.1500 
 23 C        6.9330     6.5890     1.1210 C.ar  1 <1>  -0.1500 
 24 C        6.6870     7.2510     2.3200 C.ar  1 <1>   0.0820 
 25 O        7.1860     6.8560     3.5180 O.3   1 <1>  -0.3620 
 26 C        7.9850     5.7000     3.6340 C.3   1 <1>   0.0400 
 27 H        5.1070     1.6610     2.7320 H     1 <1>   0.1500 
 28 H       -0.0380     2.8810     2.6820 H     1 <1>   0.0800 
 29 H       -0.0090     2.2100     1.0670 H     1 <1>   0.0800 
 30 H        4.9830     3.7040     0.9910 H     1 <1>   0.1500 
 31 H        0.3370     5.1190     1.8710 H     1 <1>   0.0800 
 32 H       -0.8880     4.4490     0.8210 H     1 <1>   0.0800 
 33 H        3.8150     6.0430     0.9010 H     1 <1>   0.0800 
 34 H        2.2710     6.2280     1.6450 H     1 <1>   0.0800 
 35 H        2.5710     3.4820    -1.6070 H     1 <1>   0.0800 
 36 H        4.0150     4.3270    -1.1550 H     1 <1>   0.0800 
 37 H        2.7540     8.0930     0.0910 H     1 <1>   0.0800 
 38 H        1.3700     7.1920    -0.4520 H     1 <1>   0.0800 
 39 H        1.5490     5.6120    -2.3370 H     1 <1>   0.0800 
 40 H        3.0760     5.3700    -3.1400 H     1 <1>   0.0800 
 41 H        4.1300     9.3940    -1.1170 H     1 <1>   0.0800 
 42 H        6.0420     8.6540    -2.8600 H     1 <1>   0.4000 
 43 H        4.7100     9.7270     1.1670 H     1 <1>   0.1500 
 44 H        6.5670     6.5310    -0.9750 H     1 <1>   0.1500 
 45 H        5.7130     8.8960     3.2460 H     1 <1>   0.1500 
 46 H        7.5600     5.7190     1.0830 H     1 <1>   0.1500 
 47 H        8.2520     5.5820     4.6680 H     1 <1>   0.0800 
 48 H        8.8730     5.8290     3.0400 H     1 <1>   0.0800 
 49 H        7.4180     4.8490     3.3020 H     1 <1>   0.0800 
@<TRIPOS>BOND
  1   1   2  1   
  2   1   3  1   
  3   2   4  2   
  4   2   5  1   
  5   3   6  2   
  6   3  27  1   
  7   4   6  1   
  8   4   7  1   
  9   5   8  1   
 10   5  28  1   
 11   5  29  1   
 12   6  30  1   
 13   7   9  1   
 14   7  10  1   
 15   7  11  1   
 16   8   9  1   
 17   8  31  1   
 18   8  32  1   
 19  10  12  1   
 20  10  33  1   
 21  10  34  1   
 22  11  13  1   
 23  11  35  1   
 24  11  36  1   
 25  12  14  1   
 26  12  37  1   
 27  12  38  1   
 28  13  14  1   
 29  13  39  1   
 30  13  40  1   
 31  14  15  am  
 32  15  16  2   
 33  15  17  1   
 34  17  18  1   
 35  17  19  1   
 36  17  41  1   
 37  18  42  1   
 38  19  20  ar  
 39  19  21  ar  
 40  20  22  ar  
 41  20  43  1   
 42  21  23  ar  
 43  21  44  1   
 44  22  24  ar  
 45  22  45  1   
 46  23  24  ar  
 47  23  46  1   
 48  24  25  1   
 49  25  26  1   
 50  26  47  1   
 51  26  48  1   
 52  26  49  1   
@<TRIPOS>SUBSTRUCTURE
  1 ****  10 GROUP 4 **** **** 0

# MOE 2024.06 (io_trps.svl 2023.06)
