@<TRIPOS>MOLECULE
NONAME
39 40 1 0 0 
SMALL
USER_CHARGES


@<TRIPOS>ATOM
  1 O        1.6210    -1.2070     2.2600 O.2   1 <1>  -0.5700 
  2 C        2.0320    -1.4250     1.1430 C.2   1 <1>   0.5690 
  3 N        2.4570    -0.4420     0.2970 N.am  1 <1>  -0.4930 
  4 C        2.0770    -2.8770     0.6480 C.3   1 <1>   0.1710 
  5 C        2.5020     0.9590     0.5030 C.2   1 <1>   0.0630 
  6 N        0.8700    -3.3540    -0.0820 N.3   1 <1>  -0.8100 
  7 C        2.8740     1.8910    -0.4030 C.2   1 <1>  -0.3320 
  8 C        2.1830     1.6880     1.6500 C.2   1 <1>   0.1390 
  9 C       -0.3200    -3.3170     0.7940 C.3   1 <1>   0.2530 
 10 C        0.6410    -2.6370    -1.3460 C.3   1 <1>   0.0300 
 11 N        2.7670     3.0940     0.2170 N.pl3 1 <1>   0.3140 
 12 C        3.3350     1.7220    -1.8440 C.3   1 <1>  -0.0600 
 13 N        2.3400     2.9670     1.4820 N.2   1 <1>  -0.7070 
 14 C       -1.4950    -4.0450     0.1560 C.ar  1 <1>  -0.1430 
 15 C        3.0610     4.4170    -0.3490 C.3   1 <1>   0.0160 
 16 C       -2.7400    -3.4610     0.0320 C.ar  1 <1>  -0.1500 
 17 C       -1.3770    -5.3320    -0.3310 C.ar  1 <1>  -0.1500 
 18 C       -3.7750    -4.1710    -0.5550 C.ar  1 <1>   0.1600 
 19 C       -2.4750    -5.9530    -0.9020 C.ar  1 <1>   0.1600 
 20 N       -3.6730    -5.4040    -1.0250 N.ar  1 <1>  -0.6200 
 21 H        2.7560    -0.7380    -0.6280 H     1 <1>   0.3700 
 22 H        2.2310    -3.5090     1.5050 H     1 <1>   0.0800 
 23 H        2.9360    -3.0000     0.0140 H     1 <1>   0.0800 
 24 H        1.8450     1.2480     2.5720 H     1 <1>   0.1500 
 25 H       -0.5900    -2.2960     1.0060 H     1 <1>   0.0800 
 26 H       -0.0910    -3.7990     1.7300 H     1 <1>   0.0800 
 27 H        1.5290    -2.6640    -1.9520 H     1 <1>   0.0800 
 28 H        0.3630    -1.6130    -1.1600 H     1 <1>   0.0800 
 29 H       -0.1520    -3.1120    -1.8990 H     1 <1>   0.0800 
 30 H        3.3450     0.6850    -2.1240 H     1 <1>   0.0800 
 31 H        4.3300     2.1150    -1.9620 H     1 <1>   0.0800 
 32 H        2.6710     2.2470    -2.5080 H     1 <1>   0.0800 
 33 H        2.4250     4.5890    -1.1960 H     1 <1>   0.0800 
 34 H        4.0920     4.4530    -0.6460 H     1 <1>   0.0800 
 35 H        2.8760     5.1670     0.3980 H     1 <1>   0.0800 
 36 H       -2.9150    -2.4620     0.3870 H     1 <1>   0.1500 
 37 H       -0.4340    -5.8450    -0.2730 H     1 <1>   0.1500 
 38 H       -4.7380    -3.7000    -0.6420 H     1 <1>   0.1500 
 39 H       -2.3590    -6.9560    -1.2770 H     1 <1>   0.1500 
@<TRIPOS>BOND
  1   1   2  2   
  2   2   3  am  
  3   2   4  1   
  4   3   5  1   
  5   3  21  1   
  6   4   6  1   
  7   4  22  1   
  8   4  23  1   
  9   5   7  2   
 10   5   8  1   
 11   6   9  1   
 12   6  10  1   
 13   7  11  1   
 14   7  12  1   
 15   8  13  2   
 16   8  24  1   
 17   9  14  1   
 18   9  25  1   
 19   9  26  1   
 20  10  27  1   
 21  10  28  1   
 22  10  29  1   
 23  11  13  1   
 24  11  15  1   
 25  12  30  1   
 26  12  31  1   
 27  12  32  1   
 28  14  16  ar  
 29  14  17  ar  
 30  15  33  1   
 31  15  34  1   
 32  15  35  1   
 33  16  18  ar  
 34  16  36  1   
 35  17  19  ar  
 36  17  37  1   
 37  18  20  ar  
 38  18  38  1   
 39  19  20  ar  
 40  19  39  1   
@<TRIPOS>SUBSTRUCTURE
  1 ****   2 GROUP 4 **** **** 0

# MOE 2024.06 (io_trps.svl 2023.06)
