@<TRIPOS>MOLECULE
NONAME
50 54 1 0 0 
SMALL
USER_CHARGES


@<TRIPOS>ATOM
  1 F       -0.7120    -0.1480     0.5440 F     1 <1>  -0.1900 
  2 C       -1.7540     0.5430     0.1540 C.ar  1 <1>   0.1900 
  3 C       -2.9060    -0.1470    -0.2340 C.ar  1 <1>   0.1000 
  4 C       -1.6650     1.9150     0.1490 C.ar  1 <1>  -0.1500 
  5 N       -2.9870    -1.5390    -0.2220 N.pl3 1 <1>  -0.6000 
  6 C       -4.0160     0.6020    -0.6500 C.ar  1 <1>   0.0860 
  7 C       -2.7690     2.6520    -0.2620 C.ar  1 <1>  -0.1500 
  8 C       -4.1140    -2.2490    -0.6040 C.2   1 <1>   0.1140 
  9 C       -5.2000    -0.1100    -1.0520 C.2   1 <1>   0.4690 
 10 C       -3.9220     2.0010    -0.6540 C.ar  1 <1>  -0.1500 
 11 C       -4.0980    -3.7030    -0.5330 C.2   1 <1>   0.6160 
 12 C       -5.1840    -1.5240    -1.0380 C.2   1 <1>  -0.1360 
 13 O       -6.2270     0.4680    -1.3820 O.2   1 <1>  -0.5700 
 14 O       -3.1250    -4.3090    -0.9340 O.2   1 <1>  -0.5700 
 15 N       -5.1450    -4.4350     0.0010 N.am  1 <1>  -0.6600 
 16 C       -6.0710    -3.9020     1.0510 C.3   1 <1>   0.1400 
 17 C       -5.1600    -5.9260    -0.1260 C.3   1 <1>   0.1400 
 18 C       -7.5100    -4.4460     0.8900 C.3   1 <1>   0.4230 
 19 C       -6.5930    -6.4640    -0.2870 C.3   1 <1>   0.3430 
 20 N       -7.5340    -5.9590     0.7830 N.4   1 <1>  -0.9590 
 21 C       -8.2150    -3.7940    -0.3210 C.3   1 <1>   0.1200 
 22 C       -8.9500    -6.4210     0.5750 C.3   1 <1>   0.5180 
 23 O       -9.5160    -4.2920    -0.4480 O.3   1 <1>  -0.5600 
 24 C       -8.9760    -7.9590     0.4660 C.3   1 <1>  -0.1950 
 25 C       -9.6120    -5.6800    -0.6150 C.3   1 <1>   0.1200 
 26 C       -8.8040    -8.7340    -0.8090 C.3   1 <1>  -0.2000 
 27 C      -10.1350    -8.7130    -0.1140 C.3   1 <1>  -0.2000 
 28 H       -0.7580     2.4050     0.4570 H     1 <1>   0.1500 
 29 H       -2.1270    -2.0700    -0.0080 H     1 <1>   0.4000 
 30 H       -2.7200     3.7280    -0.2730 H     1 <1>   0.1500 
 31 H       -4.7770     2.5740    -0.9730 H     1 <1>   0.1500 
 32 H       -6.0730    -2.0010    -1.3980 H     1 <1>   0.1500 
 33 H       -5.6960    -4.1920     2.0170 H     1 <1>   0.0800 
 34 H       -6.0930    -2.8270     1.0370 H     1 <1>   0.0800 
 35 H       -4.5830    -6.2310    -0.9830 H     1 <1>   0.0800 
 36 H       -4.6990    -6.3620     0.7440 H     1 <1>   0.0800 
 37 H       -8.0650    -4.1490     1.7650 H     1 <1>   0.0800 
 38 H       -6.5590    -7.5410    -0.2690 H     1 <1>   0.0800 
 39 H       -6.9550    -6.1680    -1.2580 H     1 <1>   0.0800 
 40 H       -7.2210    -6.3490     1.6790 H     1 <1>   0.4500 
 41 H       -7.6820    -3.9790    -1.2380 H     1 <1>   0.0800 
 42 H       -8.2910    -2.7290    -0.1810 H     1 <1>   0.0800 
 43 H       -9.5250    -6.1600     1.4490 H     1 <1>   0.0800 
 44 H       -8.5770    -8.4030     1.3620 H     1 <1>   0.1000 
 45 H      -10.6590    -5.9220    -0.6640 H     1 <1>   0.0800 
 46 H       -9.1580    -5.9460    -1.5520 H     1 <1>   0.0800 
 47 H       -8.7490    -8.2490    -1.7700 H     1 <1>   0.1000 
 48 H       -8.2500    -9.6590    -0.7950 H     1 <1>   0.1000 
 49 H      -10.4670    -9.6160     0.3740 H     1 <1>   0.1000 
 50 H      -10.9490    -8.2090    -0.6090 H     1 <1>   0.1000 
@<TRIPOS>BOND
  1   1   2  1   
  2   2   3  ar  
  3   2   4  ar  
  4   3   5  1   
  5   3   6  ar  
  6   4   7  ar  
  7   4  28  1   
  8   5   8  1   
  9   5  29  1   
 10   6   9  1   
 11   6  10  ar  
 12   7  10  ar  
 13   7  30  1   
 14   8  11  1   
 15   8  12  2   
 16   9  12  1   
 17   9  13  2   
 18  10  31  1   
 19  11  14  2   
 20  11  15  am  
 21  12  32  1   
 22  15  16  1   
 23  15  17  1   
 24  16  18  1   
 25  16  33  1   
 26  16  34  1   
 27  17  19  1   
 28  17  35  1   
 29  17  36  1   
 30  18  20  1   
 31  18  21  1   
 32  18  37  1   
 33  19  20  1   
 34  19  38  1   
 35  19  39  1   
 36  20  22  1   
 37  20  40  1   
 38  21  23  1   
 39  21  41  1   
 40  21  42  1   
 41  22  24  1   
 42  22  25  1   
 43  22  43  1   
 44  23  25  1   
 45  24  26  1   
 46  24  27  1   
 47  24  44  1   
 48  25  45  1   
 49  25  46  1   
 50  26  27  1   
 51  26  47  1   
 52  26  48  1   
 53  27  49  1   
 54  27  50  1   
@<TRIPOS>SUBSTRUCTURE
  1 ****  15 GROUP 4 **** **** 0

# MOE 2024.06 (io_trps.svl 2023.06)
