@<TRIPOS>MOLECULE
NONAME
38 38 1 0 0 
SMALL
USER_CHARGES


@<TRIPOS>ATOM
  1 CL       0.9010    -0.2140    -0.4020 Cl    1 <1>  -0.1770 
  2 C        2.1850     0.8300     0.1600 C.ar  1 <1>   0.1770 
  3 C        1.9180     2.1520     0.4760 C.ar  1 <1>   0.1600 
  4 C        3.4610     0.3250     0.2850 C.ar  1 <1>  -0.1500 
  5 N        2.8230     3.0230     0.9090 N.ar  1 <1>  -0.6200 
  6 C        4.3960     1.2250     0.7330 C.ar  1 <1>   0.1900 
  7 C        4.0680     2.5610     1.0360 C.ar  1 <1>   0.4100 
  8 F        5.6310     0.8000     0.8720 F     1 <1>  -0.1900 
  9 N        5.0220     3.4620     1.4970 N.pl3 1 <1>  -0.8380 
 10 C        5.0330     4.8730     0.9820 C.3   1 <1>   0.2090 
 11 C        5.4310     3.3300     2.9200 C.3   1 <1>   0.1290 
 12 C        6.1980     5.1520    -0.0080 C.3   1 <1>   0.0000 
 13 C        7.5510     4.8900     0.7010 C.3   1 <1>   0.1200 
 14 C        6.0750     4.1830    -1.2200 C.3   1 <1>  -0.1600 
 15 C        6.1390     6.6430    -0.4600 C.3   1 <1>  -0.1600 
 16 O        7.7310     5.7280     1.8000 O.3   1 <1>  -0.6800 
 17 C        7.0740     4.3960    -2.3710 C.3   1 <1>  -0.2400 
 18 C        4.9090     7.0500    -1.2910 C.3   1 <1>  -0.2400 
 19 H        0.9080     2.5080     0.3660 H     1 <1>   0.1500 
 20 H        3.7040    -0.6940     0.0500 H     1 <1>   0.1500 
 21 H        5.0990     5.5530     1.8130 H     1 <1>   0.0800 
 22 H        4.1010     5.0780     0.4870 H     1 <1>   0.0800 
 23 H        5.4400     2.2940     3.2110 H     1 <1>   0.0800 
 24 H        4.7370     3.8620     3.5480 H     1 <1>   0.0800 
 25 H        6.4170     3.7360     3.0620 H     1 <1>   0.0800 
 26 H        8.3750     5.0590     0.0320 H     1 <1>   0.0800 
 27 H        7.6020     3.8730     1.0490 H     1 <1>   0.0800 
 28 H        5.0770     4.2390    -1.6180 H     1 <1>   0.0800 
 29 H        6.2010     3.1740    -0.8670 H     1 <1>   0.0800 
 30 H        7.0220     6.8760    -1.0290 H     1 <1>   0.0800 
 31 H        6.1570     7.2750     0.4110 H     1 <1>   0.0800 
 32 H        7.7840     6.6570     1.5070 H     1 <1>   0.4000 
 33 H        6.9590     5.3670    -2.8150 H     1 <1>   0.0800 
 34 H        6.8970     3.6610    -3.1360 H     1 <1>   0.0800 
 35 H        8.0880     4.2820    -2.0330 H     1 <1>   0.0800 
 36 H        4.8540     6.4920    -2.2080 H     1 <1>   0.0800 
 37 H        4.9760     8.0940    -1.5440 H     1 <1>   0.0800 
 38 H        3.9980     6.9030    -0.7400 H     1 <1>   0.0800 
@<TRIPOS>BOND
  1   1   2  1   
  2   2   3  ar  
  3   2   4  ar  
  4   3   5  ar  
  5   3  19  1   
  6   4   6  ar  
  7   4  20  1   
  8   5   7  ar  
  9   6   7  ar  
 10   6   8  1   
 11   7   9  1   
 12   9  10  1   
 13   9  11  1   
 14  10  12  1   
 15  10  21  1   
 16  10  22  1   
 17  11  23  1   
 18  11  24  1   
 19  11  25  1   
 20  12  13  1   
 21  12  14  1   
 22  12  15  1   
 23  13  16  1   
 24  13  26  1   
 25  13  27  1   
 26  14  17  1   
 27  14  28  1   
 28  14  29  1   
 29  15  18  1   
 30  15  30  1   
 31  15  31  1   
 32  16  32  1   
 33  17  33  1   
 34  17  34  1   
 35  17  35  1   
 36  18  36  1   
 37  18  37  1   
 38  18  38  1   
@<TRIPOS>SUBSTRUCTURE
  1 ****   9 GROUP 4 **** **** 0

# MOE 2024.06 (io_trps.svl 2023.06)
