@<TRIPOS>MOLECULE
NONAME
42 44 1 0 0 
SMALL
USER_CHARGES


@<TRIPOS>ATOM
  1 O       -0.5840     0.0790     0.2710 O.2   1 <1>  -0.5700 
  2 C       -1.5740     0.7040    -0.0580 C.2   1 <1>   0.5440 
  3 N       -2.7840     0.0520    -0.0950 N.am  1 <1>  -0.6600 
  4 C       -1.4520     2.1130    -0.3830 C.ar  1 <1>   0.0860 
  5 C       -4.1100     0.7100    -0.0680 C.3   1 <1>   0.1400 
  6 C       -2.9150    -1.3940     0.1860 C.3   1 <1>   0.1400 
  7 C       -0.6910     2.9770     0.3890 C.ar  1 <1>  -0.1500 
  8 C       -2.0670     2.7000    -1.4800 C.ar  1 <1>  -0.1500 
  9 C       -5.0370    -0.2830     0.6460 C.3   1 <1>  -0.0800 
 10 C       -4.4150    -1.6610     0.3500 C.3   1 <1>  -0.0800 
 11 C       -0.6030     4.3160     0.0610 C.ar  1 <1>   0.1600 
 12 C       -1.9180     4.0510    -1.7240 C.ar  1 <1>   0.1600 
 13 C       -6.5580    -0.1610     0.3190 C.3   1 <1>   0.2800 
 14 C       -5.0420    -2.2900    -0.9040 C.3   1 <1>  -0.1600 
 15 N       -1.2040     4.8760    -0.9760 N.ar  1 <1>  -0.6200 
 16 O       -6.7370     0.3820    -0.9400 O.3   1 <1>  -0.6800 
 17 C       -7.2080    -1.5570     0.2880 C.3   1 <1>  -0.1600 
 18 C       -7.3120     0.7490     1.3130 C.3   1 <1>  -0.1600 
 19 C       -6.5540    -2.5210    -0.7260 C.3   1 <1>  -0.1600 
 20 C       -6.8220     2.2070     1.3860 C.3   1 <1>  -0.2400 
 21 H       -4.0690     1.6510     0.4500 H     1 <1>   0.0800 
 22 H       -4.4190     0.8730    -1.0840 H     1 <1>   0.0800 
 23 H       -2.4870    -1.9700    -0.6170 H     1 <1>   0.0800 
 24 H       -2.3930    -1.6220     1.1000 H     1 <1>   0.0800 
 25 H       -0.1680     2.5950     1.2470 H     1 <1>   0.1500 
 26 H       -2.6580     2.0970    -2.1450 H     1 <1>   0.1500 
 27 H       -4.9120    -0.1250     1.7020 H     1 <1>   0.0800 
 28 H       -4.5650    -2.3310     1.1790 H     1 <1>   0.0800 
 29 H       -0.0060     4.9630     0.6820 H     1 <1>   0.1500 
 30 H       -2.4100     4.4790    -2.5810 H     1 <1>   0.1500 
 31 H       -4.8870    -1.6250    -1.7370 H     1 <1>   0.0800 
 32 H       -4.5590    -3.2220    -1.1380 H     1 <1>   0.0800 
 33 H       -7.6860     0.3710    -1.1610 H     1 <1>   0.4000 
 34 H       -7.1110    -1.9870     1.2690 H     1 <1>   0.0800 
 35 H       -8.2620    -1.4810     0.0870 H     1 <1>   0.0800 
 36 H       -8.3570     0.7530     1.0580 H     1 <1>   0.0800 
 37 H       -7.2360     0.3210     2.2970 H     1 <1>   0.0800 
 38 H       -6.7270    -3.5320    -0.3990 H     1 <1>   0.0800 
 39 H       -7.0290    -2.4080    -1.6860 H     1 <1>   0.0800 
 40 H       -6.8300     2.6620     0.4110 H     1 <1>   0.0800 
 41 H       -5.8260     2.2580     1.7860 H     1 <1>   0.0800 
 42 H       -7.4680     2.7760     2.0300 H     1 <1>   0.0800 
@<TRIPOS>BOND
  1   1   2  2   
  2   2   3  am  
  3   2   4  1   
  4   3   5  1   
  5   3   6  1   
  6   4   7  ar  
  7   4   8  ar  
  8   5   9  1   
  9   5  21  1   
 10   5  22  1   
 11   6  10  1   
 12   6  23  1   
 13   6  24  1   
 14   7  11  ar  
 15   7  25  1   
 16   8  12  ar  
 17   8  26  1   
 18   9  10  1   
 19   9  13  1   
 20   9  27  1   
 21  10  14  1   
 22  10  28  1   
 23  11  15  ar  
 24  11  29  1   
 25  12  15  ar  
 26  12  30  1   
 27  13  16  1   
 28  13  17  1   
 29  13  18  1   
 30  14  19  1   
 31  14  31  1   
 32  14  32  1   
 33  16  33  1   
 34  17  19  1   
 35  17  34  1   
 36  17  35  1   
 37  18  20  1   
 38  18  36  1   
 39  18  37  1   
 40  19  38  1   
 41  19  39  1   
 42  20  40  1   
 43  20  41  1   
 44  20  42  1   
@<TRIPOS>SUBSTRUCTURE
  1 ****   5 GROUP 4 **** **** 0

# MOE 2024.06 (io_trps.svl 2023.06)
