@<TRIPOS>MOLECULE
NONAME
50 53 1 0 0 
SMALL
USER_CHARGES


@<TRIPOS>ATOM
  1 O       -1.1720     1.2760     2.2350 O.2   1 <1>  -0.5700 
  2 C       -1.8420     1.4330     1.2280 C.2   1 <1>   0.7150 
  3 N       -2.8260     0.4970     0.9570 N.am  1 <1>  -0.6600 
  4 C       -1.5740     2.5680     0.3660 C.2   1 <1>   0.0550 
  5 C       -3.4490     0.3590    -0.3940 C.3   1 <1>   0.1400 
  6 C       -3.2270    -0.4980     1.9970 C.3   1 <1>   0.1400 
  7 O       -2.5400     3.1310    -0.3520 O.3   1 <1>  -0.2800 
  8 C       -0.4280     3.2470     0.1390 C.2   1 <1>   0.0460 
  9 C       -3.8950    -1.0830    -0.6260 C.3   1 <1>  -0.1600 
 10 C       -4.6820    -0.9340     1.8030 C.3   1 <1>  -0.1600 
 11 C       -1.9020     4.1070    -0.9610 C.2   1 <1>   0.2980 
 12 N       -0.6510     4.2330    -0.7220 N.2   1 <1>  -0.5650 
 13 C        0.9690     3.0460     0.6910 C.3   1 <1>  -0.0590 
 14 C       -4.9700    -1.4950     0.3920 C.3   1 <1>   0.4240 
 15 C       -2.6940     4.9960    -1.8880 C.3   1 <1>  -0.0600 
 16 O       -6.1400    -0.8650    -0.0680 O.3   1 <1>  -0.5600 
 17 C       -5.1250    -3.0330     0.4170 C.ar  1 <1>  -0.1430 
 18 C       -7.3550    -1.3790     0.3810 C.3   1 <1>   0.1200 
 19 C       -6.3440    -3.6380     0.1280 C.ar  1 <1>  -0.1430 
 20 C       -4.0450    -3.8450     0.7480 C.ar  1 <1>  -0.1500 
 21 C       -7.5420    -2.7730    -0.2100 C.3   1 <1>  -0.0170 
 22 C       -6.4740    -5.0170     0.1510 C.ar  1 <1>  -0.1500 
 23 C       -4.1740    -5.2210     0.7750 C.ar  1 <1>  -0.1500 
 24 C       -5.3850    -5.8190     0.4750 C.ar  1 <1>   0.0830 
 25 O       -5.4260    -7.1740     0.5210 O.3   1 <1>  -0.3630 
 26 C       -6.6040    -7.8820     0.2040 C.3   1 <1>   0.0400 
 27 H       -2.7400     0.6370    -1.1540 H     1 <1>   0.0800 
 28 H       -4.2990     1.0180    -0.4610 H     1 <1>   0.0800 
 29 H       -3.1150    -0.0640     2.9770 H     1 <1>   0.0800 
 30 H       -2.5710    -1.3490     1.9360 H     1 <1>   0.0800 
 31 H       -3.0310    -1.7160    -0.5560 H     1 <1>   0.0800 
 32 H       -4.2900    -1.1950    -1.6200 H     1 <1>   0.0800 
 33 H       -5.3000    -0.0740     1.9890 H     1 <1>   0.0800 
 34 H       -4.9240    -1.6740     2.5430 H     1 <1>   0.0800 
 35 H        1.0210     2.1750     1.3170 H     1 <1>   0.0800 
 36 H        1.2540     3.9060     1.2680 H     1 <1>   0.0800 
 37 H        1.6630     2.9290    -0.1210 H     1 <1>   0.0800 
 38 H       -3.4820     5.4760    -1.3400 H     1 <1>   0.0800 
 39 H       -3.1180     4.4060    -2.6790 H     1 <1>   0.0800 
 40 H       -2.0520     5.7450    -2.3130 H     1 <1>   0.0800 
 41 H       -8.1370    -0.7190     0.0480 H     1 <1>   0.0800 
 42 H       -7.3510    -1.4100     1.4570 H     1 <1>   0.0800 
 43 H       -3.0900    -3.4150     0.9900 H     1 <1>   0.1500 
 44 H       -7.6460    -2.6970    -1.2780 H     1 <1>   0.0800 
 45 H       -8.4410    -3.2080     0.1880 H     1 <1>   0.0800 
 46 H       -7.4250    -5.4530    -0.0840 H     1 <1>   0.1500 
 47 H       -3.3350    -5.8430     1.0290 H     1 <1>   0.1500 
 48 H       -6.3960    -8.9330     0.2970 H     1 <1>   0.0800 
 49 H       -6.8870    -7.6530    -0.8070 H     1 <1>   0.0800 
 50 H       -7.3770    -7.6000     0.8970 H     1 <1>   0.0800 
@<TRIPOS>BOND
  1   1   2  2   
  2   2   3  am  
  3   2   4  1   
  4   3   5  1   
  5   3   6  1   
  6   4   7  1   
  7   4   8  2   
  8   5   9  1   
  9   5  27  1   
 10   5  28  1   
 11   6  10  1   
 12   6  29  1   
 13   6  30  1   
 14   7  11  1   
 15   8  12  1   
 16   8  13  1   
 17   9  14  1   
 18   9  31  1   
 19   9  32  1   
 20  10  14  1   
 21  10  33  1   
 22  10  34  1   
 23  11  12  2   
 24  11  15  1   
 25  13  35  1   
 26  13  36  1   
 27  13  37  1   
 28  14  16  1   
 29  14  17  1   
 30  15  38  1   
 31  15  39  1   
 32  15  40  1   
 33  16  18  1   
 34  17  19  ar  
 35  17  20  ar  
 36  18  21  1   
 37  18  41  1   
 38  18  42  1   
 39  19  21  1   
 40  19  22  ar  
 41  20  23  ar  
 42  20  43  1   
 43  21  44  1   
 44  21  45  1   
 45  22  24  ar  
 46  22  46  1   
 47  23  24  ar  
 48  23  47  1   
 49  24  25  1   
 50  25  26  1   
 51  26  48  1   
 52  26  49  1   
 53  26  50  1   
@<TRIPOS>SUBSTRUCTURE
  1 ****   9 GROUP 4 **** **** 0

# MOE 2024.06 (io_trps.svl 2023.06)
