@<TRIPOS>MOLECULE
NONAME
56 59 1 0 0 
SMALL
USER_CHARGES


@<TRIPOS>ATOM
  1 O        0.0220     0.6220     2.3140 O.2   1 <1>  -0.5700 
  2 C       -0.4580     0.9230     1.2420 C.2   1 <1>   0.7030 
  3 N       -0.4850    -0.0090     0.2400 N.am  1 <1>  -0.6600 
  4 C       -1.0520     2.2370     1.0680 C.2   1 <1>   0.2770 
  5 C       -1.4120    -1.1750     0.4160 C.3   1 <1>   0.3640 
  6 C       -0.1990     0.3370    -1.1930 C.3   1 <1>   0.1400 
  7 N       -2.0030     2.5830     0.1230 N.pl3 1 <1>  -0.7000 
  8 C       -0.8320     3.3550     1.7980 C.2   1 <1>   0.2000 
  9 C       -0.7300    -2.5070     0.0510 C.ar  1 <1>  -0.1440 
 10 C       -2.7200    -0.9080    -0.4140 C.3   1 <1>   0.2000 
 11 C       -1.4450     0.1350    -2.0770 C.3   1 <1>   0.1200 
 12 C       -2.3350     3.8680     0.2820 C.cat 1 <1>   0.7910 
 13 N       -1.6190     4.3790     1.3130 N.pl3 1 <1>  -0.6290 
 14 C        0.6480    -2.6200    -0.1160 C.ar  1 <1>  -0.1500 
 15 C       -1.4990    -3.6600    -0.0770 C.ar  1 <1>  -0.1500 
 16 O       -2.5970     0.2090    -1.2820 O.3   1 <1>  -0.5600 
 17 C       -3.9450    -0.6600     0.4770 C.3   1 <1>   0.1200 
 18 C       -3.2520     4.6630    -0.4240 C.2   1 <1>  -0.1410 
 19 C       -1.7790     5.6970     1.6870 C.2   1 <1>   0.2410 
 20 C        1.2360    -3.8270    -0.4510 C.ar  1 <1>   0.0830 
 21 C       -0.9220    -4.8700    -0.4210 C.ar  1 <1>  -0.1500 
 22 O       -4.1360    -1.7460     1.3210 O.3   1 <1>  -0.6800 
 23 C       -3.4210     5.9720    -0.0660 C.2   1 <1>  -0.1500 
 24 C       -2.6660     6.4860     1.0090 C.2   1 <1>  -0.1500 
 25 C       -0.9520     6.2170     2.8490 C.3   1 <1>  -0.1020 
 26 O        2.5850    -3.8480    -0.5760 O.3   1 <1>  -0.3620 
 27 C        0.4410    -4.9610    -0.6340 C.ar  1 <1>   0.0830 
 28 C        3.2840    -4.5750     0.4100 C.3   1 <1>   0.0400 
 29 O        0.9370    -6.1660    -1.0090 O.3   1 <1>  -0.3630 
 30 C        1.5480    -6.2320    -2.2790 C.3   1 <1>   0.0400 
 31 H       -1.6700    -1.2550     1.4590 H     1 <1>   0.0800 
 32 H        0.1330     1.3580    -1.2680 H     1 <1>   0.0800 
 33 H        0.6000    -0.2790    -1.5660 H     1 <1>   0.0800 
 34 H       -2.4020     1.9090    -0.5550 H     1 <1>   0.4500 
 35 H       -0.1610     3.4650     2.6370 H     1 <1>   0.1500 
 36 H       -2.9420    -1.7550    -1.0380 H     1 <1>   0.0800 
 37 H       -1.4150    -0.8280    -2.5610 H     1 <1>   0.0800 
 38 H       -1.4980     0.8940    -2.8380 H     1 <1>   0.0800 
 39 H        1.3010    -1.7800     0.0280 H     1 <1>   0.1500 
 40 H       -2.5620    -3.6360     0.0970 H     1 <1>   0.1500 
 41 H       -4.8280    -0.5520    -0.1300 H     1 <1>   0.0800 
 42 H       -3.8040     0.2140     1.0880 H     1 <1>   0.0800 
 43 H       -3.8020     4.2230    -1.2340 H     1 <1>   0.1500 
 44 H       -1.5290    -5.7510    -0.5280 H     1 <1>   0.1500 
 45 H       -4.9590    -1.6520     1.8430 H     1 <1>   0.4000 
 46 H       -4.1140     6.6190    -0.5810 H     1 <1>   0.1500 
 47 H       -2.8090     7.5180     1.2810 H     1 <1>   0.1500 
 48 H       -1.1750     5.6580     3.7400 H     1 <1>   0.0800 
 49 H       -1.1700     7.2530     3.0350 H     1 <1>   0.0800 
 50 H        0.0960     6.1250     2.6270 H     1 <1>   0.0800 
 51 H        4.3370    -4.4510     0.2370 H     1 <1>   0.0800 
 52 H        3.0190    -5.6150     0.3400 H     1 <1>   0.0800 
 53 H        3.0200    -4.1880     1.3790 H     1 <1>   0.0800 
 54 H        1.7600    -7.2630    -2.4960 H     1 <1>   0.0800 
 55 H        2.4610    -5.6660    -2.2670 H     1 <1>   0.0800 
 56 H        0.8690    -5.8340    -3.0120 H     1 <1>   0.0800 
@<TRIPOS>BOND
  1   1   2  2   
  2   2   3  am  
  3   2   4  1   
  4   3   5  1   
  5   3   6  1   
  6   4   7  1   
  7   4   8  2   
  8   5   9  1   
  9   5  10  1   
 10   5  31  1   
 11   6  11  1   
 12   6  32  1   
 13   6  33  1   
 14   7  12  ar  
 15   7  34  1   
 16   8  13  1   
 17   8  35  1   
 18   9  14  ar  
 19   9  15  ar  
 20  10  16  1   
 21  10  17  1   
 22  10  36  1   
 23  11  16  1   
 24  11  37  1   
 25  11  38  1   
 26  12  13  ar  
 27  12  18  1   
 28  13  19  1   
 29  14  20  ar  
 30  14  39  1   
 31  15  21  ar  
 32  15  40  1   
 33  17  22  1   
 34  17  41  1   
 35  17  42  1   
 36  18  23  2   
 37  18  43  1   
 38  19  24  2   
 39  19  25  1   
 40  20  26  1   
 41  20  27  ar  
 42  21  27  ar  
 43  21  44  1   
 44  22  45  1   
 45  23  24  1   
 46  23  46  1   
 47  24  47  1   
 48  25  48  1   
 49  25  49  1   
 50  25  50  1   
 51  26  28  1   
 52  27  29  1   
 53  28  51  1   
 54  28  52  1   
 55  28  53  1   
 56  29  30  1   
 57  30  54  1   
 58  30  55  1   
 59  30  56  1   
@<TRIPOS>SUBSTRUCTURE
  1 ****   3 GROUP 4 **** **** 0

# MOE 2024.06 (io_trps.svl 2023.06)
