@<TRIPOS>MOLECULE
NONAME
48 52 1 0 0 
SMALL
USER_CHARGES


@<TRIPOS>ATOM
  1 O       -0.2270     0.1410     0.3330 O.3   1 <1>  -0.5600 
  2 C        0.1210     0.6540    -0.9180 C.3   1 <1>   0.1200 
  3 C       -1.5420     0.4930     0.6510 C.3   1 <1>   0.1200 
  4 C       -0.7200     1.9120    -1.0930 C.3   1 <1>   0.2890 
  5 C       -2.0160     1.4780    -0.4230 C.3   1 <1>  -0.0800 
  6 N       -0.0800     3.0310    -0.3580 N.pl3 1 <1>  -0.8690 
  7 C       -2.9070     2.6130     0.1200 C.3   1 <1>  -0.0170 
  8 C       -0.1390     4.3510    -0.7150 C.ar  1 <1>   0.4100 
  9 C       -4.2400     2.0730     0.6240 C.ar  1 <1>  -0.1430 
 10 N       -0.8710     4.6800    -1.7570 N.ar  1 <1>  -0.6200 
 11 C        0.5390     5.3060     0.0120 C.ar  1 <1>  -0.1500 
 12 C       -5.2950     1.7270    -0.2540 C.ar  1 <1>   0.0000 
 13 C       -4.4500     1.9030     1.9610 C.ar  1 <1>  -0.1500 
 14 C       -0.9090     5.9670    -2.0400 C.ar  1 <1>   0.4700 
 15 C        0.4280     6.6120    -0.3800 C.ar  1 <1>   0.2780 
 16 C       -6.4840     1.2140     0.3190 C.ar  1 <1>   0.3100 
 17 C       -5.2420     1.8630    -1.6610 C.ar  1 <1>  -0.1500 
 18 C       -5.6690     1.3940     2.4240 C.ar  1 <1>   0.1600 
 19 N       -0.3090     6.9630    -1.4150 N.ar  1 <1>  -0.6200 
 20 C        1.1430     7.7250     0.3690 C.3   1 <1>  -0.0680 
 21 N       -6.6540     1.0540     1.6560 N.ar  1 <1>  -0.6200 
 22 C       -7.5440     0.8530    -0.5270 C.ar  1 <1>  -0.1500 
 23 C       -6.2950     1.5030    -2.4580 C.ar  1 <1>  -0.1500 
 24 C        2.3200     8.4100    -0.2560 C.3   1 <1>  -0.2000 
 25 C        2.5140     7.5470     0.9540 C.3   1 <1>  -0.2000 
 26 C       -7.4610     0.9890    -1.8860 C.ar  1 <1>  -0.1500 
 27 H        1.1770     0.8540    -0.9500 H     1 <1>   0.0800 
 28 H       -0.1370    -0.0820    -1.6590 H     1 <1>   0.0800 
 29 H       -2.1490    -0.3970     0.6710 H     1 <1>   0.0800 
 30 H       -1.5290     0.9450     1.6270 H     1 <1>   0.0800 
 31 H       -0.8530     2.1610    -2.1330 H     1 <1>   0.0800 
 32 H       -2.5800     0.9140    -1.1440 H     1 <1>   0.0800 
 33 H        0.4020     2.7430     0.4970 H     1 <1>   0.4000 
 34 H       -3.0780     3.3480    -0.6460 H     1 <1>   0.0800 
 35 H       -2.3990     3.1190     0.9220 H     1 <1>   0.0800 
 36 H        1.1300     5.0230     0.8580 H     1 <1>   0.1500 
 37 H       -3.6960     2.1510     2.6860 H     1 <1>   0.1500 
 38 H       -1.5090     6.2440    -2.8920 H     1 <1>   0.1500 
 39 H       -4.3580     2.2610    -2.1210 H     1 <1>   0.1500 
 40 H       -5.7930     1.2750     3.4870 H     1 <1>   0.1500 
 41 H        0.4480     8.3530     0.9000 H     1 <1>   0.1000 
 42 H       -8.4320     0.4630    -0.0650 H     1 <1>   0.1500 
 43 H       -6.2400     1.6110    -3.5270 H     1 <1>   0.1500 
 44 H        2.6600     8.0570    -1.2140 H     1 <1>   0.1000 
 45 H        2.3980     9.4790    -0.1590 H     1 <1>   0.1000 
 46 H        2.7380     8.0200     1.8940 H     1 <1>   0.1000 
 47 H        3.0400     6.6180     0.8230 H     1 <1>   0.1000 
 48 H       -8.2820     0.7080    -2.5230 H     1 <1>   0.1500 
@<TRIPOS>BOND
  1   1   2  1   
  2   1   3  1   
  3   2   4  1   
  4   2  27  1   
  5   2  28  1   
  6   3   5  1   
  7   3  29  1   
  8   3  30  1   
  9   4   5  1   
 10   4   6  1   
 11   4  31  1   
 12   5   7  1   
 13   5  32  1   
 14   6   8  1   
 15   6  33  1   
 16   7   9  1   
 17   7  34  1   
 18   7  35  1   
 19   8  10  ar  
 20   8  11  ar  
 21   9  12  ar  
 22   9  13  ar  
 23  10  14  ar  
 24  11  15  ar  
 25  11  36  1   
 26  12  16  ar  
 27  12  17  ar  
 28  13  18  ar  
 29  13  37  1   
 30  14  19  ar  
 31  14  38  1   
 32  15  19  ar  
 33  15  20  1   
 34  16  21  ar  
 35  16  22  ar  
 36  17  23  ar  
 37  17  39  1   
 38  18  21  ar  
 39  18  40  1   
 40  20  24  1   
 41  20  25  1   
 42  20  41  1   
 43  22  26  ar  
 44  22  42  1   
 45  23  26  ar  
 46  23  43  1   
 47  24  25  1   
 48  24  44  1   
 49  24  45  1   
 50  25  46  1   
 51  25  47  1   
 52  26  48  1   
@<TRIPOS>SUBSTRUCTURE
  1 ****   7 GROUP 4 **** **** 0

# MOE 2024.06 (io_trps.svl 2023.06)
