@<TRIPOS>MOLECULE
NONAME
50 52 1 0 0 
SMALL
USER_CHARGES


@<TRIPOS>ATOM
  1 O       -0.0110     0.9380    -1.1780 O.2   1 <1>  -0.5700 
  2 C       -0.0460     2.1150    -0.8650 C.2   1 <1>   0.7160 
  3 N       -1.2170     2.8200    -1.0610 N.am  1 <1>  -0.6600 
  4 C        1.1250     2.7400    -0.2940 C.2   1 <1>  -0.0860 
  5 C       -2.3130     2.3030    -1.9290 C.3   1 <1>   0.1400 
  6 C       -1.5680     4.0630    -0.3210 C.3   1 <1>   0.1400 
  7 C        1.9900     2.1900     0.6590 C.2   1 <1>   0.1080 
  8 C        1.6750     3.9650    -0.5300 C.2   1 <1>  -0.3020 
  9 C       -3.5550     2.0360    -1.0770 C.3   1 <1>  -0.1600 
 10 C       -2.8030     3.8030     0.5430 C.3   1 <1>  -0.1600 
 11 N        2.9550     2.9870     0.9860 N.2   1 <1>  -0.7070 
 12 C        1.8480     0.8130     1.2730 C.3   1 <1>  -0.0590 
 13 N        2.7640     4.0870     0.2420 N.pl3 1 <1>   0.3140 
 14 C       -3.9810     3.2790    -0.2910 C.3   1 <1>   0.4180 
 15 C        3.6830     5.2400     0.3080 C.3   1 <1>   0.0960 
 16 O       -4.3400     4.2470    -1.2480 O.3   1 <1>  -0.5600 
 17 C       -5.1740     2.9400     0.5990 C.2   1 <1>  -0.2880 
 18 C        4.7080     5.1870    -0.8340 C.3   1 <1>  -0.1600 
 19 C       -5.1600     5.3010    -0.8260 C.3   1 <1>   0.1200 
 20 C       -6.3380     3.5930     0.5730 C.2   1 <1>  -0.2760 
 21 C        5.6670     6.3810    -0.7790 C.3   1 <1>  -0.2400 
 22 C       -6.5250     4.7730    -0.3630 C.3   1 <1>  -0.0220 
 23 C       -7.5440     3.2380     1.4250 C.3   1 <1>  -0.1020 
 24 H       -2.0120     1.3980    -2.4280 H     1 <1>   0.0800 
 25 H       -2.5390     3.0380    -2.6830 H     1 <1>   0.0800 
 26 H       -1.7710     4.8490    -1.0290 H     1 <1>   0.0800 
 27 H       -0.7590     4.3780     0.3130 H     1 <1>   0.0800 
 28 H        1.3430     4.7280    -1.2080 H     1 <1>   0.1500 
 29 H       -3.3370     1.2330    -0.3970 H     1 <1>   0.0800 
 30 H       -4.3680     1.7210    -1.7050 H     1 <1>   0.0800 
 31 H       -3.0860     4.6970     1.0630 H     1 <1>   0.0800 
 32 H       -2.5490     3.0710     1.2880 H     1 <1>   0.0800 
 33 H        0.8440     0.6680     1.6250 H     1 <1>   0.0800 
 34 H        2.5280     0.7060     2.0970 H     1 <1>   0.0800 
 35 H        2.0730     0.0670     0.5340 H     1 <1>   0.0800 
 36 H        4.1860     5.2130     1.2570 H     1 <1>   0.0800 
 37 H        3.1030     6.1420     0.2500 H     1 <1>   0.0800 
 38 H       -4.9820     2.1070     1.2500 H     1 <1>   0.1500 
 39 H        4.1950     5.1880    -1.7800 H     1 <1>   0.0800 
 40 H        5.2740     4.2740    -0.7550 H     1 <1>   0.0800 
 41 H       -5.2830     5.9750    -1.6550 H     1 <1>   0.0800 
 42 H       -4.6670     5.8220    -0.0250 H     1 <1>   0.0800 
 43 H        5.1270     7.3070    -0.8730 H     1 <1>   0.0800 
 44 H        6.3780     6.3180    -1.5850 H     1 <1>   0.0800 
 45 H        6.2080     6.3870     0.1510 H     1 <1>   0.0800 
 46 H       -7.1070     4.4730    -1.2160 H     1 <1>   0.0800 
 47 H       -7.0460     5.5680     0.1380 H     1 <1>   0.0800 
 48 H       -7.8070     4.0640     2.0610 H     1 <1>   0.0800 
 49 H       -7.3300     2.3850     2.0430 H     1 <1>   0.0800 
 50 H       -8.3830     3.0010     0.7960 H     1 <1>   0.0800 
@<TRIPOS>BOND
  1   1   2  2   
  2   2   3  am  
  3   2   4  1   
  4   3   5  1   
  5   3   6  1   
  6   4   7  1   
  7   4   8  2   
  8   5   9  1   
  9   5  24  1   
 10   5  25  1   
 11   6  10  1   
 12   6  26  1   
 13   6  27  1   
 14   7  11  2   
 15   7  12  1   
 16   8  13  1   
 17   8  28  1   
 18   9  14  1   
 19   9  29  1   
 20   9  30  1   
 21  10  14  1   
 22  10  31  1   
 23  10  32  1   
 24  11  13  1   
 25  12  33  1   
 26  12  34  1   
 27  12  35  1   
 28  13  15  1   
 29  14  16  1   
 30  14  17  1   
 31  15  18  1   
 32  15  36  1   
 33  15  37  1   
 34  16  19  1   
 35  17  20  2   
 36  17  38  1   
 37  18  21  1   
 38  18  39  1   
 39  18  40  1   
 40  19  22  1   
 41  19  41  1   
 42  19  42  1   
 43  20  22  1   
 44  20  23  1   
 45  21  43  1   
 46  21  44  1   
 47  21  45  1   
 48  22  46  1   
 49  22  47  1   
 50  23  48  1   
 51  23  49  1   
 52  23  50  1   
@<TRIPOS>SUBSTRUCTURE
  1 ****   6 GROUP 4 **** **** 0

# MOE 2024.06 (io_trps.svl 2023.06)
