@<TRIPOS>MOLECULE
NONAME
54 57 1 0 0 
SMALL
USER_CHARGES


@<TRIPOS>ATOM
  1 O       -0.8130     0.0500     1.7550 O.2   1 <1>  -0.5700 
  2 C       -1.4160     0.6680     0.9090 C.2   1 <1>   0.5690 
  3 N       -2.2640     0.0070     0.0550 N.am  1 <1>  -0.6600 
  4 C       -1.1860     2.1870     0.8640 C.3   1 <1>  -0.0190 
  5 C       -3.1060     0.5540    -1.0400 C.3   1 <1>   0.1400 
  6 C       -2.4840    -1.4590     0.1690 C.3   1 <1>   0.1400 
  7 C       -2.3790     2.9410     1.4890 C.3   1 <1>  -0.1600 
  8 C       -0.7370     2.6890    -0.5290 C.3   1 <1>  -0.1600 
  9 C       -4.1980    -0.4940    -1.2340 C.3   1 <1>   0.2000 
 10 C       -3.4790    -1.8160    -0.9450 C.3   1 <1>  -0.0800 
 11 C       -2.2320     4.4690     1.5590 C.3   1 <1>  -0.1600 
 12 C       -0.0520     4.0640    -0.4800 C.3   1 <1>  -0.1600 
 13 O       -5.1770    -0.2720    -0.2770 O.3   1 <1>  -0.6800 
 14 C       -4.4170    -2.9930    -0.6010 C.3   1 <1>  -0.0170 
 15 C       -2.3420     5.1350     0.1810 C.3   1 <1>  -0.1600 
 16 C       -1.0120     5.2600    -0.5780 C.3   1 <1>  -0.1600 
 17 C       -3.7700    -4.3760    -0.4570 C.ar  1 <1>  -0.1440 
 18 C       -4.5430    -5.4630     0.0220 C.ar  1 <1>   0.0000 
 19 C       -2.4670    -4.6400    -0.7790 C.ar  1 <1>  -0.1500 
 20 C       -3.9110    -6.7250     0.1530 C.ar  1 <1>   0.3100 
 21 C       -5.9120    -5.3760     0.3730 C.ar  1 <1>  -0.1500 
 22 C       -1.9400    -5.9270    -0.6140 C.ar  1 <1>   0.1600 
 23 N       -2.6110    -6.9390    -0.1680 N.ar  1 <1>  -0.6200 
 24 C       -4.6540    -7.8150     0.6320 C.ar  1 <1>  -0.1500 
 25 C       -6.6080    -6.4590     0.8360 C.ar  1 <1>  -0.1500 
 26 C       -5.9740    -7.6960     0.9690 C.ar  1 <1>  -0.1500 
 27 H       -0.3520     2.3570     1.5230 H     1 <1>   0.0800 
 28 H       -3.5250     1.5160    -0.8070 H     1 <1>   0.0800 
 29 H       -2.5110     0.6270    -1.9330 H     1 <1>   0.0800 
 30 H       -1.5510    -1.9850     0.0620 H     1 <1>   0.0800 
 31 H       -2.8970    -1.6750     1.1400 H     1 <1>   0.0800 
 32 H       -3.2870     2.7020     0.9670 H     1 <1>   0.0800 
 33 H       -2.5000     2.5750     2.4950 H     1 <1>   0.0800 
 34 H       -0.0200     1.9830    -0.9120 H     1 <1>   0.0800 
 35 H       -1.5560     2.7230    -1.2220 H     1 <1>   0.0800 
 36 H       -4.6550    -0.4560    -2.2090 H     1 <1>   0.0800 
 37 H       -2.9190    -2.0650    -1.8280 H     1 <1>   0.0800 
 38 H       -3.0350     4.8430     2.1710 H     1 <1>   0.0800 
 39 H       -1.3110     4.7430     2.0450 H     1 <1>   0.0800 
 40 H        0.5320     4.1460     0.4200 H     1 <1>   0.0800 
 41 H        0.6410     4.1330    -1.3010 H     1 <1>   0.0800 
 42 H       -4.7410    -0.1610     0.5930 H     1 <1>   0.4000 
 43 H       -5.1720    -3.0570    -1.3660 H     1 <1>   0.0800 
 44 H       -4.9160    -2.7610     0.3240 H     1 <1>   0.0800 
 45 H       -3.0520     4.5970    -0.4230 H     1 <1>   0.0800 
 46 H       -2.7380     6.1280     0.3100 H     1 <1>   0.0800 
 47 H       -0.4900     6.1310    -0.2190 H     1 <1>   0.0800 
 48 H       -1.2390     5.4380    -1.6150 H     1 <1>   0.0800 
 49 H       -1.7990    -3.8960    -1.1650 H     1 <1>   0.1500 
 50 H       -6.4270    -4.4390     0.2760 H     1 <1>   0.1500 
 51 H       -0.9080    -6.0830    -0.8770 H     1 <1>   0.1500 
 52 H       -4.1440    -8.7570     0.7240 H     1 <1>   0.1500 
 53 H       -7.6490    -6.3740     1.1000 H     1 <1>   0.1500 
 54 H       -6.5320    -8.5410     1.3350 H     1 <1>   0.1500 
@<TRIPOS>BOND
  1   1   2  2   
  2   2   3  am  
  3   2   4  1   
  4   3   5  1   
  5   3   6  1   
  6   4   7  1   
  7   4   8  1   
  8   4  27  1   
  9   5   9  1   
 10   5  28  1   
 11   5  29  1   
 12   6  10  1   
 13   6  30  1   
 14   6  31  1   
 15   7  11  1   
 16   7  32  1   
 17   7  33  1   
 18   8  12  1   
 19   8  34  1   
 20   8  35  1   
 21   9  10  1   
 22   9  13  1   
 23   9  36  1   
 24  10  14  1   
 25  10  37  1   
 26  11  15  1   
 27  11  38  1   
 28  11  39  1   
 29  12  16  1   
 30  12  40  1   
 31  12  41  1   
 32  13  42  1   
 33  14  17  1   
 34  14  43  1   
 35  14  44  1   
 36  15  16  1   
 37  15  45  1   
 38  15  46  1   
 39  16  47  1   
 40  16  48  1   
 41  17  18  ar  
 42  17  19  ar  
 43  18  20  ar  
 44  18  21  ar  
 45  19  22  ar  
 46  19  49  1   
 47  20  23  ar  
 48  20  24  ar  
 49  21  25  ar  
 50  21  50  1   
 51  22  23  ar  
 52  22  51  1   
 53  24  26  ar  
 54  24  52  1   
 55  25  26  ar  
 56  25  53  1   
 57  26  54  1   
@<TRIPOS>SUBSTRUCTURE
  1 ****   6 GROUP 4 **** **** 0

# MOE 2024.06 (io_trps.svl 2023.06)
