@<TRIPOS>MOLECULE
NONAME
49 51 1 0 0 
SMALL
USER_CHARGES


@<TRIPOS>ATOM
  1 S       -0.1900     1.1280    -0.5500 S.o2  1 <1>   1.4470 
  2 O       -1.1010     1.2080     0.5640 O.2   1 <1>  -0.6500 
  3 O       -0.5630     1.6430    -1.8440 O.2   1 <1>  -0.6500 
  4 N       -0.1030    -0.5000    -0.8260 N.am  1 <1>  -0.9780 
  5 C        1.4990     1.5930    -0.0840 C.ar  1 <1>  -0.0090 
  6 C        2.4220     1.9940    -1.0420 C.ar  1 <1>  -0.1500 
  7 C        1.9190     1.5360     1.2390 C.ar  1 <1>  -0.1500 
  8 C        3.7170     2.3330    -0.6910 C.ar  1 <1>  -0.1500 
  9 C        3.2120     1.8750     1.5980 C.ar  1 <1>  -0.1500 
 10 C        4.1210     2.2750     0.6330 C.ar  1 <1>  -0.1430 
 11 C        5.5400     2.6560     1.0130 C.3   1 <1>   0.3530 
 12 N        5.6780     4.1110     0.8160 N.pl3 1 <1>  -0.8690 
 13 C        6.7370     4.8470     0.4590 C.ar  1 <1>   0.4100 
 14 N        6.4670     6.1000     0.1770 N.ar  1 <1>  -0.6200 
 15 C        8.0420     4.3260     0.3940 C.ar  1 <1>  -0.1500 
 16 C        7.4740     6.8850    -0.1830 C.ar  1 <1>   0.7710 
 17 C        9.0560     5.1450     0.0200 C.ar  1 <1>   0.2180 
 18 N        8.7350     6.4290    -0.2670 N.ar  1 <1>  -0.1790 
 19 N        7.2280     8.1850    -0.4760 N.pl3 1 <1>  -0.8380 
 20 C       10.5090     4.6990    -0.0890 C.3   1 <1>  -0.0170 
 21 C        8.1950     9.2580    -0.8360 C.3   1 <1>   0.2090 
 22 C        5.8460     8.7420    -0.4330 C.3   1 <1>   0.2090 
 23 C       11.4150     5.4310     0.9100 C.3   1 <1>  -0.2400 
 24 C        7.4050    10.5540    -0.7280 C.3   1 <1>  -0.1600 
 25 C        5.9630    10.1480    -1.0040 C.3   1 <1>  -0.1600 
 26 H       -0.4560    -0.5920    -1.7750 H     1 <1>   0.4200 
 27 H       -0.8250    -0.8750    -0.2160 H     1 <1>   0.4200 
 28 H        2.1240     2.0440    -2.0760 H     1 <1>   0.1500 
 29 H        1.2220     1.2240     2.0000 H     1 <1>   0.1500 
 30 H        4.4090     2.6480    -1.4540 H     1 <1>   0.1500 
 31 H        3.5000     1.8250     2.6350 H     1 <1>   0.1500 
 32 H        6.2370     2.1230     0.3890 H     1 <1>   0.0800 
 33 H        5.7320     2.4120     2.0440 H     1 <1>   0.0800 
 34 H        4.7740     4.5950     0.8460 H     1 <1>   0.4000 
 35 H        8.2080     3.2970     0.6470 H     1 <1>   0.1500 
 36 H        9.4270     7.1080    -0.5540 H     1 <1>   0.4570 
 37 H       10.8650     4.8640    -1.0920 H     1 <1>   0.0800 
 38 H       10.5720     3.6400     0.1010 H     1 <1>   0.0800 
 39 H        8.5240     9.1200    -1.8530 H     1 <1>   0.0800 
 40 H        9.0410     9.2770    -0.1690 H     1 <1>   0.0800 
 41 H        5.5080     8.7800     0.5900 H     1 <1>   0.0800 
 42 H        5.1620     8.1420    -1.0120 H     1 <1>   0.0800 
 43 H       11.4470     6.4880     0.7150 H     1 <1>   0.0800 
 44 H       12.4190     5.0480     0.8380 H     1 <1>   0.0800 
 45 H       11.0700     5.2720     1.9180 H     1 <1>   0.0800 
 46 H        7.7580    11.3000    -1.4180 H     1 <1>   0.0800 
 47 H        7.4900    10.9380     0.2740 H     1 <1>   0.0800 
 48 H        5.2530    10.8200    -0.5550 H     1 <1>   0.0800 
 49 H        5.7850    10.1120    -2.0650 H     1 <1>   0.0800 
@<TRIPOS>BOND
  1   1   2  2   
  2   1   3  2   
  3   1   4  am  
  4   1   5  1   
  5   4  26  1   
  6   4  27  1   
  7   5   6  ar  
  8   5   7  ar  
  9   6   8  ar  
 10   6  28  1   
 11   7   9  ar  
 12   7  29  1   
 13   8  10  ar  
 14   8  30  1   
 15   9  10  ar  
 16   9  31  1   
 17  10  11  1   
 18  11  12  1   
 19  11  32  1   
 20  11  33  1   
 21  12  13  1   
 22  12  34  1   
 23  13  14  ar  
 24  13  15  ar  
 25  14  16  ar  
 26  15  17  ar  
 27  15  35  1   
 28  16  18  ar  
 29  16  19  1   
 30  17  18  ar  
 31  17  20  1   
 32  18  36  1   
 33  19  21  1   
 34  19  22  1   
 35  20  23  1   
 36  20  37  1   
 37  20  38  1   
 38  21  24  1   
 39  21  39  1   
 40  21  40  1   
 41  22  25  1   
 42  22  41  1   
 43  22  42  1   
 44  23  43  1   
 45  23  44  1   
 46  23  45  1   
 47  24  25  1   
 48  24  46  1   
 49  24  47  1   
 50  25  48  1   
 51  25  49  1   
@<TRIPOS>SUBSTRUCTURE
  1 ****  12 GROUP 4 **** **** 0

# MOE 2024.06 (io_trps.svl 2023.06)
