@<TRIPOS>MOLECULE
NONAME
55 58 1 0 0 
SMALL
USER_CHARGES


@<TRIPOS>ATOM
  1 O       -0.6530    -0.1440     0.3870 O.2   1 <1>  -0.5700 
  2 C       -1.6890     0.4340     0.1170 C.2   1 <1>   0.5440 
  3 N       -1.6250     1.5850    -0.6410 N.am  1 <1>  -0.6600 
  4 C       -2.9380    -0.1110     0.5880 C.ar  1 <1>   0.0860 
  5 C       -2.7630     2.1570    -1.4220 C.3   1 <1>   0.1400 
  6 C       -0.3270     2.2660    -0.9250 C.3   1 <1>   0.1400 
  7 C       -3.2460    -1.4500     0.3730 C.ar  1 <1>   0.1600 
  8 C       -3.8800     0.6450     1.2790 C.ar  1 <1>  -0.1500 
  9 C       -2.7880     3.6890    -1.2900 C.3   1 <1>   0.1200 
 10 C       -0.4850     3.7930    -0.8350 C.3   1 <1>   0.1200 
 11 N       -4.3630    -2.0580     0.7300 N.ar  1 <1>  -0.6200 
 12 C       -5.0450     0.0270     1.6650 C.ar  1 <1>  -0.1500 
 13 O       -1.5470     4.2340    -1.6360 O.3   1 <1>  -0.5600 
 14 C       -5.2650    -1.3170     1.3670 C.ar  1 <1>   0.4100 
 15 N       -6.4490    -1.9270     1.7290 N.pl3 1 <1>  -0.8380 
 16 C       -7.7500    -1.3310     1.3270 C.3   1 <1>   0.2090 
 17 C       -6.4810    -3.3840     2.0400 C.3   1 <1>   0.2090 
 18 C       -8.3220    -2.1020     0.1380 C.3   1 <1>  -0.1600 
 19 C       -7.0610    -4.1590     0.8560 C.3   1 <1>  -0.1600 
 20 C       -8.4290    -3.5920     0.4630 C.3   1 <1>   0.2000 
 21 O       -8.8960    -4.2470    -0.6970 O.3   1 <1>  -0.3630 
 22 C       -9.4660    -5.4790    -0.6760 C.ar  1 <1>   0.0820 
 23 C       -9.7290    -6.2060     0.4830 C.ar  1 <1>  -0.1500 
 24 C       -9.8020    -6.0240    -1.9040 C.ar  1 <1>  -0.1500 
 25 C      -10.3180    -7.4560     0.4000 C.ar  1 <1>  -0.1500 
 26 C      -10.3900    -7.2740    -1.9840 C.ar  1 <1>  -0.1500 
 27 C      -10.6500    -7.9980    -0.8320 C.ar  1 <1>  -0.1430 
 28 C      -11.2970    -9.3680    -0.9180 C.3   1 <1>  -0.0970 
 29 H       -3.7030     1.7510    -1.0960 H     1 <1>   0.0800 
 30 H       -2.6380     1.9000    -2.4590 H     1 <1>   0.0800 
 31 H        0.0050     1.9980    -1.9130 H     1 <1>   0.0800 
 32 H        0.4250     1.9470    -0.2240 H     1 <1>   0.0800 
 33 H       -2.5090    -2.0510    -0.1340 H     1 <1>   0.1500 
 34 H       -3.6880     1.6790     1.5050 H     1 <1>   0.1500 
 35 H       -3.0240     3.9810    -0.2820 H     1 <1>   0.0800 
 36 H       -3.5250     4.1070    -1.9530 H     1 <1>   0.0800 
 37 H        0.4100     4.2790    -1.1780 H     1 <1>   0.0800 
 38 H       -0.6730     4.0920     0.1820 H     1 <1>   0.0800 
 39 H       -5.7960     0.5650     2.2100 H     1 <1>   0.1500 
 40 H       -7.6220    -0.2990     1.0520 H     1 <1>   0.0800 
 41 H       -8.4290    -1.3770     2.1610 H     1 <1>   0.0800 
 42 H       -7.0880    -3.5410     2.9150 H     1 <1>   0.0800 
 43 H       -5.4890    -3.7410     2.2600 H     1 <1>   0.0800 
 44 H       -7.6740    -1.9610    -0.7080 H     1 <1>   0.0800 
 45 H       -9.2940    -1.7150    -0.1030 H     1 <1>   0.0800 
 46 H       -7.1450    -5.1950     1.1220 H     1 <1>   0.0800 
 47 H       -6.3810    -4.0750     0.0270 H     1 <1>   0.0800 
 48 H       -9.1490    -3.7240     1.2500 H     1 <1>   0.0800 
 49 H       -9.4870    -5.8210     1.4530 H     1 <1>   0.1500 
 50 H       -9.5980    -5.4620    -2.7970 H     1 <1>   0.1500 
 51 H      -10.5180    -8.0080     1.3010 H     1 <1>   0.1500 
 52 H      -10.6440    -7.6790    -2.9480 H     1 <1>   0.1500 
 53 H      -10.9850    -9.9850    -0.0960 H     1 <1>   0.0800 
 54 H      -11.0190    -9.8580    -1.8340 H     1 <1>   0.0800 
 55 H      -12.3670    -9.2670    -0.8900 H     1 <1>   0.0800 
@<TRIPOS>BOND
  1   1   2  2   
  2   2   3  am  
  3   2   4  1   
  4   3   5  1   
  5   3   6  1   
  6   4   7  ar  
  7   4   8  ar  
  8   5   9  1   
  9   5  29  1   
 10   5  30  1   
 11   6  10  1   
 12   6  31  1   
 13   6  32  1   
 14   7  11  ar  
 15   7  33  1   
 16   8  12  ar  
 17   8  34  1   
 18   9  13  1   
 19   9  35  1   
 20   9  36  1   
 21  10  13  1   
 22  10  37  1   
 23  10  38  1   
 24  11  14  ar  
 25  12  14  ar  
 26  12  39  1   
 27  14  15  1   
 28  15  16  1   
 29  15  17  1   
 30  16  18  1   
 31  16  40  1   
 32  16  41  1   
 33  17  19  1   
 34  17  42  1   
 35  17  43  1   
 36  18  20  1   
 37  18  44  1   
 38  18  45  1   
 39  19  20  1   
 40  19  46  1   
 41  19  47  1   
 42  20  21  1   
 43  20  48  1   
 44  21  22  1   
 45  22  23  ar  
 46  22  24  ar  
 47  23  25  ar  
 48  23  49  1   
 49  24  26  ar  
 50  24  50  1   
 51  25  27  ar  
 52  25  51  1   
 53  26  27  ar  
 54  26  52  1   
 55  27  28  1   
 56  28  53  1   
 57  28  54  1   
 58  28  55  1   
@<TRIPOS>SUBSTRUCTURE
  1 ****  11 GROUP 4 **** **** 0

# MOE 2024.06 (io_trps.svl 2023.06)
