@<TRIPOS>MOLECULE
NONAME
61 64 1 0 0 
SMALL
USER_CHARGES


@<TRIPOS>ATOM
  1 F        0.4240    -1.2430    -1.0900 F     1 <1>  -0.3400 
  2 C        1.4020    -1.5560    -1.9350 C.3   1 <1>   1.1640 
  3 F        0.9640    -2.5950    -2.6420 F     1 <1>  -0.3400 
  4 F        1.4700    -0.5420    -2.7960 F     1 <1>  -0.3400 
  5 C        2.7520    -1.8360    -1.2230 C.ar  1 <1>   0.1660 
  6 N        2.8430    -2.8370    -0.3570 N.ar  1 <1>  -0.6200 
  7 C        3.8540    -1.0560    -1.4820 C.ar  1 <1>  -0.1500 
  8 C        4.0220    -3.0280     0.2260 C.ar  1 <1>   0.7200 
  9 C        5.0350    -1.3360    -0.8280 C.ar  1 <1>   0.4100 
 10 N        5.1250    -2.3180     0.0350 N.ar  1 <1>  -0.6200 
 11 N        4.0980    -4.0680     1.1230 N.pl3 1 <1>  -0.8380 
 12 N        6.1640    -0.5830    -1.0770 N.pl3 1 <1>  -0.8380 
 13 C        5.3800    -4.6420     1.5870 C.3   1 <1>   0.2090 
 14 C        2.9770    -5.0000     1.3720 C.3   1 <1>   0.2090 
 15 C        7.1610    -0.4040     0.0070 C.3   1 <1>   0.2090 
 16 C        6.7560    -0.6450    -2.4370 C.3   1 <1>   0.2090 
 17 C        5.0500    -6.0820     1.9610 C.3   1 <1>  -0.1600 
 18 C        3.5600    -6.0670     2.2900 C.3   1 <1>  -0.1600 
 19 C        7.9190     0.9140    -0.2140 C.3   1 <1>  -0.0800 
 20 C        7.5310     0.6490    -2.7060 C.3   1 <1>  -0.1600 
 21 C        8.5750     0.9330    -1.6140 C.3   1 <1>  -0.1600 
 22 C        8.9360     1.1050     0.9210 C.3   1 <1>   0.3430 
 23 N        9.7170     2.3660     0.7640 N.4   1 <1>  -0.9590 
 24 C       10.9250     2.4470     1.6510 C.3   1 <1>   0.3430 
 25 C        8.9130     3.6320     0.8640 C.3   1 <1>   0.3430 
 26 C       11.7770     3.6960     1.3120 C.3   1 <1>   0.1100 
 27 C        9.7860     4.8690     0.5400 C.3   1 <1>   0.1100 
 28 N       11.1840     4.4990     0.2170 N.3   1 <1>  -0.8100 
 29 C       11.9980     5.6860    -0.0800 C.3   1 <1>   0.0300 
 30 H        3.8310    -0.2320    -2.1690 H     1 <1>   0.1500 
 31 H        5.7140    -4.0920     2.4500 H     1 <1>   0.0800 
 32 H        6.1310    -4.6000     0.8160 H     1 <1>   0.0800 
 33 H        2.6620    -5.4350     0.4390 H     1 <1>   0.0800 
 34 H        2.1490    -4.4870     1.8320 H     1 <1>   0.0800 
 35 H        7.8370    -1.2440     0.0010 H     1 <1>   0.0800 
 36 H        6.6520    -0.3850     0.9570 H     1 <1>   0.0800 
 37 H        5.9850    -0.7700    -3.1770 H     1 <1>   0.0800 
 38 H        7.4180    -1.4920    -2.4960 H     1 <1>   0.0800 
 39 H        5.6500    -6.4280     2.7830 H     1 <1>   0.0800 
 40 H        5.2290    -6.7100     1.1060 H     1 <1>   0.0800 
 41 H        3.0930    -7.0230     2.1360 H     1 <1>   0.0800 
 42 H        3.4130    -5.7630     3.3110 H     1 <1>   0.0800 
 43 H        7.1850     1.6970    -0.1560 H     1 <1>   0.0800 
 44 H        6.8270     1.4620    -2.7600 H     1 <1>   0.0800 
 45 H        8.0160     0.5750    -3.6630 H     1 <1>   0.0800 
 46 H        9.3450     0.1820    -1.6660 H     1 <1>   0.0800 
 47 H        9.0250     1.8900    -1.8150 H     1 <1>   0.0800 
 48 H        9.6130     0.2660     0.9180 H     1 <1>   0.0800 
 49 H        8.4210     1.1120     1.8690 H     1 <1>   0.0800 
 50 H       10.1190     2.4160    -0.1860 H     1 <1>   0.4500 
 51 H       11.5340     1.5680     1.5260 H     1 <1>   0.0800 
 52 H       10.6230     2.4940     2.6840 H     1 <1>   0.0800 
 53 H        8.5040     3.7340     1.8560 H     1 <1>   0.0800 
 54 H        8.0900     3.6020     0.1700 H     1 <1>   0.0800 
 55 H       12.7640     3.3750     1.0220 H     1 <1>   0.0800 
 56 H       11.8830     4.3020     2.1960 H     1 <1>   0.0800 
 57 H        9.7700     5.5440     1.3800 H     1 <1>   0.0800 
 58 H        9.3530     5.3890    -0.2980 H     1 <1>   0.0800 
 59 H       12.9960     5.3890    -0.3540 H     1 <1>   0.0800 
 60 H       12.0500     6.3380     0.7760 H     1 <1>   0.0800 
 61 H       11.5710     6.2280    -0.9070 H     1 <1>   0.0800 
@<TRIPOS>BOND
  1   1   2  1   
  2   2   3  1   
  3   2   4  1   
  4   2   5  1   
  5   5   6  ar  
  6   5   7  ar  
  7   6   8  ar  
  8   7   9  ar  
  9   7  30  1   
 10   8  10  ar  
 11   8  11  1   
 12   9  10  ar  
 13   9  12  1   
 14  11  13  1   
 15  11  14  1   
 16  12  15  1   
 17  12  16  1   
 18  13  17  1   
 19  13  31  1   
 20  13  32  1   
 21  14  18  1   
 22  14  33  1   
 23  14  34  1   
 24  15  19  1   
 25  15  35  1   
 26  15  36  1   
 27  16  20  1   
 28  16  37  1   
 29  16  38  1   
 30  17  18  1   
 31  17  39  1   
 32  17  40  1   
 33  18  41  1   
 34  18  42  1   
 35  19  21  1   
 36  19  22  1   
 37  19  43  1   
 38  20  21  1   
 39  20  44  1   
 40  20  45  1   
 41  21  46  1   
 42  21  47  1   
 43  22  23  1   
 44  22  48  1   
 45  22  49  1   
 46  23  24  1   
 47  23  25  1   
 48  23  50  1   
 49  24  26  1   
 50  24  51  1   
 51  24  52  1   
 52  25  27  1   
 53  25  53  1   
 54  25  54  1   
 55  26  28  1   
 56  26  55  1   
 57  26  56  1   
 58  27  28  1   
 59  27  57  1   
 60  27  58  1   
 61  28  29  1   
 62  29  59  1   
 63  29  60  1   
 64  29  61  1   
@<TRIPOS>SUBSTRUCTURE
  1 ****  12 GROUP 4 **** **** 0

# MOE 2024.06 (io_trps.svl 2023.06)
