@<TRIPOS>MOLECULE
NONAME
47 49 1 0 0 
SMALL
USER_CHARGES


@<TRIPOS>ATOM
  1 O        0.2050     1.2930    -1.1160 O.2   1 <1>  -0.5700 
  2 C       -0.1650     2.4400    -1.0230 C.2   1 <1>   0.5690 
  3 N       -1.0020     2.8910    -0.0360 N.am  1 <1>  -0.5090 
  4 C        0.3340     3.4460    -2.0510 C.3   1 <1>   0.1810 
  5 C       -1.4130     4.3330     0.0250 C.3   1 <1>   0.3640 
  6 C       -1.3270     2.0630     1.1530 C.3   1 <1>   0.0490 
  7 O        0.5830     4.6860    -1.4450 O.3   1 <1>  -0.5600 
  8 C       -2.8810     4.4810    -0.3740 C.ar  1 <1>  -0.1440 
  9 C       -0.5560     5.2960    -0.8510 C.3   1 <1>   0.2610 
 10 C       -2.0060     0.7460     0.9450 C.3   1 <1>  -0.2000 
 11 C       -2.7470     1.8690     1.5940 C.3   1 <1>  -0.2000 
 12 C       -3.4480     3.7120    -1.3840 C.ar  1 <1>   0.1600 
 13 C       -3.6780     5.4120     0.2660 C.ar  1 <1>  -0.1500 
 14 C       -0.1380     6.5100    -0.0150 C.2   1 <1>   0.5690 
 15 N       -4.7010     3.8030    -1.7980 N.ar  1 <1>  -0.6200 
 16 C       -4.9880     5.5150    -0.1480 C.ar  1 <1>  -0.1500 
 17 O       -0.9840     7.1390     0.5770 O.2   1 <1>  -0.5700 
 18 N        1.1770     6.8500     0.0490 N.am  1 <1>  -0.7300 
 19 C       -5.4420     4.7000    -1.1700 C.ar  1 <1>   0.1600 
 20 C        1.7440     8.0150     0.7540 C.3   1 <1>   0.1400 
 21 C        2.5770     8.8310    -0.2310 C.3   1 <1>  -0.1600 
 22 C        3.1440    10.0780     0.4410 C.3   1 <1>   0.1200 
 23 O        3.9180    10.7430    -0.4990 O.3   1 <1>  -0.5600 
 24 C        4.4860    11.9230    -0.0320 C.3   1 <1>   0.0400 
 25 H       -0.3900     3.5750    -2.8350 H     1 <1>   0.0800 
 26 H        1.2570     3.0960    -2.4760 H     1 <1>   0.0800 
 27 H       -1.3190     4.6410     1.0520 H     1 <1>   0.0800 
 28 H       -0.5580     2.1120     1.9070 H     1 <1>   0.1000 
 29 H       -1.1620     5.6670    -1.6580 H     1 <1>   0.0800 
 30 H       -2.2670     0.4570    -0.0580 H     1 <1>   0.1000 
 31 H       -1.7010    -0.0900     1.5500 H     1 <1>   0.1000 
 32 H       -2.9570     1.7900     2.6450 H     1 <1>   0.1000 
 33 H       -3.5680     2.2920     1.0440 H     1 <1>   0.1000 
 34 H       -2.8460     2.9730    -1.8830 H     1 <1>   0.1500 
 35 H       -3.3020     6.0410     1.0560 H     1 <1>   0.1500 
 36 H       -5.6520     6.2220     0.3140 H     1 <1>   0.1500 
 37 H        1.8330     6.2730    -0.4890 H     1 <1>   0.3700 
 38 H       -6.4680     4.7910    -1.4860 H     1 <1>   0.1500 
 39 H        0.9490     8.6220     1.1560 H     1 <1>   0.0800 
 40 H        2.3590     7.6720     1.5690 H     1 <1>   0.0800 
 41 H        1.9570     9.1340    -1.0560 H     1 <1>   0.0800 
 42 H        3.3920     8.2310    -0.5960 H     1 <1>   0.0800 
 43 H        3.7680     9.8140     1.2770 H     1 <1>   0.0800 
 44 H        2.3500    10.7320     0.7620 H     1 <1>   0.0800 
 45 H        5.0630    12.3540    -0.8300 H     1 <1>   0.0800 
 46 H        5.1300    11.7020     0.8020 H     1 <1>   0.0800 
 47 H        3.7040    12.6030     0.2600 H     1 <1>   0.0800 
@<TRIPOS>BOND
  1   1   2  2   
  2   2   3  am  
  3   2   4  1   
  4   3   5  1   
  5   3   6  1   
  6   4   7  1   
  7   4  25  1   
  8   4  26  1   
  9   5   8  1   
 10   5   9  1   
 11   5  27  1   
 12   6  10  1   
 13   6  11  1   
 14   6  28  1   
 15   7   9  1   
 16   8  12  ar  
 17   8  13  ar  
 18   9  14  1   
 19   9  29  1   
 20  10  11  1   
 21  10  30  1   
 22  10  31  1   
 23  11  32  1   
 24  11  33  1   
 25  12  15  ar  
 26  12  34  1   
 27  13  16  ar  
 28  13  35  1   
 29  14  17  2   
 30  14  18  am  
 31  15  19  ar  
 32  16  19  ar  
 33  16  36  1   
 34  18  20  1   
 35  18  37  1   
 36  19  38  1   
 37  20  21  1   
 38  20  39  1   
 39  20  40  1   
 40  21  22  1   
 41  21  41  1   
 42  21  42  1   
 43  22  23  1   
 44  22  43  1   
 45  22  44  1   
 46  23  24  1   
 47  24  45  1   
 48  24  46  1   
 49  24  47  1   
@<TRIPOS>SUBSTRUCTURE
  1 ****   9 GROUP 4 **** **** 0

# MOE 2024.06 (io_trps.svl 2023.06)
