@<TRIPOS>MOLECULE
NONAME
60 64 1 0 0 
SMALL
USER_CHARGES


@<TRIPOS>ATOM
  1 O       -1.3810     1.6120     1.5960 O.2   1 <1>  -0.5700 
  2 C       -2.3570     1.7930     0.9070 C.2   1 <1>   0.5690 
  3 N       -3.4660     1.0280     1.0730 N.am  1 <1>  -0.7300 
  4 C       -2.3620     2.8600    -0.1980 C.3   1 <1>   0.0610 
  5 C       -3.5340    -0.1720     1.9250 C.3   1 <1>   0.3200 
  6 C       -1.2780     3.9550    -0.0210 C.3   1 <1>   0.2200 
  7 C       -3.6580     3.7320    -0.2050 C.3   1 <1>  -0.1600 
  8 C       -2.2190     2.1540    -1.5760 C.3   1 <1>  -0.0170 
  9 C       -3.9180    -1.3460     1.0450 C.2   1 <1>  -0.0400 
 10 N       -1.8560     5.0140    -0.8420 N.am  1 <1>  -0.6600 
 11 C       -1.3520     4.6620     1.3480 C.3   1 <1>  -0.1600 
 12 C       -3.1320     5.1760    -0.1680 C.3   1 <1>   0.2200 
 13 C       -0.9520     1.3230    -1.7330 C.ar  1 <1>  -0.1440 
 14 O       -5.1110    -1.3120     0.4540 O.3   1 <1>  -0.2800 
 15 C       -3.2450    -2.4690     0.7200 C.2   1 <1>  -0.1810 
 16 C       -1.2590     5.7450    -1.8270 C.2   1 <1>   0.5690 
 17 C       -2.6480     5.4890     1.2490 C.3   1 <1>  -0.1600 
 18 C        0.2000     1.8940    -2.2530 C.ar  1 <1>  -0.1500 
 19 C       -0.9410    -0.0170    -1.3760 C.ar  1 <1>  -0.1500 
 20 C       -5.2300    -2.4290    -0.2630 C.ar  1 <1>   0.1400 
 21 C       -4.0900    -3.2030    -0.1400 C.ar  1 <1>   0.0000 
 22 C       -1.8600    -2.9320     1.1350 C.3   1 <1>  -0.0590 
 23 O       -0.1370     5.5000    -2.2030 O.2   1 <1>  -0.5700 
 24 C       -2.0060     6.9070    -2.4880 C.3   1 <1>   0.1810 
 25 C        1.3500     1.1410    -2.4050 C.ar  1 <1>  -0.1500 
 26 C        0.2090    -0.7730    -1.5300 C.ar  1 <1>  -0.1500 
 27 C       -6.3080    -2.8250    -1.0430 C.ar  1 <1>  -0.1500 
 28 C       -4.0140    -4.4200    -0.8180 C.ar  1 <1>  -0.1500 
 29 O       -2.2870     7.9450    -1.5890 O.3   1 <1>  -0.6800 
 30 C        1.3560    -0.1940    -2.0430 C.ar  1 <1>  -0.1500 
 31 C       -6.2260    -4.0310    -1.7110 C.ar  1 <1>  -0.1500 
 32 C       -5.0810    -4.8240    -1.5970 C.ar  1 <1>  -0.1500 
 33 H       -4.2420     1.0890     0.4130 H     1 <1>   0.3700 
 34 H       -2.5860    -0.3530     2.4000 H     1 <1>   0.0800 
 35 H       -4.2800    -0.0310     2.6870 H     1 <1>   0.0800 
 36 H       -0.2820     3.6640    -0.3060 H     1 <1>   0.0800 
 37 H       -4.2920     3.5450     0.6430 H     1 <1>   0.0800 
 38 H       -4.2380     3.5840    -1.0980 H     1 <1>   0.0800 
 39 H       -3.0650     1.5070    -1.7300 H     1 <1>   0.0800 
 40 H       -2.2440     2.8820    -2.3670 H     1 <1>   0.0800 
 41 H       -1.3630     3.9890     2.1850 H     1 <1>   0.0800 
 42 H       -0.5020     5.3120     1.4530 H     1 <1>   0.0800 
 43 H       -3.7870     5.9170    -0.5970 H     1 <1>   0.0800 
 44 H       -2.4350     6.5400     1.3390 H     1 <1>   0.0800 
 45 H       -3.3710     5.2110     1.9950 H     1 <1>   0.0800 
 46 H        0.2100     2.9320    -2.5420 H     1 <1>   0.1500 
 47 H       -1.8260    -0.4800    -0.9750 H     1 <1>   0.1500 
 48 H       -1.2740    -3.1530     0.2610 H     1 <1>   0.0800 
 49 H       -1.9360    -3.8190     1.7360 H     1 <1>   0.0800 
 50 H       -1.3530    -2.1700     1.6990 H     1 <1>   0.0800 
 51 H       -2.9360     6.5570    -2.8950 H     1 <1>   0.0800 
 52 H       -1.4070     7.3110    -3.2850 H     1 <1>   0.0800 
 53 H        2.2380     1.5970    -2.8050 H     1 <1>   0.1500 
 54 H        0.2110    -1.8110    -1.2510 H     1 <1>   0.1500 
 55 H       -7.1760    -2.1950    -1.1110 H     1 <1>   0.1500 
 56 H       -3.1310    -5.0260    -0.7270 H     1 <1>   0.1500 
 57 H       -1.4600     8.2250    -1.1470 H     1 <1>   0.4000 
 58 H        2.2500    -0.7800    -2.1610 H     1 <1>   0.1500 
 59 H       -7.0450    -4.3670    -2.3230 H     1 <1>   0.1500 
 60 H       -5.0370    -5.7610    -2.1260 H     1 <1>   0.1500 
@<TRIPOS>BOND
  1   1   2  2   
  2   2   3  am  
  3   2   4  1   
  4   3   5  1   
  5   3  33  1   
  6   4   6  1   
  7   4   7  1   
  8   4   8  1   
  9   5   9  1   
 10   5  34  1   
 11   5  35  1   
 12   6  10  1   
 13   6  11  1   
 14   6  36  1   
 15   7  12  1   
 16   7  37  1   
 17   7  38  1   
 18   8  13  1   
 19   8  39  1   
 20   8  40  1   
 21   9  14  1   
 22   9  15  2   
 23  10  12  1   
 24  10  16  am  
 25  11  17  1   
 26  11  41  1   
 27  11  42  1   
 28  12  17  1   
 29  12  43  1   
 30  13  18  ar  
 31  13  19  ar  
 32  14  20  1   
 33  15  21  1   
 34  15  22  1   
 35  16  23  2   
 36  16  24  1   
 37  17  44  1   
 38  17  45  1   
 39  18  25  ar  
 40  18  46  1   
 41  19  26  ar  
 42  19  47  1   
 43  20  21  ar  
 44  20  27  ar  
 45  21  28  ar  
 46  22  48  1   
 47  22  49  1   
 48  22  50  1   
 49  24  29  1   
 50  24  51  1   
 51  24  52  1   
 52  25  30  ar  
 53  25  53  1   
 54  26  30  ar  
 55  26  54  1   
 56  27  31  ar  
 57  27  55  1   
 58  28  32  ar  
 59  28  56  1   
 60  29  57  1   
 61  30  58  1   
 62  31  32  ar  
 63  31  59  1   
 64  32  60  1   
@<TRIPOS>SUBSTRUCTURE
  1 ****   8 GROUP 4 **** **** 0

# MOE 2024.06 (io_trps.svl 2023.06)
