@<TRIPOS>MOLECULE
NONAME
46 48 1 0 0 
SMALL
USER_CHARGES


@<TRIPOS>ATOM
  1 O       -0.3720    -1.1600    -0.3150 O.2   1 <1>  -0.5700 
  2 C        0.7550    -1.5290    -0.0580 C.2   1 <1>   0.6900 
  3 N        1.3990    -2.5070    -0.7970 N.am  1 <1>  -0.4690 
  4 N        1.4060    -0.9840     1.0000 N.am  1 <1>  -0.4900 
  5 C        2.6730    -2.9360    -0.4400 C.2   1 <1>  -0.0410 
  6 C        0.7160    -3.1470    -1.9660 C.3   1 <1>   0.2010 
  7 C        2.6500    -1.3700     1.3900 C.2   1 <1>   0.6160 
  8 C        3.3050    -2.3930     0.6280 C.2   1 <1>  -0.1240 
  9 C        0.4530    -4.6350    -1.7450 C.2   1 <1>   0.5690 
 10 O        3.1370    -0.8310     2.3630 O.2   1 <1>  -0.5700 
 11 C        4.6980    -2.8420     1.0500 C.3   1 <1>  -0.1020 
 12 O        1.1790    -5.4210    -2.3070 O.2   1 <1>  -0.5700 
 13 N       -0.5700    -5.0600    -0.9390 N.am  1 <1>  -0.6600 
 14 C       -1.5010    -4.2000    -0.1620 C.3   1 <1>   0.1400 
 15 C       -0.8200    -6.4930    -0.6550 C.3   1 <1>   0.1400 
 16 C       -2.4950    -5.1750     0.4680 C.3   1 <1>   0.2000 
 17 C       -1.7480    -6.5030     0.5600 C.3   1 <1>  -0.0800 
 18 O       -2.8930    -4.7620     1.7290 O.3   1 <1>  -0.6800 
 19 C       -2.6770    -7.7250     0.6150 C.3   1 <1>   0.0210 
 20 C       -1.8820    -9.0160     0.5750 C.2   1 <1>   0.1080 
 21 N       -0.9760    -9.3120     1.4540 N.2   1 <1>  -0.7070 
 22 C       -2.0170   -10.0040    -0.3950 C.2   1 <1>  -0.1500 
 23 N       -0.5040   -10.5120     1.0650 N.pl3 1 <1>   0.3000 
 24 C       -1.1180   -10.9510    -0.0540 C.2   1 <1>  -0.3320 
 25 C       -0.8030   -12.2680    -0.7390 C.3   1 <1>  -0.0600 
 26 H        0.9390    -0.2600     1.5330 H     1 <1>   0.3700 
 27 H        3.1190    -3.7120    -1.0440 H     1 <1>   0.1500 
 28 H       -0.2140    -2.6560    -2.1830 H     1 <1>   0.0800 
 29 H        1.3450    -3.0390    -2.8310 H     1 <1>   0.0800 
 30 H        5.3760    -2.0070     1.0200 H     1 <1>   0.0800 
 31 H        5.0700    -3.6130     0.3990 H     1 <1>   0.0800 
 32 H        4.6700    -3.2230     2.0550 H     1 <1>   0.0800 
 33 H       -0.9490    -3.6800     0.6010 H     1 <1>   0.0800 
 34 H       -2.0040    -3.4980    -0.8030 H     1 <1>   0.0800 
 35 H       -1.2950    -6.9420    -1.5110 H     1 <1>   0.0800 
 36 H        0.1010    -7.0140    -0.4480 H     1 <1>   0.0800 
 37 H       -3.3690    -5.2560    -0.1550 H     1 <1>   0.0800 
 38 H       -1.1180    -6.5040     1.4330 H     1 <1>   0.0800 
 39 H       -2.1410    -4.8010     2.3510 H     1 <1>   0.4000 
 40 H       -3.3640    -7.7050    -0.2110 H     1 <1>   0.0800 
 41 H       -3.2480    -7.7000     1.5260 H     1 <1>   0.0800 
 42 H       -2.6980    -9.9900    -1.2270 H     1 <1>   0.1500 
 43 H        0.2350   -11.0020     1.5820 H     1 <1>   0.2700 
 44 H       -1.4240   -12.3900    -1.6080 H     1 <1>   0.0800 
 45 H       -0.9860   -13.0890    -0.0690 H     1 <1>   0.0800 
 46 H        0.2270   -12.2890    -1.0480 H     1 <1>   0.0800 
@<TRIPOS>BOND
  1   1   2  2   
  2   2   3  am  
  3   2   4  am  
  4   3   5  1   
  5   3   6  1   
  6   4   7  am  
  7   4  26  1   
  8   5   8  2   
  9   5  27  1   
 10   6   9  1   
 11   6  28  1   
 12   6  29  1   
 13   7   8  1   
 14   7  10  2   
 15   8  11  1   
 16   9  12  2   
 17   9  13  am  
 18  11  30  1   
 19  11  31  1   
 20  11  32  1   
 21  13  14  1   
 22  13  15  1   
 23  14  16  1   
 24  14  33  1   
 25  14  34  1   
 26  15  17  1   
 27  15  35  1   
 28  15  36  1   
 29  16  17  1   
 30  16  18  1   
 31  16  37  1   
 32  17  19  1   
 33  17  38  1   
 34  18  39  1   
 35  19  20  1   
 36  19  40  1   
 37  19  41  1   
 38  20  21  2   
 39  20  22  1   
 40  21  23  1   
 41  22  24  2   
 42  22  42  1   
 43  23  24  1   
 44  23  43  1   
 45  24  25  1   
 46  25  44  1   
 47  25  45  1   
 48  25  46  1   
@<TRIPOS>SUBSTRUCTURE
  1 ****  13 GROUP 4 **** **** 0

# MOE 2024.06 (io_trps.svl 2023.06)
