@<TRIPOS>MOLECULE
NONAME
56 58 1 0 0 
SMALL
USER_CHARGES


@<TRIPOS>ATOM
  1 F       -1.5020    -1.0980     0.2120 F     1 <1>  -0.1900 
  2 C       -2.5710    -0.3550     0.0790 C.ar  1 <1>   0.1900 
  3 C       -2.5140     1.0420     0.1140 C.ar  1 <1>   0.0830 
  4 C       -3.7660    -1.0250    -0.0960 C.ar  1 <1>  -0.1500 
  5 O       -1.4020     1.8150     0.2800 O.3   1 <1>  -0.3630 
  6 C       -3.7040     1.7370    -0.0320 C.ar  1 <1>  -0.1500 
  7 C       -4.9350    -0.3010    -0.2380 C.ar  1 <1>  -0.1500 
  8 C       -0.1020     1.2800     0.3900 C.3   1 <1>   0.0400 
  9 C       -4.9320     1.0970    -0.2130 C.ar  1 <1>   0.0530 
 10 C       -6.1470     1.8630    -0.3580 C.2   1 <1>   0.0870 
 11 O       -6.2280     3.0790     0.1210 O.3   1 <1>  -0.0190 
 12 C       -7.3530     1.5860    -0.9180 C.2   1 <1>  -0.0860 
 13 N       -7.3990     3.6290    -0.0710 N.2   1 <1>  -0.4100 
 14 C       -8.0960     2.7490    -0.7030 C.2   1 <1>   0.3720 
 15 C       -7.8090     0.4070    -1.5790 C.2   1 <1>   0.7160 
 16 N       -9.4280     2.9410    -1.1020 N.pl3 1 <1>  -0.8210 
 17 O       -7.3560     0.1380    -2.6780 O.2   1 <1>  -0.5700 
 18 N       -8.7030    -0.4640    -0.9880 N.am  1 <1>  -0.6600 
 19 C      -10.1700     4.0120    -0.3810 C.3   1 <1>   0.1290 
 20 C       -9.6200     3.0260    -2.5760 C.3   1 <1>   0.1290 
 21 C       -9.0960    -1.7510    -1.6250 C.3   1 <1>   0.1400 
 22 C       -9.3560    -0.2030     0.3240 C.3   1 <1>   0.1400 
 23 C       -8.7790    -2.9060    -0.6690 C.3   1 <1>  -0.1600 
 24 C       -9.0660    -1.3640     1.2840 C.3   1 <1>  -0.1600 
 25 C       -9.4510    -2.7480     0.7140 C.3   1 <1>   0.0000 
 26 C      -10.9990    -2.8640     0.6410 C.3   1 <1>  -0.1600 
 27 C       -8.8920    -3.8250     1.6600 C.3   1 <1>  -0.2400 
 28 C      -11.5570    -4.1940     0.1070 C.3   1 <1>  -0.2400 
 29 H       -3.7780    -2.1000    -0.1200 H     1 <1>   0.1500 
 30 H       -3.6680     2.8120    -0.0080 H     1 <1>   0.1500 
 31 H       -5.8580    -0.8360    -0.3680 H     1 <1>   0.1500 
 32 H        0.5890     2.0980     0.4820 H     1 <1>   0.0800 
 33 H        0.1200     0.7130    -0.4960 H     1 <1>   0.0800 
 34 H       -0.0510     0.6600     1.2680 H     1 <1>   0.0800 
 35 H      -10.0300     3.9010     0.6810 H     1 <1>   0.0800 
 36 H      -11.2220     3.9420    -0.5990 H     1 <1>   0.0800 
 37 H       -9.8060     4.9810    -0.6790 H     1 <1>   0.0800 
 38 H       -9.0520     2.2630    -3.0790 H     1 <1>   0.0800 
 39 H       -9.2960     3.9880    -2.9350 H     1 <1>   0.0800 
 40 H      -10.6600     2.8890    -2.8170 H     1 <1>   0.0800 
 41 H       -8.5640    -1.9000    -2.5490 H     1 <1>   0.0800 
 42 H      -10.1470    -1.7270    -1.8520 H     1 <1>   0.0800 
 43 H      -10.4140    -0.0910     0.1710 H     1 <1>   0.0800 
 44 H       -8.9990     0.7110     0.7640 H     1 <1>   0.0800 
 45 H       -7.7110    -2.9410    -0.5460 H     1 <1>   0.0800 
 46 H       -9.0670    -3.8330    -1.1260 H     1 <1>   0.0800 
 47 H       -9.5880    -1.1900     2.2090 H     1 <1>   0.0800 
 48 H       -8.0140    -1.3440     1.5080 H     1 <1>   0.0800 
 49 H      -11.3980    -2.0780     0.0260 H     1 <1>   0.0800 
 50 H      -11.4010    -2.7130     1.6280 H     1 <1>   0.0800 
 51 H       -7.8340    -3.6940     1.8030 H     1 <1>   0.0800 
 52 H       -9.0450    -4.8100     1.2570 H     1 <1>   0.0800 
 53 H       -9.3710    -3.7700     2.6210 H     1 <1>   0.0800 
 54 H      -11.2430    -4.3710    -0.9050 H     1 <1>   0.0800 
 55 H      -12.6320    -4.1600     0.1160 H     1 <1>   0.0800 
 56 H      -11.2490    -5.0210     0.7210 H     1 <1>   0.0800 
@<TRIPOS>BOND
  1   1   2  1   
  2   2   3  ar  
  3   2   4  ar  
  4   3   5  1   
  5   3   6  ar  
  6   4   7  ar  
  7   4  29  1   
  8   5   8  1   
  9   6   9  ar  
 10   6  30  1   
 11   7   9  ar  
 12   7  31  1   
 13   8  32  1   
 14   8  33  1   
 15   8  34  1   
 16   9  10  1   
 17  10  11  1   
 18  10  12  2   
 19  11  13  1   
 20  12  14  1   
 21  12  15  1   
 22  13  14  2   
 23  14  16  1   
 24  15  17  2   
 25  15  18  am  
 26  16  19  1   
 27  16  20  1   
 28  18  21  1   
 29  18  22  1   
 30  19  35  1   
 31  19  36  1   
 32  19  37  1   
 33  20  38  1   
 34  20  39  1   
 35  20  40  1   
 36  21  23  1   
 37  21  41  1   
 38  21  42  1   
 39  22  24  1   
 40  22  43  1   
 41  22  44  1   
 42  23  25  1   
 43  23  45  1   
 44  23  46  1   
 45  24  25  1   
 46  24  47  1   
 47  24  48  1   
 48  25  26  1   
 49  25  27  1   
 50  26  28  1   
 51  26  49  1   
 52  26  50  1   
 53  27  51  1   
 54  27  52  1   
 55  27  53  1   
 56  28  54  1   
 57  28  55  1   
 58  28  56  1   
@<TRIPOS>SUBSTRUCTURE
  1 ****  12 GROUP 4 **** **** 0

# MOE 2024.06 (io_trps.svl 2023.06)
