@<TRIPOS>MOLECULE
NONAME
53 56 1 0 0 
SMALL
USER_CHARGES


@<TRIPOS>ATOM
  1 O       -2.5300     0.8540    -3.7780 O.2   1 <1>  -0.5700 
  2 C       -2.5610     1.3700    -2.6760 C.2   1 <1>   0.5440 
  3 N       -3.2430     0.7500    -1.6540 N.am  1 <1>  -0.6600 
  4 C       -1.8790     2.6300    -2.4540 C.ar  1 <1>   0.0860 
  5 C       -3.3540    -0.7400    -1.5700 C.3   1 <1>   0.1400 
  6 C       -3.9750     1.5000    -0.5890 C.3   1 <1>   0.1400 
  7 C       -1.0180     2.7860    -1.3720 C.ar  1 <1>  -0.1500 
  8 C       -2.0530     3.7190    -3.3040 C.ar  1 <1>  -0.1500 
  9 C       -2.8030    -1.2980    -0.2280 C.3   1 <1>  -0.1060 
 10 C       -3.9360     0.7640     0.7570 C.3   1 <1>  -0.1600 
 11 C       -0.3650     3.9800    -1.1000 C.ar  1 <1>   0.0000 
 12 C       -1.4110     4.9190    -3.0610 C.ar  1 <1>  -0.1500 
 13 C       -3.7850    -2.4060     0.1880 C.2   1 <1>   0.9060 
 14 C       -2.7170    -0.1530     0.8240 C.3   1 <1>   0.2000 
 15 C       -1.4170    -1.9740    -0.4170 C.3   1 <1>  -0.0650 
 16 C        0.5080     4.0900     0.0480 C.ar  1 <1>   0.0000 
 17 C       -0.5790     5.0490    -1.9640 C.ar  1 <1>  -0.1500 
 18 O       -4.2360    -2.4560     1.3430 O.co2 1 <1>  -0.9000 
 19 O       -4.1060    -3.2570    -0.6500 O.co2 1 <1>  -0.9000 
 20 O       -2.6080    -0.6430     2.1060 O.3   1 <1>  -0.6800 
 21 C       -0.2540    -1.0630    -0.8500 C.3   1 <1>  -0.1950 
 22 C        0.0760     3.6990     1.3140 C.ar  1 <1>  -0.1500 
 23 C        1.8070     4.5760    -0.0800 C.ar  1 <1>  -0.1500 
 24 C        0.0240    -0.7450    -2.2850 C.3   1 <1>  -0.2000 
 25 C        0.9340    -1.6680    -1.5290 C.3   1 <1>  -0.2000 
 26 C        0.9090     3.7880     2.4130 C.ar  1 <1>  -0.1500 
 27 C        2.6490     4.6710     1.0140 C.ar  1 <1>  -0.1500 
 28 C        2.1950     4.2750     2.2610 C.ar  1 <1>   0.0830 
 29 O        2.9970     4.3550     3.3310 O.3   1 <1>  -0.5330 
 30 H       -4.3980    -0.9870    -1.6680 H     1 <1>   0.0800 
 31 H       -2.8520    -1.2060    -2.3990 H     1 <1>   0.0800 
 32 H       -3.5410     2.4760    -0.4670 H     1 <1>   0.0800 
 33 H       -4.9990     1.6310    -0.8950 H     1 <1>   0.0800 
 34 H       -0.8520     1.9430    -0.7270 H     1 <1>   0.1500 
 35 H       -2.6990     3.6100    -4.1590 H     1 <1>   0.1500 
 36 H       -4.8320     0.1790     0.8670 H     1 <1>   0.0800 
 37 H       -3.9040     1.4830     1.5540 H     1 <1>   0.0800 
 38 H       -1.5610     5.7530    -3.7260 H     1 <1>   0.1500 
 39 H       -1.8470     0.4510     0.6550 H     1 <1>   0.0800 
 40 H       -1.1430    -2.4390     0.5150 H     1 <1>   0.0800 
 41 H       -1.5230    -2.7690    -1.1370 H     1 <1>   0.0800 
 42 H       -0.0890     5.9880    -1.7740 H     1 <1>   0.1500 
 43 H       -3.2620    -1.4070     2.1440 H     1 <1>   0.4000 
 44 H       -0.0130    -0.3210    -0.1100 H     1 <1>   0.1000 
 45 H       -0.9230     3.3190     1.4410 H     1 <1>   0.1500 
 46 H        2.1610     4.8760    -1.0500 H     1 <1>   0.1500 
 47 H       -0.6170    -1.1580    -3.0450 H     1 <1>   0.1000 
 48 H        0.3680     0.2430    -2.5360 H     1 <1>   0.1000 
 49 H        1.9150    -1.3210    -1.2570 H     1 <1>   0.1000 
 50 H        0.9190    -2.7160    -1.7730 H     1 <1>   0.1000 
 51 H        0.5710     3.4820     3.3870 H     1 <1>   0.1500 
 52 H        3.6470     5.0470     0.8910 H     1 <1>   0.1500 
 53 H        3.8860     4.6900     3.1230 H     1 <1>   0.4500 
@<TRIPOS>BOND
  1   1   2  2   
  2   2   3  am  
  3   2   4  1   
  4   3   5  1   
  5   3   6  1   
  6   4   7  ar  
  7   4   8  ar  
  8   5   9  1   
  9   5  30  1   
 10   5  31  1   
 11   6  10  1   
 12   6  32  1   
 13   6  33  1   
 14   7  11  ar  
 15   7  34  1   
 16   8  12  ar  
 17   8  35  1   
 18   9  13  1   
 19   9  14  1   
 20   9  15  1   
 21  10  14  1   
 22  10  36  1   
 23  10  37  1   
 24  11  16  1   
 25  11  17  ar  
 26  12  17  ar  
 27  12  38  1   
 28  13  18  ar  
 29  13  19  ar  
 30  14  20  1   
 31  14  39  1   
 32  15  21  1   
 33  15  40  1   
 34  15  41  1   
 35  16  22  ar  
 36  16  23  ar  
 37  17  42  1   
 38  20  43  1   
 39  21  24  1   
 40  21  25  1   
 41  21  44  1   
 42  22  26  ar  
 43  22  45  1   
 44  23  27  ar  
 45  23  46  1   
 46  24  25  1   
 47  24  47  1   
 48  24  48  1   
 49  25  49  1   
 50  25  50  1   
 51  26  28  ar  
 52  26  51  1   
 53  27  28  ar  
 54  27  52  1   
 55  28  29  1   
 56  29  53  1   
@<TRIPOS>SUBSTRUCTURE
  1 ****   7 GROUP 4 **** **** 0

# MOE 2024.06 (io_trps.svl 2023.06)
