@<TRIPOS>MOLECULE
NONAME
44 46 1 0 0 
SMALL
USER_CHARGES


@<TRIPOS>ATOM
  1 O       -1.1010    -0.2810    -1.4790 O.2   1 <1>  -0.5700 
  2 C       -1.4830     0.8620    -1.4660 C.2   1 <1>   0.5690 
  3 N       -2.7660     1.2660    -1.5650 N.am  1 <1>  -0.6600 
  4 C       -0.5680     2.0390    -1.2850 C.3   1 <1>  -0.0990 
  5 C       -2.9070     2.7280    -1.4390 C.3   1 <1>   0.1400 
  6 C       -3.9400     0.3700    -1.6430 C.3   1 <1>   0.2840 
  7 C       -1.5420     3.1610    -0.8790 C.3   1 <1>  -0.0190 
  8 C       -4.7740     0.5330    -0.3860 C.ar  1 <1>  -0.1440 
  9 C       -1.1130     4.5400    -1.3500 C.2   1 <1>   0.5690 
 10 C       -4.2390     0.1770     0.8440 C.ar  1 <1>   0.1600 
 11 C       -6.0560     1.0430    -0.4330 C.ar  1 <1>  -0.1500 
 12 O       -1.2340     4.8110    -2.5180 O.2   1 <1>  -0.5700 
 13 N       -0.6050     5.4020    -0.4190 N.am  1 <1>  -0.4940 
 14 N       -4.8640     0.2980     2.0050 N.ar  1 <1>  -0.6200 
 15 C       -6.7240     1.1670     0.7670 C.ar  1 <1>  -0.1500 
 16 C       -0.1620     6.7210    -0.5810 C.2   1 <1>   0.2040 
 17 C       -6.0910     0.7860     1.9380 C.ar  1 <1>   0.1600 
 18 O       -0.2060     7.3390    -1.7380 O.3   1 <1>  -0.0190 
 19 C        0.3580     7.5790     0.3190 C.2   1 <1>  -0.1810 
 20 N        0.2550     8.5600    -1.6560 N.2   1 <1>  -0.4100 
 21 C        0.6010     8.7300    -0.4310 C.2   1 <1>   0.1080 
 22 C        0.6340     7.3890     1.8020 C.3   1 <1>  -0.0590 
 23 C        1.1910    10.0300     0.0900 C.3   1 <1>   0.0210 
 24 C        0.1060    10.9400     0.6740 C.3   1 <1>  -0.2400 
 25 H       -0.0910     2.2510    -2.2250 H     1 <1>   0.0800 
 26 H        0.1700     1.8450    -0.5280 H     1 <1>   0.0800 
 27 H       -3.7050     2.9930    -0.7670 H     1 <1>   0.0800 
 28 H       -3.0920     3.1500    -2.4130 H     1 <1>   0.0800 
 29 H       -3.6130    -0.6530    -1.7320 H     1 <1>   0.0800 
 30 H       -4.5160     0.6160    -2.5180 H     1 <1>   0.0800 
 31 H       -1.6300     3.1620     0.1920 H     1 <1>   0.0800 
 32 H       -3.2390    -0.2240     0.8720 H     1 <1>   0.1500 
 33 H       -6.5210     1.3330    -1.3600 H     1 <1>   0.1500 
 34 H       -0.5320     5.0490     0.5300 H     1 <1>   0.3700 
 35 H       -7.7260     1.5550     0.7980 H     1 <1>   0.1500 
 36 H       -6.6230     0.8880     2.8690 H     1 <1>   0.1500 
 37 H        0.3380     6.4080     2.1230 H     1 <1>   0.0800 
 38 H        0.0860     8.1170     2.3730 H     1 <1>   0.0800 
 39 H        1.6850     7.5120     1.9970 H     1 <1>   0.0800 
 40 H        1.6810    10.5370    -0.7240 H     1 <1>   0.0800 
 41 H        1.9330     9.8160     0.8370 H     1 <1>   0.0800 
 42 H       -0.6260    11.1650    -0.0820 H     1 <1>   0.0800 
 43 H        0.5410    11.8610     1.0190 H     1 <1>   0.0800 
 44 H       -0.3870    10.4570     1.4980 H     1 <1>   0.0800 
@<TRIPOS>BOND
  1   1   2  2   
  2   2   3  am  
  3   2   4  1   
  4   3   5  1   
  5   3   6  1   
  6   4   7  1   
  7   4  25  1   
  8   4  26  1   
  9   5   7  1   
 10   5  27  1   
 11   5  28  1   
 12   6   8  1   
 13   6  29  1   
 14   6  30  1   
 15   7   9  1   
 16   7  31  1   
 17   8  10  ar  
 18   8  11  ar  
 19   9  12  2   
 20   9  13  am  
 21  10  14  ar  
 22  10  32  1   
 23  11  15  ar  
 24  11  33  1   
 25  13  16  1   
 26  13  34  1   
 27  14  17  ar  
 28  15  17  ar  
 29  15  35  1   
 30  16  18  1   
 31  16  19  2   
 32  17  36  1   
 33  18  20  1   
 34  19  21  1   
 35  19  22  1   
 36  20  21  2   
 37  21  23  1   
 38  22  37  1   
 39  22  38  1   
 40  22  39  1   
 41  23  24  1   
 42  23  40  1   
 43  23  41  1   
 44  24  42  1   
 45  24  43  1   
 46  24  44  1   
@<TRIPOS>SUBSTRUCTURE
  1 ****   7 GROUP 4 **** **** 0

# MOE 2024.06 (io_trps.svl 2023.06)
