@<TRIPOS>MOLECULE
NONAME
52 53 1 0 0 
SMALL
USER_CHARGES


@<TRIPOS>ATOM
  1 O        1.3630     2.4290    -0.7570 O.2   1 <1>  -0.5700 
  2 C        0.3490     1.9200    -0.3260 C.2   1 <1>   0.5440 
  3 N        0.4490     0.6270     0.0650 N.am  1 <1>  -0.8000 
  4 C       -0.9090     2.6190    -0.2670 C.ar  1 <1>   0.0860 
  5 C       -1.1120     3.7460     0.5510 C.ar  1 <1>   0.4100 
  6 C       -1.9680     2.1890    -1.0510 C.ar  1 <1>  -0.1500 
  7 N       -2.2540     4.4290     0.5770 N.ar  1 <1>  -0.6200 
  8 N       -0.1320     4.2300     1.4050 N.pl3 1 <1>  -0.8380 
  9 C       -3.1570     2.8830    -1.0080 C.ar  1 <1>  -0.1430 
 10 C       -3.2440     3.9950    -0.1760 C.ar  1 <1>   0.1670 
 11 C        0.0990     5.6900     1.5420 C.3   1 <1>   0.2090 
 12 C        0.4630     3.3540     2.4510 C.3   1 <1>   0.1290 
 13 C       -4.3240     2.4160    -1.8700 C.3   1 <1>  -0.0970 
 14 C       -4.5270     4.8010    -0.0850 C.3   1 <1>  -0.0970 
 15 C        1.5110     6.0550     1.0580 C.3   1 <1>  -0.0800 
 16 C        1.6590     7.5700     0.9440 C.3   1 <1>   0.3430 
 17 C        1.8390     5.5210    -0.3470 C.3   1 <1>  -0.1600 
 18 N        1.6200     7.8590    -0.5150 N.4   1 <1>  -0.9590 
 19 C        2.3110     6.7140    -1.1530 C.3   1 <1>   0.3430 
 20 C        2.2240     9.1720    -0.9070 C.3   1 <1>   0.3430 
 21 C        1.4170    10.3690    -0.3910 C.3   1 <1>   0.1200 
 22 O        2.0870    11.5170    -0.7890 O.3   1 <1>  -0.5600 
 23 C        1.4630    12.7070    -0.4180 C.3   1 <1>   0.0400 
 24 H        1.3450     0.1480    -0.0310 H     1 <1>   0.3700 
 25 H       -0.3330     0.0830     0.4290 H     1 <1>   0.3700 
 26 H       -1.8470     1.3290    -1.6870 H     1 <1>   0.1500 
 27 H       -0.0390     5.9780     2.5710 H     1 <1>   0.0800 
 28 H       -0.6250     6.2270     0.9530 H     1 <1>   0.0800 
 29 H       -0.0460     2.4050     2.4770 H     1 <1>   0.0800 
 30 H        0.3690     3.8140     3.4190 H     1 <1>   0.0800 
 31 H        1.5030     3.1840     2.2340 H     1 <1>   0.0800 
 32 H       -4.0290     1.6080    -2.5140 H     1 <1>   0.0800 
 33 H       -4.6770     3.2230    -2.4870 H     1 <1>   0.0800 
 34 H       -5.1300     2.0740    -1.2460 H     1 <1>   0.0800 
 35 H       -4.4690     5.5080     0.7230 H     1 <1>   0.0800 
 36 H       -5.3630     4.1530     0.0990 H     1 <1>   0.0800 
 37 H       -4.6850     5.3390    -1.0000 H     1 <1>   0.0800 
 38 H        2.2240     5.6890     1.7750 H     1 <1>   0.0800 
 39 H        2.6150     7.8630     1.3470 H     1 <1>   0.0800 
 40 H        0.8750     8.0890     1.4730 H     1 <1>   0.0800 
 41 H        0.9680     5.1120    -0.8280 H     1 <1>   0.0800 
 42 H        2.5920     4.7530    -0.3170 H     1 <1>   0.0800 
 43 H        0.6400     7.8150    -0.8270 H     1 <1>   0.4500 
 44 H        2.0540     6.6150    -2.1960 H     1 <1>   0.0800 
 45 H        3.3790     6.8210    -1.0510 H     1 <1>   0.0800 
 46 H        2.2710     9.2380    -1.9810 H     1 <1>   0.0800 
 47 H        3.2270     9.2390    -0.5200 H     1 <1>   0.0800 
 48 H        1.3620    10.3680     0.6840 H     1 <1>   0.0800 
 49 H        0.4320    10.3820    -0.8250 H     1 <1>   0.0800 
 50 H        2.0650    13.5260    -0.7740 H     1 <1>   0.0800 
 51 H        1.3890    12.7560     0.6550 H     1 <1>   0.0800 
 52 H        0.4870    12.7570    -0.8690 H     1 <1>   0.0800 
@<TRIPOS>BOND
  1   1   2  2   
  2   2   3  am  
  3   2   4  1   
  4   3  24  1   
  5   3  25  1   
  6   4   5  ar  
  7   4   6  ar  
  8   5   7  ar  
  9   5   8  1   
 10   6   9  ar  
 11   6  26  1   
 12   7  10  ar  
 13   8  11  1   
 14   8  12  1   
 15   9  10  ar  
 16   9  13  1   
 17  10  14  1   
 18  11  15  1   
 19  11  27  1   
 20  11  28  1   
 21  12  29  1   
 22  12  30  1   
 23  12  31  1   
 24  13  32  1   
 25  13  33  1   
 26  13  34  1   
 27  14  35  1   
 28  14  36  1   
 29  14  37  1   
 30  15  16  1   
 31  15  17  1   
 32  15  38  1   
 33  16  18  1   
 34  16  39  1   
 35  16  40  1   
 36  17  19  1   
 37  17  41  1   
 38  17  42  1   
 39  18  19  1   
 40  18  20  1   
 41  18  43  1   
 42  19  44  1   
 43  19  45  1   
 44  20  21  1   
 45  20  46  1   
 46  20  47  1   
 47  21  22  1   
 48  21  48  1   
 49  21  49  1   
 50  22  23  1   
 51  23  50  1   
 52  23  51  1   
 53  23  52  1   
@<TRIPOS>SUBSTRUCTURE
  1 ****  11 GROUP 4 **** **** 0

# MOE 2024.06 (io_trps.svl 2023.06)
