@<TRIPOS>MOLECULE
NONAME
47 49 1 0 0 
SMALL
USER_CHARGES


@<TRIPOS>ATOM
  1 S        0.3180     0.0300     0.5490 S.o2  1 <1>   1.3330 
  2 O        1.5790     0.1850     1.2380 O.2   1 <1>  -0.6500 
  3 O       -0.9200     0.1400     1.2880 O.2   1 <1>  -0.6500 
  4 N        0.3360    -1.4580    -0.2670 N.am  1 <1>  -0.8490 
  5 C        0.2470     1.2210    -0.7860 C.3   1 <1>  -0.0550 
  6 C       -0.2990    -2.5270     0.5100 C.3   1 <1>   0.1160 
  7 C        1.6780    -1.8770    -0.6870 C.3   1 <1>   0.1160 
  8 C        0.1300     2.6700    -0.2840 C.3   1 <1>  -0.0800 
  9 C       -0.0180     3.6760    -1.4180 C.3   1 <1>   0.2000 
 10 C        1.3570     3.1670     0.4860 C.3   1 <1>   0.1400 
 11 O       -1.3330     3.7370    -1.8410 O.3   1 <1>  -0.6800 
 12 C        0.4450     5.0080    -0.8310 C.3   1 <1>   0.1400 
 13 N        1.4100     4.6360     0.2420 N.am  1 <1>  -0.6600 
 14 C        2.5240     5.3810     0.5660 C.2   1 <1>   0.7030 
 15 O        3.5390     4.7950     0.8920 O.2   1 <1>  -0.5700 
 16 C        2.5330     6.8310     0.4980 C.2   1 <1>   0.2770 
 17 N        3.5850     7.5980    -0.0200 N.pl3 1 <1>  -0.6290 
 18 C        1.5860     7.7220     0.9090 C.2   1 <1>   0.1820 
 19 C        3.2260     8.8870     0.0800 C.cat 1 <1>   0.9620 
 20 C        4.8210     7.2700    -0.5040 C.2   1 <1>   0.2290 
 21 N        2.0240     8.9780     0.6260 N.pl3 1 <1>  -0.7000 
 22 C        0.2520     7.5120     1.6030 C.3   1 <1>  -0.0720 
 23 N        3.9750     9.9200    -0.3050 N.2   1 <1>  -0.6120 
 24 C        5.6210     8.2930    -0.8980 C.2   1 <1>  -0.1360 
 25 C        5.1430     9.6110    -0.7800 C.2   1 <1>   0.3760 
 26 H        1.1190     1.1210    -1.4030 H     1 <1>   0.0800 
 27 H       -0.6100     1.0000    -1.3940 H     1 <1>   0.0800 
 28 H       -0.2860    -3.4500    -0.0440 H     1 <1>   0.0800 
 29 H       -1.3260    -2.2730     0.7150 H     1 <1>   0.0800 
 30 H        0.2160    -2.6660     1.4460 H     1 <1>   0.0800 
 31 H        1.6170    -2.7770    -1.2760 H     1 <1>   0.0800 
 32 H        2.3020    -2.0620     0.1720 H     1 <1>   0.0800 
 33 H        2.1360    -1.1100    -1.2870 H     1 <1>   0.0800 
 34 H       -0.7160     2.7500     0.3770 H     1 <1>   0.0800 
 35 H        0.5980     3.4150    -2.2630 H     1 <1>   0.0800 
 36 H        2.2570     2.7090     0.1090 H     1 <1>   0.0800 
 37 H        1.2740     2.9570     1.5400 H     1 <1>   0.0800 
 38 H       -1.9510     3.7520    -1.0840 H     1 <1>   0.4000 
 39 H       -0.3900     5.5310    -0.4000 H     1 <1>   0.0800 
 40 H        0.9160     5.6100    -1.5890 H     1 <1>   0.0800 
 41 H        5.1150     6.2310    -0.5520 H     1 <1>   0.1500 
 42 H        1.5880     9.8850     0.7990 H     1 <1>   0.4500 
 43 H        0.1080     6.4780     1.8620 H     1 <1>   0.0800 
 44 H       -0.5530     7.8250     0.9620 H     1 <1>   0.0800 
 45 H        0.2160     8.0900     2.5090 H     1 <1>   0.0800 
 46 H        6.6070     8.1260    -1.2930 H     1 <1>   0.1500 
 47 H        5.7910    10.4090    -1.1030 H     1 <1>   0.0600 
@<TRIPOS>BOND
  1   1   2  2   
  2   1   3  2   
  3   1   4  am  
  4   1   5  1   
  5   4   6  1   
  6   4   7  1   
  7   5   8  1   
  8   5  26  1   
  9   5  27  1   
 10   6  28  1   
 11   6  29  1   
 12   6  30  1   
 13   7  31  1   
 14   7  32  1   
 15   7  33  1   
 16   8   9  1   
 17   8  10  1   
 18   8  34  1   
 19   9  11  1   
 20   9  12  1   
 21   9  35  1   
 22  10  13  1   
 23  10  36  1   
 24  10  37  1   
 25  11  38  1   
 26  12  13  1   
 27  12  39  1   
 28  12  40  1   
 29  13  14  am  
 30  14  15  2   
 31  14  16  1   
 32  16  17  1   
 33  16  18  2   
 34  17  19  ar  
 35  17  20  1   
 36  18  21  1   
 37  18  22  1   
 38  19  21  ar  
 39  19  23  1   
 40  20  24  2   
 41  20  41  1   
 42  21  42  1   
 43  22  43  1   
 44  22  44  1   
 45  22  45  1   
 46  23  25  2   
 47  24  25  1   
 48  24  46  1   
 49  25  47  1   
@<TRIPOS>SUBSTRUCTURE
  1 ****  13 GROUP 4 **** **** 0

# MOE 2024.06 (io_trps.svl 2023.06)
