@<TRIPOS>MOLECULE
NONAME
47 49 1 0 0 
SMALL
USER_CHARGES


@<TRIPOS>ATOM
  1 O       -1.1830    -0.3430     2.4420 O.2   1 <1>  -0.5700 
  2 C       -1.5060     0.3320     1.4920 C.2   1 <1>   0.5690 
  3 N       -2.0310    -0.2290     0.3570 N.am  1 <1>  -0.6600 
  4 C       -1.3130     1.8400     1.6180 C.3   1 <1>   0.0820 
  5 C       -2.1270    -1.7230     0.2220 C.3   1 <1>   0.3640 
  6 C       -2.5270     0.5740    -0.8080 C.3   1 <1>   0.1400 
  7 C       -0.3550     2.4150     0.5780 C.2   1 <1>  -0.1810 
  8 C       -0.9060    -2.3180    -0.5010 C.ar  1 <1>  -0.1440 
  9 C       -3.4540    -2.1730    -0.4710 C.3   1 <1>   0.2000 
 10 C       -3.2000    -0.2940    -1.8800 C.3   1 <1>   0.1200 
 11 C        0.9470     1.9750     0.3380 C.2   1 <1>   0.1080 
 12 C       -0.5470     3.4240    -0.3040 C.2   1 <1>  -0.3320 
 13 C       -0.6990    -3.6880    -0.3970 C.ar  1 <1>  -0.1500 
 14 C        0.0050    -1.5690    -1.2390 C.ar  1 <1>  -0.1500 
 15 O       -4.0730    -1.1840    -1.2640 O.3   1 <1>  -0.5600 
 16 C       -4.4960    -2.6280     0.5570 C.3   1 <1>   0.1200 
 17 N        1.5170     2.6360    -0.6180 N.2   1 <1>  -0.7070 
 18 C        1.6640     0.8670     1.0810 C.3   1 <1>  -0.0590 
 19 N        0.6000     3.5360    -1.0080 N.pl3 1 <1>   0.3000 
 20 C       -1.7470     4.3240    -0.5460 C.3   1 <1>  -0.0600 
 21 C        0.3720    -4.2980    -1.0260 C.ar  1 <1>  -0.1500 
 22 C        1.0780    -2.1750    -1.8680 C.ar  1 <1>  -0.1500 
 23 O       -4.1290    -3.8540     1.1070 O.3   1 <1>  -0.6800 
 24 C        1.2620    -3.5410    -1.7660 C.ar  1 <1>  -0.1500 
 25 H       -2.2730     2.3120     1.5510 H     1 <1>   0.0800 
 26 H       -0.9200     2.0550     2.5950 H     1 <1>   0.0800 
 27 H       -2.1200    -2.1560     1.2080 H     1 <1>   0.0800 
 28 H       -3.2400     1.2990    -0.4570 H     1 <1>   0.0800 
 29 H       -1.7080     1.1050    -1.2600 H     1 <1>   0.0800 
 30 H       -3.2490    -2.9990    -1.1280 H     1 <1>   0.0800 
 31 H       -2.4740    -0.8500    -2.4490 H     1 <1>   0.0800 
 32 H       -3.7690     0.3200    -2.5540 H     1 <1>   0.0800 
 33 H       -1.3760    -4.2920     0.1840 H     1 <1>   0.1500 
 34 H       -0.0940    -0.5030    -1.3310 H     1 <1>   0.1500 
 35 H       -5.4610    -2.7460     0.0940 H     1 <1>   0.0800 
 36 H       -4.5650    -1.9110     1.3570 H     1 <1>   0.0800 
 37 H        1.3020    -0.0900     0.7580 H     1 <1>   0.0800 
 38 H        1.5020     0.9640     2.1380 H     1 <1>   0.0800 
 39 H        2.7200     0.9220     0.8860 H     1 <1>   0.0800 
 40 H        0.7910     4.2150    -1.7540 H     1 <1>   0.2700 
 41 H       -2.5470     4.0920     0.1320 H     1 <1>   0.0800 
 42 H       -2.1050     4.2010    -1.5530 H     1 <1>   0.0800 
 43 H       -1.4700     5.3530    -0.3990 H     1 <1>   0.0800 
 44 H        0.5150    -5.3600    -0.9360 H     1 <1>   0.1500 
 45 H        1.7730    -1.5780    -2.4340 H     1 <1>   0.1500 
 46 H       -4.3600    -4.5860     0.5020 H     1 <1>   0.4000 
 47 H        2.0960    -4.0120    -2.2550 H     1 <1>   0.1500 
@<TRIPOS>BOND
  1   1   2  2   
  2   2   3  am  
  3   2   4  1   
  4   3   5  1   
  5   3   6  1   
  6   4   7  1   
  7   4  25  1   
  8   4  26  1   
  9   5   8  1   
 10   5   9  1   
 11   5  27  1   
 12   6  10  1   
 13   6  28  1   
 14   6  29  1   
 15   7  11  1   
 16   7  12  2   
 17   8  13  ar  
 18   8  14  ar  
 19   9  15  1   
 20   9  16  1   
 21   9  30  1   
 22  10  15  1   
 23  10  31  1   
 24  10  32  1   
 25  11  17  2   
 26  11  18  1   
 27  12  19  1   
 28  12  20  1   
 29  13  21  ar  
 30  13  33  1   
 31  14  22  ar  
 32  14  34  1   
 33  16  23  1   
 34  16  35  1   
 35  16  36  1   
 36  17  19  1   
 37  18  37  1   
 38  18  38  1   
 39  18  39  1   
 40  19  40  1   
 41  20  41  1   
 42  20  42  1   
 43  20  43  1   
 44  21  24  ar  
 45  21  44  1   
 46  22  24  ar  
 47  22  45  1   
 48  23  46  1   
 49  24  47  1   
@<TRIPOS>SUBSTRUCTURE
  1 ****   3 GROUP 4 **** **** 0

# MOE 2024.06 (io_trps.svl 2023.06)
