@<TRIPOS>MOLECULE
NONAME
49 52 1 0 0 
SMALL
USER_CHARGES


@<TRIPOS>ATOM
  1 S       -0.4860    -0.2950    -1.2340 S.3   1 <1>  -0.3320 
  2 C       -0.3760    -2.0000    -0.6610 C.ar  1 <1>   0.1020 
  3 C        1.2010     0.4400    -1.0770 C.3   1 <1>  -0.0100 
  4 C       -1.5140    -2.7560    -0.6890 C.ar  1 <1>  -0.1500 
  5 C        0.8290    -2.5420    -0.2020 C.ar  1 <1>  -0.1500 
  6 C       -1.5110    -4.0920    -0.2610 C.ar  1 <1>   0.3100 
  7 C        0.8600    -3.8430     0.2230 C.ar  1 <1>  -0.1500 
  8 N       -2.6770    -4.7750    -0.3230 N.ar  1 <1>  -0.6200 
  9 C       -0.2980    -4.6530     0.2080 C.ar  1 <1>   0.0000 
 10 C       -2.6720    -6.0200     0.0640 C.ar  1 <1>   0.4100 
 11 C       -0.3260    -5.9980     0.6370 C.ar  1 <1>  -0.1430 
 12 N       -3.8530    -6.7330    -0.0180 N.pl3 1 <1>  -0.8380 
 13 C       -1.5150    -6.6550     0.5590 C.ar  1 <1>  -0.1500 
 14 C        0.9160    -6.6950     1.1740 C.3   1 <1>  -0.0970 
 15 C       -3.8630    -8.0500    -0.7290 C.3   1 <1>   0.2090 
 16 C       -5.1440    -5.9880     0.0290 C.3   1 <1>   0.2090 
 17 C       -4.2050    -9.2020     0.2290 C.3   1 <1>   0.2090 
 18 C       -6.3640    -6.8510     0.3820 C.3   1 <1>  -0.1600 
 19 N       -5.6510    -9.2010     0.6150 N.pl3 1 <1>  -0.8380 
 20 C       -6.0860    -7.9910     1.3670 C.3   1 <1>   0.2090 
 21 C       -6.5640   -10.0700     0.0500 C.ar  1 <1>   0.7200 
 22 N       -6.1440   -10.8180    -0.9720 N.ar  1 <1>  -0.6200 
 23 N       -7.7940   -10.0810     0.5650 N.ar  1 <1>  -0.6200 
 24 C       -7.0230   -11.6350    -1.4990 C.ar  1 <1>   0.1600 
 25 C       -8.6500   -10.9090     0.0200 C.ar  1 <1>   0.1600 
 26 C       -8.3100   -11.7220    -1.0320 C.ar  1 <1>  -0.1500 
 27 H        1.1430     1.4580    -1.4200 H     1 <1>   0.0800 
 28 H        1.8720    -0.1310    -1.6930 H     1 <1>   0.0800 
 29 H        1.4850     0.4030    -0.0410 H     1 <1>   0.0800 
 30 H       -2.4380    -2.3400    -1.0430 H     1 <1>   0.1500 
 31 H        1.7210    -1.9480    -0.1800 H     1 <1>   0.1500 
 32 H        1.7850    -4.2580     0.5760 H     1 <1>   0.1500 
 33 H       -1.6110    -7.6720     0.8810 H     1 <1>   0.1500 
 34 H        1.2840    -6.1750     2.0410 H     1 <1>   0.0800 
 35 H        1.6830    -6.7140     0.4210 H     1 <1>   0.0800 
 36 H        0.6950    -7.7080     1.4570 H     1 <1>   0.0800 
 37 H       -2.8920    -8.2310    -1.1560 H     1 <1>   0.0800 
 38 H       -4.5720    -8.0340    -1.5380 H     1 <1>   0.0800 
 39 H       -5.3060    -5.5030    -0.9190 H     1 <1>   0.0800 
 40 H       -5.0500    -5.2150     0.7730 H     1 <1>   0.0800 
 41 H       -3.6030    -9.1150     1.1150 H     1 <1>   0.0800 
 42 H       -3.9420   -10.1330    -0.2380 H     1 <1>   0.0800 
 43 H       -6.8000    -7.2490    -0.5160 H     1 <1>   0.0800 
 44 H       -7.1000    -6.2000     0.8170 H     1 <1>   0.0800 
 45 H       -6.9790    -8.2090     1.9270 H     1 <1>   0.0800 
 46 H       -5.3270    -7.7010     2.0740 H     1 <1>   0.0800 
 47 H       -6.7070   -12.2510    -2.3230 H     1 <1>   0.1500 
 48 H       -9.6480   -10.9390     0.4230 H     1 <1>   0.1500 
 49 H       -9.0210   -12.3960    -1.4710 H     1 <1>   0.1500 
@<TRIPOS>BOND
  1   1   2  1   
  2   1   3  1   
  3   2   4  ar  
  4   2   5  ar  
  5   3  27  1   
  6   3  28  1   
  7   3  29  1   
  8   4   6  ar  
  9   4  30  1   
 10   5   7  ar  
 11   5  31  1   
 12   6   8  ar  
 13   6   9  ar  
 14   7   9  ar  
 15   7  32  1   
 16   8  10  ar  
 17   9  11  ar  
 18  10  12  1   
 19  10  13  ar  
 20  11  13  ar  
 21  11  14  1   
 22  12  15  1   
 23  12  16  1   
 24  13  33  1   
 25  14  34  1   
 26  14  35  1   
 27  14  36  1   
 28  15  17  1   
 29  15  37  1   
 30  15  38  1   
 31  16  18  1   
 32  16  39  1   
 33  16  40  1   
 34  17  19  1   
 35  17  41  1   
 36  17  42  1   
 37  18  20  1   
 38  18  43  1   
 39  18  44  1   
 40  19  20  1   
 41  19  21  1   
 42  20  45  1   
 43  20  46  1   
 44  21  22  ar  
 45  21  23  ar  
 46  22  24  ar  
 47  23  25  ar  
 48  24  26  ar  
 49  24  47  1   
 50  25  26  ar  
 51  25  48  1   
 52  26  49  1   
@<TRIPOS>SUBSTRUCTURE
  1 ****  12 GROUP 4 **** **** 0

# MOE 2024.06 (io_trps.svl 2023.06)
