@<TRIPOS>MOLECULE
NONAME
49 53 1 0 0 
SMALL
USER_CHARGES


@<TRIPOS>ATOM
  1 S        0.0950     0.3490     1.3060 S.o2  1 <1>   1.4470 
  2 O       -0.5440     1.5990     1.6520 O.2   1 <1>  -0.6500 
  3 O        0.6350    -0.4710     2.3650 O.2   1 <1>  -0.6500 
  4 N        1.4520     0.8010     0.3840 N.am  1 <1>  -0.8490 
  5 C       -0.9640    -0.5470     0.1290 C.ar  1 <1>  -0.0090 
  6 C        2.1880     1.8760     1.0960 C.3   1 <1>   0.1960 
  7 C        2.3060    -0.3470     0.0460 C.3   1 <1>   0.1960 
  8 C       -0.9590    -1.9690     0.0170 C.ar  1 <1>   0.0000 
  9 C       -1.7850     0.1890    -0.7110 C.ar  1 <1>  -0.1500 
 10 C        3.5320     2.3560     0.4840 C.3   1 <1>   0.4230 
 11 C        3.2850    -0.0350    -1.1070 C.3   1 <1>  -0.0800 
 12 C       -1.8000    -2.5070    -0.9640 C.ar  1 <1>   0.0000 
 13 C       -0.2350    -2.9480     0.7440 C.ar  1 <1>  -0.1500 
 14 C       -2.6190    -0.3900    -1.6770 C.ar  1 <1>  -0.1500 
 15 N        3.5370     2.5040    -1.0220 N.4   1 <1>  -0.9590 
 16 C        4.7260     1.4730     0.9270 C.3   1 <1>   0.1200 
 17 C        4.7640    -0.2510    -0.7160 C.3   1 <1>   0.1200 
 18 C        3.0070     1.3230    -1.7830 C.3   1 <1>   0.3430 
 19 C       -2.6180    -1.7520    -1.7990 C.ar  1 <1>   0.1170 
 20 C       -1.9490    -3.8660    -1.2490 C.ar  1 <1>   0.0860 
 21 C       -0.3580    -4.2950     0.4820 C.ar  1 <1>  -0.1500 
 22 C        2.8980     3.7710    -1.4800 C.3   1 <1>   0.2630 
 23 O        5.3610     0.8940    -0.1810 O.3   1 <1>  -0.5600 
 24 N       -3.2900    -2.6440    -2.6220 N.am  1 <1>  -0.5470 
 25 C       -2.9120    -3.9200    -2.3160 C.2   1 <1>   0.5440 
 26 C       -1.2170    -4.7700    -0.5180 C.ar  1 <1>  -0.1500 
 27 O       -3.3520    -4.8950    -2.8890 O.2   1 <1>  -0.5700 
 28 H        1.5490     2.7410     1.1490 H     1 <1>   0.0800 
 29 H        2.3660     1.5720     2.1150 H     1 <1>   0.0800 
 30 H        2.8260    -0.6940     0.9250 H     1 <1>   0.0800 
 31 H        1.6800    -1.1610    -0.2800 H     1 <1>   0.0800 
 32 H       -1.7990     1.2650    -0.6270 H     1 <1>   0.1500 
 33 H        3.7210     3.3240     0.9160 H     1 <1>   0.0800 
 34 H        3.0780    -0.7840    -1.8500 H     1 <1>   0.0800 
 35 H        0.4300    -2.6550     1.5330 H     1 <1>   0.1500 
 36 H       -3.2450     0.2230    -2.3030 H     1 <1>   0.1500 
 37 H        4.5490     2.5100    -1.2390 H     1 <1>   0.4500 
 38 H        4.4400     0.7030     1.6230 H     1 <1>   0.0800 
 39 H        5.4560     2.0950     1.4170 H     1 <1>   0.0800 
 40 H        5.3350    -0.5090    -1.5920 H     1 <1>   0.0800 
 41 H        4.8730    -1.0570    -0.0080 H     1 <1>   0.0800 
 42 H        1.9410     1.4270    -1.9070 H     1 <1>   0.0800 
 43 H        3.4490     1.3190    -2.7670 H     1 <1>   0.0800 
 44 H        0.2060    -5.0110     1.0560 H     1 <1>   0.1500 
 45 H        1.8460     3.7630    -1.2440 H     1 <1>   0.0800 
 46 H        3.0110     3.8830    -2.5460 H     1 <1>   0.0800 
 47 H        3.3560     4.6190    -0.9970 H     1 <1>   0.0800 
 48 H       -3.9850    -2.4420    -3.3410 H     1 <1>   0.3700 
 49 H       -1.3070    -5.8260    -0.7110 H     1 <1>   0.1500 
@<TRIPOS>BOND
  1   1   2  2   
  2   1   3  2   
  3   1   4  am  
  4   1   5  1   
  5   4   6  1   
  6   4   7  1   
  7   5   8  ar  
  8   5   9  ar  
  9   6  10  1   
 10   6  28  1   
 11   6  29  1   
 12   7  11  1   
 13   7  30  1   
 14   7  31  1   
 15   8  12  ar  
 16   8  13  ar  
 17   9  14  ar  
 18   9  32  1   
 19  10  15  1   
 20  10  16  1   
 21  10  33  1   
 22  11  17  1   
 23  11  18  1   
 24  11  34  1   
 25  12  19  ar  
 26  12  20  ar  
 27  13  21  ar  
 28  13  35  1   
 29  14  19  ar  
 30  14  36  1   
 31  15  18  1   
 32  15  22  1   
 33  15  37  1   
 34  16  23  1   
 35  16  38  1   
 36  16  39  1   
 37  17  23  1   
 38  17  40  1   
 39  17  41  1   
 40  18  42  1   
 41  18  43  1   
 42  19  24  1   
 43  20  25  1   
 44  20  26  ar  
 45  21  26  ar  
 46  21  44  1   
 47  22  45  1   
 48  22  46  1   
 49  22  47  1   
 50  24  25  am  
 51  24  48  1   
 52  25  27  2   
 53  26  49  1   
@<TRIPOS>SUBSTRUCTURE
  1 ****   5 GROUP 4 **** **** 0

# MOE 2024.06 (io_trps.svl 2023.06)
