@<TRIPOS>MOLECULE
NONAME
48 50 1 0 0 
SMALL
USER_CHARGES


@<TRIPOS>ATOM
  1 CL      -0.1790     0.0590     1.1010 Cl    1 <1>  -0.1770 
  2 C       -0.3180    -1.6680     0.9080 C.ar  1 <1>   0.1770 
  3 C        0.5430    -2.3270     0.0530 C.ar  1 <1>  -0.1500 
  4 C       -1.2840    -2.3530     1.6150 C.ar  1 <1>  -0.1500 
  5 C        0.4430    -3.7000    -0.1150 C.ar  1 <1>  -0.1440 
  6 C       -1.3930    -3.7220     1.4500 C.ar  1 <1>  -0.1500 
  7 C       -0.5470    -4.4010     0.5770 C.ar  1 <1>  -0.1430 
  8 C        1.4430    -4.3680    -1.0530 C.3   1 <1>  -0.0960 
  9 C       -0.7390    -5.8980     0.4090 C.3   1 <1>   0.4870 
 10 N       -1.2370    -6.2110    -0.9700 N.4   1 <1>  -0.9590 
 11 C       -2.6700    -5.9220    -1.2940 C.3   1 <1>   0.4230 
 12 C       -0.9190    -7.6300    -1.3110 C.3   1 <1>   0.2630 
 13 C       -3.6790    -6.1970    -0.1810 C.3   1 <1>  -0.1600 
 14 C       -2.9210    -4.4760    -1.7060 C.3   1 <1>  -0.1600 
 15 C       -4.9330    -5.4280    -0.6170 C.3   1 <1>  -0.0800 
 16 C       -4.4300    -4.2700    -1.5120 C.3   1 <1>  -0.0800 
 17 C       -5.8260    -5.0070     0.5700 C.3   1 <1>   0.1400 
 18 C       -4.7820    -2.8760    -0.9630 C.3   1 <1>  -0.0990 
 19 N       -6.7180    -3.8920     0.1750 N.am  1 <1>  -0.6600 
 20 C       -6.2380    -2.8320    -0.5450 C.2   1 <1>   0.5690 
 21 C       -8.1220    -3.9500     0.6660 C.3   1 <1>   0.0600 
 22 O       -6.9080    -1.8800    -0.8590 O.2   1 <1>  -0.5700 
 23 H        1.2870    -1.7520    -0.4700 H     1 <1>   0.1500 
 24 H       -1.9340    -1.8160     2.2830 H     1 <1>   0.1500 
 25 H       -2.1470    -4.2430     2.0140 H     1 <1>   0.1500 
 26 H        2.3390    -3.7740    -1.1230 H     1 <1>   0.0800 
 27 H        1.0300    -4.4580    -2.0410 H     1 <1>   0.0800 
 28 H        1.7350    -5.3380    -0.6920 H     1 <1>   0.0800 
 29 H       -1.4180    -6.2770     1.1540 H     1 <1>   0.0800 
 30 H        0.2140    -6.3750     0.5670 H     1 <1>   0.0800 
 31 H       -0.6900    -5.5950    -1.5840 H     1 <1>   0.4500 
 32 H       -2.9590    -6.5270    -2.1390 H     1 <1>   0.0800 
 33 H       -1.4770    -8.3020    -0.6790 H     1 <1>   0.0800 
 34 H        0.1340    -7.8230    -1.1770 H     1 <1>   0.0800 
 35 H       -1.1730    -7.8340    -2.3390 H     1 <1>   0.0800 
 36 H       -3.8850    -7.2480    -0.0780 H     1 <1>   0.0800 
 37 H       -3.3470    -5.7970     0.7560 H     1 <1>   0.0800 
 38 H       -2.3860    -3.7860    -1.0850 H     1 <1>   0.0800 
 39 H       -2.6450    -4.3090    -2.7320 H     1 <1>   0.0800 
 40 H       -5.5240    -6.0800    -1.2410 H     1 <1>   0.0800 
 41 H       -4.9190    -4.3680    -2.4690 H     1 <1>   0.0800 
 42 H       -5.2220    -4.6690     1.3950 H     1 <1>   0.0800 
 43 H       -6.4100    -5.8480     0.9030 H     1 <1>   0.0800 
 44 H       -4.6050    -2.1250    -1.7120 H     1 <1>   0.0800 
 45 H       -4.1860    -2.6380    -0.1010 H     1 <1>   0.0800 
 46 H       -8.6090    -4.8260     0.2760 H     1 <1>   0.0800 
 47 H       -8.6720    -3.0810     0.3440 H     1 <1>   0.0800 
 48 H       -8.1330    -3.9830     1.7410 H     1 <1>   0.0800 
@<TRIPOS>BOND
  1   1   2  1   
  2   2   3  ar  
  3   2   4  ar  
  4   3   5  ar  
  5   3  23  1   
  6   4   6  ar  
  7   4  24  1   
  8   5   7  ar  
  9   5   8  1   
 10   6   7  ar  
 11   6  25  1   
 12   7   9  1   
 13   8  26  1   
 14   8  27  1   
 15   8  28  1   
 16   9  10  1   
 17   9  29  1   
 18   9  30  1   
 19  10  11  1   
 20  10  12  1   
 21  10  31  1   
 22  11  13  1   
 23  11  14  1   
 24  11  32  1   
 25  12  33  1   
 26  12  34  1   
 27  12  35  1   
 28  13  15  1   
 29  13  36  1   
 30  13  37  1   
 31  14  16  1   
 32  14  38  1   
 33  14  39  1   
 34  15  16  1   
 35  15  17  1   
 36  15  40  1   
 37  16  18  1   
 38  16  41  1   
 39  17  19  1   
 40  17  42  1   
 41  17  43  1   
 42  18  20  1   
 43  18  44  1   
 44  18  45  1   
 45  19  20  am  
 46  19  21  1   
 47  20  22  2   
 48  21  46  1   
 49  21  47  1   
 50  21  48  1   
@<TRIPOS>SUBSTRUCTURE
  1 ****  14 GROUP 4 **** **** 0

# MOE 2024.06 (io_trps.svl 2023.06)
