@<TRIPOS>MOLECULE
NONAME
53 56 1 0 0 
SMALL
USER_CHARGES


@<TRIPOS>ATOM
  1 O       -2.0790     0.5600    -2.0410 O.2   1 <1>  -0.5700 
  2 C       -1.8980     0.6610    -0.8400 C.2   1 <1>   0.7160 
  3 N       -1.8710    -0.4820    -0.0680 N.am  1 <1>  -0.6600 
  4 C       -1.6810     1.9500    -0.2690 C.2   1 <1>  -0.0860 
  5 C       -2.2240    -1.8090    -0.6470 C.3   1 <1>   0.3210 
  6 C       -1.6260    -0.4730     1.4050 C.3   1 <1>   0.0600 
  7 C       -2.6680     2.8960     0.0110 C.2   1 <1>   0.3720 
  8 C       -0.5400     2.5390     0.1690 C.2   1 <1>   0.0870 
  9 C       -3.3770    -2.4320     0.1210 C.2   1 <1>  -0.1810 
 10 N       -2.1630     3.9350     0.5810 N.2   1 <1>  -0.4100 
 11 N       -4.0260     2.7410    -0.2830 N.pl3 1 <1>  -0.8210 
 12 O       -0.8800     3.7020     0.6650 O.3   1 <1>  -0.0190 
 13 C        0.8320     2.0970     0.1800 C.ar  1 <1>   0.0530 
 14 C       -3.4310    -3.5730     0.8280 C.2   1 <1>  -0.0400 
 15 C       -4.6660    -1.9150     0.2500 C.2   1 <1>   0.1080 
 16 C       -4.3530     3.0320    -1.7120 C.3   1 <1>   0.2090 
 17 C       -4.9620     3.4830     0.6180 C.3   1 <1>   0.2090 
 18 C        1.3300     1.2320    -0.7950 C.ar  1 <1>  -0.1500 
 19 C        1.7120     2.5180     1.1770 C.ar  1 <1>  -0.1500 
 20 O       -4.6380    -3.6880     1.3120 O.3   1 <1>  -0.0190 
 21 C       -2.4110    -4.6510     1.1310 C.3   1 <1>  -0.0600 
 22 N       -5.3970    -2.6890     0.9700 N.2   1 <1>  -0.4100 
 23 C       -5.1670    -0.6180    -0.3490 C.3   1 <1>  -0.0590 
 24 C       -5.8450     2.7850    -2.0000 C.3   1 <1>   0.1200 
 25 C       -6.4260     3.2030     0.2360 C.3   1 <1>   0.1200 
 26 C        2.6420     0.7960    -0.7670 C.ar  1 <1>  -0.1500 
 27 C        3.0250     2.0860     1.2100 C.ar  1 <1>  -0.1500 
 28 O       -6.6580     3.5040    -1.1130 O.3   1 <1>  -0.5600 
 29 C        3.4920     1.2210     0.2370 C.ar  1 <1>  -0.1500 
 30 H       -1.3620    -2.4490    -0.5980 H     1 <1>   0.0800 
 31 H       -2.5060    -1.7220    -1.6820 H     1 <1>   0.0800 
 32 H       -1.0540     0.3880     1.7030 H     1 <1>   0.0800 
 33 H       -1.0790    -1.3540     1.6920 H     1 <1>   0.0800 
 34 H       -2.5670    -0.4620     1.9280 H     1 <1>   0.0800 
 35 H       -3.7620     2.4070    -2.3580 H     1 <1>   0.0800 
 36 H       -4.1140     4.0580    -1.9350 H     1 <1>   0.0800 
 37 H       -4.7750     4.5410     0.5480 H     1 <1>   0.0800 
 38 H       -4.7910     3.1790     1.6360 H     1 <1>   0.0800 
 39 H        0.6900     0.9000    -1.5920 H     1 <1>   0.1500 
 40 H        1.3610     3.1920     1.9400 H     1 <1>   0.1500 
 41 H       -1.4660    -4.4230     0.6730 H     1 <1>   0.0800 
 42 H       -2.7620    -5.5950     0.7550 H     1 <1>   0.0800 
 43 H       -2.2740    -4.7300     2.1940 H     1 <1>   0.0800 
 44 H       -4.7660    -0.4820    -1.3360 H     1 <1>   0.0800 
 45 H       -4.8590     0.2020     0.2720 H     1 <1>   0.0800 
 46 H       -6.2400    -0.6290    -0.4050 H     1 <1>   0.0800 
 47 H       -6.0770     1.7390    -1.9080 H     1 <1>   0.0800 
 48 H       -6.0860     3.1050    -2.9980 H     1 <1>   0.0800 
 49 H       -7.0850     3.8140     0.8260 H     1 <1>   0.0800 
 50 H       -6.6670     2.1690     0.4050 H     1 <1>   0.0800 
 51 H        3.0040     0.1280    -1.5300 H     1 <1>   0.1500 
 52 H        3.6850     2.4230     1.9900 H     1 <1>   0.1500 
 53 H        4.5140     0.8830     0.2600 H     1 <1>   0.1500 
@<TRIPOS>BOND
  1   1   2  2   
  2   2   3  am  
  3   2   4  1   
  4   3   5  1   
  5   3   6  1   
  6   4   7  1   
  7   4   8  2   
  8   5   9  1   
  9   5  30  1   
 10   5  31  1   
 11   6  32  1   
 12   6  33  1   
 13   6  34  1   
 14   7  10  2   
 15   7  11  1   
 16   8  12  1   
 17   8  13  1   
 18   9  14  2   
 19   9  15  1   
 20  10  12  1   
 21  11  16  1   
 22  11  17  1   
 23  13  18  ar  
 24  13  19  ar  
 25  14  20  1   
 26  14  21  1   
 27  15  22  2   
 28  15  23  1   
 29  16  24  1   
 30  16  35  1   
 31  16  36  1   
 32  17  25  1   
 33  17  37  1   
 34  17  38  1   
 35  18  26  ar  
 36  18  39  1   
 37  19  27  ar  
 38  19  40  1   
 39  20  22  1   
 40  21  41  1   
 41  21  42  1   
 42  21  43  1   
 43  23  44  1   
 44  23  45  1   
 45  23  46  1   
 46  24  28  1   
 47  24  47  1   
 48  24  48  1   
 49  25  28  1   
 50  25  49  1   
 51  25  50  1   
 52  26  29  ar  
 53  26  51  1   
 54  27  29  ar  
 55  27  52  1   
 56  29  53  1   
@<TRIPOS>SUBSTRUCTURE
  1 ****   2 GROUP 4 **** **** 0

# MOE 2024.06 (io_trps.svl 2023.06)
