@<TRIPOS>MOLECULE
NONAME
48 50 1 0 0 
SMALL
USER_CHARGES


@<TRIPOS>ATOM
  1 O        2.1810    -4.1350     0.0790 O.2   1 <1>  -0.5700 
  2 C        1.9570    -2.9450     0.1350 C.2   1 <1>   0.6900 
  3 N        1.2630    -2.3110    -0.8700 N.am  1 <1>  -0.4200 
  4 N        2.3360    -2.2260     1.2320 N.am  1 <1>  -0.5390 
  5 C        0.7730    -1.0360    -0.6650 C.2   1 <1>   0.6160 
  6 C        1.0450    -3.0150    -2.1690 C.3   1 <1>   0.1400 
  7 C        1.9890    -0.9020     1.4120 C.2   1 <1>  -0.0290 
  8 O       -0.0840    -0.6110    -1.4210 O.2   1 <1>  -0.5700 
  9 C        1.2130    -0.3090     0.4780 C.2   1 <1>  -0.1360 
 10 C       -0.2260    -3.8830    -2.1520 C.3   1 <1>   0.3430 
 11 C        2.5080    -0.2170     2.6610 C.3   1 <1>  -0.1020 
 12 N       -1.4230    -3.1170    -1.6680 N.4   1 <1>  -0.9590 
 13 C       -1.6870    -3.4060    -0.2230 C.3   1 <1>   0.4230 
 14 C       -2.5880    -3.2700    -2.5920 C.3   1 <1>   0.2630 
 15 C       -2.3820    -4.7480     0.0130 C.3   1 <1>  -0.1600 
 16 C       -2.6290    -2.3700     0.3820 C.3   1 <1>  -0.1600 
 17 C       -3.8930    -4.4670     0.0860 C.3   1 <1>  -0.0800 
 18 C       -4.0490    -2.9560     0.3170 C.3   1 <1>  -0.0800 
 19 C       -4.6040    -5.1640     1.2570 C.3   1 <1>  -0.1600 
 20 C       -4.8510    -2.7920     1.6180 C.3   1 <1>  -0.1600 
 21 C       -4.7400    -4.1200     2.3590 C.3   1 <1>   0.2000 
 22 O       -3.5760    -4.1100     3.0950 O.3   1 <1>  -0.6800 
 23 H        2.9010    -2.7360     1.9150 H     1 <1>   0.3700 
 24 H        0.9770    -2.2920    -2.9640 H     1 <1>   0.0800 
 25 H        1.8960    -3.6400    -2.3840 H     1 <1>   0.0800 
 26 H        0.8900     0.7130     0.5510 H     1 <1>   0.1500 
 27 H       -0.0550    -4.7410    -1.5220 H     1 <1>   0.0800 
 28 H       -0.4020    -4.2450    -3.1520 H     1 <1>   0.0800 
 29 H        2.1490    -0.7240     3.5390 H     1 <1>   0.0800 
 30 H        2.1790     0.8060     2.6990 H     1 <1>   0.0800 
 31 H        3.5840    -0.2280     2.6690 H     1 <1>   0.0800 
 32 H       -1.1470    -2.1110    -1.6960 H     1 <1>   0.4500 
 33 H       -0.7500    -3.3870     0.3110 H     1 <1>   0.0800 
 34 H       -2.9280    -4.2930    -2.6030 H     1 <1>   0.0800 
 35 H       -2.3100    -2.9860    -3.5940 H     1 <1>   0.0800 
 36 H       -3.4010    -2.6380    -2.2740 H     1 <1>   0.0800 
 37 H       -2.1430    -5.4840    -0.7330 H     1 <1>   0.0800 
 38 H       -2.0430    -5.1250     0.9620 H     1 <1>   0.0800 
 39 H       -2.3440    -2.2320     1.4100 H     1 <1>   0.0800 
 40 H       -2.5630    -1.4140    -0.1070 H     1 <1>   0.0800 
 41 H       -4.3630    -4.7520    -0.8410 H     1 <1>   0.0800 
 42 H       -4.5920    -2.5060    -0.4980 H     1 <1>   0.0800 
 43 H       -4.1120    -6.0590     1.5990 H     1 <1>   0.0800 
 44 H       -5.5960    -5.4340     0.9400 H     1 <1>   0.0800 
 45 H       -5.8860    -2.6470     1.3620 H     1 <1>   0.0800 
 46 H       -4.5410    -1.9570     2.2230 H     1 <1>   0.0800 
 47 H       -5.5650    -4.3070     3.0280 H     1 <1>   0.0800 
 48 H       -2.8210    -3.9720     2.5020 H     1 <1>   0.4000 
@<TRIPOS>BOND
  1   1   2  2   
  2   2   3  am  
  3   2   4  am  
  4   3   5  am  
  5   3   6  1   
  6   4   7  1   
  7   4  23  1   
  8   5   8  2   
  9   5   9  1   
 10   6  10  1   
 11   6  24  1   
 12   6  25  1   
 13   7   9  2   
 14   7  11  1   
 15   9  26  1   
 16  10  12  1   
 17  10  27  1   
 18  10  28  1   
 19  11  29  1   
 20  11  30  1   
 21  11  31  1   
 22  12  13  1   
 23  12  14  1   
 24  12  32  1   
 25  13  15  1   
 26  13  16  1   
 27  13  33  1   
 28  14  34  1   
 29  14  35  1   
 30  14  36  1   
 31  15  17  1   
 32  15  37  1   
 33  15  38  1   
 34  16  18  1   
 35  16  39  1   
 36  16  40  1   
 37  17  18  1   
 38  17  19  1   
 39  17  41  1   
 40  18  20  1   
 41  18  42  1   
 42  19  21  1   
 43  19  43  1   
 44  19  44  1   
 45  20  21  1   
 46  20  45  1   
 47  20  46  1   
 48  21  22  1   
 49  21  47  1   
 50  22  48  1   
@<TRIPOS>SUBSTRUCTURE
  1 ****  13 GROUP 4 **** **** 0

# MOE 2024.06 (io_trps.svl 2023.06)
