@<TRIPOS>MOLECULE
NONAME
51 54 1 0 0 
SMALL
USER_CHARGES


@<TRIPOS>ATOM
  1 O       -2.5130     0.1620     1.5440 O.2   1 <1>  -0.5700 
  2 C       -2.5280     0.5470     0.3870 C.2   1 <1>   0.6160 
  3 N       -3.0150    -0.3220    -0.5590 N.am  1 <1>  -0.6600 
  4 C       -2.1180     1.9000     0.0960 C.2   1 <1>   0.0290 
  5 C       -2.7810    -1.8000    -0.4080 C.3   1 <1>   0.3640 
  6 C       -4.0770     0.1070    -1.5090 C.3   1 <1>   0.1400 
  7 C       -1.5230     2.2400    -1.1650 C.2   1 <1>   0.6160 
  8 C       -2.2650     2.9030     1.0270 C.2   1 <1>  -0.1500 
  9 C       -1.2840    -2.0390    -0.1600 C.ar  1 <1>  -0.1440 
 10 C       -3.2210    -2.6550    -1.6400 C.3   1 <1>   0.2000 
 11 C       -4.0870    -0.7780    -2.7530 C.3   1 <1>   0.1200 
 12 O       -1.3340     1.4720    -2.0980 O.2   1 <1>  -0.5700 
 13 N       -1.1410     3.5360    -1.3790 N.am  1 <1>  -0.5390 
 14 C       -1.8600     4.2280     0.7570 C.2   1 <1>  -0.1380 
 15 C       -0.3300    -1.5840    -1.0610 C.ar  1 <1>  -0.1500 
 16 C       -0.8630    -2.7180     0.9750 C.ar  1 <1>  -0.1500 
 17 O       -4.2910    -2.0970    -2.3590 O.3   1 <1>  -0.5600 
 18 C       -3.6610    -4.0810    -1.2640 C.3   1 <1>   0.1200 
 19 C       -1.2940     4.5260    -0.4470 C.2   1 <1>  -0.0290 
 20 C       -2.0630     5.2800     1.8410 C.3   1 <1>  -0.0220 
 21 C        1.0160    -1.8150    -0.8390 C.ar  1 <1>  -0.1500 
 22 C        0.4820    -2.9510     1.1990 C.ar  1 <1>  -0.1500 
 23 O       -2.7420    -4.7240    -0.4410 O.3   1 <1>  -0.6800 
 24 C       -0.8190     5.9200    -0.8290 C.3   1 <1>  -0.0220 
 25 C       -1.9530     6.7080     1.2880 C.3   1 <1>  -0.1600 
 26 C        1.4240    -2.5020     0.2900 C.ar  1 <1>  -0.1500 
 27 C       -0.7200     6.8510     0.3880 C.3   1 <1>  -0.1600 
 28 H       -3.3380    -2.1330     0.4510 H     1 <1>   0.0800 
 29 H       -5.0350     0.0390    -1.0230 H     1 <1>   0.0800 
 30 H       -3.9260     1.1290    -1.8050 H     1 <1>   0.0800 
 31 H       -2.6930     2.6840     1.9910 H     1 <1>   0.1500 
 32 H       -2.3990    -2.7290    -2.3290 H     1 <1>   0.0800 
 33 H       -3.1580    -0.7000    -3.2930 H     1 <1>   0.0800 
 34 H       -4.8970    -0.4980    -3.4030 H     1 <1>   0.0800 
 35 H       -0.7150     3.7070    -2.2900 H     1 <1>   0.3700 
 36 H       -0.6330    -1.0380    -1.9380 H     1 <1>   0.1500 
 37 H       -1.5870    -3.0670     1.6920 H     1 <1>   0.1500 
 38 H       -3.7790    -4.6730    -2.1550 H     1 <1>   0.0800 
 39 H       -4.5970    -4.0490    -0.7340 H     1 <1>   0.0800 
 40 H       -3.0300     5.1540     2.2970 H     1 <1>   0.0800 
 41 H       -1.3160     5.1330     2.6010 H     1 <1>   0.0800 
 42 H        1.7450    -1.4540    -1.5440 H     1 <1>   0.1500 
 43 H        0.7940    -3.4790     2.0830 H     1 <1>   0.1500 
 44 H       -1.8250    -4.6060    -0.7680 H     1 <1>   0.4000 
 45 H        0.1460     5.8600    -1.3020 H     1 <1>   0.0800 
 46 H       -1.5140     6.3330    -1.5380 H     1 <1>   0.0800 
 47 H       -2.8380     6.9380     0.7190 H     1 <1>   0.0800 
 48 H       -1.8940     7.4060     2.1060 H     1 <1>   0.0800 
 49 H        2.4700    -2.6800     0.4650 H     1 <1>   0.1500 
 50 H        0.1600     6.5990     0.9550 H     1 <1>   0.0800 
 51 H       -0.6210     7.8690     0.0560 H     1 <1>   0.0800 
@<TRIPOS>BOND
  1   1   2  2   
  2   2   3  am  
  3   2   4  1   
  4   3   5  1   
  5   3   6  1   
  6   4   7  1   
  7   4   8  2   
  8   5   9  1   
  9   5  10  1   
 10   5  28  1   
 11   6  11  1   
 12   6  29  1   
 13   6  30  1   
 14   7  12  2   
 15   7  13  am  
 16   8  14  1   
 17   8  31  1   
 18   9  15  ar  
 19   9  16  ar  
 20  10  17  1   
 21  10  18  1   
 22  10  32  1   
 23  11  17  1   
 24  11  33  1   
 25  11  34  1   
 26  13  19  1   
 27  13  35  1   
 28  14  19  2   
 29  14  20  1   
 30  15  21  ar  
 31  15  36  1   
 32  16  22  ar  
 33  16  37  1   
 34  18  23  1   
 35  18  38  1   
 36  18  39  1   
 37  19  24  1   
 38  20  25  1   
 39  20  40  1   
 40  20  41  1   
 41  21  26  ar  
 42  21  42  1   
 43  22  26  ar  
 44  22  43  1   
 45  23  44  1   
 46  24  27  1   
 47  24  45  1   
 48  24  46  1   
 49  25  27  1   
 50  25  47  1   
 51  25  48  1   
 52  26  49  1   
 53  27  50  1   
 54  27  51  1   
@<TRIPOS>SUBSTRUCTURE
  1 ****   2 GROUP 4 **** **** 0

# MOE 2024.06 (io_trps.svl 2023.06)
