@<TRIPOS>MOLECULE
NONAME
49 51 1 0 0 
SMALL
USER_CHARGES


@<TRIPOS>ATOM
  1 O       -1.6070    -1.4480    -1.4270 O.2   1 <1>  -0.5700 
  2 C       -0.7570    -2.1630    -0.9360 C.2   1 <1>   0.6900 
  3 N       -0.9890    -3.4970    -0.6380 N.am  1 <1>  -0.4690 
  4 N        0.4670    -1.6390    -0.6630 N.am  1 <1>  -0.4900 
  5 C        0.0130    -4.2740    -0.0640 C.2   1 <1>  -0.0410 
  6 C       -2.3210    -4.1230    -0.9250 C.3   1 <1>   0.2010 
  7 C        1.4760    -2.3600    -0.1060 C.2   1 <1>   0.6160 
  8 C        1.2210    -3.7270     0.2000 C.2   1 <1>  -0.1360 
  9 C       -3.0140    -4.6340     0.3390 C.2   1 <1>   0.5690 
 10 O        2.5380    -1.8150     0.1060 O.2   1 <1>  -0.5700 
 11 O       -2.8420    -5.7970     0.6270 O.2   1 <1>  -0.5700 
 12 N       -3.8130    -3.8280     1.1120 N.am  1 <1>  -0.6600 
 13 C       -4.5560    -4.4000     2.2730 C.3   1 <1>   0.1400 
 14 C       -4.1670    -2.4190     0.7910 C.3   1 <1>   0.1400 
 15 C       -5.8340    -5.1380     1.8350 C.3   1 <1>   0.1400 
 16 C       -5.4900    -2.3420     0.0200 C.3   1 <1>  -0.1600 
 17 N       -6.5430    -4.4970     0.6740 N.am  1 <1>  -0.6600 
 18 C       -6.6770    -3.0120     0.7250 C.3   1 <1>   0.1400 
 19 C       -7.0860    -5.2120    -0.3780 C.2   1 <1>   0.5440 
 20 O       -7.6830    -4.6110    -1.2510 O.2   1 <1>  -0.5700 
 21 C       -7.0020    -6.6500    -0.4770 C.ar  1 <1>   0.0860 
 22 C       -5.7900    -7.3050    -0.6810 C.ar  1 <1>   0.1600 
 23 C       -8.1390    -7.4430    -0.3930 C.ar  1 <1>  -0.1500 
 24 N       -5.6250    -8.6130    -0.7860 N.ar  1 <1>  -0.6200 
 25 C       -7.9920    -8.8070    -0.5030 C.ar  1 <1>  -0.1500 
 26 C       -6.7220    -9.3490    -0.6970 C.ar  1 <1>   0.3930 
 27 O       -6.5120   -10.6730    -0.8110 O.3   1 <1>  -0.3630 
 28 C       -7.5470   -11.6300    -0.7840 C.3   1 <1>   0.0400 
 29 H        0.6360    -0.6670    -0.8890 H     1 <1>   0.3700 
 30 H       -0.2180    -5.3060     0.1560 H     1 <1>   0.1500 
 31 H       -2.1670    -4.9590    -1.5820 H     1 <1>   0.0800 
 32 H       -2.9680    -3.4350    -1.4360 H     1 <1>   0.0800 
 33 H        2.0280    -4.2790     0.6420 H     1 <1>   0.1500 
 34 H       -4.8160    -3.6140     2.9600 H     1 <1>   0.0800 
 35 H       -3.9200    -5.0860     2.8050 H     1 <1>   0.0800 
 36 H       -3.3880    -1.9580     0.2150 H     1 <1>   0.0800 
 37 H       -4.2500    -1.8590     1.7070 H     1 <1>   0.0800 
 38 H       -6.5100    -5.1910     2.6700 H     1 <1>   0.0800 
 39 H       -5.5550    -6.1470     1.5940 H     1 <1>   0.0800 
 40 H       -5.3710    -2.7670    -0.9610 H     1 <1>   0.0800 
 41 H       -5.7270    -1.3030    -0.1190 H     1 <1>   0.0800 
 42 H       -7.5880    -2.7180     0.2310 H     1 <1>   0.0800 
 43 H       -6.7470    -2.6800     1.7460 H     1 <1>   0.0800 
 44 H       -4.9030    -6.7010    -0.7570 H     1 <1>   0.1500 
 45 H       -9.1040    -6.9870    -0.2530 H     1 <1>   0.1500 
 46 H       -8.8600    -9.4340    -0.4410 H     1 <1>   0.1500 
 47 H       -7.1040   -12.6020    -0.9090 H     1 <1>   0.0800 
 48 H       -8.2270   -11.4320    -1.5930 H     1 <1>   0.0800 
 49 H       -8.0480   -11.5780     0.1670 H     1 <1>   0.0800 
@<TRIPOS>BOND
  1   1   2  2   
  2   2   3  am  
  3   2   4  am  
  4   3   5  1   
  5   3   6  1   
  6   4   7  am  
  7   4  29  1   
  8   5   8  2   
  9   5  30  1   
 10   6   9  1   
 11   6  31  1   
 12   6  32  1   
 13   7   8  1   
 14   7  10  2   
 15   8  33  1   
 16   9  11  2   
 17   9  12  am  
 18  12  13  1   
 19  12  14  1   
 20  13  15  1   
 21  13  34  1   
 22  13  35  1   
 23  14  16  1   
 24  14  36  1   
 25  14  37  1   
 26  15  17  1   
 27  15  38  1   
 28  15  39  1   
 29  16  18  1   
 30  16  40  1   
 31  16  41  1   
 32  17  18  1   
 33  17  19  am  
 34  18  42  1   
 35  18  43  1   
 36  19  20  2   
 37  19  21  1   
 38  21  22  ar  
 39  21  23  ar  
 40  22  24  ar  
 41  22  44  1   
 42  23  25  ar  
 43  23  45  1   
 44  24  26  ar  
 45  25  26  ar  
 46  25  46  1   
 47  26  27  1   
 48  27  28  1   
 49  28  47  1   
 50  28  48  1   
 51  28  49  1   
@<TRIPOS>SUBSTRUCTURE
  1 ****   9 GROUP 4 **** **** 0

# MOE 2024.06 (io_trps.svl 2023.06)
