@<TRIPOS>MOLECULE
NONAME
46 48 1 0 0 
SMALL
USER_CHARGES


@<TRIPOS>ATOM
  1 O       -0.9180     1.0030    -1.6230 O.2   1 <1>  -0.5700 
  2 C       -0.7020     2.0090    -0.9960 C.2   1 <1>   0.5690 
  3 N       -1.6750     2.5820    -0.2550 N.am  1 <1>  -0.7300 
  4 C        0.6770     2.6710    -1.0590 C.3   1 <1>   0.1810 
  5 C       -1.4740     3.8060     0.5580 C.3   1 <1>   0.3640 
  6 O        0.9060     3.5810    -0.0040 O.3   1 <1>  -0.5600 
  7 C       -2.6580     4.7440     0.3320 C.ar  1 <1>  -0.1440 
  8 C       -0.1410     4.5180     0.2110 C.3   1 <1>   0.2610 
  9 C       -3.1390     5.0040    -0.9430 C.ar  1 <1>  -0.1500 
 10 C       -3.2650     5.3660     1.4110 C.ar  1 <1>  -0.1500 
 11 C        0.2510     5.5420     1.2900 C.2   1 <1>   0.5690 
 12 C       -4.2040     5.8630    -1.1550 C.ar  1 <1>   0.0830 
 13 C       -4.3260     6.2330     1.2200 C.ar  1 <1>  -0.1500 
 14 O       -0.2080     5.4350     2.4080 O.2   1 <1>  -0.5700 
 15 N        1.1020     6.5730     0.9840 N.am  1 <1>  -0.6600 
 16 O       -4.5670     6.0100    -2.4600 O.3   1 <1>  -0.3620 
 17 C       -4.8070     6.5030    -0.0590 C.ar  1 <1>   0.0830 
 18 C        1.5080     7.5860     1.9800 C.3   1 <1>   0.1400 
 19 C        1.8650     6.7260    -0.2740 C.3   1 <1>   0.1400 
 20 C       -5.9130     6.2280    -2.8220 C.3   1 <1>   0.0400 
 21 O       -5.8290     7.3860    -0.2600 O.3   1 <1>  -0.3630 
 22 C        2.4020     8.5530     1.2110 C.3   1 <1>  -0.1600 
 23 C        2.9680     7.7240     0.0620 C.3   1 <1>  -0.1600 
 24 C       -6.3060     8.2250     0.7690 C.3   1 <1>   0.0400 
 25 H       -2.6000     2.1500    -0.2280 H     1 <1>   0.3700 
 26 H        0.7760     3.1990    -1.9890 H     1 <1>   0.0800 
 27 H        1.4370     1.9140    -1.0070 H     1 <1>   0.0800 
 28 H       -1.4520     3.5060     1.5920 H     1 <1>   0.0800 
 29 H       -0.2790     5.0560    -0.7090 H     1 <1>   0.0800 
 30 H       -2.6930     4.5340    -1.8020 H     1 <1>   0.1500 
 31 H       -2.9070     5.1850     2.4120 H     1 <1>   0.1500 
 32 H       -4.7590     6.6900     2.0880 H     1 <1>   0.1500 
 33 H        0.6460     8.0810     2.3960 H     1 <1>   0.0800 
 34 H        2.0600     7.1010     2.7670 H     1 <1>   0.0800 
 35 H        2.2770     5.7850    -0.5990 H     1 <1>   0.0800 
 36 H        1.2170     7.1280    -1.0340 H     1 <1>   0.0800 
 37 H       -6.0320     5.9480    -3.8530 H     1 <1>   0.0800 
 38 H       -6.1390     7.2720    -2.7010 H     1 <1>   0.0800 
 39 H       -6.5480     5.6240    -2.1980 H     1 <1>   0.0800 
 40 H        1.7960     9.3540     0.8230 H     1 <1>   0.0800 
 41 H        3.1720     8.9680     1.8380 H     1 <1>   0.0800 
 42 H        3.8370     7.1830     0.3960 H     1 <1>   0.0800 
 43 H        3.2360     8.3270    -0.7870 H     1 <1>   0.0800 
 44 H       -7.0340     8.8920     0.3450 H     1 <1>   0.0800 
 45 H       -5.4830     8.7900     1.1690 H     1 <1>   0.0800 
 46 H       -6.7670     7.6190     1.5290 H     1 <1>   0.0800 
@<TRIPOS>BOND
  1   1   2  2   
  2   2   3  am  
  3   2   4  1   
  4   3   5  1   
  5   3  25  1   
  6   4   6  1   
  7   4  26  1   
  8   4  27  1   
  9   5   7  1   
 10   5   8  1   
 11   5  28  1   
 12   6   8  1   
 13   7   9  ar  
 14   7  10  ar  
 15   8  11  1   
 16   8  29  1   
 17   9  12  ar  
 18   9  30  1   
 19  10  13  ar  
 20  10  31  1   
 21  11  14  2   
 22  11  15  am  
 23  12  16  1   
 24  12  17  ar  
 25  13  17  ar  
 26  13  32  1   
 27  15  18  1   
 28  15  19  1   
 29  16  20  1   
 30  17  21  1   
 31  18  22  1   
 32  18  33  1   
 33  18  34  1   
 34  19  23  1   
 35  19  35  1   
 36  19  36  1   
 37  20  37  1   
 38  20  38  1   
 39  20  39  1   
 40  21  24  1   
 41  22  23  1   
 42  22  40  1   
 43  22  41  1   
 44  23  42  1   
 45  23  43  1   
 46  24  44  1   
 47  24  45  1   
 48  24  46  1   
@<TRIPOS>SUBSTRUCTURE
  1 ****   7 GROUP 4 **** **** 0

# MOE 2024.06 (io_trps.svl 2023.06)
