@<TRIPOS>MOLECULE
NONAME
54 56 1 0 0 
SMALL
USER_CHARGES


@<TRIPOS>ATOM
  1 F       -1.1910    -0.6430     0.9760 F     1 <1>  -0.1900 
  2 C       -2.3570    -0.0700     0.8190 C.ar  1 <1>   0.1900 
  3 C       -2.5290     1.3120     0.9460 C.ar  1 <1>   0.0830 
  4 C       -3.4170    -0.9050     0.5230 C.ar  1 <1>  -0.1500 
  5 O       -1.5680     2.2360     1.2340 O.3   1 <1>  -0.3630 
  6 C       -3.8050     1.8200     0.7630 C.ar  1 <1>  -0.1500 
  7 C       -4.6780    -0.3650     0.3490 C.ar  1 <1>  -0.1500 
  8 C       -0.2090     1.9040     1.4100 C.3   1 <1>   0.0400 
  9 C       -4.9040     1.0100     0.4620 C.ar  1 <1>   0.0530 
 10 C       -6.2160     1.5890     0.2850 C.2   1 <1>   0.0870 
 11 O       -6.4880     2.7680     0.7860 O.3   1 <1>  -0.0190 
 12 C       -7.3510     1.1590    -0.3280 C.2   1 <1>  -0.0860 
 13 N       -7.7120     3.1570     0.5500 N.2   1 <1>  -0.4100 
 14 C       -8.2530     2.2100    -0.1330 C.2   1 <1>   0.3720 
 15 C       -7.6210    -0.0590    -1.0220 C.2   1 <1>   0.7160 
 16 N       -9.5710     2.2510    -0.6150 N.pl3 1 <1>  -0.8210 
 17 O       -7.0170    -0.3190    -2.0470 O.2   1 <1>  -0.5700 
 18 N       -8.5130    -0.9840    -0.5350 N.am  1 <1>  -0.6600 
 19 C       -9.6880     2.3250    -2.0970 C.3   1 <1>   0.1290 
 20 C      -10.4820     3.2130     0.0670 C.3   1 <1>   0.1290 
 21 C       -8.8740    -2.2240    -1.2530 C.3   1 <1>   0.1400 
 22 C       -9.3420    -0.8040     0.6750 C.3   1 <1>   0.1400 
 23 C      -10.1010    -2.7600    -0.5150 C.3   1 <1>  -0.0800 
 24 C       -9.9910    -2.1640     0.8900 C.3   1 <1>  -0.1600 
 25 C      -10.1940    -4.2950    -0.5300 C.3   1 <1>  -0.0990 
 26 C      -11.4390    -4.7880     0.1790 C.2   1 <1>   0.5690 
 27 O      -12.5040    -4.6790    -0.3770 O.2   1 <1>  -0.5700 
 28 N      -11.3150    -5.3290     1.4190 N.am  1 <1>  -0.7300 
 29 C      -12.4400    -5.8510     2.2350 C.3   1 <1>   0.0600 
 30 H       -3.2530    -1.9640     0.4310 H     1 <1>   0.1500 
 31 H       -3.9420     2.8820     0.8570 H     1 <1>   0.1500 
 32 H       -5.4910    -1.0290     0.1230 H     1 <1>   0.1500 
 33 H        0.3350     2.8110     1.6030 H     1 <1>   0.0800 
 34 H        0.1590     1.4440     0.5100 H     1 <1>   0.0800 
 35 H       -0.1160     1.2390     2.2500 H     1 <1>   0.0800 
 36 H       -8.9870     1.6580    -2.5690 H     1 <1>   0.0800 
 37 H       -9.4870     3.3280    -2.4330 H     1 <1>   0.0800 
 38 H      -10.6820     2.0420    -2.3980 H     1 <1>   0.0800 
 39 H      -10.3940     3.1030     1.1350 H     1 <1>   0.0800 
 40 H      -11.5010     3.0190    -0.2170 H     1 <1>   0.0800 
 41 H      -10.2220     4.2230    -0.2000 H     1 <1>   0.0800 
 42 H       -8.0490    -2.9130    -1.1920 H     1 <1>   0.0800 
 43 H       -9.0940    -2.0170    -2.2870 H     1 <1>   0.0800 
 44 H      -10.0980    -0.0620     0.4800 H     1 <1>   0.0800 
 45 H       -8.7460    -0.5040     1.5200 H     1 <1>   0.0800 
 46 H      -10.9770    -2.3530    -0.9950 H     1 <1>   0.0800 
 47 H      -10.9500    -2.0730     1.3710 H     1 <1>   0.0800 
 48 H       -9.3440    -2.7620     1.5070 H     1 <1>   0.0800 
 49 H       -9.3230    -4.7260    -0.0740 H     1 <1>   0.0800 
 50 H      -10.2380    -4.6380    -1.5480 H     1 <1>   0.0800 
 51 H      -10.3880    -5.4020     1.8420 H     1 <1>   0.3700 
 52 H      -13.3720    -5.7360     1.7070 H     1 <1>   0.0800 
 53 H      -12.5000    -5.3100     3.1630 H     1 <1>   0.0800 
 54 H      -12.2860    -6.8960     2.4420 H     1 <1>   0.0800 
@<TRIPOS>BOND
  1   1   2  1   
  2   2   3  ar  
  3   2   4  ar  
  4   3   5  1   
  5   3   6  ar  
  6   4   7  ar  
  7   4  30  1   
  8   5   8  1   
  9   6   9  ar  
 10   6  31  1   
 11   7   9  ar  
 12   7  32  1   
 13   8  33  1   
 14   8  34  1   
 15   8  35  1   
 16   9  10  1   
 17  10  11  1   
 18  10  12  2   
 19  11  13  1   
 20  12  14  1   
 21  12  15  1   
 22  13  14  2   
 23  14  16  1   
 24  15  17  2   
 25  15  18  am  
 26  16  19  1   
 27  16  20  1   
 28  18  21  1   
 29  18  22  1   
 30  19  36  1   
 31  19  37  1   
 32  19  38  1   
 33  20  39  1   
 34  20  40  1   
 35  20  41  1   
 36  21  23  1   
 37  21  42  1   
 38  21  43  1   
 39  22  24  1   
 40  22  44  1   
 41  22  45  1   
 42  23  24  1   
 43  23  25  1   
 44  23  46  1   
 45  24  47  1   
 46  24  48  1   
 47  25  26  1   
 48  25  49  1   
 49  25  50  1   
 50  26  27  2   
 51  26  28  am  
 52  28  29  1   
 53  28  51  1   
 54  29  52  1   
 55  29  53  1   
 56  29  54  1   
@<TRIPOS>SUBSTRUCTURE
  1 ****  15 GROUP 4 **** **** 0

# MOE 2024.06 (io_trps.svl 2023.06)
