@<TRIPOS>MOLECULE
NONAME
46 48 1 0 0 
SMALL
USER_CHARGES


@<TRIPOS>ATOM
  1 O       -0.6540     0.3320     0.3300 O.2   1 <1>  -0.5700 
  2 C       -1.6770     0.9350     0.0440 C.2   1 <1>   0.5440 
  3 N       -2.8620     0.2240     0.1300 N.am  1 <1>  -0.6600 
  4 C       -1.5840     2.3510    -0.3400 C.ar  1 <1>   0.3960 
  5 C       -4.2300     0.7680    -0.0250 C.3   1 <1>   0.1400 
  6 C       -2.9080    -1.2140     0.4680 C.3   1 <1>   0.1400 
  7 N       -2.5080     2.9360    -1.1010 N.ar  1 <1>  -0.6200 
  8 C       -0.4990     3.0960     0.0930 C.ar  1 <1>  -0.1500 
  9 C       -5.1530    -0.2700     0.6270 C.3   1 <1>  -0.0800 
 10 C       -4.3900    -1.6010     0.4870 C.3   1 <1>  -0.0800 
 11 C       -2.3190     4.2070    -1.3690 C.ar  1 <1>   0.7200 
 12 C       -0.4070     4.4170    -0.2680 C.ar  1 <1>   0.1660 
 13 C       -6.6290    -0.2990     0.1210 C.3   1 <1>   0.2800 
 14 C       -4.8200    -2.3510    -0.7830 C.3   1 <1>  -0.1600 
 15 N       -1.3200     4.9880    -1.0080 N.ar  1 <1>  -0.6200 
 16 N       -3.2530     4.7800    -2.1280 N.pl3 1 <1>  -0.9000 
 17 C        0.7590     5.2760     0.1740 C.3   1 <1>  -0.0970 
 18 O       -6.7010     0.1460    -1.1860 O.3   1 <1>  -0.6800 
 19 C       -7.1580    -1.7460     0.1160 C.3   1 <1>  -0.1600 
 20 C       -7.5660     0.6030     0.9550 C.3   1 <1>  -0.1600 
 21 C       -6.3170    -2.7090    -0.7510 C.3   1 <1>  -0.1600 
 22 C       -7.2050     2.0990     0.9780 C.3   1 <1>  -0.2400 
 23 H       -4.3210     1.7280     0.4500 H     1 <1>   0.0800 
 24 H       -4.4270     0.8720    -1.0780 H     1 <1>   0.0800 
 25 H       -2.3510    -1.7850    -0.2560 H     1 <1>   0.0800 
 26 H       -2.4700    -1.3570     1.4400 H     1 <1>   0.0800 
 27 H        0.2570     2.6360     0.7020 H     1 <1>   0.1500 
 28 H       -5.1710    -0.0510     1.6800 H     1 <1>   0.0800 
 29 H       -4.5770    -2.2360     1.3360 H     1 <1>   0.0800 
 30 H       -4.6300    -1.7190    -1.6360 H     1 <1>   0.0800 
 31 H       -4.2360    -3.2460    -0.9070 H     1 <1>   0.0800 
 32 H       -3.8290     4.1410    -2.6690 H     1 <1>   0.4000 
 33 H       -2.9690     5.6420    -2.5840 H     1 <1>   0.4000 
 34 H        1.4500     4.7130     0.7740 H     1 <1>   0.0800 
 35 H        0.3950     6.1070     0.7490 H     1 <1>   0.0800 
 36 H        1.2760     5.6530    -0.6900 H     1 <1>   0.0800 
 37 H       -7.6160     0.0580    -1.5060 H     1 <1>   0.4000 
 38 H       -7.1410    -2.1050     1.1300 H     1 <1>   0.0800 
 39 H       -8.1840    -1.7730    -0.2050 H     1 <1>   0.0800 
 40 H       -8.5700     0.5000     0.5820 H     1 <1>   0.0800 
 41 H       -7.5750     0.2440     1.9690 H     1 <1>   0.0800 
 42 H       -6.4400    -3.7090    -0.3720 H     1 <1>   0.0800 
 43 H       -6.6890    -2.6980    -1.7610 H     1 <1>   0.0800 
 44 H       -7.1230     2.4880    -0.0220 H     1 <1>   0.0800 
 45 H       -6.2740     2.2610     1.4900 H     1 <1>   0.0800 
 46 H       -7.9700     2.6510     1.4940 H     1 <1>   0.0800 
@<TRIPOS>BOND
  1   1   2  2   
  2   2   3  am  
  3   2   4  1   
  4   3   5  1   
  5   3   6  1   
  6   4   7  ar  
  7   4   8  ar  
  8   5   9  1   
  9   5  23  1   
 10   5  24  1   
 11   6  10  1   
 12   6  25  1   
 13   6  26  1   
 14   7  11  ar  
 15   8  12  ar  
 16   8  27  1   
 17   9  10  1   
 18   9  13  1   
 19   9  28  1   
 20  10  14  1   
 21  10  29  1   
 22  11  15  ar  
 23  11  16  1   
 24  12  15  ar  
 25  12  17  1   
 26  13  18  1   
 27  13  19  1   
 28  13  20  1   
 29  14  21  1   
 30  14  30  1   
 31  14  31  1   
 32  16  32  1   
 33  16  33  1   
 34  17  34  1   
 35  17  35  1   
 36  17  36  1   
 37  18  37  1   
 38  19  21  1   
 39  19  38  1   
 40  19  39  1   
 41  20  22  1   
 42  20  40  1   
 43  20  41  1   
 44  21  42  1   
 45  21  43  1   
 46  22  44  1   
 47  22  45  1   
 48  22  46  1   
@<TRIPOS>SUBSTRUCTURE
  1 ****   5 GROUP 4 **** **** 0

# MOE 2024.06 (io_trps.svl 2023.06)
