@<TRIPOS>MOLECULE
NONAME
50 53 1 0 0 
SMALL
USER_CHARGES


@<TRIPOS>ATOM
  1 F       -2.1600     2.7300    -3.2540 F     1 <1>  -0.3400 
  2 C       -3.1190     1.8090    -3.2320 C.3   1 <1>   1.1640 
  3 F       -4.0150     2.1800    -4.1420 F     1 <1>  -0.3400 
  4 F       -2.5620     0.6990    -3.7130 F     1 <1>  -0.3400 
  5 C       -3.7380     1.6110    -1.8240 C.ar  1 <1>   0.1660 
  6 N       -4.3460     2.6290    -1.2240 N.ar  1 <1>  -0.6200 
  7 C       -3.6720     0.3900    -1.1960 C.ar  1 <1>  -0.1500 
  8 C       -4.8510     2.4060    -0.0150 C.ar  1 <1>   0.7200 
  9 C       -4.2410     0.2700     0.0520 C.ar  1 <1>   0.4100 
 10 N       -4.8060     1.2710     0.6630 N.ar  1 <1>  -0.6200 
 11 N       -5.5240     3.4490     0.5750 N.pl3 1 <1>  -0.8380 
 12 N       -4.2940    -0.9140     0.7160 N.pl3 1 <1>  -0.8690 
 13 C       -5.8790     3.4760     2.0110 C.3   1 <1>   0.2090 
 14 C       -5.6060     4.7990    -0.0230 C.3   1 <1>   0.2090 
 15 C       -5.2600    -1.9320     0.2330 C.3   1 <1>   0.2890 
 16 C       -6.0320     4.9550     2.3470 C.3   1 <1>  -0.1600 
 17 C       -6.3510     5.6290     1.0140 C.3   1 <1>  -0.1600 
 18 C       -6.7000    -1.4570     0.4130 C.3   1 <1>  -0.0800 
 19 C       -5.2160    -3.2190     1.0470 C.3   1 <1>   0.1200 
 20 C       -7.4220    -2.6660     1.0160 C.3   1 <1>   0.1200 
 21 C       -7.3180    -0.9640    -0.9050 C.3   1 <1>  -0.0170 
 22 O       -6.5130    -3.7200     0.9950 O.3   1 <1>  -0.5600 
 23 C       -8.5890    -0.1750    -0.6440 C.ar  1 <1>  -0.1430 
 24 C       -9.8500    -0.7190    -0.7730 C.ar  1 <1>  -0.1500 
 25 C       -8.5310     1.1500    -0.2620 C.ar  1 <1>  -0.1500 
 26 C      -10.9610     0.0670    -0.5160 C.ar  1 <1>   0.1600 
 27 C       -9.7030     1.8480    -0.0300 C.ar  1 <1>   0.1600 
 28 N      -10.9190     1.3370    -0.1460 N.ar  1 <1>  -0.6200 
 29 H       -3.2000    -0.4690    -1.6330 H     1 <1>   0.1500 
 30 H       -4.4480    -0.7300     1.7110 H     1 <1>   0.4000 
 31 H       -6.8110     2.9550     2.1520 H     1 <1>   0.0800 
 32 H       -5.1120     3.0160     2.6120 H     1 <1>   0.0800 
 33 H       -4.6100     5.1820    -0.1710 H     1 <1>   0.0800 
 34 H       -6.1280     4.7720    -0.9640 H     1 <1>   0.0800 
 35 H       -5.0600    -2.1730    -0.7970 H     1 <1>   0.0800 
 36 H       -6.7960     5.1200     3.0850 H     1 <1>   0.0800 
 37 H       -5.0940     5.3220     2.7250 H     1 <1>   0.0800 
 38 H       -6.0490     6.6600     0.9910 H     1 <1>   0.0800 
 39 H       -7.4060     5.5650     0.8150 H     1 <1>   0.0800 
 40 H       -6.7390    -0.6620     1.1370 H     1 <1>   0.0800 
 41 H       -4.9760    -3.0240     2.0770 H     1 <1>   0.0800 
 42 H       -4.5410    -3.9430     0.6280 H     1 <1>   0.0800 
 43 H       -8.2950    -2.9550     0.4580 H     1 <1>   0.0800 
 44 H       -7.6940    -2.4790     2.0410 H     1 <1>   0.0800 
 45 H       -7.5180    -1.7950    -1.5600 H     1 <1>   0.0800 
 46 H       -6.6240    -0.3150    -1.4090 H     1 <1>   0.0800 
 47 H       -9.9800    -1.7430    -1.0710 H     1 <1>   0.1500 
 48 H       -7.5860     1.6480    -0.1410 H     1 <1>   0.1500 
 49 H      -11.9380    -0.3730    -0.6210 H     1 <1>   0.1500 
 50 H       -9.6350     2.8800     0.2660 H     1 <1>   0.1500 
@<TRIPOS>BOND
  1   1   2  1   
  2   2   3  1   
  3   2   4  1   
  4   2   5  1   
  5   5   6  ar  
  6   5   7  ar  
  7   6   8  ar  
  8   7   9  ar  
  9   7  29  1   
 10   8  10  ar  
 11   8  11  1   
 12   9  10  ar  
 13   9  12  1   
 14  11  13  1   
 15  11  14  1   
 16  12  15  1   
 17  12  30  1   
 18  13  16  1   
 19  13  31  1   
 20  13  32  1   
 21  14  17  1   
 22  14  33  1   
 23  14  34  1   
 24  15  18  1   
 25  15  19  1   
 26  15  35  1   
 27  16  17  1   
 28  16  36  1   
 29  16  37  1   
 30  17  38  1   
 31  17  39  1   
 32  18  20  1   
 33  18  21  1   
 34  18  40  1   
 35  19  22  1   
 36  19  41  1   
 37  19  42  1   
 38  20  22  1   
 39  20  43  1   
 40  20  44  1   
 41  21  23  1   
 42  21  45  1   
 43  21  46  1   
 44  23  24  ar  
 45  23  25  ar  
 46  24  26  ar  
 47  24  47  1   
 48  25  27  ar  
 49  25  48  1   
 50  26  28  ar  
 51  26  49  1   
 52  27  28  ar  
 53  27  50  1   
@<TRIPOS>SUBSTRUCTURE
  1 ****  10 GROUP 4 **** **** 0

# MOE 2024.06 (io_trps.svl 2023.06)
