@<TRIPOS>MOLECULE
NONAME
52 53 1 0 0 
SMALL
USER_CHARGES


@<TRIPOS>ATOM
  1 S        1.5590     0.1190     0.9630 S.o2  1 <1>   1.3330 
  2 O        0.3190    -0.4330     0.4660 O.2   1 <1>  -0.6500 
  3 O        2.2990    -0.5960     1.9790 O.2   1 <1>  -0.6500 
  4 N        1.2200     1.6700     1.5650 N.am  1 <1>  -0.8490 
  5 C        2.6610     0.4170    -0.4190 C.3   1 <1>  -0.0550 
  6 C        0.6400     1.6140     2.9080 C.3   1 <1>   0.1160 
  7 C        0.3590     2.4640     0.6810 C.3   1 <1>   0.1160 
  8 C        3.9280     1.2110    -0.0510 C.3   1 <1>  -0.0800 
  9 C        4.6990     1.6430    -1.2950 C.3   1 <1>   0.2200 
 10 C        4.9490     0.4170     0.7660 C.3   1 <1>   0.1200 
 11 N        4.7540     3.1180    -1.3420 N.am  1 <1>  -0.7300 
 12 C        6.0860     1.0380    -1.0910 C.3   1 <1>   0.1200 
 13 O        6.1940     0.7960     0.2730 O.3   1 <1>  -0.5600 
 14 C        3.7250     3.9160    -1.7240 C.2   1 <1>   0.5690 
 15 O        2.6880     3.4530    -2.1370 O.2   1 <1>  -0.5700 
 16 C        3.8620     5.4260    -1.6090 C.3   1 <1>   0.0440 
 17 C        5.1180     5.8570    -0.8560 C.ar  1 <1>  -0.1440 
 18 C        5.1760     5.7330     0.5220 C.ar  1 <1>  -0.1500 
 19 C        6.2180     6.3540    -1.5350 C.ar  1 <1>  -0.1500 
 20 C        6.3150     6.0850     1.2260 C.ar  1 <1>   0.0820 
 21 C        7.3590     6.7260    -0.8440 C.ar  1 <1>  -0.1500 
 22 O        6.2540     5.8920     2.5710 O.3   1 <1>  -0.3620 
 23 C        7.4240     6.6040     0.5420 C.ar  1 <1>   0.0820 
 24 C        7.3500     5.3030     3.2380 C.3   1 <1>   0.0400 
 25 O        8.5290     6.9920     1.2450 O.3   1 <1>  -0.3630 
 26 C        9.5820     7.7110     0.6420 C.3   1 <1>   0.0400 
 27 H        2.9420    -0.5210    -0.8560 H     1 <1>   0.0800 
 28 H        2.1230     0.9680    -1.1660 H     1 <1>   0.0800 
 29 H        0.4660     2.6080     3.2820 H     1 <1>   0.0800 
 30 H        1.3180     1.1150     3.5810 H     1 <1>   0.0800 
 31 H       -0.2910     1.0710     2.8920 H     1 <1>   0.0800 
 32 H        0.2110     3.4470     1.0950 H     1 <1>   0.0800 
 33 H       -0.6000     1.9870     0.5580 H     1 <1>   0.0800 
 34 H        0.8180     2.5770    -0.2870 H     1 <1>   0.0800 
 35 H        3.6450     2.0750     0.5260 H     1 <1>   0.0800 
 36 H        4.2600     1.2740    -2.2070 H     1 <1>   0.0800 
 37 H        4.8430    -0.6450     0.6210 H     1 <1>   0.0800 
 38 H        4.9000     0.6470     1.8170 H     1 <1>   0.0800 
 39 H        5.5470     3.5460    -0.8520 H     1 <1>   0.3700 
 40 H        6.8810     1.6910    -1.4050 H     1 <1>   0.0800 
 41 H        6.1650     0.0910    -1.5970 H     1 <1>   0.0800 
 42 H        3.8620     5.8400    -2.6000 H     1 <1>   0.0800 
 43 H        2.9950     5.8060    -1.1000 H     1 <1>   0.0800 
 44 H        4.3340     5.3490     1.0720 H     1 <1>   0.1500 
 45 H        6.1960     6.4570    -2.6060 H     1 <1>   0.1500 
 46 H        8.1870     7.1080    -1.4090 H     1 <1>   0.1500 
 47 H        6.9880     4.8530     4.1440 H     1 <1>   0.0800 
 48 H        8.0650     6.0690     3.4750 H     1 <1>   0.0800 
 49 H        7.7900     4.5540     2.6030 H     1 <1>   0.0800 
 50 H       10.2860     7.9770     1.4090 H     1 <1>   0.0800 
 51 H        9.1820     8.6020     0.1900 H     1 <1>   0.0800 
 52 H       10.0590     7.0850    -0.0900 H     1 <1>   0.0800 
@<TRIPOS>BOND
  1   1   2  2   
  2   1   3  2   
  3   1   4  am  
  4   1   5  1   
  5   4   6  1   
  6   4   7  1   
  7   5   8  1   
  8   5  27  1   
  9   5  28  1   
 10   6  29  1   
 11   6  30  1   
 12   6  31  1   
 13   7  32  1   
 14   7  33  1   
 15   7  34  1   
 16   8   9  1   
 17   8  10  1   
 18   8  35  1   
 19   9  11  1   
 20   9  12  1   
 21   9  36  1   
 22  10  13  1   
 23  10  37  1   
 24  10  38  1   
 25  11  14  am  
 26  11  39  1   
 27  12  13  1   
 28  12  40  1   
 29  12  41  1   
 30  14  15  2   
 31  14  16  1   
 32  16  17  1   
 33  16  42  1   
 34  16  43  1   
 35  17  18  ar  
 36  17  19  ar  
 37  18  20  ar  
 38  18  44  1   
 39  19  21  ar  
 40  19  45  1   
 41  20  22  1   
 42  20  23  ar  
 43  21  23  ar  
 44  21  46  1   
 45  22  24  1   
 46  23  25  1   
 47  24  47  1   
 48  24  48  1   
 49  24  49  1   
 50  25  26  1   
 51  26  50  1   
 52  26  51  1   
 53  26  52  1   
@<TRIPOS>SUBSTRUCTURE
  1 ****  11 GROUP 4 **** **** 0

# MOE 2024.06 (io_trps.svl 2023.06)
