@<TRIPOS>MOLECULE
NONAME
45 47 1 0 0 
SMALL
USER_CHARGES


@<TRIPOS>ATOM
  1 O        1.3230    -0.4240    -2.0040 O.2   1 <1>  -0.5700 
  2 C        1.9960    -0.8170    -1.0700 C.2   1 <1>   0.5440 
  3 N        2.9970     0.0110    -0.5950 N.am  1 <1>  -0.6600 
  4 C        1.7140    -2.1100    -0.4810 C.ar  1 <1>   0.0860 
  5 C        3.4720    -0.0640     0.8400 C.3   1 <1>   0.2200 
  6 C        3.4110     1.1830    -1.4350 C.3   1 <1>   0.1400 
  7 C        0.4070    -2.5060    -0.1830 C.ar  1 <1>   0.0830 
  8 C        2.7390    -3.0030    -0.1680 C.ar  1 <1>  -0.1500 
  9 C        3.2650     1.2530     1.6060 C.3   1 <1>   0.1200 
 10 C        4.9510    -0.5180     0.9160 C.3   1 <1>   0.3430 
 11 C        4.6640     1.9380    -0.9520 C.3   1 <1>  -0.0800 
 12 O       -0.6320    -1.7300    -0.5340 O.3   1 <1>  -0.5330 
 13 C        0.1460    -3.7020     0.4630 C.ar  1 <1>  -0.1500 
 14 C        2.4930    -4.1980     0.4800 C.ar  1 <1>   0.0830 
 15 O        4.3580     2.1040     1.4330 O.3   1 <1>  -0.5600 
 16 N        5.6660    -0.3500    -0.3980 N.4   1 <1>  -0.9590 
 17 C        4.3650     2.8380     0.2560 C.3   1 <1>   0.1200 
 18 C        5.9330     1.0840    -0.7380 C.3   1 <1>   0.3430 
 19 C        1.1840    -4.5490     0.8030 C.ar  1 <1>  -0.1500 
 20 O        3.5790    -4.9590     0.7650 O.3   1 <1>  -0.3620 
 21 C        6.9130    -1.1680    -0.4490 C.3   1 <1>   0.2630 
 22 C        3.4280    -6.2610     1.2920 C.3   1 <1>   0.0400 
 23 H        2.8790    -0.7910     1.3660 H     1 <1>   0.0800 
 24 H        3.5830     0.8310    -2.4390 H     1 <1>   0.0800 
 25 H        2.5820     1.8700    -1.4890 H     1 <1>   0.0800 
 26 H        3.7500    -2.7720    -0.4350 H     1 <1>   0.1500 
 27 H        3.2090     1.0430     2.6600 H     1 <1>   0.0800 
 28 H        2.3530     1.7480     1.3150 H     1 <1>   0.0800 
 29 H        4.9620    -1.5580     1.1960 H     1 <1>   0.0800 
 30 H        5.4600     0.0300     1.6930 H     1 <1>   0.0800 
 31 H        4.9040     2.6280    -1.7420 H     1 <1>   0.0800 
 32 H       -0.3740    -1.0330    -1.1820 H     1 <1>   0.4500 
 33 H       -0.8730    -3.9660     0.6900 H     1 <1>   0.1500 
 34 H        4.9900    -0.6840    -1.1040 H     1 <1>   0.4500 
 35 H        3.4220     3.3520     0.1520 H     1 <1>   0.0800 
 36 H        5.1380     3.5810     0.3590 H     1 <1>   0.0800 
 37 H        6.5330     1.5350     0.0360 H     1 <1>   0.0800 
 38 H        6.5060     1.1140    -1.6510 H     1 <1>   0.0800 
 39 H        0.9570    -5.4690     1.3090 H     1 <1>   0.1500 
 40 H        7.6150    -0.8260     0.2950 H     1 <1>   0.0800 
 41 H        7.3730    -1.0890    -1.4210 H     1 <1>   0.0800 
 42 H        6.6890    -2.2060    -0.2600 H     1 <1>   0.0800 
 43 H        4.4040    -6.7020     1.3850 H     1 <1>   0.0800 
 44 H        2.8280    -6.8460     0.6160 H     1 <1>   0.0800 
 45 H        2.9630    -6.1970     2.2600 H     1 <1>   0.0800 
@<TRIPOS>BOND
  1   1   2  2   
  2   2   3  am  
  3   2   4  1   
  4   3   5  1   
  5   3   6  1   
  6   4   7  ar  
  7   4   8  ar  
  8   5   9  1   
  9   5  10  1   
 10   5  23  1   
 11   6  11  1   
 12   6  24  1   
 13   6  25  1   
 14   7  12  1   
 15   7  13  ar  
 16   8  14  ar  
 17   8  26  1   
 18   9  15  1   
 19   9  27  1   
 20   9  28  1   
 21  10  16  1   
 22  10  29  1   
 23  10  30  1   
 24  11  17  1   
 25  11  18  1   
 26  11  31  1   
 27  12  32  1   
 28  13  19  ar  
 29  13  33  1   
 30  14  19  ar  
 31  14  20  1   
 32  15  17  1   
 33  16  18  1   
 34  16  21  1   
 35  16  34  1   
 36  17  35  1   
 37  17  36  1   
 38  18  37  1   
 39  18  38  1   
 40  19  39  1   
 41  20  22  1   
 42  21  40  1   
 43  21  41  1   
 44  21  42  1   
 45  22  43  1   
 46  22  44  1   
 47  22  45  1   
@<TRIPOS>SUBSTRUCTURE
  1 ****   3 GROUP 4 **** **** 0

# MOE 2024.06 (io_trps.svl 2023.06)
