@<TRIPOS>MOLECULE
NONAME
50 51 1 0 0 
SMALL
USER_CHARGES


@<TRIPOS>ATOM
  1 S        0.3490     0.0610    -0.4770 S.o2  1 <1>   1.3330 
  2 O        1.7340     0.1310    -0.0660 O.2   1 <1>  -0.6500 
  3 O        0.0240     0.0790    -1.8850 O.2   1 <1>  -0.6500 
  4 N       -0.3320    -1.3340     0.2110 N.am  1 <1>  -0.8490 
  5 C       -0.5590     1.3920     0.3050 C.3   1 <1>  -0.0550 
  6 C       -0.2230    -2.4990    -0.6730 C.3   1 <1>   0.1160 
  7 C        0.2130    -1.6580     1.5340 C.3   1 <1>   0.1160 
  8 C       -0.1390     2.7860    -0.2020 C.3   1 <1>  -0.0800 
  9 C       -0.9260     3.9470     0.4070 C.3   1 <1>   0.2000 
 10 C        1.3290     3.1340     0.0830 C.3   1 <1>   0.2090 
 11 O       -1.0190     3.7560     1.7780 O.3   1 <1>  -0.6800 
 12 C       -0.0150     5.1460     0.1610 C.3   1 <1>   0.2090 
 13 N        1.3620     4.6010     0.3380 N.pl3 1 <1>  -0.8380 
 14 C        2.4710     5.3530    -0.0120 C.ar  1 <1>   0.4100 
 15 N        2.2520     6.5780    -0.4780 N.ar  1 <1>  -0.6200 
 16 C        3.7540     4.8310     0.1440 C.ar  1 <1>  -0.1500 
 17 C        3.3150     7.2860    -0.8010 C.ar  1 <1>   0.1600 
 18 C        4.8580     5.5790    -0.1880 C.ar  1 <1>  -0.1500 
 19 C        4.6240     6.8560    -0.6670 C.ar  1 <1>  -0.1440 
 20 C        5.7690     7.7770    -1.0220 C.3   1 <1>   0.4860 
 21 N        6.4240     8.2280     0.2410 N.4   1 <1>  -0.9590 
 22 C        5.4960     9.0410     1.0940 C.3   1 <1>   0.2630 
 23 C        7.6930     8.9670    -0.0320 C.3   1 <1>   0.2630 
 24 H       -1.6060     1.2570     0.1140 H     1 <1>   0.0800 
 25 H       -0.4140     1.3380     1.3660 H     1 <1>   0.0800 
 26 H       -0.6810    -3.3590    -0.2160 H     1 <1>   0.0800 
 27 H        0.8120    -2.7160    -0.8810 H     1 <1>   0.0800 
 28 H       -0.7290    -2.3040    -1.6040 H     1 <1>   0.0800 
 29 H       -0.3130    -2.4980     1.9540 H     1 <1>   0.0800 
 30 H        0.0980    -0.8200     2.1990 H     1 <1>   0.0800 
 31 H        1.2610    -1.9010     1.4610 H     1 <1>   0.0800 
 32 H       -0.2760     2.8180    -1.2690 H     1 <1>   0.0800 
 33 H       -1.9160     4.0650     0.0000 H     1 <1>   0.0800 
 34 H        1.9550     2.8700    -0.7530 H     1 <1>   0.0800 
 35 H        1.6780     2.6220     0.9640 H     1 <1>   0.0800 
 36 H       -0.1410     3.9720     2.1600 H     1 <1>   0.4000 
 37 H       -0.2130     5.9520     0.8460 H     1 <1>   0.0800 
 38 H       -0.1340     5.4980    -0.8500 H     1 <1>   0.0800 
 39 H        3.8730     3.8380     0.5320 H     1 <1>   0.1500 
 40 H        3.1170     8.2720    -1.1870 H     1 <1>   0.1500 
 41 H        5.8480     5.1710    -0.0730 H     1 <1>   0.1500 
 42 H        5.4050     8.6250    -1.5790 H     1 <1>   0.0800 
 43 H        6.4750     7.2420    -1.6370 H     1 <1>   0.0800 
 44 H        6.6420     7.3690     0.7680 H     1 <1>   0.4500 
 45 H        5.1950     9.9380     0.5760 H     1 <1>   0.0800 
 46 H        5.9820     9.3220     2.0140 H     1 <1>   0.0800 
 47 H        4.6130     8.4710     1.3380 H     1 <1>   0.0800 
 48 H        7.4920     9.8690    -0.5870 H     1 <1>   0.0800 
 49 H        8.3710     8.3540    -0.6030 H     1 <1>   0.0800 
 50 H        8.1750     9.2360     0.8950 H     1 <1>   0.0800 
@<TRIPOS>BOND
  1   1   2  2   
  2   1   3  2   
  3   1   4  am  
  4   1   5  1   
  5   4   6  1   
  6   4   7  1   
  7   5   8  1   
  8   5  24  1   
  9   5  25  1   
 10   6  26  1   
 11   6  27  1   
 12   6  28  1   
 13   7  29  1   
 14   7  30  1   
 15   7  31  1   
 16   8   9  1   
 17   8  10  1   
 18   8  32  1   
 19   9  11  1   
 20   9  12  1   
 21   9  33  1   
 22  10  13  1   
 23  10  34  1   
 24  10  35  1   
 25  11  36  1   
 26  12  13  1   
 27  12  37  1   
 28  12  38  1   
 29  13  14  1   
 30  14  15  ar  
 31  14  16  ar  
 32  15  17  ar  
 33  16  18  ar  
 34  16  39  1   
 35  17  19  ar  
 36  17  40  1   
 37  18  19  ar  
 38  18  41  1   
 39  19  20  1   
 40  20  21  1   
 41  20  42  1   
 42  20  43  1   
 43  21  22  1   
 44  21  23  1   
 45  21  44  1   
 46  22  45  1   
 47  22  46  1   
 48  22  47  1   
 49  23  48  1   
 50  23  49  1   
 51  23  50  1   
@<TRIPOS>SUBSTRUCTURE
  1 ****  13 GROUP 4 **** **** 0

# MOE 2024.06 (io_trps.svl 2023.06)
