@<TRIPOS>MOLECULE
NONAME
39 41 1 0 0 
SMALL
USER_CHARGES


@<TRIPOS>ATOM
  1 CL       0.2120     0.3300     0.4050 Cl    1 <1>  -0.1770 
  2 C        0.0330    -1.4030     0.3350 C.ar  1 <1>   0.1770 
  3 C       -0.6450    -1.9910    -0.7170 C.ar  1 <1>   0.1600 
  4 C        0.5670    -2.1870     1.3300 C.ar  1 <1>  -0.1500 
  5 N       -0.8330    -3.2940    -0.8470 N.ar  1 <1>  -0.6200 
  6 C        0.3800    -3.5470     1.1990 C.ar  1 <1>  -0.1500 
  7 C       -0.3190    -4.0920     0.1140 C.ar  1 <1>   0.3960 
  8 C       -0.4640    -5.5520     0.0440 C.2   1 <1>   0.5440 
  9 O        0.4790    -6.2420     0.4010 O.2   1 <1>  -0.5700 
 10 N       -1.6160    -6.2110    -0.3710 N.am  1 <1>  -0.6600 
 11 C       -2.9320    -5.5150    -0.4920 C.3   1 <1>   0.2200 
 12 C       -1.5720    -7.6790    -0.6550 C.3   1 <1>   0.0600 
 13 C       -4.1040    -6.2440     0.1640 C.3   1 <1>  -0.1600 
 14 C       -3.3690    -5.3270    -1.9410 C.3   1 <1>  -0.1600 
 15 C       -5.3460    -5.6420    -0.5060 C.3   1 <1>  -0.0800 
 16 C       -4.8780    -5.0660    -1.8550 C.3   1 <1>  -0.0800 
 17 C       -5.9560    -4.4710     0.2770 C.3   1 <1>  -0.1600 
 18 C       -5.2350    -3.5720    -1.8360 C.3   1 <1>  -0.1600 
 19 C       -6.3280    -3.4510    -0.7870 C.3   1 <1>   0.2000 
 20 O       -6.3330    -2.1840    -0.2500 O.3   1 <1>  -0.6800 
 21 H       -1.0480    -1.3510    -1.4830 H     1 <1>   0.1500 
 22 H        1.1020    -1.7550     2.1570 H     1 <1>   0.1500 
 23 H        0.7820    -4.2150     1.9410 H     1 <1>   0.1500 
 24 H       -2.8760    -4.5450    -0.0310 H     1 <1>   0.0800 
 25 H       -2.2470    -7.9350    -1.4510 H     1 <1>   0.0800 
 26 H       -1.8420    -8.2250     0.2320 H     1 <1>   0.0800 
 27 H       -0.5790    -7.9740    -0.9510 H     1 <1>   0.0800 
 28 H       -4.0810    -7.2930    -0.0650 H     1 <1>   0.0800 
 29 H       -4.1060    -6.1150     1.2320 H     1 <1>   0.0800 
 30 H       -2.8360    -4.5220    -2.4160 H     1 <1>   0.0800 
 31 H       -3.2050    -6.2300    -2.4990 H     1 <1>   0.0800 
 32 H       -6.0960    -6.3990    -0.6660 H     1 <1>   0.0800 
 33 H       -5.3940    -5.5520    -2.6670 H     1 <1>   0.0800 
 34 H       -5.2260    -4.0490     0.9450 H     1 <1>   0.0800 
 35 H       -6.8200    -4.7810     0.8380 H     1 <1>   0.0800 
 36 H       -5.5790    -3.2390    -2.7990 H     1 <1>   0.0800 
 37 H       -4.3790    -2.9910    -1.5390 H     1 <1>   0.0800 
 38 H       -7.2980    -3.6620    -1.2080 H     1 <1>   0.0800 
 39 H       -5.4570    -1.9810     0.1260 H     1 <1>   0.4000 
@<TRIPOS>BOND
  1   1   2  1   
  2   2   3  ar  
  3   2   4  ar  
  4   3   5  ar  
  5   3  21  1   
  6   4   6  ar  
  7   4  22  1   
  8   5   7  ar  
  9   6   7  ar  
 10   6  23  1   
 11   7   8  1   
 12   8   9  2   
 13   8  10  am  
 14  10  11  1   
 15  10  12  1   
 16  11  13  1   
 17  11  14  1   
 18  11  24  1   
 19  12  25  1   
 20  12  26  1   
 21  12  27  1   
 22  13  15  1   
 23  13  28  1   
 24  13  29  1   
 25  14  16  1   
 26  14  30  1   
 27  14  31  1   
 28  15  16  1   
 29  15  17  1   
 30  15  32  1   
 31  16  18  1   
 32  16  33  1   
 33  17  19  1   
 34  17  34  1   
 35  17  35  1   
 36  18  19  1   
 37  18  36  1   
 38  18  37  1   
 39  19  20  1   
 40  19  38  1   
 41  20  39  1   
@<TRIPOS>SUBSTRUCTURE
  1 ****  11 GROUP 4 **** **** 0

# MOE 2024.06 (io_trps.svl 2023.06)
