@<TRIPOS>MOLECULE
NONAME
52 54 1 0 0 
SMALL
USER_CHARGES


@<TRIPOS>ATOM
  1 S        0.3220     0.5090     1.0420 S.o2  1 <1>   1.2040 
  2 O        0.3480    -0.4670     2.1100 O.2   1 <1>  -0.6500 
  3 O       -0.4020     0.2240    -0.1760 O.2   1 <1>  -0.6500 
  4 C        2.0060     1.0250     0.6450 C.ar  1 <1>  -0.0090 
  5 C       -0.3610     2.0090     1.7200 C.3   1 <1>  -0.1350 
  6 C        3.0450     0.8470     1.5490 C.ar  1 <1>  -0.1500 
  7 C        2.2900     1.6620    -0.5560 C.ar  1 <1>  -0.1500 
  8 C        4.3200     1.3090     1.2750 C.ar  1 <1>  -0.1500 
  9 C        3.5620     2.1270    -0.8360 C.ar  1 <1>  -0.1500 
 10 C        4.5890     1.9620     0.0830 C.ar  1 <1>  -0.1430 
 11 C        5.9830     2.5240    -0.1790 C.3   1 <1>   0.4330 
 12 N        5.8220     3.9790    -0.2890 N.pl3 1 <1>  -0.8690 
 13 C        6.6230     1.9990    -1.4710 C.3   1 <1>  -0.1600 
 14 C        6.3810     4.8610     0.6000 C.ar  1 <1>   0.4100 
 15 C        6.8040     0.4730    -1.4770 C.3   1 <1>  -0.2400 
 16 N        7.5580     4.5080     1.1140 N.ar  1 <1>  -0.6200 
 17 C        5.7170     6.0600     0.9150 C.ar  1 <1>   0.0860 
 18 C        8.0970     5.3410     1.9810 C.ar  1 <1>   0.1600 
 19 C        4.4590     6.3980     0.2920 C.2   1 <1>   0.5440 
 20 C        6.3120     6.9070     1.8410 C.ar  1 <1>  -0.1500 
 21 C        7.5230     6.5360     2.3780 C.ar  1 <1>  -0.1500 
 22 O        3.5270     5.6100     0.3120 O.2   1 <1>  -0.5700 
 23 N        4.2760     7.6070    -0.3420 N.am  1 <1>  -0.6600 
 24 C        2.9930     7.9820    -0.9770 C.3   1 <1>   0.1400 
 25 C        5.3770     8.4670    -0.8320 C.3   1 <1>   0.1400 
 26 C        3.2890     9.2710    -1.7340 C.3   1 <1>  -0.1600 
 27 C        4.7860     9.2120    -2.0230 C.3   1 <1>  -0.1600 
 28 H       -1.3820     1.8510     2.0050 H     1 <1>   0.0800 
 29 H       -0.3260     2.7970     0.9930 H     1 <1>   0.0800 
 30 H        0.1940     2.3140     2.5860 H     1 <1>   0.0800 
 31 H        2.8550     0.3460     2.4840 H     1 <1>   0.1500 
 32 H        1.5070     1.8040    -1.2810 H     1 <1>   0.1500 
 33 H        5.1020     1.1680     2.0020 H     1 <1>   0.1500 
 34 H        3.7450     2.6290    -1.7700 H     1 <1>   0.1500 
 35 H        6.6250     2.2780     0.6490 H     1 <1>   0.0800 
 36 H        4.8310     4.1880    -0.4710 H     1 <1>   0.4000 
 37 H        7.5890     2.4630    -1.5730 H     1 <1>   0.0800 
 38 H        6.0250     2.2890    -2.3150 H     1 <1>   0.0800 
 39 H        7.4080     0.1630    -0.6430 H     1 <1>   0.0800 
 40 H        7.2900     0.1650    -2.3860 H     1 <1>   0.0800 
 41 H        5.8500    -0.0230    -1.4180 H     1 <1>   0.0800 
 42 H        9.0470     5.0590     2.4020 H     1 <1>   0.1500 
 43 H        5.8310     7.8260     2.1260 H     1 <1>   0.1500 
 44 H        8.0220     7.1610     3.0970 H     1 <1>   0.1500 
 45 H        2.2270     8.1200    -0.2330 H     1 <1>   0.0800 
 46 H        2.6960     7.2020    -1.6580 H     1 <1>   0.0800 
 47 H        6.2340     7.8810    -1.1220 H     1 <1>   0.0800 
 48 H        5.6530     9.1620    -0.0580 H     1 <1>   0.0800 
 49 H        3.0720    10.1090    -1.0940 H     1 <1>   0.0800 
 50 H        2.7000     9.3520    -2.6300 H     1 <1>   0.0800 
 51 H        4.9630     8.6380    -2.9160 H     1 <1>   0.0800 
 52 H        5.2220    10.1880    -2.1420 H     1 <1>   0.0800 
@<TRIPOS>BOND
  1   1   2  2   
  2   1   3  2   
  3   1   4  1   
  4   1   5  1   
  5   4   6  ar  
  6   4   7  ar  
  7   5  28  1   
  8   5  29  1   
  9   5  30  1   
 10   6   8  ar  
 11   6  31  1   
 12   7   9  ar  
 13   7  32  1   
 14   8  10  ar  
 15   8  33  1   
 16   9  10  ar  
 17   9  34  1   
 18  10  11  1   
 19  11  12  1   
 20  11  13  1   
 21  11  35  1   
 22  12  14  1   
 23  12  36  1   
 24  13  15  1   
 25  13  37  1   
 26  13  38  1   
 27  14  16  ar  
 28  14  17  ar  
 29  15  39  1   
 30  15  40  1   
 31  15  41  1   
 32  16  18  ar  
 33  17  19  1   
 34  17  20  ar  
 35  18  21  ar  
 36  18  42  1   
 37  19  22  2   
 38  19  23  am  
 39  20  21  ar  
 40  20  43  1   
 41  21  44  1   
 42  23  24  1   
 43  23  25  1   
 44  24  26  1   
 45  24  45  1   
 46  24  46  1   
 47  25  27  1   
 48  25  47  1   
 49  25  48  1   
 50  26  27  1   
 51  26  49  1   
 52  26  50  1   
 53  27  51  1   
 54  27  52  1   
@<TRIPOS>SUBSTRUCTURE
  1 ****  12 GROUP 4 **** **** 0

# MOE 2024.06 (io_trps.svl 2023.06)
