@<TRIPOS>MOLECULE
NONAME
41 44 1 0 0 
SMALL
USER_CHARGES


@<TRIPOS>ATOM
  1 S       -0.1560     0.0800    -1.5380 S.3   1 <1>  -0.0800 
  2 C       -0.9270     1.1460    -0.3660 C.2   1 <1>   0.3250 
  3 C       -1.5890    -0.8920    -1.6020 C.2   1 <1>  -0.1100 
  4 N       -2.1310     0.7710    -0.0830 N.2   1 <1>  -0.5650 
  5 C       -0.1880     2.2810     0.1490 C.ar  1 <1>   0.3630 
  6 C       -2.5040    -0.3700    -0.7710 C.2   1 <1>   0.0460 
  7 N        1.0720     2.5050    -0.2520 N.ar  1 <1>  -0.6200 
  8 C       -0.8150     3.1320     1.0710 C.ar  1 <1>   0.1600 
  9 C       -3.9070    -0.9150    -0.5200 C.3   1 <1>   0.3900 
 10 C        1.6160     3.5720     0.3010 C.ar  1 <1>   0.1600 
 11 N       -0.2720     4.2020     1.6270 N.ar  1 <1>  -0.6200 
 12 N       -4.0380    -2.3060    -1.0080 N.pl3 1 <1>  -0.8690 
 13 C        0.9680     4.3950     1.2120 C.ar  1 <1>   0.1600 
 14 C       -5.1920    -2.9880    -0.8580 C.ar  1 <1>   0.7200 
 15 N       -5.0220    -4.2880    -0.7070 N.ar  1 <1>  -0.6200 
 16 N       -6.3260    -2.2960    -0.8650 N.ar  1 <1>  -0.6200 
 17 C       -6.1160    -5.0160    -0.5600 C.ar  1 <1>   0.4100 
 18 C       -7.4170    -3.0240    -0.7290 C.ar  1 <1>   0.1600 
 19 N       -5.9330    -6.3900    -0.4050 N.pl3 1 <1>  -0.8380 
 20 C       -7.3600    -4.3810    -0.5770 C.ar  1 <1>   0.1900 
 21 C       -6.8520    -7.2570     0.3690 C.3   1 <1>   0.2090 
 22 C       -4.5970    -7.0230    -0.5210 C.3   1 <1>   0.2090 
 23 F       -8.4910    -5.0480    -0.4590 F     1 <1>  -0.1900 
 24 C       -5.9790    -8.3860     0.9020 C.3   1 <1>  -0.1600 
 25 C       -4.8090    -8.4620    -0.0740 C.3   1 <1>  -0.1600 
 26 H       -1.5980    -1.7460    -2.2550 H     1 <1>   0.1500 
 27 H       -1.8270     2.9020     1.3560 H     1 <1>   0.1500 
 28 H       -4.6240    -0.2830    -1.0170 H     1 <1>   0.0800 
 29 H       -4.1110    -0.8930     0.5360 H     1 <1>   0.0800 
 30 H        2.6280     3.8100     0.0220 H     1 <1>   0.1500 
 31 H       -3.2450    -2.8990    -0.7780 H     1 <1>   0.4000 
 32 H        1.4940     5.2450     1.6110 H     1 <1>   0.1500 
 33 H       -8.3700    -2.5260    -0.7410 H     1 <1>   0.1500 
 34 H       -7.6060    -7.6470    -0.2940 H     1 <1>   0.0800 
 35 H       -7.3200    -6.7140     1.1730 H     1 <1>   0.0800 
 36 H       -3.9060    -6.5250     0.1390 H     1 <1>   0.0800 
 37 H       -4.2350    -6.9670    -1.5340 H     1 <1>   0.0800 
 38 H       -6.5210    -9.3130     0.9680 H     1 <1>   0.0800 
 39 H       -5.6210    -8.1170     1.8800 H     1 <1>   0.0800 
 40 H       -3.9230    -8.8760     0.3740 H     1 <1>   0.0800 
 41 H       -5.0830    -9.0550    -0.9290 H     1 <1>   0.0800 
@<TRIPOS>BOND
  1   1   2  1   
  2   1   3  1   
  3   2   4  2   
  4   2   5  1   
  5   3   6  2   
  6   3  26  1   
  7   4   6  1   
  8   5   7  ar  
  9   5   8  ar  
 10   6   9  1   
 11   7  10  ar  
 12   8  11  ar  
 13   8  27  1   
 14   9  12  1   
 15   9  28  1   
 16   9  29  1   
 17  10  13  ar  
 18  10  30  1   
 19  11  13  ar  
 20  12  14  1   
 21  12  31  1   
 22  13  32  1   
 23  14  15  ar  
 24  14  16  ar  
 25  15  17  ar  
 26  16  18  ar  
 27  17  19  1   
 28  17  20  ar  
 29  18  20  ar  
 30  18  33  1   
 31  19  21  1   
 32  19  22  1   
 33  20  23  1   
 34  21  24  1   
 35  21  34  1   
 36  21  35  1   
 37  22  25  1   
 38  22  36  1   
 39  22  37  1   
 40  24  25  1   
 41  24  38  1   
 42  24  39  1   
 43  25  40  1   
 44  25  41  1   
@<TRIPOS>SUBSTRUCTURE
  1 ****  12 GROUP 4 **** **** 0

# MOE 2024.06 (io_trps.svl 2023.06)
