@<TRIPOS>MOLECULE
NONAME
55 57 1 0 0 
SMALL
USER_CHARGES


@<TRIPOS>ATOM
  1 O        0.3010     0.1150    -0.1500 O.3   1 <1>  -0.5600 
  2 C        1.5520    -0.4920    -0.3220 C.3   1 <1>   0.3440 
  3 C        0.1920     1.4240    -0.6400 C.3   1 <1>   0.2000 
  4 C        1.5220    -1.8970     0.2590 C.ar  1 <1>  -0.1440 
  5 C        2.6370     0.3370     0.4010 C.3   1 <1>   0.3430 
  6 C       -1.2680     1.9050    -0.4780 C.3   1 <1>  -0.0800 
  7 C        1.1980     2.3370     0.0980 C.3   1 <1>   0.3430 
  8 C        2.2440    -2.9120    -0.3550 C.ar  1 <1>  -0.1500 
  9 C        0.7990    -2.1850     1.4100 C.ar  1 <1>  -0.1500 
 10 N        2.6070     1.8020     0.0370 N.4   1 <1>  -0.9590 
 11 C       -1.7490     1.9100     0.9840 C.3   1 <1>  -0.2400 
 12 C       -2.2220     1.0490    -1.3260 C.3   1 <1>  -0.2400 
 13 C        2.2520    -4.1890     0.1790 C.ar  1 <1>  -0.1500 
 14 C        0.8070    -3.4610     1.9430 C.ar  1 <1>  -0.1500 
 15 C        3.5230     2.6090     0.8840 C.3   1 <1>   0.5240 
 16 C        1.5350    -4.4640     1.3290 C.ar  1 <1>  -0.1500 
 17 C        3.5420     4.0120     0.3240 C.2   1 <1>  -0.1810 
 18 C        4.2080     4.4470    -0.8170 C.2   1 <1>   0.1080 
 19 C        2.9130     5.1130     0.7950 C.2   1 <1>  -0.3020 
 20 N        3.9930     5.6990    -1.0480 N.2   1 <1>  -0.7070 
 21 C        5.0980     3.6370    -1.7370 C.3   1 <1>  -0.0590 
 22 N        3.2030     6.1240    -0.0480 N.pl3 1 <1>   0.3140 
 23 C        2.7660     7.5270     0.0500 C.3   1 <1>   0.0960 
 24 C        3.9300     8.3950     0.5230 C.3   1 <1>   0.1200 
 25 O        3.4910     9.7040     0.6510 O.3   1 <1>  -0.6800 
 26 H        1.7540    -0.5450    -1.3780 H     1 <1>   0.0800 
 27 H        0.4280     1.4080    -1.6910 H     1 <1>   0.0800 
 28 H        3.6030    -0.0830     0.1750 H     1 <1>   0.0800 
 29 H        2.4740     0.2230     1.4600 H     1 <1>   0.0800 
 30 H       -1.3290     2.9140    -0.8500 H     1 <1>   0.0800 
 31 H        0.8880     2.4180     1.1260 H     1 <1>   0.0800 
 32 H        1.1600     3.3240    -0.3340 H     1 <1>   0.0800 
 33 H        2.8060    -2.7260    -1.2540 H     1 <1>   0.1500 
 34 H        0.2180    -1.4200     1.8960 H     1 <1>   0.1500 
 35 H        2.9270     1.9230    -0.9310 H     1 <1>   0.4500 
 36 H       -1.6880     0.9210     1.4050 H     1 <1>   0.0800 
 37 H       -2.7760     2.2280     1.0320 H     1 <1>   0.0800 
 38 H       -1.1710     2.5820     1.5910 H     1 <1>   0.0800 
 39 H       -2.2240     0.0290    -0.9820 H     1 <1>   0.0800 
 40 H       -1.9260     1.0590    -2.3600 H     1 <1>   0.0800 
 41 H       -3.2260     1.4300    -1.2610 H     1 <1>   0.0800 
 42 H        2.8120    -4.9730    -0.3020 H     1 <1>   0.1500 
 43 H        0.2430    -3.6780     2.8340 H     1 <1>   0.1500 
 44 H        3.1740     2.6260     1.9040 H     1 <1>   0.0800 
 45 H        4.5200     2.1990     0.8650 H     1 <1>   0.0800 
 46 H        1.5400    -5.4580     1.7430 H     1 <1>   0.1500 
 47 H        2.2910     5.2480     1.6620 H     1 <1>   0.1500 
 48 H        5.4180     2.7230    -1.2740 H     1 <1>   0.0800 
 49 H        5.9700     4.2170    -1.9810 H     1 <1>   0.0800 
 50 H        4.5740     3.4190    -2.6490 H     1 <1>   0.0800 
 51 H        2.4390     7.8450    -0.9220 H     1 <1>   0.0800 
 52 H        1.9520     7.5910     0.7460 H     1 <1>   0.0800 
 53 H        4.7470     8.3730    -0.1800 H     1 <1>   0.0800 
 54 H        4.2740     8.0700     1.4900 H     1 <1>   0.0800 
 55 H        3.4460    10.1470    -0.2200 H     1 <1>   0.4000 
@<TRIPOS>BOND
  1   1   2  1   
  2   1   3  1   
  3   2   4  1   
  4   2   5  1   
  5   2  26  1   
  6   3   6  1   
  7   3   7  1   
  8   3  27  1   
  9   4   8  ar  
 10   4   9  ar  
 11   5  10  1   
 12   5  28  1   
 13   5  29  1   
 14   6  11  1   
 15   6  12  1   
 16   6  30  1   
 17   7  10  1   
 18   7  31  1   
 19   7  32  1   
 20   8  13  ar  
 21   8  33  1   
 22   9  14  ar  
 23   9  34  1   
 24  10  15  1   
 25  10  35  1   
 26  11  36  1   
 27  11  37  1   
 28  11  38  1   
 29  12  39  1   
 30  12  40  1   
 31  12  41  1   
 32  13  16  ar  
 33  13  42  1   
 34  14  16  ar  
 35  14  43  1   
 36  15  17  1   
 37  15  44  1   
 38  15  45  1   
 39  16  46  1   
 40  17  18  1   
 41  17  19  2   
 42  18  20  2   
 43  18  21  1   
 44  19  22  1   
 45  19  47  1   
 46  20  22  1   
 47  21  48  1   
 48  21  49  1   
 49  21  50  1   
 50  22  23  1   
 51  23  24  1   
 52  23  51  1   
 53  23  52  1   
 54  24  25  1   
 55  24  53  1   
 56  24  54  1   
 57  25  55  1   
@<TRIPOS>SUBSTRUCTURE
  1 ****  10 GROUP 4 **** **** 0

# MOE 2024.06 (io_trps.svl 2023.06)
