@<TRIPOS>MOLECULE
NONAME
26 26 1 0 0 
SMALL
USER_CHARGES


@<TRIPOS>ATOM
  1 F        0.6590     0.1610     1.5740 F     1 <1>  -0.1900 
  2 C        1.5740     0.8120     0.9060 C.ar  1 <1>   0.1900 
  3 C        1.2670     2.0510     0.3500 C.ar  1 <1>  -0.1440 
  4 C        2.8170     0.2230     0.7800 C.ar  1 <1>  -0.1500 
  5 C        2.2580     2.7160    -0.3630 C.ar  1 <1>  -0.1500 
  6 C       -0.1130     2.6900     0.5020 C.3   1 <1>  -0.0160 
  7 C        3.7710     0.9170     0.0650 C.ar  1 <1>   0.1900 
  8 C        3.5170     2.1510    -0.5080 C.ar  1 <1>  -0.1500 
  9 C       -1.0070     2.4590    -0.7260 C.3   1 <1>   0.2510 
 10 F        4.9580     0.3910    -0.0750 F     1 <1>  -0.1900 
 11 N       -1.1680     1.0050    -0.9590 N.3   1 <1>  -0.9900 
 12 C       -2.3300     3.2330    -0.5570 C.2   1 <1>   0.6590 
 13 O       -2.5240     4.2830    -1.1170 O.2   1 <1>  -0.5700 
 14 O       -3.2290     2.7000     0.2690 O.3   1 <1>  -0.4300 
 15 C       -4.4780     3.3170     0.5020 C.3   1 <1>   0.0400 
 16 H        3.0320    -0.7340     1.2180 H     1 <1>   0.1500 
 17 H        2.0570     3.6760    -0.8080 H     1 <1>   0.1500 
 18 H        0.0120     3.7500     0.6390 H     1 <1>   0.0800 
 19 H       -0.6100     2.3210     1.3820 H     1 <1>   0.0800 
 20 H        4.2910     2.6560    -1.0580 H     1 <1>   0.1500 
 21 H       -0.5080     2.8750    -1.5840 H     1 <1>   0.0800 
 22 H       -1.7390     0.6160    -0.1990 H     1 <1>   0.3600 
 23 H       -0.2440     0.5610    -0.8900 H     1 <1>   0.3600 
 24 H       -5.0350     2.7090     1.1930 H     1 <1>   0.0800 
 25 H       -5.0060     3.3950    -0.4330 H     1 <1>   0.0800 
 26 H       -4.3120     4.2960     0.9170 H     1 <1>   0.0800 
@<TRIPOS>BOND
  1   1   2  1   
  2   2   3  ar  
  3   2   4  ar  
  4   3   5  ar  
  5   3   6  1   
  6   4   7  ar  
  7   4  16  1   
  8   5   8  ar  
  9   5  17  1   
 10   6   9  1   
 11   6  18  1   
 12   6  19  1   
 13   7   8  ar  
 14   7  10  1   
 15   8  20  1   
 16   9  11  1   
 17   9  12  1   
 18   9  21  1   
 19  11  22  1   
 20  11  23  1   
 21  12  13  2   
 22  12  14  1   
 23  14  15  1   
 24  15  24  1   
 25  15  25  1   
 26  15  26  1   
@<TRIPOS>SUBSTRUCTURE
  1 ****   3 GROUP 4 **** **** 0

# MOE 2024.06 (io_trps.svl 2023.06)
