@<TRIPOS>MOLECULE
NONAME
46 49 1 0 0 
SMALL
USER_CHARGES


@<TRIPOS>ATOM
  1 CL       0.2700    -0.4520    -0.6660 Cl    1 <1>  -0.1770 
  2 C       -0.6480    -1.9050    -0.3710 C.ar  1 <1>   0.1770 
  3 C       -1.7440    -2.1920    -1.1600 C.ar  1 <1>  -0.1500 
  4 C       -0.2670    -2.7550     0.6490 C.ar  1 <1>  -0.1500 
  5 C       -2.4660    -3.3480    -0.9220 C.ar  1 <1>  -0.1500 
  6 C       -0.9990    -3.9060     0.8790 C.ar  1 <1>  -0.1500 
  7 C       -2.1160    -4.2310     0.1030 C.ar  1 <1>   0.0530 
  8 C       -2.8640    -5.4390     0.3600 C.2   1 <1>   0.0870 
  9 O       -2.2980    -6.4490     0.9800 O.3   1 <1>  -0.0190 
 10 C       -4.1380    -5.8170     0.0890 C.2   1 <1>  -0.2330 
 11 N       -3.1030    -7.4680     1.1330 N.2   1 <1>  -0.4100 
 12 C       -4.2180    -7.1130     0.5990 C.2   1 <1>   0.3720 
 13 C       -5.1930    -5.1050    -0.5500 C.2   1 <1>   1.0330 
 14 N       -5.3310    -7.9590     0.5660 N.pl3 1 <1>  -0.8210 
 15 O       -6.0290    -4.4690     0.1140 O.co2 1 <1>  -0.9000 
 16 O       -5.2890    -5.1070    -1.7900 O.co2 1 <1>  -0.9000 
 17 C       -5.7620    -8.3030    -0.8180 C.3   1 <1>   0.2090 
 18 C       -6.4370    -7.4860     1.4420 C.3   1 <1>   0.2090 
 19 C       -6.8810    -9.3440    -0.7820 C.3   1 <1>  -0.1600 
 20 C       -7.5600    -8.5220     1.4860 C.3   1 <1>  -0.1600 
 21 C       -8.0360    -8.8130     0.0640 C.3   1 <1>   0.2200 
 22 N       -9.1860    -9.7520     0.0600 N.am  1 <1>  -0.6600 
 23 C       -9.2280   -11.0260     0.5200 C.2   1 <1>   0.5690 
 24 C      -10.4850    -9.2900    -0.4510 C.3   1 <1>   0.1400 
 25 O       -8.3200   -11.6590     1.0010 O.2   1 <1>  -0.5700 
 26 C      -10.6090   -11.6010     0.3680 C.3   1 <1>  -0.0990 
 27 C      -11.3520   -10.5560    -0.4810 C.3   1 <1>  -0.1600 
 28 H       -2.0310    -1.5220    -1.9500 H     1 <1>   0.1500 
 29 H        0.5890    -2.5150     1.2530 H     1 <1>   0.1500 
 30 H       -3.3160    -3.5660    -1.5470 H     1 <1>   0.1500 
 31 H       -0.7050    -4.5680     1.6750 H     1 <1>   0.1500 
 32 H       -4.9190    -8.6900    -1.3650 H     1 <1>   0.0800 
 33 H       -6.1160    -7.4230    -1.3260 H     1 <1>   0.0800 
 34 H       -6.8270    -6.5540     1.0710 H     1 <1>   0.0800 
 35 H       -6.0550    -7.3180     2.4340 H     1 <1>   0.0800 
 36 H       -6.4940   -10.2560    -0.3630 H     1 <1>   0.0800 
 37 H       -7.2180    -9.5340    -1.7840 H     1 <1>   0.0800 
 38 H       -8.3730    -8.1360     2.0730 H     1 <1>   0.0800 
 39 H       -7.1880    -9.4180     1.9500 H     1 <1>   0.0800 
 40 H       -8.3620    -7.8820    -0.3710 H     1 <1>   0.0800 
 41 H      -10.3780    -8.8650    -1.4350 H     1 <1>   0.0800 
 42 H      -10.8940    -8.5570     0.2240 H     1 <1>   0.0800 
 43 H      -11.0520   -11.7000     1.3410 H     1 <1>   0.0800 
 44 H      -10.5670   -12.5580    -0.1180 H     1 <1>   0.0800 
 45 H      -11.4260   -10.9020    -1.4970 H     1 <1>   0.0800 
 46 H      -12.3420   -10.3630    -0.1070 H     1 <1>   0.0800 
@<TRIPOS>BOND
  1   1   2  1   
  2   2   3  ar  
  3   2   4  ar  
  4   3   5  ar  
  5   3  28  1   
  6   4   6  ar  
  7   4  29  1   
  8   5   7  ar  
  9   5  30  1   
 10   6   7  ar  
 11   6  31  1   
 12   7   8  1   
 13   8   9  1   
 14   8  10  2   
 15   9  11  1   
 16  10  12  1   
 17  10  13  1   
 18  11  12  2   
 19  12  14  1   
 20  13  15  ar  
 21  13  16  ar  
 22  14  17  1   
 23  14  18  1   
 24  17  19  1   
 25  17  32  1   
 26  17  33  1   
 27  18  20  1   
 28  18  34  1   
 29  18  35  1   
 30  19  21  1   
 31  19  36  1   
 32  19  37  1   
 33  20  21  1   
 34  20  38  1   
 35  20  39  1   
 36  21  22  1   
 37  21  40  1   
 38  22  23  am  
 39  22  24  1   
 40  23  25  2   
 41  23  26  1   
 42  24  27  1   
 43  24  41  1   
 44  24  42  1   
 45  26  27  1   
 46  26  43  1   
 47  26  44  1   
 48  27  45  1   
 49  27  46  1   
@<TRIPOS>SUBSTRUCTURE
  1 ****  12 GROUP 4 **** **** 0

# MOE 2024.06 (io_trps.svl 2023.06)
