@<TRIPOS>MOLECULE
NONAME
44 44 1 0 0 
SMALL
USER_CHARGES


@<TRIPOS>ATOM
  1 O        1.8520    -0.6250     1.4640 O.2   1 <1>  -0.5700 
  2 C        1.6200    -1.0040     0.3380 C.2   1 <1>   0.5690 
  3 N        1.4840    -0.1310    -0.7070 N.am  1 <1>  -0.7300 
  4 C        1.4740    -2.5220     0.0360 C.3   1 <1>   0.2510 
  5 C        1.5490     1.3420    -0.6870 C.3   1 <1>   0.2200 
  6 N        0.0920    -3.0920     0.1070 N.3   1 <1>  -0.8100 
  7 C        2.3610    -3.3690     0.9580 C.3   1 <1>  -0.2400 
  8 C        2.9270     1.8070    -0.2220 C.3   1 <1>  -0.2400 
  9 C        0.4260     1.9030     0.1830 C.3   1 <1>  -0.2400 
 10 C       -0.1030    -4.1970    -0.8670 C.3   1 <1>   0.2530 
 11 C       -0.9890    -2.0950    -0.0020 C.3   1 <1>   0.0300 
 12 C       -1.3540    -5.0380    -0.6100 C.ar  1 <1>   0.1670 
 13 N       -2.0370    -5.4230    -1.6790 N.ar  1 <1>  -0.6200 
 14 C       -1.7090    -5.3660     0.6910 C.ar  1 <1>  -0.1500 
 15 C       -3.1130    -6.1570    -1.4370 C.ar  1 <1>   0.1600 
 16 C       -2.8310    -6.1310     0.9240 C.ar  1 <1>  -0.1500 
 17 C       -3.5530    -6.5390    -0.1780 C.ar  1 <1>  -0.1430 
 18 C       -4.8040    -7.3860    -0.0120 C.3   1 <1>  -0.0170 
 19 C       -6.0390    -6.4980     0.1500 C.3   1 <1>  -0.2400 
 20 H        1.2380    -0.5190    -1.6170 H     1 <1>   0.3700 
 21 H        1.8390    -2.6520    -0.9680 H     1 <1>   0.0800 
 22 H        1.4000     1.6930    -1.6950 H     1 <1>   0.0800 
 23 H        2.0050    -3.2930     1.9710 H     1 <1>   0.0800 
 24 H        3.3710    -3.0020     0.9280 H     1 <1>   0.0800 
 25 H        2.3640    -4.4000     0.6600 H     1 <1>   0.0800 
 26 H        3.0990     1.5290     0.8020 H     1 <1>   0.0800 
 27 H        2.9950     2.8770    -0.2950 H     1 <1>   0.0800 
 28 H        3.6930     1.3740    -0.8390 H     1 <1>   0.0800 
 29 H        0.5610     1.6150     1.2100 H     1 <1>   0.0800 
 30 H       -0.5260     1.5470    -0.1630 H     1 <1>   0.0800 
 31 H        0.4280     2.9770     0.1330 H     1 <1>   0.0800 
 32 H        0.7390    -4.8640    -0.8370 H     1 <1>   0.0800 
 33 H       -0.1590    -3.7880    -1.8610 H     1 <1>   0.0800 
 34 H       -0.9060    -1.3690     0.7900 H     1 <1>   0.0800 
 35 H       -1.9490    -2.5720     0.0950 H     1 <1>   0.0800 
 36 H       -0.9490    -1.5920    -0.9530 H     1 <1>   0.0800 
 37 H       -1.1080    -5.0170     1.5120 H     1 <1>   0.1500 
 38 H       -3.6790    -6.4720    -2.2960 H     1 <1>   0.1500 
 39 H       -3.1260    -6.3940     1.9250 H     1 <1>   0.1500 
 40 H       -4.7000    -8.0200     0.8520 H     1 <1>   0.0800 
 41 H       -4.9290    -8.0240    -0.8700 H     1 <1>   0.0800 
 42 H       -5.9320    -5.8690     1.0160 H     1 <1>   0.0800 
 43 H       -6.9190    -7.1040     0.2690 H     1 <1>   0.0800 
 44 H       -6.1640    -5.8720    -0.7160 H     1 <1>   0.0800 
@<TRIPOS>BOND
  1   1   2  2   
  2   2   3  am  
  3   2   4  1   
  4   3   5  1   
  5   3  20  1   
  6   4   6  1   
  7   4   7  1   
  8   4  21  1   
  9   5   8  1   
 10   5   9  1   
 11   5  22  1   
 12   6  10  1   
 13   6  11  1   
 14   7  23  1   
 15   7  24  1   
 16   7  25  1   
 17   8  26  1   
 18   8  27  1   
 19   8  28  1   
 20   9  29  1   
 21   9  30  1   
 22   9  31  1   
 23  10  12  1   
 24  10  32  1   
 25  10  33  1   
 26  11  34  1   
 27  11  35  1   
 28  11  36  1   
 29  12  13  ar  
 30  12  14  ar  
 31  13  15  ar  
 32  14  16  ar  
 33  14  37  1   
 34  15  17  ar  
 35  15  38  1   
 36  16  17  ar  
 37  16  39  1   
 38  17  18  1   
 39  18  19  1   
 40  18  40  1   
 41  18  41  1   
 42  19  42  1   
 43  19  43  1   
 44  19  44  1   
@<TRIPOS>SUBSTRUCTURE
  1 ****   6 GROUP 4 **** **** 0

# MOE 2024.06 (io_trps.svl 2023.06)
