@<TRIPOS>MOLECULE
NONAME
61 65 1 0 0 
SMALL
USER_CHARGES


@<TRIPOS>ATOM
  1 O        0.4000    -0.2390    -0.3330 O.3   1 <1>  -0.5600 
  2 C        1.7140    -0.7140    -0.1220 C.3   1 <1>   0.4240 
  3 C       -0.6350    -0.8640     0.3500 C.3   1 <1>   0.1200 
  4 C        1.7460    -2.2680    -0.0140 C.ar  1 <1>  -0.1440 
  5 C        2.2430    -0.0210     1.1480 C.3   1 <1>  -0.1600 
  6 C        2.4900    -0.2170    -1.3520 C.3   1 <1>  -0.1600 
  7 C       -0.7720    -2.2760    -0.1960 C.3   1 <1>  -0.0160 
  8 C        2.9420    -2.9820     0.1380 C.ar  1 <1>   0.0830 
  9 C        0.5550    -2.9930    -0.0670 C.ar  1 <1>  -0.1440 
 10 C        2.2190     1.5020     1.0180 C.3   1 <1>   0.2090 
 11 C        2.4880     1.3100    -1.4560 C.3   1 <1>   0.2090 
 12 O        4.1120    -2.2980     0.2210 O.3   1 <1>  -0.3630 
 13 C        2.9280    -4.3730     0.2110 C.ar  1 <1>  -0.1500 
 14 C        0.5530    -4.3770     0.0030 C.ar  1 <1>  -0.1500 
 15 N        2.9840     1.9140    -0.1880 N.pl3 1 <1>  -0.8380 
 16 C        5.3710    -2.9170     0.0840 C.3   1 <1>   0.0400 
 17 C        1.7380    -5.0680     0.1400 C.ar  1 <1>  -0.1500 
 18 C        4.3030     2.3210    -0.0650 C.ar  1 <1>   0.4100 
 19 N        5.2140     1.6860    -0.7960 N.ar  1 <1>  -0.6200 
 20 C        4.6280     3.3630     0.8020 C.ar  1 <1>  -0.1500 
 21 C        6.4630     2.0860    -0.6490 C.ar  1 <1>   0.1600 
 22 C        5.9330     3.7700     0.9450 C.ar  1 <1>  -0.1500 
 23 C        6.8810     3.1060     0.1900 C.ar  1 <1>  -0.1430 
 24 C        8.3520     3.4920     0.2710 C.3   1 <1>   0.2390 
 25 N        8.5610     4.9360     0.0220 N.pl3 1 <1>   0.3140 
 26 N        9.1700     5.7090     0.9430 N.2   1 <1>  -0.7070 
 27 C        8.2410     5.6550    -1.0820 C.2   1 <1>  -0.3320 
 28 C        9.2180     6.8890     0.4130 C.2   1 <1>   0.1080 
 29 C        8.6530     6.9190    -0.8540 C.2   1 <1>  -0.1500 
 30 C        7.5440     5.1110    -2.3190 C.3   1 <1>  -0.0600 
 31 C        9.8290     8.0720     1.1260 C.3   1 <1>  -0.0590 
 32 H       -1.5340    -0.3000     0.1760 H     1 <1>   0.0800 
 33 H       -0.4170    -0.8710     1.4040 H     1 <1>   0.0800 
 34 H        3.2590    -0.3080     1.3290 H     1 <1>   0.0800 
 35 H        1.6720    -0.3290     2.0010 H     1 <1>   0.0800 
 36 H        2.0590    -0.6440    -2.2370 H     1 <1>   0.0800 
 37 H        3.5130    -0.5310    -1.3110 H     1 <1>   0.0800 
 38 H       -1.0660    -2.2350    -1.2300 H     1 <1>   0.0800 
 39 H       -1.5340    -2.7950     0.3550 H     1 <1>   0.0800 
 40 H        2.6480     1.9400     1.9010 H     1 <1>   0.0800 
 41 H        1.2050     1.8520     0.9260 H     1 <1>   0.0800 
 42 H        1.4890     1.6630    -1.6440 H     1 <1>   0.0800 
 43 H        3.1080     1.6200    -2.2800 H     1 <1>   0.0800 
 44 H        3.8330    -4.9350     0.3300 H     1 <1>   0.1500 
 45 H       -0.3730    -4.9220    -0.0480 H     1 <1>   0.1500 
 46 H        6.1170    -2.1440     0.0530 H     1 <1>   0.0800 
 47 H        5.3860    -3.4770    -0.8340 H     1 <1>   0.0800 
 48 H        5.5410    -3.5560     0.9320 H     1 <1>   0.0800 
 49 H        1.7340    -6.1430     0.1950 H     1 <1>   0.1500 
 50 H        3.8430     3.8480     1.3470 H     1 <1>   0.1500 
 51 H        7.1950     1.5650    -1.2400 H     1 <1>   0.1500 
 52 H        6.2010     4.5760     1.6080 H     1 <1>   0.1500 
 53 H        8.9300     2.9450    -0.4490 H     1 <1>   0.0800 
 54 H        8.7280     3.2630     1.2510 H     1 <1>   0.0800 
 55 H        8.5730     7.7800    -1.4930 H     1 <1>   0.1500 
 56 H        8.0960     4.2850    -2.7290 H     1 <1>   0.0800 
 57 H        7.4700     5.8780    -3.0680 H     1 <1>   0.0800 
 58 H        6.5490     4.7830    -2.0730 H     1 <1>   0.0800 
 59 H       10.8580     7.8620     1.3500 H     1 <1>   0.0800 
 60 H        9.3010     8.2470     2.0450 H     1 <1>   0.0800 
 61 H        9.7720     8.9510     0.5130 H     1 <1>   0.0800 
@<TRIPOS>BOND
  1   1   2  1   
  2   1   3  1   
  3   2   4  1   
  4   2   5  1   
  5   2   6  1   
  6   3   7  1   
  7   3  32  1   
  8   3  33  1   
  9   4   8  ar  
 10   4   9  ar  
 11   5  10  1   
 12   5  34  1   
 13   5  35  1   
 14   6  11  1   
 15   6  36  1   
 16   6  37  1   
 17   7   9  1   
 18   7  38  1   
 19   7  39  1   
 20   8  12  1   
 21   8  13  ar  
 22   9  14  ar  
 23  10  15  1   
 24  10  40  1   
 25  10  41  1   
 26  11  15  1   
 27  11  42  1   
 28  11  43  1   
 29  12  16  1   
 30  13  17  ar  
 31  13  44  1   
 32  14  17  ar  
 33  14  45  1   
 34  15  18  1   
 35  16  46  1   
 36  16  47  1   
 37  16  48  1   
 38  17  49  1   
 39  18  19  ar  
 40  18  20  ar  
 41  19  21  ar  
 42  20  22  ar  
 43  20  50  1   
 44  21  23  ar  
 45  21  51  1   
 46  22  23  ar  
 47  22  52  1   
 48  23  24  1   
 49  24  25  1   
 50  24  53  1   
 51  24  54  1   
 52  25  26  1   
 53  25  27  1   
 54  26  28  2   
 55  27  29  2   
 56  27  30  1   
 57  28  29  1   
 58  28  31  1   
 59  29  55  1   
 60  30  56  1   
 61  30  57  1   
 62  30  58  1   
 63  31  59  1   
 64  31  60  1   
 65  31  61  1   
@<TRIPOS>SUBSTRUCTURE
  1 ****  18 GROUP 4 **** **** 0

# MOE 2024.06 (io_trps.svl 2023.06)
