@<TRIPOS>MOLECULE
NONAME
43 45 1 0 0 
SMALL
USER_CHARGES


@<TRIPOS>ATOM
  1 O        2.3810    -0.5500    -2.1580 O.2   1 <1>  -0.5700 
  2 C        1.9580    -0.6670    -1.0340 C.2   1 <1>   0.5690 
  3 N        1.5150     0.3920    -0.3170 N.am  1 <1>  -0.7300 
  4 C        1.9400    -2.0400    -0.3930 C.3   1 <1>  -0.0990 
  5 C        1.5030     1.7780    -0.8110 C.3   1 <1>   0.3200 
  6 C        0.5240    -2.6410    -0.3750 C.3   1 <1>  -0.1600 
  7 C        2.8810     2.3600    -0.5920 C.2   1 <1>  -0.3320 
  8 C        0.5230    -4.0630     0.1990 C.3   1 <1>   0.0960 
  9 N        3.9600     1.8460    -1.2560 N.pl3 1 <1>   0.0330 
 10 C        3.2860     3.3820     0.2010 C.2   1 <1>  -0.1500 
 11 N       -0.8540    -4.5880     0.2540 N.pl3 1 <1>   0.0480 
 12 C        5.0740     2.5510    -0.8750 C.ar  1 <1>  -0.1520 
 13 C        4.6820     3.5230     0.0390 C.ar  1 <1>   0.0000 
 14 C       -1.5420    -5.2190    -0.7240 C.2   1 <1>   0.0360 
 15 C       -1.7090    -4.5340     1.2910 C.2   1 <1>  -0.3020 
 16 C        6.4110     2.4200    -1.2550 C.ar  1 <1>  -0.1500 
 17 C        5.6360     4.3860     0.5890 C.ar  1 <1>  -0.1500 
 18 N       -2.7440    -5.5600    -0.3870 N.2   1 <1>  -0.5650 
 19 C       -2.8510    -5.1290     0.8830 C.2   1 <1>   0.0770 
 20 C        7.3400     3.2730    -0.7080 C.ar  1 <1>  -0.1500 
 21 C        6.9610     4.2580     0.2150 C.ar  1 <1>   0.0820 
 22 O        7.9670     5.0450     0.6900 O.3   1 <1>  -0.3620 
 23 C        7.6940     6.0670     1.6220 C.3   1 <1>   0.0400 
 24 H        1.3270     0.2950     0.6800 H     1 <1>   0.3700 
 25 H        2.3260    -1.9630     0.6070 H     1 <1>   0.0800 
 26 H        2.5980    -2.6800    -0.9530 H     1 <1>   0.0800 
 27 H        0.7630     2.3490    -0.2760 H     1 <1>   0.0800 
 28 H        1.2590     1.7930    -1.8610 H     1 <1>   0.0800 
 29 H        0.1420    -2.6640    -1.3820 H     1 <1>   0.0800 
 30 H       -0.1210    -2.0140     0.2170 H     1 <1>   0.0800 
 31 H        0.9290    -4.0650     1.1940 H     1 <1>   0.0800 
 32 H        1.1170    -4.7150    -0.4170 H     1 <1>   0.0800 
 33 H        3.9270     1.0430    -1.9000 H     1 <1>   0.2700 
 34 H        2.6950     4.0010     0.8510 H     1 <1>   0.1500 
 35 H       -1.1120    -5.4100    -1.6920 H     1 <1>   0.1500 
 36 H       -1.4710    -4.0880     2.2390 H     1 <1>   0.1500 
 37 H        6.6980     1.6630    -1.9630 H     1 <1>   0.1500 
 38 H        5.3000     5.1230     1.2900 H     1 <1>   0.1500 
 39 H       -3.7600    -5.2720     1.4440 H     1 <1>   0.1500 
 40 H        8.3780     3.2010    -0.9770 H     1 <1>   0.1500 
 41 H        8.6200     6.5580     1.8580 H     1 <1>   0.0800 
 42 H        7.2770     5.6260     2.5100 H     1 <1>   0.0800 
 43 H        7.0090     6.7680     1.1800 H     1 <1>   0.0800 
@<TRIPOS>BOND
  1   1   2  2   
  2   2   3  am  
  3   2   4  1   
  4   3   5  1   
  5   3  24  1   
  6   4   6  1   
  7   4  25  1   
  8   4  26  1   
  9   5   7  1   
 10   5  27  1   
 11   5  28  1   
 12   6   8  1   
 13   6  29  1   
 14   6  30  1   
 15   7   9  1   
 16   7  10  2   
 17   8  11  1   
 18   8  31  1   
 19   8  32  1   
 20   9  12  1   
 21   9  33  1   
 22  10  13  1   
 23  10  34  1   
 24  11  14  1   
 25  11  15  1   
 26  12  13  ar  
 27  12  16  ar  
 28  13  17  ar  
 29  14  18  2   
 30  14  35  1   
 31  15  19  2   
 32  15  36  1   
 33  16  20  ar  
 34  16  37  1   
 35  17  21  ar  
 36  17  38  1   
 37  18  19  1   
 38  19  39  1   
 39  20  21  ar  
 40  20  40  1   
 41  21  22  1   
 42  22  23  1   
 43  23  41  1   
 44  23  42  1   
 45  23  43  1   
@<TRIPOS>SUBSTRUCTURE
  1 ****   3 GROUP 4 **** **** 0

# MOE 2024.06 (io_trps.svl 2023.06)
