@<TRIPOS>MOLECULE
NONAME
54 56 1 0 0 
SMALL
USER_CHARGES


@<TRIPOS>ATOM
  1 O       -0.0880     1.0940    -2.4710 O.2   1 <1>  -0.5700 
  2 C       -0.1260     2.1390    -1.8640 C.2   1 <1>   0.5690 
  3 N       -1.2230     2.5260    -1.1380 N.am  1 <1>  -0.6600 
  4 C        1.0950     3.0580    -1.9470 C.3   1 <1>   0.1810 
  5 C       -1.2420     3.8250    -0.3830 C.3   1 <1>   0.3640 
  6 C       -2.4060     1.6340    -0.9580 C.3   1 <1>   0.0600 
  7 O        1.1490     4.0110    -0.9140 O.3   1 <1>  -0.5600 
  8 C       -2.5870     4.5310    -0.6360 C.ar  1 <1>  -0.1430 
  9 C       -0.0480     4.7480    -0.7510 C.3   1 <1>   0.2610 
 10 C       -3.5200     4.7650     0.3760 C.ar  1 <1>  -0.1430 
 11 C       -2.8920     4.9330    -1.9320 C.ar  1 <1>  -0.1500 
 12 C        0.1550     5.8750     0.2670 C.2   1 <1>   0.5690 
 13 C       -4.7130     5.4070     0.0750 C.ar  1 <1>  -0.1500 
 14 C       -3.2940     4.3340     1.8200 C.3   1 <1>  -0.0960 
 15 C       -4.0830     5.5720    -2.2230 C.ar  1 <1>  -0.1500 
 16 O       -0.3050     5.7830     1.3830 O.2   1 <1>  -0.5700 
 17 N        0.8490     6.9760    -0.1320 N.am  1 <1>  -0.7300 
 18 C       -4.9950     5.8120    -1.2150 C.ar  1 <1>  -0.1500 
 19 C        0.7910     8.3210     0.4840 C.3   1 <1>   0.3000 
 20 C        1.5910     9.2700    -0.4100 C.3   1 <1>  -0.1600 
 21 C        1.6090     8.3300     1.7760 C.3   1 <1>  -0.1600 
 22 C       -0.6760     8.7760     0.6610 C.3   1 <1>   0.1200 
 23 C        3.0670     9.0380    -0.0630 C.3   1 <1>  -0.1600 
 24 C        3.0760     8.4130     1.3380 C.3   1 <1>  -0.1600 
 25 O       -1.3490     8.7410    -0.5700 O.3   1 <1>  -0.5600 
 26 C       -2.7190     8.5350    -0.4570 C.3   1 <1>   0.0400 
 27 H        1.0880     3.5760    -2.8880 H     1 <1>   0.0800 
 28 H        1.9880     2.4630    -1.8860 H     1 <1>   0.0800 
 29 H       -1.1440     3.5810     0.6580 H     1 <1>   0.0800 
 30 H       -2.6260     1.5250     0.0890 H     1 <1>   0.0800 
 31 H       -2.2160     0.6580    -1.3710 H     1 <1>   0.0800 
 32 H       -3.2620     2.0560    -1.4570 H     1 <1>   0.0800 
 33 H       -0.2530     5.2190    -1.6940 H     1 <1>   0.0800 
 34 H       -2.2050     4.7410    -2.7370 H     1 <1>   0.1500 
 35 H       -5.4370     5.5950     0.8480 H     1 <1>   0.1500 
 36 H       -4.1840     4.4670     2.4070 H     1 <1>   0.0800 
 37 H       -2.5130     4.9200     2.2680 H     1 <1>   0.0800 
 38 H       -3.0240     3.2940     1.8660 H     1 <1>   0.0800 
 39 H       -4.2990     5.8790    -3.2310 H     1 <1>   0.1500 
 40 H        1.2830     6.9810    -1.0510 H     1 <1>   0.3700 
 41 H       -5.9250     6.3080    -1.4350 H     1 <1>   0.1500 
 42 H        1.3770     9.1260    -1.4550 H     1 <1>   0.0800 
 43 H        1.3360    10.2840    -0.1540 H     1 <1>   0.0800 
 44 H        1.3670     9.2150     2.3380 H     1 <1>   0.0800 
 45 H        1.4150     7.4710     2.3930 H     1 <1>   0.0800 
 46 H       -0.7180     9.7830     1.0350 H     1 <1>   0.0800 
 47 H       -1.1700     8.1270     1.3640 H     1 <1>   0.0800 
 48 H        3.5070     8.3510    -0.7650 H     1 <1>   0.0800 
 49 H        3.6170     9.9620    -0.0860 H     1 <1>   0.0800 
 50 H        3.6560     8.9980     2.0320 H     1 <1>   0.0800 
 51 H        3.4910     7.4210     1.2860 H     1 <1>   0.0800 
 52 H       -3.1420     8.5320    -1.4460 H     1 <1>   0.0800 
 53 H       -3.1530     9.3300     0.1250 H     1 <1>   0.0800 
 54 H       -2.8940     7.5820     0.0110 H     1 <1>   0.0800 
@<TRIPOS>BOND
  1   1   2  2   
  2   2   3  am  
  3   2   4  1   
  4   3   5  1   
  5   3   6  1   
  6   4   7  1   
  7   4  27  1   
  8   4  28  1   
  9   5   8  1   
 10   5   9  1   
 11   5  29  1   
 12   6  30  1   
 13   6  31  1   
 14   6  32  1   
 15   7   9  1   
 16   8  10  ar  
 17   8  11  ar  
 18   9  12  1   
 19   9  33  1   
 20  10  13  ar  
 21  10  14  1   
 22  11  15  ar  
 23  11  34  1   
 24  12  16  2   
 25  12  17  am  
 26  13  18  ar  
 27  13  35  1   
 28  14  36  1   
 29  14  37  1   
 30  14  38  1   
 31  15  18  ar  
 32  15  39  1   
 33  17  19  1   
 34  17  40  1   
 35  18  41  1   
 36  19  20  1   
 37  19  21  1   
 38  19  22  1   
 39  20  23  1   
 40  20  42  1   
 41  20  43  1   
 42  21  24  1   
 43  21  44  1   
 44  21  45  1   
 45  22  25  1   
 46  22  46  1   
 47  22  47  1   
 48  23  24  1   
 49  23  48  1   
 50  23  49  1   
 51  24  50  1   
 52  24  51  1   
 53  25  26  1   
 54  26  52  1   
 55  26  53  1   
 56  26  54  1   
@<TRIPOS>SUBSTRUCTURE
  1 ****  12 GROUP 4 **** **** 0

# MOE 2024.06 (io_trps.svl 2023.06)
