@<TRIPOS>MOLECULE
NONAME
64 67 1 0 0 
SMALL
USER_CHARGES


@<TRIPOS>ATOM
  1 O        0.3700     1.6270     1.2940 O.2   1 <1>  -0.5700 
  2 C        0.3650     2.2870     0.2730 C.2   1 <1>   0.5690 
  3 N       -0.7230     3.1030     0.0070 N.am  1 <1>  -0.6600 
  4 C        1.5950     2.1140    -0.7010 C.3   1 <1>   0.4300 
  5 C       -1.8620     3.2170     0.9700 C.3   1 <1>   0.1400 
  6 C       -0.8970     3.9180    -1.2350 C.3   1 <1>   0.1400 
  7 N        1.9790     3.3280    -1.5100 N.pl3 1 <1>  -0.8690 
  8 C        2.8850     1.6730     0.0590 C.3   1 <1>  -0.1600 
  9 C        1.2030     1.0350    -1.7440 C.3   1 <1>  -0.1600 
 10 C       -3.1680     2.6700     0.3300 C.3   1 <1>   0.0000 
 11 C       -2.3680     4.2920    -1.4870 C.3   1 <1>  -0.1600 
 12 C        2.6100     4.4440    -0.9600 C.ar  1 <1>   0.1000 
 13 C        3.0660     0.1480     0.1290 C.3   1 <1>  -0.1600 
 14 C        2.4120     0.3070    -2.3550 C.3   1 <1>  -0.1600 
 15 C       -4.4000     3.0490     1.1740 C.3   1 <1>   0.2000 
 16 C       -3.3040     3.1200    -1.1520 C.3   1 <1>  -0.1600 
 17 C       -3.1910     1.1360     0.4450 C.3   1 <1>  -0.1600 
 18 C        2.2720     4.9800     0.2780 C.ar  1 <1>  -0.1500 
 19 C        3.6230     5.0580    -1.6850 C.ar  1 <1>  -0.1500 
 20 C        3.1960    -0.4640    -1.2780 C.3   1 <1>  -0.1600 
 21 O       -4.3490     4.3770     1.6040 O.3   1 <1>  -0.5600 
 22 C       -4.4040     2.0780     2.3570 C.3   1 <1>  -0.1600 
 23 C       -3.6570     0.8280     1.8730 C.3   1 <1>  -0.1600 
 24 C        2.9360     6.0850     0.7790 C.ar  1 <1>  -0.1500 
 25 C        4.2890     6.1630    -1.1870 C.ar  1 <1>  -0.1500 
 26 C       -5.5510     4.8840     2.0920 C.3   1 <1>   0.0400 
 27 C        3.9520     6.6830     0.0520 C.ar  1 <1>  -0.1430 
 28 C        4.6810     7.8950     0.6010 C.3   1 <1>  -0.0970 
 29 H       -1.6480     2.7000     1.8890 H     1 <1>   0.0800 
 30 H       -1.9760     4.2560     1.2200 H     1 <1>   0.0800 
 31 H       -0.3030     4.8130    -1.1620 H     1 <1>   0.0800 
 32 H       -0.5470     3.3520    -2.0780 H     1 <1>   0.0800 
 33 H        2.4180     3.0130    -2.3750 H     1 <1>   0.4000 
 34 H        3.7570     2.0710    -0.4290 H     1 <1>   0.0800 
 35 H        2.8710     2.0790     1.0550 H     1 <1>   0.0800 
 36 H        0.5880     0.2950    -1.2600 H     1 <1>   0.0800 
 37 H        0.6020     1.4740    -2.5190 H     1 <1>   0.0800 
 38 H       -2.6280     5.1450    -0.8840 H     1 <1>   0.0800 
 39 H       -2.4880     4.5790    -2.5160 H     1 <1>   0.0800 
 40 H        3.9380    -0.0930     0.7110 H     1 <1>   0.0800 
 41 H        2.2140    -0.2800     0.6310 H     1 <1>   0.0800 
 42 H        2.0840    -0.3770    -3.1190 H     1 <1>   0.0800 
 43 H        3.0620     1.0280    -2.8200 H     1 <1>   0.0800 
 44 H       -5.2910     2.9040     0.5860 H     1 <1>   0.0800 
 45 H       -3.0430     2.3020    -1.8010 H     1 <1>   0.0800 
 46 H       -4.3190     3.3970    -1.3750 H     1 <1>   0.0800 
 47 H       -3.9100     0.7300    -0.2460 H     1 <1>   0.0800 
 48 H       -2.2290     0.6980     0.2370 H     1 <1>   0.0800 
 49 H        1.4840     4.5440     0.8610 H     1 <1>   0.1500 
 50 H        3.8930     4.6680    -2.6480 H     1 <1>   0.1500 
 51 H        2.8480    -1.4830    -1.2380 H     1 <1>   0.0800 
 52 H        4.2340    -0.4910    -1.5620 H     1 <1>   0.0800 
 53 H       -3.8760     2.5090     3.1910 H     1 <1>   0.0800 
 54 H       -5.4090     1.8360     2.6490 H     1 <1>   0.0800 
 55 H       -2.8030     0.6470     2.5040 H     1 <1>   0.0800 
 56 H       -4.2890    -0.0430     1.8890 H     1 <1>   0.0800 
 57 H        2.6550     6.4780     1.7400 H     1 <1>   0.1500 
 58 H        5.0710     6.6190    -1.7690 H     1 <1>   0.1500 
 59 H       -5.3900     5.9100     2.3710 H     1 <1>   0.0800 
 60 H       -5.8550     4.3190     2.9560 H     1 <1>   0.0800 
 61 H       -6.2980     4.8310     1.3200 H     1 <1>   0.0800 
 62 H        4.6840     7.8770     1.6760 H     1 <1>   0.0800 
 63 H        4.1930     8.7930     0.2690 H     1 <1>   0.0800 
 64 H        5.7010     7.9060     0.2590 H     1 <1>   0.0800 
@<TRIPOS>BOND
  1   1   2  2   
  2   2   3  am  
  3   2   4  1   
  4   3   5  1   
  5   3   6  1   
  6   4   7  1   
  7   4   8  1   
  8   4   9  1   
  9   5  10  1   
 10   5  29  1   
 11   5  30  1   
 12   6  11  1   
 13   6  31  1   
 14   6  32  1   
 15   7  12  1   
 16   7  33  1   
 17   8  13  1   
 18   8  34  1   
 19   8  35  1   
 20   9  14  1   
 21   9  36  1   
 22   9  37  1   
 23  10  15  1   
 24  10  16  1   
 25  10  17  1   
 26  11  16  1   
 27  11  38  1   
 28  11  39  1   
 29  12  18  ar  
 30  12  19  ar  
 31  13  20  1   
 32  13  40  1   
 33  13  41  1   
 34  14  20  1   
 35  14  42  1   
 36  14  43  1   
 37  15  21  1   
 38  15  22  1   
 39  15  44  1   
 40  16  45  1   
 41  16  46  1   
 42  17  23  1   
 43  17  47  1   
 44  17  48  1   
 45  18  24  ar  
 46  18  49  1   
 47  19  25  ar  
 48  19  50  1   
 49  20  51  1   
 50  20  52  1   
 51  21  26  1   
 52  22  23  1   
 53  22  53  1   
 54  22  54  1   
 55  23  55  1   
 56  23  56  1   
 57  24  27  ar  
 58  24  57  1   
 59  25  27  ar  
 60  25  58  1   
 61  26  59  1   
 62  26  60  1   
 63  26  61  1   
 64  27  28  1   
 65  28  62  1   
 66  28  63  1   
 67  28  64  1   
@<TRIPOS>SUBSTRUCTURE
  1 ****   3 GROUP 4 **** **** 0

# MOE 2024.06 (io_trps.svl 2023.06)
