@<TRIPOS>MOLECULE
NONAME
58 61 1 0 0 
SMALL
USER_CHARGES


@<TRIPOS>ATOM
  1 O       -0.5930     0.0710    -0.3890 O.2   1 <1>  -0.5700 
  2 C       -1.6350     0.5380     0.0250 C.2   1 <1>   0.5440 
  3 N       -2.7390    -0.2910     0.1290 N.am  1 <1>  -0.6600 
  4 C       -1.6620     1.9410     0.3930 C.ar  1 <1>   0.0860 
  5 C       -4.1470     0.0360    -0.2640 C.3   1 <1>   0.2200 
  6 C       -2.5140    -1.7530     0.3220 C.3   1 <1>   0.0600 
  7 C       -1.2590     2.9280    -0.4830 C.ar  1 <1>  -0.1500 
  8 C       -2.0830     2.3440     1.6740 C.ar  1 <1>  -0.1500 
  9 C       -4.2850     0.9870    -1.4530 C.3   1 <1>  -0.1600 
 10 C       -4.9590     0.6340     0.8840 C.3   1 <1>  -0.1600 
 11 C       -1.3440     4.2900    -0.1720 C.ar  1 <1>   0.3100 
 12 C       -2.1950     3.6680     2.0050 C.ar  1 <1>  -0.1500 
 13 C       -5.5910     1.7640    -1.2220 C.3   1 <1>  -0.0800 
 14 C       -5.8380     1.7480     0.2920 C.3   1 <1>  -0.0800 
 15 N       -0.9490     5.2140    -1.0820 N.ar  1 <1>  -0.6200 
 16 C       -1.8800     4.6720     1.0800 C.ar  1 <1>   0.3100 
 17 C       -5.4710     3.2400    -1.6070 C.3   1 <1>  -0.1600 
 18 C       -5.5090     3.1680     0.7950 C.3   1 <1>  -0.1600 
 19 C       -1.0670     6.4480    -0.7010 C.ar  1 <1>   0.1670 
 20 N       -2.1280     5.9670     1.3900 N.ar  1 <1>  -0.6200 
 21 C       -4.8130     3.8570    -0.3790 C.3   1 <1>   0.4230 
 22 C       -1.6680     6.8250     0.5320 C.ar  1 <1>   0.1670 
 23 C       -0.5370     7.5000    -1.6610 C.3   1 <1>  -0.0970 
 24 N       -4.8260     5.3530    -0.3390 N.4   1 <1>  -0.9590 
 25 C       -1.8130     8.2930     0.9040 C.3   1 <1>  -0.0970 
 26 C       -6.1640     5.9760    -0.1000 C.3   1 <1>   0.2630 
 27 C       -4.2160     5.9200    -1.5810 C.3   1 <1>   0.2630 
 28 H       -4.6400    -0.8780    -0.5540 H     1 <1>   0.0800 
 29 H       -3.2500    -2.1550     0.9960 H     1 <1>   0.0800 
 30 H       -1.5370    -1.9310     0.7390 H     1 <1>   0.0800 
 31 H       -2.5810    -2.2590    -0.6250 H     1 <1>   0.0800 
 32 H       -0.8630     2.6550    -1.4460 H     1 <1>   0.1500 
 33 H       -2.3110     1.5780     2.3960 H     1 <1>   0.1500 
 34 H       -3.4540     1.6570    -1.5170 H     1 <1>   0.0800 
 35 H       -4.3330     0.4290    -2.3720 H     1 <1>   0.0800 
 36 H       -5.5880    -0.1350     1.2960 H     1 <1>   0.0800 
 37 H       -4.3320     0.9920     1.6730 H     1 <1>   0.0800 
 38 H       -2.5240     3.9700     2.9840 H     1 <1>   0.1500 
 39 H       -6.4000     1.2790    -1.7450 H     1 <1>   0.0800 
 40 H       -6.8760     1.5310     0.4930 H     1 <1>   0.0800 
 41 H       -6.4560     3.6460    -1.7540 H     1 <1>   0.0800 
 42 H       -4.8850     3.3630    -2.5010 H     1 <1>   0.0800 
 43 H       -4.8930     3.1620     1.6740 H     1 <1>   0.0800 
 44 H       -6.4410     3.6440     1.0330 H     1 <1>   0.0800 
 45 H       -3.7890     3.5260    -0.3790 H     1 <1>   0.0800 
 46 H        0.2370     8.0750    -1.1870 H     1 <1>   0.0800 
 47 H       -1.3260     8.1570    -1.9770 H     1 <1>   0.0800 
 48 H       -0.1150     7.0340    -2.5340 H     1 <1>   0.0800 
 49 H       -4.2000     5.6230     0.4470 H     1 <1>   0.4500 
 50 H       -2.4010     8.8140     0.1710 H     1 <1>   0.0800 
 51 H       -0.8430     8.7510     0.9720 H     1 <1>   0.0800 
 52 H       -2.2950     8.3940     1.8600 H     1 <1>   0.0800 
 53 H       -6.8630     5.6680    -0.8600 H     1 <1>   0.0800 
 54 H       -6.0830     7.0510    -0.1210 H     1 <1>   0.0800 
 55 H       -6.5480     5.6880     0.8640 H     1 <1>   0.0800 
 56 H       -4.8620     5.7510    -2.4270 H     1 <1>   0.0800 
 57 H       -3.2660     5.4520    -1.7800 H     1 <1>   0.0800 
 58 H       -4.0590     6.9800    -1.4710 H     1 <1>   0.0800 
@<TRIPOS>BOND
  1   1   2  2   
  2   2   3  am  
  3   2   4  1   
  4   3   5  1   
  5   3   6  1   
  6   4   7  ar  
  7   4   8  ar  
  8   5   9  1   
  9   5  10  1   
 10   5  28  1   
 11   6  29  1   
 12   6  30  1   
 13   6  31  1   
 14   7  11  ar  
 15   7  32  1   
 16   8  12  ar  
 17   8  33  1   
 18   9  13  1   
 19   9  34  1   
 20   9  35  1   
 21  10  14  1   
 22  10  36  1   
 23  10  37  1   
 24  11  15  ar  
 25  11  16  ar  
 26  12  16  ar  
 27  12  38  1   
 28  13  14  1   
 29  13  17  1   
 30  13  39  1   
 31  14  18  1   
 32  14  40  1   
 33  15  19  ar  
 34  16  20  ar  
 35  17  21  1   
 36  17  41  1   
 37  17  42  1   
 38  18  21  1   
 39  18  43  1   
 40  18  44  1   
 41  19  22  ar  
 42  19  23  1   
 43  20  22  ar  
 44  21  24  1   
 45  21  45  1   
 46  22  25  1   
 47  23  46  1   
 48  23  47  1   
 49  23  48  1   
 50  24  26  1   
 51  24  27  1   
 52  24  49  1   
 53  25  50  1   
 54  25  51  1   
 55  25  52  1   
 56  26  53  1   
 57  26  54  1   
 58  26  55  1   
 59  27  56  1   
 60  27  57  1   
 61  27  58  1   
@<TRIPOS>SUBSTRUCTURE
  1 ****  21 GROUP 4 **** **** 0

# MOE 2024.06 (io_trps.svl 2023.06)
