@<TRIPOS>MOLECULE
NONAME
37 39 1 0 0 
SMALL
USER_CHARGES


@<TRIPOS>ATOM
  1 O        1.0900     1.5380     1.1690 O.3   1 <1>  -0.0190 
  2 N        1.9320     0.5610     1.3330 N.2   1 <1>  -0.4100 
  3 C        0.8840     1.7960    -0.0950 C.2   1 <1>  -0.0400 
  4 C        2.2650     0.1750     0.1530 C.2   1 <1>   0.1080 
  5 C        1.6210     0.9390    -0.8160 C.2   1 <1>  -0.1500 
  6 C       -0.0510     2.9200    -0.5010 C.3   1 <1>   0.0200 
  7 C        3.2280    -0.9560    -0.1310 C.3   1 <1>  -0.0590 
  8 C        0.3620     4.2480     0.1530 C.3   1 <1>  -0.0800 
  9 C       -0.4030     5.4490    -0.3910 C.3   1 <1>   0.2000 
 10 C        1.8280     4.6160    -0.0640 C.3   1 <1>   0.2090 
 11 O       -1.6290     5.5640     0.2460 O.3   1 <1>  -0.6800 
 12 C        0.5000     6.6550    -0.1220 C.3   1 <1>   0.2090 
 13 N        1.8850     6.1050    -0.0010 N.pl3 1 <1>  -0.8380 
 14 C        3.0180     6.8460     0.1640 C.ar  1 <1>   0.1000 
 15 C        2.9760     8.2400     0.3120 C.ar  1 <1>  -0.1500 
 16 C        4.2910     6.2570     0.1940 C.ar  1 <1>  -0.1500 
 17 C        4.1220     8.9730     0.4780 C.ar  1 <1>   0.2110 
 18 C        5.4210     7.0130     0.3630 C.ar  1 <1>   0.2110 
 19 N        5.3310     8.3590     0.5030 N.ar  1 <1>  -0.1790 
 20 H        1.7180     0.8340    -1.8810 H     1 <1>   0.1500 
 21 H       -0.0390     3.0140    -1.5720 H     1 <1>   0.0800 
 22 H       -1.0540     2.6710    -0.2000 H     1 <1>   0.0800 
 23 H        2.7510    -1.6960    -0.7460 H     1 <1>   0.0800 
 24 H        3.5350    -1.4170     0.7910 H     1 <1>   0.0800 
 25 H        4.0960    -0.5780    -0.6370 H     1 <1>   0.0800 
 26 H        0.2130     4.1800     1.2170 H     1 <1>   0.0800 
 27 H       -0.5780     5.3600    -1.4490 H     1 <1>   0.0800 
 28 H        2.1600     4.2910    -1.0360 H     1 <1>   0.0800 
 29 H        2.4450     4.1660     0.6970 H     1 <1>   0.0800 
 30 H       -1.5190     5.5410     1.2170 H     1 <1>   0.4000 
 31 H        0.2250     7.1320     0.8020 H     1 <1>   0.0800 
 32 H        0.4410     7.3550    -0.9370 H     1 <1>   0.0800 
 33 H        2.0260     8.7420     0.2960 H     1 <1>   0.1500 
 34 H        4.3820     5.1930     0.0810 H     1 <1>   0.1500 
 35 H        4.0810    10.0450     0.5920 H     1 <1>   0.1500 
 36 H        6.3960     6.5530     0.3860 H     1 <1>   0.1500 
 37 H        6.1830     8.9170     0.6290 H     1 <1>   0.4570 
@<TRIPOS>BOND
  1   1   2  1   
  2   1   3  1   
  3   2   4  2   
  4   3   5  2   
  5   3   6  1   
  6   4   5  1   
  7   4   7  1   
  8   5  20  1   
  9   6   8  1   
 10   6  21  1   
 11   6  22  1   
 12   7  23  1   
 13   7  24  1   
 14   7  25  1   
 15   8   9  1   
 16   8  10  1   
 17   8  26  1   
 18   9  11  1   
 19   9  12  1   
 20   9  27  1   
 21  10  13  1   
 22  10  28  1   
 23  10  29  1   
 24  11  30  1   
 25  12  13  1   
 26  12  31  1   
 27  12  32  1   
 28  13  14  1   
 29  14  15  ar  
 30  14  16  ar  
 31  15  17  ar  
 32  15  33  1   
 33  16  18  ar  
 34  16  34  1   
 35  17  19  ar  
 36  17  35  1   
 37  18  19  ar  
 38  18  36  1   
 39  19  37  1   
@<TRIPOS>SUBSTRUCTURE
  1 ****  10 GROUP 4 **** **** 0

# MOE 2024.06 (io_trps.svl 2023.06)
