@<TRIPOS>MOLECULE
NONAME
46 47 1 0 0 
SMALL
USER_CHARGES


@<TRIPOS>ATOM
  1 CL       0.6700     2.1000     2.1010 Cl    1 <1>  -0.1770 
  2 C        2.2260     2.4940     1.4180 C.ar  1 <1>   0.1770 
  3 C        2.3920     2.4630     0.0460 C.ar  1 <1>  -0.1500 
  4 C        3.2700     2.8310     2.2580 C.ar  1 <1>  -0.1500 
  5 C        3.6280     2.7770    -0.4930 C.ar  1 <1>  -0.1500 
  6 C        4.5040     3.1440     1.7130 C.ar  1 <1>  -0.1500 
  7 C        4.6870     3.1180     0.3370 C.ar  1 <1>  -0.1430 
  8 C        6.0410     3.4680    -0.2580 C.3   1 <1>  -0.0160 
  9 C        6.1210     4.9720    -0.5420 C.3   1 <1>  -0.1600 
 10 C        7.4860     5.3720    -1.1250 C.3   1 <1>  -0.0990 
 11 C        7.5600     6.8550    -1.4230 C.2   1 <1>   0.5690 
 12 O        7.5430     7.2310    -2.5680 O.2   1 <1>  -0.5700 
 13 N        7.6430     7.7150    -0.3860 N.am  1 <1>  -0.7300 
 14 C        7.8040     9.1730    -0.4910 C.3   1 <1>   0.3640 
 15 C        8.7620     9.6430     0.6130 C.ar  1 <1>   0.1670 
 16 C        6.4150     9.8220    -0.3740 C.3   1 <1>  -0.1600 
 17 N        8.5640     9.1750     1.8450 N.ar  1 <1>  -0.6200 
 18 C        9.7860    10.5190     0.2810 C.ar  1 <1>  -0.1500 
 19 C        6.4450    11.3480    -0.5500 C.3   1 <1>  -0.2400 
 20 C        9.4110     9.6080     2.7650 C.ar  1 <1>   0.1600 
 21 C       10.6640    10.9590     1.2490 C.ar  1 <1>  -0.1430 
 22 C       10.4560    10.4820     2.5250 C.ar  1 <1>  -0.1500 
 23 C       11.7940    11.9190     0.9240 C.3   1 <1>  -0.0970 
 24 H        1.5650     2.1980    -0.5870 H     1 <1>   0.1500 
 25 H        3.1150     2.8490     3.3220 H     1 <1>   0.1500 
 26 H        3.7620     2.7580    -1.5610 H     1 <1>   0.1500 
 27 H        5.3190     3.4110     2.3630 H     1 <1>   0.1500 
 28 H        6.1880     2.9160    -1.1700 H     1 <1>   0.0800 
 29 H        6.8200     3.1830     0.4270 H     1 <1>   0.0800 
 30 H        5.9450     5.5150     0.3710 H     1 <1>   0.0800 
 31 H        5.3460     5.2440    -1.2390 H     1 <1>   0.0800 
 32 H        7.6620     4.8330    -2.0390 H     1 <1>   0.0800 
 33 H        8.2710     5.1200    -0.4360 H     1 <1>   0.0800 
 34 H        7.7220     7.3980     0.5840 H     1 <1>   0.3700 
 35 H        8.2200     9.4090    -1.4560 H     1 <1>   0.0800 
 36 H        5.9980     9.5880     0.5900 H     1 <1>   0.0800 
 37 H        5.7770     9.4010    -1.1310 H     1 <1>   0.0800 
 38 H        9.8950    10.8570    -0.7340 H     1 <1>   0.1500 
 39 H        7.0280    11.8090     0.2290 H     1 <1>   0.0800 
 40 H        5.4450    11.7400    -0.5000 H     1 <1>   0.0800 
 41 H        6.8670    11.6090    -1.5050 H     1 <1>   0.0800 
 42 H        9.2650     9.2460     3.7680 H     1 <1>   0.1500 
 43 H       11.0960    10.7820     3.3340 H     1 <1>   0.1500 
 44 H       12.1770    11.7260    -0.0620 H     1 <1>   0.0800 
 45 H       12.5990    11.8070     1.6290 H     1 <1>   0.0800 
 46 H       11.4350    12.9320     0.9660 H     1 <1>   0.0800 
@<TRIPOS>BOND
  1   1   2  1   
  2   2   3  ar  
  3   2   4  ar  
  4   3   5  ar  
  5   3  24  1   
  6   4   6  ar  
  7   4  25  1   
  8   5   7  ar  
  9   5  26  1   
 10   6   7  ar  
 11   6  27  1   
 12   7   8  1   
 13   8   9  1   
 14   8  28  1   
 15   8  29  1   
 16   9  10  1   
 17   9  30  1   
 18   9  31  1   
 19  10  11  1   
 20  10  32  1   
 21  10  33  1   
 22  11  12  2   
 23  11  13  am  
 24  13  14  1   
 25  13  34  1   
 26  14  15  1   
 27  14  16  1   
 28  14  35  1   
 29  15  17  ar  
 30  15  18  ar  
 31  16  19  1   
 32  16  36  1   
 33  16  37  1   
 34  17  20  ar  
 35  18  21  ar  
 36  18  38  1   
 37  19  39  1   
 38  19  40  1   
 39  19  41  1   
 40  20  22  ar  
 41  20  42  1   
 42  21  22  ar  
 43  21  23  1   
 44  22  43  1   
 45  23  44  1   
 46  23  45  1   
 47  23  46  1   
@<TRIPOS>SUBSTRUCTURE
  1 ****  13 GROUP 4 **** **** 0

# MOE 2024.06 (io_trps.svl 2023.06)
