@<TRIPOS>MOLECULE
NONAME
49 50 1 0 0 
SMALL
USER_CHARGES


@<TRIPOS>ATOM
  1 S        0.4950     1.3970     1.4510 S.3   1 <1>  -0.0800 
  2 C        1.8900     0.5640     2.0960 C.2   1 <1>   0.1980 
  3 C        1.5130     2.1070     0.2320 C.2   1 <1>  -0.1400 
  4 N        2.9740     0.7950     1.4760 N.2   1 <1>  -0.5650 
  5 C        1.6720    -0.3270     3.2960 C.3   1 <1>  -0.0600 
  6 C        2.7760     1.6740     0.4120 C.2   1 <1>   0.0460 
  7 C        0.8420     3.0330    -0.7650 C.3   1 <1>  -0.0600 
  8 C        4.0120     2.0320    -0.4250 C.3   1 <1>   0.3710 
  9 N        4.1080     3.4910    -0.7180 N.3   1 <1>  -0.8100 
 10 C        3.9670     1.2020    -1.7130 C.3   1 <1>  -0.2400 
 11 C        5.2880     3.8330    -1.5800 C.3   1 <1>   0.1710 
 12 C        4.1020     4.2760     0.5340 C.3   1 <1>   0.0300 
 13 C        5.5220     5.3190    -1.8930 C.2   1 <1>   0.5690 
 14 O        5.1700     5.7740    -2.9560 O.2   1 <1>  -0.5700 
 15 N        6.1550     6.0900    -0.9740 N.am  1 <1>  -0.7300 
 16 C        6.2990     7.5480    -1.0530 C.3   1 <1>   0.2840 
 17 C        7.3140     7.9820    -0.0070 C.ar  1 <1>  -0.1430 
 18 C        7.0350     7.8600     1.3540 C.ar  1 <1>   0.0820 
 19 C        8.5330     8.5020    -0.4130 C.ar  1 <1>  -0.1500 
 20 O        5.8340     7.3300     1.7110 O.3   1 <1>  -0.3630 
 21 C        7.9830     8.2720     2.2890 C.ar  1 <1>  -0.1500 
 22 C        9.4700     8.9070     0.5210 C.ar  1 <1>  -0.1500 
 23 C        5.4180     7.2750     3.0580 C.3   1 <1>   0.0400 
 24 C        9.1940     8.7930     1.8710 C.ar  1 <1>  -0.1500 
 25 H        0.9720    -1.1030     3.0490 H     1 <1>   0.0800 
 26 H        1.2870     0.2530     4.1140 H     1 <1>   0.0800 
 27 H        2.6040    -0.7740     3.5890 H     1 <1>   0.0800 
 28 H        0.4210     3.8780    -0.2520 H     1 <1>   0.0800 
 29 H        0.0580     2.5090    -1.2810 H     1 <1>   0.0800 
 30 H        1.5520     3.3900    -1.4880 H     1 <1>   0.0800 
 31 H        4.8820     1.7410     0.1400 H     1 <1>   0.0800 
 32 H        3.2020     1.5770    -2.3680 H     1 <1>   0.0800 
 33 H        3.7320     0.1820    -1.4670 H     1 <1>   0.0800 
 34 H        4.9160     1.2020    -2.2130 H     1 <1>   0.0800 
 35 H        5.1740     3.3520    -2.5330 H     1 <1>   0.0800 
 36 H        6.1820     3.4470    -1.1240 H     1 <1>   0.0800 
 37 H        3.2530     4.0240     1.1430 H     1 <1>   0.0800 
 38 H        4.0260     5.3270     0.3140 H     1 <1>   0.0800 
 39 H        4.9990     4.0920     1.1010 H     1 <1>   0.0800 
 40 H        6.3390     5.7300    -0.0360 H     1 <1>   0.3700 
 41 H        5.3480     8.0110    -0.8550 H     1 <1>   0.0800 
 42 H        6.6160     7.8270    -2.0430 H     1 <1>   0.0800 
 43 H        8.7610     8.5950    -1.4610 H     1 <1>   0.1500 
 44 H        7.8000     8.1930     3.3430 H     1 <1>   0.1500 
 45 H       10.4140     9.3100     0.1960 H     1 <1>   0.1500 
 46 H        4.4240     6.8660     3.0850 H     1 <1>   0.0800 
 47 H        5.4130     8.2720     3.4630 H     1 <1>   0.0800 
 48 H        6.0900     6.6390     3.6070 H     1 <1>   0.0800 
 49 H        9.9240     9.1090     2.5960 H     1 <1>   0.1500 
@<TRIPOS>BOND
  1   1   2  1   
  2   1   3  1   
  3   2   4  2   
  4   2   5  1   
  5   3   6  2   
  6   3   7  1   
  7   4   6  1   
  8   5  25  1   
  9   5  26  1   
 10   5  27  1   
 11   6   8  1   
 12   7  28  1   
 13   7  29  1   
 14   7  30  1   
 15   8   9  1   
 16   8  10  1   
 17   8  31  1   
 18   9  11  1   
 19   9  12  1   
 20  10  32  1   
 21  10  33  1   
 22  10  34  1   
 23  11  13  1   
 24  11  35  1   
 25  11  36  1   
 26  12  37  1   
 27  12  38  1   
 28  12  39  1   
 29  13  14  2   
 30  13  15  am  
 31  15  16  1   
 32  15  40  1   
 33  16  17  1   
 34  16  41  1   
 35  16  42  1   
 36  17  18  ar  
 37  17  19  ar  
 38  18  20  1   
 39  18  21  ar  
 40  19  22  ar  
 41  19  43  1   
 42  20  23  1   
 43  21  24  ar  
 44  21  44  1   
 45  22  24  ar  
 46  22  45  1   
 47  23  46  1   
 48  23  47  1   
 49  23  48  1   
 50  24  49  1   
@<TRIPOS>SUBSTRUCTURE
  1 ****  12 GROUP 4 **** **** 0

# MOE 2024.06 (io_trps.svl 2023.06)
