@<TRIPOS>MOLECULE
NONAME
41 42 1 0 0 
SMALL
USER_CHARGES


@<TRIPOS>ATOM
  1 CL       1.1140     3.6890     2.8020 Cl    1 <1>  -0.1770 
  2 C        0.6840     3.2940     1.1550 C.ar  1 <1>   0.1770 
  3 C        1.5000     2.4880     0.3670 C.ar  1 <1>  -0.1440 
  4 C       -0.5090     3.8020     0.6750 C.ar  1 <1>  -0.1500 
  5 C        1.0680     2.1810    -0.9190 C.ar  1 <1>  -0.1500 
  6 C        2.8340     1.9460     0.8820 C.3   1 <1>   0.3640 
  7 C       -0.9160     3.4990    -0.6110 C.ar  1 <1>  -0.1500 
  8 C       -0.1280     2.6840    -1.4050 C.ar  1 <1>  -0.1500 
  9 N        2.7560     0.4660     0.8610 N.am  1 <1>  -0.7300 
 10 C        4.0280     2.4520     0.0280 C.3   1 <1>   0.2610 
 11 C        3.7770    -0.3300     0.4770 C.2   1 <1>   0.5690 
 12 O        5.1920     1.6760     0.2730 O.3   1 <1>  -0.5600 
 13 C        4.3000     3.9490     0.2530 C.2   1 <1>   0.5690 
 14 O        3.6690    -1.5290     0.5160 O.2   1 <1>  -0.5700 
 15 C        5.0690     0.3060    -0.0460 C.3   1 <1>   0.1810 
 16 O        3.9230     4.4600     1.2850 O.2   1 <1>  -0.5700 
 17 N        4.9410     4.7030    -0.7080 N.am  1 <1>  -0.6600 
 18 C        5.0680     6.1760    -0.5450 C.3   1 <1>   0.1400 
 19 C        5.6040     4.1420    -1.9190 C.3   1 <1>   0.0600 
 20 C        6.3580     6.5030     0.2090 C.3   1 <1>  -0.1600 
 21 C        6.4490     8.0010     0.4860 C.3   1 <1>   0.1200 
 22 O        7.6490     8.2510     1.1210 O.3   1 <1>  -0.6800 
 23 H       -1.1130     4.4260     1.3090 H     1 <1>   0.1500 
 24 H        1.6550     1.5400    -1.5540 H     1 <1>   0.1500 
 25 H        2.9980     2.2470     1.9010 H     1 <1>   0.0800 
 26 H       -1.8440     3.8910    -0.9910 H     1 <1>   0.1500 
 27 H       -0.4480     2.4400    -2.4030 H     1 <1>   0.1500 
 28 H        1.9100     0.0360     1.2390 H     1 <1>   0.3700 
 29 H        3.7800     2.3270    -1.0080 H     1 <1>   0.0800 
 30 H        5.1080     0.2030    -1.1150 H     1 <1>   0.0800 
 31 H        5.9130    -0.2050     0.3800 H     1 <1>   0.0800 
 32 H        5.0660     6.6510    -1.5110 H     1 <1>   0.0800 
 33 H        4.2220     6.5490     0.0080 H     1 <1>   0.0800 
 34 H        6.5130     4.6800    -2.1230 H     1 <1>   0.0800 
 35 H        4.9480     4.2320    -2.7670 H     1 <1>   0.0800 
 36 H        5.8600     3.1070    -1.7750 H     1 <1>   0.0800 
 37 H        7.2040     6.1980    -0.3800 H     1 <1>   0.0800 
 38 H        6.3580     5.9690     1.1430 H     1 <1>   0.0800 
 39 H        5.6490     8.3300     1.1280 H     1 <1>   0.0800 
 40 H        6.4350     8.5690    -0.4290 H     1 <1>   0.0800 
 41 H        7.7070     7.7350     1.9490 H     1 <1>   0.4000 
@<TRIPOS>BOND
  1   1   2  1   
  2   2   3  ar  
  3   2   4  ar  
  4   3   5  ar  
  5   3   6  1   
  6   4   7  ar  
  7   4  23  1   
  8   5   8  ar  
  9   5  24  1   
 10   6   9  1   
 11   6  10  1   
 12   6  25  1   
 13   7   8  ar  
 14   7  26  1   
 15   8  27  1   
 16   9  11  am  
 17   9  28  1   
 18  10  12  1   
 19  10  13  1   
 20  10  29  1   
 21  11  14  2   
 22  11  15  1   
 23  12  15  1   
 24  13  16  2   
 25  13  17  am  
 26  15  30  1   
 27  15  31  1   
 28  17  18  1   
 29  17  19  1   
 30  18  20  1   
 31  18  32  1   
 32  18  33  1   
 33  19  34  1   
 34  19  35  1   
 35  19  36  1   
 36  20  21  1   
 37  20  37  1   
 38  20  38  1   
 39  21  22  1   
 40  21  39  1   
 41  21  40  1   
 42  22  41  1   
@<TRIPOS>SUBSTRUCTURE
  1 ****  10 GROUP 4 **** **** 0

# MOE 2024.06 (io_trps.svl 2023.06)
