@<TRIPOS>MOLECULE
NONAME
46 49 1 0 0 
SMALL
USER_CHARGES


@<TRIPOS>ATOM
  1 F       -0.4950    -0.2870     0.8370 F     1 <1>  -0.3400 
  2 C        0.4280    -1.2230     0.6320 C.3   1 <1>   1.2010 
  3 F        0.9010    -1.5330     1.8370 F     1 <1>  -0.3400 
  4 F        1.4290    -0.6270    -0.0080 F     1 <1>  -0.3400 
  5 C       -0.1230    -2.4630    -0.1280 C.2   1 <1>   0.1080 
  6 N       -0.6900    -2.4580    -1.3170 N.2   1 <1>  -0.7070 
  7 C       -0.0750    -3.7550     0.3840 C.2   1 <1>  -0.1500 
  8 N       -0.9910    -3.7410    -1.5650 N.pl3 1 <1>   0.3000 
  9 C       -0.6540    -4.5590    -0.5480 C.2   1 <1>  -0.2370 
 10 C       -0.8980    -5.9680    -0.5710 C.2   1 <1>   0.7150 
 11 O       -0.0830    -6.7290    -0.0890 O.2   1 <1>  -0.5700 
 12 N       -2.0510    -6.4670    -1.1270 N.am  1 <1>  -0.6600 
 13 C       -3.3790    -5.8160    -0.8940 C.3   1 <1>   0.1400 
 14 C       -2.1760    -7.9220    -1.4470 C.3   1 <1>   0.1400 
 15 C       -4.1820    -6.5850     0.1730 C.3   1 <1>   0.1900 
 16 C       -3.0180    -8.6460    -0.3840 C.3   1 <1>   0.1100 
 17 N       -4.3430    -8.0060    -0.2200 N.3   1 <1>  -0.8100 
 18 C       -5.5570    -5.9240     0.3930 C.3   1 <1>   0.1200 
 19 C       -5.1730    -8.7150     0.7840 C.3   1 <1>   0.3330 
 20 O       -6.2830    -6.6230     1.3620 O.3   1 <1>  -0.5600 
 21 C       -5.4700   -10.1450     0.3360 C.ar  1 <1>  -0.1430 
 22 C       -6.5030    -7.9680     1.0240 C.3   1 <1>   0.1200 
 23 C       -5.9250   -10.4090    -0.9500 C.ar  1 <1>  -0.1500 
 24 C       -5.2910   -11.2020     1.2160 C.ar  1 <1>  -0.1500 
 25 C       -6.1970   -11.7060    -1.3480 C.ar  1 <1>  -0.1500 
 26 C       -5.5620   -12.5010     0.8190 C.ar  1 <1>  -0.1500 
 27 C       -6.0160   -12.7530    -0.4630 C.ar  1 <1>  -0.1500 
 28 H        0.3380    -4.0620     1.3320 H     1 <1>   0.1500 
 29 H       -1.4240    -4.0510    -2.4450 H     1 <1>   0.2700 
 30 H       -3.2530    -4.8010    -0.5620 H     1 <1>   0.0800 
 31 H       -3.9340    -5.8030    -1.8150 H     1 <1>   0.0800 
 32 H       -2.6510    -8.0350    -2.4060 H     1 <1>   0.0800 
 33 H       -1.2040    -8.3800    -1.5060 H     1 <1>   0.0800 
 34 H       -3.6400    -6.5290     1.1020 H     1 <1>   0.0800 
 35 H       -2.4830    -8.6410     0.5520 H     1 <1>   0.0800 
 36 H       -3.1410    -9.6710    -0.6900 H     1 <1>   0.0800 
 37 H       -6.1260    -5.9120    -0.5200 H     1 <1>   0.0800 
 38 H       -5.4370    -4.9150     0.7450 H     1 <1>   0.0800 
 39 H       -4.6400    -8.7460     1.7190 H     1 <1>   0.0800 
 40 H       -7.0400    -8.4270     1.8330 H     1 <1>   0.0800 
 41 H       -7.1150    -8.0030     0.1410 H     1 <1>   0.0800 
 42 H       -6.0610    -9.5970    -1.6430 H     1 <1>   0.1500 
 43 H       -4.9390   -11.0220     2.2170 H     1 <1>   0.1500 
 44 H       -6.5480   -11.8990    -2.3470 H     1 <1>   0.1500 
 45 H       -5.4200   -13.3150     1.5080 H     1 <1>   0.1500 
 46 H       -6.2270   -13.7620    -0.7720 H     1 <1>   0.1500 
@<TRIPOS>BOND
  1   1   2  1   
  2   2   3  1   
  3   2   4  1   
  4   2   5  1   
  5   5   6  2   
  6   5   7  1   
  7   6   8  1   
  8   7   9  2   
  9   7  28  1   
 10   8   9  1   
 11   8  29  1   
 12   9  10  1   
 13  10  11  2   
 14  10  12  am  
 15  12  13  1   
 16  12  14  1   
 17  13  15  1   
 18  13  30  1   
 19  13  31  1   
 20  14  16  1   
 21  14  32  1   
 22  14  33  1   
 23  15  17  1   
 24  15  18  1   
 25  15  34  1   
 26  16  17  1   
 27  16  35  1   
 28  16  36  1   
 29  17  19  1   
 30  18  20  1   
 31  18  37  1   
 32  18  38  1   
 33  19  21  1   
 34  19  22  1   
 35  19  39  1   
 36  20  22  1   
 37  21  23  ar  
 38  21  24  ar  
 39  22  40  1   
 40  22  41  1   
 41  23  25  ar  
 42  23  42  1   
 43  24  26  ar  
 44  24  43  1   
 45  25  27  ar  
 46  25  44  1   
 47  26  27  ar  
 48  26  45  1   
 49  27  46  1   
@<TRIPOS>SUBSTRUCTURE
  1 ****  13 GROUP 4 **** **** 0

# MOE 2024.06 (io_trps.svl 2023.06)
