@<TRIPOS>MOLECULE
NONAME
42 44 1 0 0 
SMALL
USER_CHARGES


@<TRIPOS>ATOM
  1 O       -0.3660     0.2060    -0.1920 O.2   1 <1>  -0.5700 
  2 C       -1.4270     0.7830    -0.2330 C.2   1 <1>   0.5690 
  3 N       -2.6070     0.1040    -0.3420 N.am  1 <1>  -0.6600 
  4 C       -1.4340     2.2980    -0.1790 C.3   1 <1>  -0.0990 
  5 C       -3.9670     0.6950    -0.4160 C.3   1 <1>   0.1400 
  6 C       -2.6770    -1.3770    -0.3950 C.3   1 <1>   0.1400 
  7 C       -0.1080     2.8620     0.3510 C.3   1 <1>   0.0960 
  8 C       -4.9110    -0.4980    -0.5780 C.3   1 <1>   0.2000 
  9 C       -4.1340    -1.7150    -0.0770 C.3   1 <1>  -0.0800 
 10 N       -0.1470     4.3360     0.3770 N.pl3 1 <1>   0.3140 
 11 O       -6.0680    -0.3350     0.1670 O.3   1 <1>  -0.6800 
 12 C       -4.6270    -3.0310    -0.7020 C.3   1 <1>  -0.0170 
 13 N       -1.0250     5.0150     1.1400 N.2   1 <1>  -0.7070 
 14 C        0.6370     5.1750    -0.3280 C.2   1 <1>  -0.3020 
 15 C       -3.8580    -4.2290    -0.1720 C.ar  1 <1>   0.1670 
 16 C       -0.7730     6.2670     0.9040 C.2   1 <1>   0.1390 
 17 C        0.2600     6.4310    -0.0100 C.2   1 <1>  -0.1500 
 18 N       -2.6980    -4.4870    -0.7540 N.ar  1 <1>  -0.6200 
 19 C       -4.3870    -4.9780     0.8700 C.ar  1 <1>  -0.1500 
 20 C       -2.0360    -5.5300    -0.2790 C.ar  1 <1>   0.1600 
 21 C       -3.6870    -6.0620     1.3540 C.ar  1 <1>  -0.1500 
 22 C       -2.4770    -6.3370     0.7560 C.ar  1 <1>  -0.1500 
 23 H       -1.6140     2.6720    -1.1690 H     1 <1>   0.0800 
 24 H       -2.2260     2.6220     0.4700 H     1 <1>   0.0800 
 25 H       -4.1760     1.2280     0.4950 H     1 <1>   0.0800 
 26 H       -4.0420     1.3560    -1.2620 H     1 <1>   0.0800 
 27 H       -2.4120    -1.7050    -1.3860 H     1 <1>   0.0800 
 28 H       -2.0010    -1.8250     0.3150 H     1 <1>   0.0800 
 29 H        0.7070     2.5480    -0.2740 H     1 <1>   0.0800 
 30 H        0.0680     2.5110     1.3510 H     1 <1>   0.0800 
 31 H       -5.1850    -0.6070    -1.6140 H     1 <1>   0.0800 
 32 H       -4.2160    -1.7780     0.9940 H     1 <1>   0.0800 
 33 H       -5.8530    -0.2630     1.1170 H     1 <1>   0.4000 
 34 H       -4.5200    -2.9940    -1.7720 H     1 <1>   0.0800 
 35 H       -5.6740    -3.1540    -0.4880 H     1 <1>   0.0800 
 36 H        1.4050     4.8400    -1.0010 H     1 <1>   0.1500 
 37 H       -1.3100     7.0770     1.3690 H     1 <1>   0.1500 
 38 H        0.6500     7.3680    -0.3660 H     1 <1>   0.1500 
 39 H       -5.3360    -4.7170     1.3000 H     1 <1>   0.1500 
 40 H       -1.0890    -5.7540    -0.7400 H     1 <1>   0.1500 
 41 H       -4.0680    -6.6650     2.1610 H     1 <1>   0.1500 
 42 H       -1.8790    -7.1670     1.0840 H     1 <1>   0.1500 
@<TRIPOS>BOND
  1   1   2  2   
  2   2   3  am  
  3   2   4  1   
  4   3   5  1   
  5   3   6  1   
  6   4   7  1   
  7   4  23  1   
  8   4  24  1   
  9   5   8  1   
 10   5  25  1   
 11   5  26  1   
 12   6   9  1   
 13   6  27  1   
 14   6  28  1   
 15   7  10  1   
 16   7  29  1   
 17   7  30  1   
 18   8   9  1   
 19   8  11  1   
 20   8  31  1   
 21   9  12  1   
 22   9  32  1   
 23  10  13  1   
 24  10  14  1   
 25  11  33  1   
 26  12  15  1   
 27  12  34  1   
 28  12  35  1   
 29  13  16  2   
 30  14  17  2   
 31  14  36  1   
 32  15  18  ar  
 33  15  19  ar  
 34  16  17  1   
 35  16  37  1   
 36  17  38  1   
 37  18  20  ar  
 38  19  21  ar  
 39  19  39  1   
 40  20  22  ar  
 41  20  40  1   
 42  21  22  ar  
 43  21  41  1   
 44  22  42  1   
@<TRIPOS>SUBSTRUCTURE
  1 ****   3 GROUP 4 **** **** 0

# MOE 2024.06 (io_trps.svl 2023.06)
