@<TRIPOS>MOLECULE
NONAME
59 62 1 0 0 
SMALL
USER_CHARGES


@<TRIPOS>ATOM
  1 O       -0.5450     0.2710    -0.7110 O.2   1 <1>  -0.5700 
  2 C       -1.6070     0.6250    -0.2380 C.2   1 <1>   0.5440 
  3 N       -2.6850    -0.2450    -0.3040 N.am  1 <1>  -0.6600 
  4 C       -1.6730     1.9350     0.3830 C.ar  1 <1>   0.0860 
  5 C       -4.1150     0.1320    -0.5150 C.3   1 <1>   0.2200 
  6 C       -2.4270    -1.7010    -0.5020 C.3   1 <1>   0.0600 
  7 C       -1.6680     3.1020    -0.3770 C.ar  1 <1>  -0.1500 
  8 C       -1.7020     2.0700     1.7710 C.ar  1 <1>  -0.1500 
  9 C       -4.3150     1.1150    -1.6710 C.3   1 <1>  -0.1600 
 10 C       -4.7780     0.7310     0.7260 C.3   1 <1>  -0.1600 
 11 C       -1.7410     4.3490     0.2180 C.ar  1 <1>   0.0820 
 12 C       -1.7660     3.3120     2.3780 C.ar  1 <1>  -0.1500 
 13 C       -5.4820     2.0260    -1.2700 C.3   1 <1>  -0.0800 
 14 C       -5.7050     1.8500     0.2340 C.3   1 <1>  -0.0800 
 15 O       -1.7800     5.4430    -0.5810 O.3   1 <1>  -0.1650 
 16 C       -1.7930     4.4570     1.6020 C.ar  1 <1>  -0.1500 
 17 C       -5.2260     3.5280    -1.4930 C.3   1 <1>  -0.1600 
 18 C       -5.4280     3.2270     0.8500 C.3   1 <1>  -0.1600 
 19 C       -1.0640     6.5600    -0.2900 C.ar  1 <1>   0.0820 
 20 C       -5.7640     4.2390    -0.2480 C.3   1 <1>   0.4230 
 21 C       -1.6000     7.7890    -0.6440 C.ar  1 <1>  -0.1500 
 22 C        0.1790     6.5020     0.3310 C.ar  1 <1>  -0.1500 
 23 N       -7.2450     4.4450    -0.3590 N.4   1 <1>  -0.9590 
 24 C       -0.9090     8.9550    -0.3630 C.ar  1 <1>  -0.1500 
 25 C        0.8680     7.6690     0.6110 C.ar  1 <1>  -0.1500 
 26 C       -7.6100     5.3740    -1.4770 C.3   1 <1>   0.2630 
 27 C       -7.8560     4.9650     0.9070 C.3   1 <1>   0.2630 
 28 C        0.3230     8.8950     0.2660 C.ar  1 <1>  -0.1500 
 29 H       -4.6730    -0.7550    -0.7670 H     1 <1>   0.0800 
 30 H       -3.1110    -2.2820     0.0910 H     1 <1>   0.0800 
 31 H       -1.4230    -1.9520    -0.2020 H     1 <1>   0.0800 
 32 H       -2.5480    -1.9530    -1.5410 H     1 <1>   0.0800 
 33 H       -1.5950     3.0310    -1.4470 H     1 <1>   0.1500 
 34 H       -1.6710     1.1790     2.3760 H     1 <1>   0.1500 
 35 H       -3.4230     1.6780    -1.8550 H     1 <1>   0.0800 
 36 H       -4.5500     0.5760    -2.5720 H     1 <1>   0.0800 
 37 H       -5.3490    -0.0300     1.2260 H     1 <1>   0.0800 
 38 H       -4.0540     1.1010     1.4210 H     1 <1>   0.0800 
 39 H       -1.7880     3.3880     3.4520 H     1 <1>   0.1500 
 40 H       -6.3720     1.7160    -1.7930 H     1 <1>   0.0800 
 41 H       -6.7320     1.5710     0.4100 H     1 <1>   0.0800 
 42 H       -1.8480     5.4250     2.0700 H     1 <1>   0.1500 
 43 H       -5.6330     3.8730    -2.4240 H     1 <1>   0.0800 
 44 H       -4.1680     3.7160    -1.5240 H     1 <1>   0.0800 
 45 H       -4.3760     3.3170     1.0480 H     1 <1>   0.0800 
 46 H       -5.9390     3.3750     1.7820 H     1 <1>   0.0800 
 47 H       -5.2610     5.1790    -0.0830 H     1 <1>   0.0800 
 48 H       -2.5530     7.8330    -1.1380 H     1 <1>   0.1500 
 49 H        0.6160     5.5530     0.5890 H     1 <1>   0.1500 
 50 H       -7.6460     3.5180    -0.5580 H     1 <1>   0.4500 
 51 H       -1.3260     9.9100    -0.6350 H     1 <1>   0.1500 
 52 H        1.8290     7.6250     1.0930 H     1 <1>   0.1500 
 53 H       -7.1300     6.3300    -1.3400 H     1 <1>   0.0800 
 54 H       -8.6770     5.5250    -1.5020 H     1 <1>   0.0800 
 55 H       -7.3070     4.9680    -2.4270 H     1 <1>   0.0800 
 56 H       -7.3810     5.8870     1.2010 H     1 <1>   0.0800 
 57 H       -7.7490     4.2500     1.7050 H     1 <1>   0.0800 
 58 H       -8.9090     5.1500     0.7640 H     1 <1>   0.0800 
 59 H        0.8600     9.8020     0.4850 H     1 <1>   0.1500 
@<TRIPOS>BOND
  1   1   2  2   
  2   2   3  am  
  3   2   4  1   
  4   3   5  1   
  5   3   6  1   
  6   4   7  ar  
  7   4   8  ar  
  8   5   9  1   
  9   5  10  1   
 10   5  29  1   
 11   6  30  1   
 12   6  31  1   
 13   6  32  1   
 14   7  11  ar  
 15   7  33  1   
 16   8  12  ar  
 17   8  34  1   
 18   9  13  1   
 19   9  35  1   
 20   9  36  1   
 21  10  14  1   
 22  10  37  1   
 23  10  38  1   
 24  11  15  1   
 25  11  16  ar  
 26  12  16  ar  
 27  12  39  1   
 28  13  14  1   
 29  13  17  1   
 30  13  40  1   
 31  14  18  1   
 32  14  41  1   
 33  15  19  1   
 34  16  42  1   
 35  17  20  1   
 36  17  43  1   
 37  17  44  1   
 38  18  20  1   
 39  18  45  1   
 40  18  46  1   
 41  19  21  ar  
 42  19  22  ar  
 43  20  23  1   
 44  20  47  1   
 45  21  24  ar  
 46  21  48  1   
 47  22  25  ar  
 48  22  49  1   
 49  23  26  1   
 50  23  27  1   
 51  23  50  1   
 52  24  28  ar  
 53  24  51  1   
 54  25  28  ar  
 55  25  52  1   
 56  26  53  1   
 57  26  54  1   
 58  26  55  1   
 59  27  56  1   
 60  27  57  1   
 61  27  58  1   
 62  28  59  1   
@<TRIPOS>SUBSTRUCTURE
  1 ****  11 GROUP 4 **** **** 0

# MOE 2024.06 (io_trps.svl 2023.06)
