@<TRIPOS>MOLECULE
NONAME
55 57 1 0 0 
SMALL
USER_CHARGES


@<TRIPOS>ATOM
  1 O        1.1560    -1.2390    -3.0870 O.2   1 <1>  -0.5700 
  2 C        2.1650    -1.6790    -2.6020 C.2   1 <1>   0.5690 
  3 N        3.3030    -1.7880    -3.3190 N.am  1 <1>  -0.7300 
  4 C        2.1970    -2.1410    -1.1620 C.3   1 <1>  -0.0990 
  5 C        4.5580    -2.3350    -2.7640 C.3   1 <1>   0.1400 
  6 C        3.4840    -1.6570    -0.4680 C.3   1 <1>  -0.0800 
  7 C        4.7640    -1.8120    -1.3280 C.3   1 <1>  -0.0800 
  8 C        3.7630    -2.3760     0.8620 C.3   1 <1>  -0.1600 
  9 C        5.7100    -2.6940    -0.5070 C.3   1 <1>  -0.1600 
 10 C        5.2870    -2.4410     0.9350 C.3   1 <1>   0.2200 
 11 N        5.8390    -3.4550     1.8840 N.am  1 <1>  -0.6600 
 12 C        6.8970    -3.1990     2.7340 C.2   1 <1>   0.5690 
 13 C        5.2220    -4.8190     1.8710 C.3   1 <1>   0.0600 
 14 O        7.3030    -4.0430     3.4990 O.2   1 <1>  -0.5700 
 15 C        7.6100    -1.8480     2.7840 C.3   1 <1>   0.0440 
 16 C        8.2600    -1.4530     1.4610 C.ar  1 <1>  -0.1430 
 17 C        7.9460    -0.2490     0.8500 C.ar  1 <1>  -0.1500 
 18 C        9.1540    -2.3100     0.8410 C.ar  1 <1>  -0.1500 
 19 C        8.4830     0.0980    -0.3790 C.ar  1 <1>   0.0830 
 20 C        9.7100    -1.9800    -0.3830 C.ar  1 <1>   0.0830 
 21 O        8.0530     1.2900    -0.8810 O.3   1 <1>  -0.3630 
 22 C        9.3960    -0.7660    -1.0000 C.ar  1 <1>   0.0830 
 23 O       10.5640    -2.8760    -0.9380 O.3   1 <1>  -0.3630 
 24 C        7.9020     1.4760    -2.2720 C.3   1 <1>   0.0400 
 25 O        9.9900    -0.4340    -2.1790 O.3   1 <1>  -0.3630 
 26 C       10.1020    -3.5520    -2.0850 C.3   1 <1>   0.0400 
 27 C       11.3260     0.0020    -2.0720 C.3   1 <1>   0.0400 
 28 H        3.2720    -1.5110    -4.3020 H     1 <1>   0.3700 
 29 H        1.3320    -1.7670    -0.6450 H     1 <1>   0.0800 
 30 H        2.1500    -3.2140    -1.1660 H     1 <1>   0.0800 
 31 H        4.4870    -3.4090    -2.7640 H     1 <1>   0.0800 
 32 H        5.3910    -2.0470    -3.3830 H     1 <1>   0.0800 
 33 H        3.3660    -0.6050    -0.2660 H     1 <1>   0.0800 
 34 H        5.2180    -0.8370    -1.4050 H     1 <1>   0.0800 
 35 H        3.3380    -3.3620     0.8290 H     1 <1>   0.0800 
 36 H        3.3520    -1.8360     1.6970 H     1 <1>   0.0800 
 37 H        6.7370    -2.4310    -0.6790 H     1 <1>   0.0800 
 38 H        5.5610    -3.7280    -0.7570 H     1 <1>   0.0800 
 39 H        5.6170    -1.4580     1.2140 H     1 <1>   0.0800 
 40 H        4.9750    -5.1160     0.8690 H     1 <1>   0.0800 
 41 H        4.3290    -4.8160     2.4710 H     1 <1>   0.0800 
 42 H        5.9010    -5.5500     2.2750 H     1 <1>   0.0800 
 43 H        6.9040    -1.1040     3.0990 H     1 <1>   0.0800 
 44 H        8.3770    -1.8940     3.5360 H     1 <1>   0.0800 
 45 H        7.2640     0.4400     1.3170 H     1 <1>   0.1500 
 46 H        9.4200    -3.2480     1.2980 H     1 <1>   0.1500 
 47 H        7.2270     2.2980    -2.4290 H     1 <1>   0.0800 
 48 H        7.5010     0.5790    -2.7080 H     1 <1>   0.0800 
 49 H        8.8620     1.7100    -2.6970 H     1 <1>   0.0800 
 50 H       10.8370    -4.2860    -2.3600 H     1 <1>   0.0800 
 51 H        9.9710    -2.8460    -2.8850 H     1 <1>   0.0800 
 52 H        9.1690    -4.0330    -1.8510 H     1 <1>   0.0800 
 53 H       11.6730     0.2730    -3.0530 H     1 <1>   0.0800 
 54 H       11.9280    -0.7970    -1.6760 H     1 <1>   0.0800 
 55 H       11.3600     0.8550    -1.4180 H     1 <1>   0.0800 
@<TRIPOS>BOND
  1   1   2  2   
  2   2   3  am  
  3   2   4  1   
  4   3   5  1   
  5   3  28  1   
  6   4   6  1   
  7   4  29  1   
  8   4  30  1   
  9   5   7  1   
 10   5  31  1   
 11   5  32  1   
 12   6   7  1   
 13   6   8  1   
 14   6  33  1   
 15   7   9  1   
 16   7  34  1   
 17   8  10  1   
 18   8  35  1   
 19   8  36  1   
 20   9  10  1   
 21   9  37  1   
 22   9  38  1   
 23  10  11  1   
 24  10  39  1   
 25  11  12  am  
 26  11  13  1   
 27  12  14  2   
 28  12  15  1   
 29  13  40  1   
 30  13  41  1   
 31  13  42  1   
 32  15  16  1   
 33  15  43  1   
 34  15  44  1   
 35  16  17  ar  
 36  16  18  ar  
 37  17  19  ar  
 38  17  45  1   
 39  18  20  ar  
 40  18  46  1   
 41  19  21  1   
 42  19  22  ar  
 43  20  22  ar  
 44  20  23  1   
 45  21  24  1   
 46  22  25  1   
 47  23  26  1   
 48  24  47  1   
 49  24  48  1   
 50  24  49  1   
 51  25  27  1   
 52  26  50  1   
 53  26  51  1   
 54  26  52  1   
 55  27  53  1   
 56  27  54  1   
 57  27  55  1   
@<TRIPOS>SUBSTRUCTURE
  1 ****   9 GROUP 4 **** **** 0

# MOE 2024.06 (io_trps.svl 2023.06)
