@<TRIPOS>MOLECULE
NONAME
42 43 1 0 0 
SMALL
USER_CHARGES


@<TRIPOS>ATOM
  1 O       -0.2130     6.4840     3.2800 O.co2 1 <1>  -0.9000 
  2 C       -1.1160     5.7940     2.7500 C.2   1 <1>   0.9790 
  3 O       -2.2460     5.7880     3.2680 O.co2 1 <1>  -0.9000 
  4 C       -0.8470     5.0960     1.4890 C.ar  1 <1>   0.1310 
  5 N        0.4090     4.9070     1.1040 N.ar  1 <1>  -0.6200 
  6 C       -1.8540     4.6860     0.6350 C.ar  1 <1>  -0.1500 
  7 C        0.6500     4.5260    -0.1320 C.ar  1 <1>   0.7200 
  8 C       -1.5110     4.1950    -0.6040 C.ar  1 <1>   0.1660 
  9 N       -0.2640     4.1360    -1.0120 N.ar  1 <1>  -0.6200 
 10 N        1.9780     4.6430    -0.5150 N.pl3 1 <1>  -0.8380 
 11 C       -2.5720     3.7210    -1.5730 C.3   1 <1>  -0.0970 
 12 C        3.0530     4.7900     0.5370 C.3   1 <1>   0.2090 
 13 C        2.4390     4.2630    -1.8780 C.3   1 <1>   0.2090 
 14 C        3.3390     6.2430     1.0170 C.3   1 <1>   0.3430 
 15 C        2.9180     5.5160    -2.6030 C.3   1 <1>  -0.2400 
 16 N        2.1350     7.0670     1.3520 N.4   1 <1>  -0.9590 
 17 C        1.5170     7.7500     0.2000 C.3   1 <1>   0.3430 
 18 C        2.2380     8.0160     2.4850 C.3   1 <1>   0.3430 
 19 C        0.6170     8.7900     0.8400 C.3   1 <1>  -0.1600 
 20 C        1.3580     9.2040     2.1090 C.3   1 <1>  -0.1600 
 21 H       -2.8780     4.7740     0.9510 H     1 <1>   0.1500 
 22 H       -3.5520     3.8120    -1.1430 H     1 <1>   0.0800 
 23 H       -2.3950     2.6910    -1.8220 H     1 <1>   0.0800 
 24 H       -2.5280     4.3090    -2.4710 H     1 <1>   0.0800 
 25 H        3.9720     4.3730     0.1650 H     1 <1>   0.0800 
 26 H        2.7850     4.1980     1.3960 H     1 <1>   0.0800 
 27 H        1.6470     3.8050    -2.4470 H     1 <1>   0.0800 
 28 H        3.2370     3.5440    -1.8070 H     1 <1>   0.0800 
 29 H        3.9100     6.7500     0.2590 H     1 <1>   0.0800 
 30 H        3.9620     6.1730     1.8920 H     1 <1>   0.0800 
 31 H        2.1120     6.2240    -2.6760 H     1 <1>   0.0800 
 32 H        3.2300     5.2550    -3.5980 H     1 <1>   0.0800 
 33 H        3.7500     5.9610    -2.0910 H     1 <1>   0.0800 
 34 H        1.3900     6.4000     1.6750 H     1 <1>   0.4500 
 35 H        0.9600     7.0610    -0.4140 H     1 <1>   0.0800 
 36 H        2.2760     8.2340    -0.3910 H     1 <1>   0.0800 
 37 H        3.2550     8.3340     2.6360 H     1 <1>   0.0800 
 38 H        1.8640     7.5480     3.3840 H     1 <1>   0.0800 
 39 H       -0.3180     8.3230     1.1020 H     1 <1>   0.0800 
 40 H        0.4240     9.6170     0.1810 H     1 <1>   0.0800 
 41 H        1.9780    10.0630     1.9260 H     1 <1>   0.0800 
 42 H        0.6700     9.4290     2.9060 H     1 <1>   0.0800 
@<TRIPOS>BOND
  1   1   2  ar  
  2   2   3  ar  
  3   2   4  1   
  4   4   5  ar  
  5   4   6  ar  
  6   5   7  ar  
  7   6   8  ar  
  8   6  21  1   
  9   7   9  ar  
 10   7  10  1   
 11   8   9  ar  
 12   8  11  1   
 13  10  12  1   
 14  10  13  1   
 15  11  22  1   
 16  11  23  1   
 17  11  24  1   
 18  12  14  1   
 19  12  25  1   
 20  12  26  1   
 21  13  15  1   
 22  13  27  1   
 23  13  28  1   
 24  14  16  1   
 25  14  29  1   
 26  14  30  1   
 27  15  31  1   
 28  15  32  1   
 29  15  33  1   
 30  16  17  1   
 31  16  18  1   
 32  16  34  1   
 33  17  19  1   
 34  17  35  1   
 35  17  36  1   
 36  18  20  1   
 37  18  37  1   
 38  18  38  1   
 39  19  20  1   
 40  19  39  1   
 41  19  40  1   
 42  20  41  1   
 43  20  42  1   
@<TRIPOS>SUBSTRUCTURE
  1 ****   5 GROUP 4 **** **** 0

# MOE 2024.06 (io_trps.svl 2023.06)
