@<TRIPOS>MOLECULE
NONAME
40 40 1 0 0 
SMALL
USER_CHARGES


@<TRIPOS>ATOM
  1 O       -0.6050     1.0520     1.7490 O.co2 1 <1>  -0.9000 
  2 C       -0.6530     0.9480     0.5190 C.2   1 <1>   0.9060 
  3 O       -0.3110    -0.0720    -0.0850 O.co2 1 <1>  -0.9000 
  4 C       -0.9560     2.2090    -0.3320 C.3   1 <1>   0.3170 
  5 N        0.1710     3.2380    -0.3280 N.4   1 <1>  -0.9590 
  6 C       -2.2850     2.8770     0.0930 C.3   1 <1>  -0.1600 
  7 C       -0.0220     4.3400    -1.3060 C.3   1 <1>   0.4860 
  8 C        1.4900     2.5650    -0.4600 C.3   1 <1>   0.4810 
  9 C       -3.4840     1.9240    -0.0260 C.3   1 <1>  -0.2400 
 10 C        1.0770     5.3780    -1.1890 C.ar  1 <1>  -0.1440 
 11 C        2.3520     3.1080     0.6560 C.2   1 <1>  -0.2880 
 12 C        1.0950     6.2540    -0.1150 C.ar  1 <1>  -0.1500 
 13 C        2.0720     5.4640    -2.1540 C.ar  1 <1>  -0.1500 
 14 C        2.4940     2.5210     1.8490 C.2   1 <1>  -0.3000 
 15 C        2.0950     7.2050     0.0070 C.ar  1 <1>   0.0820 
 16 C        3.0740     6.4110    -2.0380 C.ar  1 <1>  -0.1500 
 17 O        2.0310     8.0160     1.0900 O.3   1 <1>  -0.3630 
 18 C        3.0910     7.2800    -0.9620 C.ar  1 <1>  -0.1500 
 19 C        2.9810     9.0380     1.3010 C.3   1 <1>   0.0400 
 20 H       -1.0760     1.8420    -1.3350 H     1 <1>   0.0800 
 21 H        0.2030     3.6040     0.6330 H     1 <1>   0.4500 
 22 H       -2.5010     3.7320    -0.5170 H     1 <1>   0.0800 
 23 H       -2.2040     3.1950     1.1190 H     1 <1>   0.0800 
 24 H       -0.9640     4.8280    -1.1280 H     1 <1>   0.0800 
 25 H       -0.0360     3.9380    -2.3050 H     1 <1>   0.0800 
 26 H        1.9380     2.7540    -1.4200 H     1 <1>   0.0800 
 27 H        1.4010     1.4970    -0.3360 H     1 <1>   0.0800 
 28 H       -3.5780     1.5480    -1.0300 H     1 <1>   0.0800 
 29 H       -4.3920     2.4390     0.2350 H     1 <1>   0.0800 
 30 H       -3.3730     1.0870     0.6450 H     1 <1>   0.0800 
 31 H        2.8490     4.0280     0.4000 H     1 <1>   0.1500 
 32 H        0.3380     6.2160     0.6480 H     1 <1>   0.1500 
 33 H        2.0770     4.8010    -3.0030 H     1 <1>   0.1500 
 34 H        3.1080     2.9040     2.6460 H     1 <1>   0.1500 
 35 H        1.9980     1.6040     2.1340 H     1 <1>   0.1500 
 36 H        3.8450     6.4740    -2.7880 H     1 <1>   0.1500 
 37 H        3.8800     8.0060    -0.8960 H     1 <1>   0.1500 
 38 H        2.7220     9.5530     2.2090 H     1 <1>   0.0800 
 39 H        2.9470     9.7230     0.4720 H     1 <1>   0.0800 
 40 H        3.9560     8.5960     1.3980 H     1 <1>   0.0800 
@<TRIPOS>BOND
  1   1   2  ar  
  2   2   3  ar  
  3   2   4  1   
  4   4   5  1   
  5   4   6  1   
  6   4  20  1   
  7   5   7  1   
  8   5   8  1   
  9   5  21  1   
 10   6   9  1   
 11   6  22  1   
 12   6  23  1   
 13   7  10  1   
 14   7  24  1   
 15   7  25  1   
 16   8  11  1   
 17   8  26  1   
 18   8  27  1   
 19   9  28  1   
 20   9  29  1   
 21   9  30  1   
 22  10  12  ar  
 23  10  13  ar  
 24  11  14  2   
 25  11  31  1   
 26  12  15  ar  
 27  12  32  1   
 28  13  16  ar  
 29  13  33  1   
 30  14  34  1   
 31  14  35  1   
 32  15  17  1   
 33  15  18  ar  
 34  16  18  ar  
 35  16  36  1   
 36  17  19  1   
 37  18  37  1   
 38  19  38  1   
 39  19  39  1   
 40  19  40  1   
@<TRIPOS>SUBSTRUCTURE
  1 ****   5 GROUP 4 **** **** 0

# MOE 2024.06 (io_trps.svl 2023.06)
