@<TRIPOS>MOLECULE
NONAME
55 58 1 0 0 
SMALL
USER_CHARGES


@<TRIPOS>ATOM
  1 S        1.4730    -0.8950     0.1170 S.3   1 <1>  -0.0800 
  2 C        0.9190    -2.4240    -0.5640 C.ar  1 <1>   0.2970 
  3 C       -0.0940    -0.6090     0.8790 C.2   1 <1>  -0.1100 
  4 N        1.6750    -3.2040    -1.3040 N.ar  1 <1>  -0.5670 
  5 C       -0.3850    -2.6620    -0.2090 C.ar  1 <1>   0.0000 
  6 C       -0.9430    -1.6180     0.6130 C.2   1 <1>  -0.1500 
  7 C        1.0520    -4.2930    -1.7040 C.ar  1 <1>   0.4770 
  8 C       -0.9170    -3.8530    -0.6990 C.ar  1 <1>   0.4100 
  9 N       -0.1930    -4.6710    -1.4400 N.ar  1 <1>  -0.6200 
 10 C        1.8510    -5.2400    -2.5690 C.3   1 <1>  -0.0960 
 11 N       -2.2090    -4.2280    -0.4150 N.pl3 1 <1>  -0.8690 
 12 C       -3.0030    -5.2030    -1.2490 C.3   1 <1>   0.2090 
 13 C       -3.7310    -6.3510    -0.4620 C.3   1 <1>   0.5030 
 14 N       -2.7700    -7.3870     0.0800 N.4   1 <1>  -0.9590 
 15 C       -4.6620    -7.0800    -1.4700 C.3   1 <1>  -0.1600 
 16 C       -4.5570    -5.7210     0.6970 C.3   1 <1>  -0.1600 
 17 C       -3.3450    -8.4480     0.9780 C.3   1 <1>   0.3430 
 18 C       -1.5080    -6.8500     0.7040 C.3   1 <1>   0.3430 
 19 C       -6.0320    -6.3980    -1.6180 C.3   1 <1>  -0.1600 
 20 C       -5.9150    -6.3960     0.9610 C.3   1 <1>  -0.1600 
 21 C       -2.3470    -9.6130     1.1840 C.3   1 <1>   0.1100 
 22 C       -0.5490    -7.9800     1.1450 C.3   1 <1>   0.1100 
 23 C       -6.8100    -6.3820    -0.2900 C.3   1 <1>  -0.1600 
 24 N       -1.0000    -9.3030     0.6570 N.3   1 <1>  -0.8100 
 25 C       -0.0360   -10.3580     0.9940 C.3   1 <1>   0.0300 
 26 H       -0.2000     0.2980     1.4480 H     1 <1>   0.1500 
 27 H       -1.9570    -1.6740     0.9650 H     1 <1>   0.1500 
 28 H        2.8450    -4.8630    -2.7260 H     1 <1>   0.0800 
 29 H        1.3670    -5.3490    -3.5220 H     1 <1>   0.0800 
 30 H        1.9140    -6.2000    -2.0930 H     1 <1>   0.0800 
 31 H       -2.7790    -3.5080     0.0400 H     1 <1>   0.4000 
 32 H       -2.3770    -5.6480    -2.0020 H     1 <1>   0.0800 
 33 H       -3.7440    -4.6300    -1.7770 H     1 <1>   0.0800 
 34 H       -2.3970    -7.9230    -0.7150 H     1 <1>   0.4500 
 35 H       -4.8540    -8.0920    -1.1700 H     1 <1>   0.0800 
 36 H       -4.1920    -7.1270    -2.4370 H     1 <1>   0.0800 
 37 H       -4.7840    -4.7000     0.4440 H     1 <1>   0.0800 
 38 H       -3.9740    -5.6850     1.6000 H     1 <1>   0.0800 
 39 H       -4.2560    -8.8460     0.5670 H     1 <1>   0.0800 
 40 H       -3.5830    -8.0170     1.9360 H     1 <1>   0.0800 
 41 H       -1.7380    -6.2140     1.5420 H     1 <1>   0.0800 
 42 H       -0.9830    -6.2560    -0.0170 H     1 <1>   0.0800 
 43 H       -6.6180    -6.9090    -2.3640 H     1 <1>   0.0800 
 44 H       -5.9000    -5.3860    -1.9620 H     1 <1>   0.0800 
 45 H       -6.4250    -5.8860     1.7620 H     1 <1>   0.0800 
 46 H       -5.7760    -7.4120     1.2800 H     1 <1>   0.0800 
 47 H       -2.7240   -10.4890     0.6830 H     1 <1>   0.0800 
 48 H       -2.2900    -9.8430     2.2350 H     1 <1>   0.0800 
 49 H       -0.4800    -7.9900     2.2200 H     1 <1>   0.0800 
 50 H        0.4330    -7.7660     0.7590 H     1 <1>   0.0800 
 51 H       -7.4680    -7.2340    -0.2500 H     1 <1>   0.0800 
 52 H       -7.4360    -5.5040    -0.2730 H     1 <1>   0.0800 
 53 H       -0.3700   -11.3030     0.5990 H     1 <1>   0.0800 
 54 H        0.0770   -10.4460     2.0620 H     1 <1>   0.0800 
 55 H        0.9230   -10.1330     0.5590 H     1 <1>   0.0800 
@<TRIPOS>BOND
  1   1   2  1   
  2   1   3  1   
  3   2   4  ar  
  4   2   5  ar  
  5   3   6  2   
  6   3  26  1   
  7   4   7  ar  
  8   5   6  1   
  9   5   8  ar  
 10   6  27  1   
 11   7   9  ar  
 12   7  10  1   
 13   8   9  ar  
 14   8  11  1   
 15  10  28  1   
 16  10  29  1   
 17  10  30  1   
 18  11  12  1   
 19  11  31  1   
 20  12  13  1   
 21  12  32  1   
 22  12  33  1   
 23  13  14  1   
 24  13  15  1   
 25  13  16  1   
 26  14  17  1   
 27  14  18  1   
 28  14  34  1   
 29  15  19  1   
 30  15  35  1   
 31  15  36  1   
 32  16  20  1   
 33  16  37  1   
 34  16  38  1   
 35  17  21  1   
 36  17  39  1   
 37  17  40  1   
 38  18  22  1   
 39  18  41  1   
 40  18  42  1   
 41  19  23  1   
 42  19  43  1   
 43  19  44  1   
 44  20  23  1   
 45  20  45  1   
 46  20  46  1   
 47  21  24  1   
 48  21  47  1   
 49  21  48  1   
 50  22  24  1   
 51  22  49  1   
 52  22  50  1   
 53  23  51  1   
 54  23  52  1   
 55  24  25  1   
 56  25  53  1   
 57  25  54  1   
 58  25  55  1   
@<TRIPOS>SUBSTRUCTURE
  1 ****  11 GROUP 4 **** **** 0

# MOE 2024.06 (io_trps.svl 2023.06)
