@<TRIPOS>MOLECULE
NONAME
42 44 1 0 0 
SMALL
USER_CHARGES


@<TRIPOS>ATOM
  1 S       -1.0330    -1.6100     1.4330 S.3   1 <1>  -0.2420 
  2 C       -2.0730    -1.8760     0.0350 C.2   1 <1>   0.6510 
  3 C       -0.8070     0.0970     1.0100 C.2   1 <1>  -0.0370 
  4 N       -2.6150    -3.0240    -0.2320 N.2   1 <1>  -0.6210 
  5 N       -2.2040    -0.7080    -0.6640 N.am  1 <1>  -0.2290 
  6 C       -1.4920     0.3780    -0.1080 C.2   1 <1>  -0.0410 
  7 C        0.0750     0.9140     1.9300 C.3   1 <1>  -0.1020 
  8 C       -3.3990    -3.0630    -1.3560 C.2   1 <1>   0.0330 
  9 C       -3.0000    -0.7210    -1.7830 C.2   1 <1>   0.6160 
 10 C       -3.6050    -1.9590    -2.1230 C.2   1 <1>  -0.1360 
 11 C       -4.0210    -4.4220    -1.6760 C.3   1 <1>   0.4810 
 12 O       -3.1780     0.2880    -2.4430 O.2   1 <1>  -0.5700 
 13 N       -4.4380    -5.0470    -0.3850 N.4   1 <1>  -0.9590 
 14 C       -4.3810    -6.5430    -0.4500 C.3   1 <1>   0.3430 
 15 C       -5.7450    -4.4970     0.0920 C.3   1 <1>   0.2630 
 16 C       -4.4430    -7.1970     0.9340 C.3   1 <1>   0.0960 
 17 N       -4.2890    -8.6460     0.7500 N.pl3 1 <1>   0.0480 
 18 C       -5.2430    -9.5980     0.6020 C.2   1 <1>   0.0070 
 19 C       -3.1230    -9.3000     0.5940 C.2   1 <1>  -0.3020 
 20 N       -4.7650   -10.7720     0.3620 N.2   1 <1>  -0.5650 
 21 C       -6.7350    -9.3410     0.7020 C.3   1 <1>  -0.0600 
 22 C       -3.4330   -10.5920     0.3610 C.2   1 <1>   0.0770 
 23 H       -1.5460     1.3320    -0.6070 H     1 <1>   0.1500 
 24 H        1.0630     0.4910     1.9610 H     1 <1>   0.0800 
 25 H       -0.3340     0.9150     2.9240 H     1 <1>   0.0800 
 26 H        0.1410     1.9280     1.5790 H     1 <1>   0.0800 
 27 H       -4.2140    -1.9520    -3.0080 H     1 <1>   0.1500 
 28 H       -3.2680    -5.0330    -2.1480 H     1 <1>   0.0800 
 29 H       -4.8570    -4.3200    -2.3480 H     1 <1>   0.0800 
 30 H       -3.6940    -4.6990     0.2540 H     1 <1>   0.4500 
 31 H       -3.4560    -6.8430    -0.9170 H     1 <1>   0.0800 
 32 H       -5.1950    -6.9130    -1.0530 H     1 <1>   0.0800 
 33 H       -6.5430    -4.7850    -0.5740 H     1 <1>   0.0800 
 34 H       -5.7020    -3.4200     0.1340 H     1 <1>   0.0800 
 35 H       -5.9710    -4.8630     1.0810 H     1 <1>   0.0800 
 36 H       -5.3830    -7.0040     1.4160 H     1 <1>   0.0800 
 37 H       -3.6390    -6.8460     1.5550 H     1 <1>   0.0800 
 38 H       -2.1540    -8.8400     0.6580 H     1 <1>   0.1500 
 39 H       -7.0510    -8.6510    -0.0560 H     1 <1>   0.0800 
 40 H       -6.9810    -8.9560     1.6750 H     1 <1>   0.0800 
 41 H       -7.2670   -10.2660     0.5620 H     1 <1>   0.0800 
 42 H       -2.7600   -11.4170     0.1920 H     1 <1>   0.1500 
@<TRIPOS>BOND
  1   1   2  1   
  2   1   3  1   
  3   2   4  2   
  4   2   5  1   
  5   3   6  2   
  6   3   7  1   
  7   4   8  1   
  8   5   6  1   
  9   5   9  am  
 10   6  23  1   
 11   7  24  1   
 12   7  25  1   
 13   7  26  1   
 14   8  10  2   
 15   8  11  1   
 16   9  10  1   
 17   9  12  2   
 18  10  27  1   
 19  11  13  1   
 20  11  28  1   
 21  11  29  1   
 22  13  14  1   
 23  13  15  1   
 24  13  30  1   
 25  14  16  1   
 26  14  31  1   
 27  14  32  1   
 28  15  33  1   
 29  15  34  1   
 30  15  35  1   
 31  16  17  1   
 32  16  36  1   
 33  16  37  1   
 34  17  18  1   
 35  17  19  1   
 36  18  20  2   
 37  18  21  1   
 38  19  22  2   
 39  19  38  1   
 40  20  22  1   
 41  21  39  1   
 42  21  40  1   
 43  21  41  1   
 44  22  42  1   
@<TRIPOS>SUBSTRUCTURE
  1 ****  13 GROUP 4 **** **** 0

# MOE 2024.06 (io_trps.svl 2023.06)
