@<TRIPOS>MOLECULE
NONAME
41 41 1 0 0 
SMALL
USER_CHARGES


@<TRIPOS>ATOM
  1 O        1.1620     0.2240     0.3820 O.3   1 <1>  -0.3630 
  2 C        2.1200     1.0200    -0.1780 C.ar  1 <1>   0.0830 
  3 C        1.1920    -1.1740     0.1860 C.3   1 <1>   0.0400 
  4 C        3.1710     0.5740    -0.9580 C.ar  1 <1>   0.1600 
  5 C        2.0570     2.3780     0.0360 C.ar  1 <1>   0.1600 
  6 N        4.0640     1.3890    -1.4710 N.ar  1 <1>  -0.6200 
  7 N        2.9360     3.2180    -0.4620 N.ar  1 <1>  -0.6200 
  8 C        3.9100     2.6840    -1.1970 C.ar  1 <1>   0.7200 
  9 N        4.8590     3.5400    -1.7250 N.pl3 1 <1>  -0.8380 
 10 C        5.0930     4.9140    -1.1620 C.3   1 <1>   0.2090 
 11 C        5.4530     3.2400    -3.0600 C.3   1 <1>   0.1290 
 12 C        6.1810     4.9690    -0.0490 C.3   1 <1>   0.0000 
 13 C        7.4970     4.3210    -0.5450 C.3   1 <1>   0.1200 
 14 C        5.6830     4.1780     1.1950 C.3   1 <1>  -0.1600 
 15 C        6.4660     6.4600     0.3010 C.3   1 <1>  -0.1600 
 16 O        7.9500     4.9150    -1.7180 O.3   1 <1>  -0.6800 
 17 C        6.5770     4.2360     2.4460 C.3   1 <1>  -0.2400 
 18 C        5.2890     7.2500     0.9000 C.3   1 <1>  -0.2400 
 19 H        0.3560    -1.6010     0.7100 H     1 <1>   0.0800 
 20 H        2.1100    -1.5660     0.5870 H     1 <1>   0.0800 
 21 H        1.1070    -1.3840    -0.8660 H     1 <1>   0.0800 
 22 H        3.2890    -0.4720    -1.1710 H     1 <1>   0.1500 
 23 H        1.2570     2.7740     0.6350 H     1 <1>   0.1500 
 24 H        4.1700     5.3010    -0.7700 H     1 <1>   0.0800 
 25 H        5.3750     5.5750    -1.9610 H     1 <1>   0.0800 
 26 H        4.8250     2.5550    -3.6050 H     1 <1>   0.0800 
 27 H        6.4210     2.7880    -2.9330 H     1 <1>   0.0800 
 28 H        5.5480     4.1390    -3.6430 H     1 <1>   0.0800 
 29 H        7.3530     3.2710    -0.7380 H     1 <1>   0.0800 
 30 H        8.2760     4.4300     0.1880 H     1 <1>   0.0800 
 31 H        5.5760     3.1420     0.9240 H     1 <1>   0.0800 
 32 H        4.6990     4.5210     1.4640 H     1 <1>   0.0800 
 33 H        6.7860     6.9720    -0.5900 H     1 <1>   0.0800 
 34 H        7.2930     6.5110     0.9870 H     1 <1>   0.0800 
 35 H        7.2900     4.7700    -2.4200 H     1 <1>   0.4000 
 36 H        7.5610     3.8560     2.2410 H     1 <1>   0.0800 
 37 H        6.1430     3.6310     3.2220 H     1 <1>   0.0800 
 38 H        6.6600     5.2410     2.8200 H     1 <1>   0.0800 
 39 H        4.4580     7.2900     0.2190 H     1 <1>   0.0800 
 40 H        5.6010     8.2590     1.1020 H     1 <1>   0.0800 
 41 H        4.9590     6.8140     1.8250 H     1 <1>   0.0800 
@<TRIPOS>BOND
  1   1   2  1   
  2   1   3  1   
  3   2   4  ar  
  4   2   5  ar  
  5   3  19  1   
  6   3  20  1   
  7   3  21  1   
  8   4   6  ar  
  9   4  22  1   
 10   5   7  ar  
 11   5  23  1   
 12   6   8  ar  
 13   7   8  ar  
 14   8   9  1   
 15   9  10  1   
 16   9  11  1   
 17  10  12  1   
 18  10  24  1   
 19  10  25  1   
 20  11  26  1   
 21  11  27  1   
 22  11  28  1   
 23  12  13  1   
 24  12  14  1   
 25  12  15  1   
 26  13  16  1   
 27  13  29  1   
 28  13  30  1   
 29  14  17  1   
 30  14  31  1   
 31  14  32  1   
 32  15  18  1   
 33  15  33  1   
 34  15  34  1   
 35  16  35  1   
 36  17  36  1   
 37  17  37  1   
 38  17  38  1   
 39  18  39  1   
 40  18  40  1   
 41  18  41  1   
@<TRIPOS>SUBSTRUCTURE
  1 ****   8 GROUP 4 **** **** 0

# MOE 2024.06 (io_trps.svl 2023.06)
