@<TRIPOS>MOLECULE
NONAME
45 47 1 0 0 
SMALL
USER_CHARGES


@<TRIPOS>ATOM
  1 F       -1.3970     1.7090     1.2900 F     1 <1>  -0.1900 
  2 C       -0.7760     2.2810     0.2890 C.ar  1 <1>   0.1900 
  3 C        0.4530     2.8890     0.5210 C.ar  1 <1>   0.0830 
  4 C       -1.3890     2.2660    -0.9630 C.ar  1 <1>   0.0860 
  5 O        1.0330     2.9100     1.7500 O.3   1 <1>  -0.3630 
  6 C        1.0680     3.5090    -0.5580 C.ar  1 <1>   0.1900 
  7 C       -2.6610     1.6200    -1.1840 C.2   1 <1>   0.5440 
  8 C       -0.7210     2.8980    -2.0160 C.ar  1 <1>  -0.1500 
  9 C        1.5740     1.6950     2.2190 C.3   1 <1>   0.0400 
 10 F        2.2220     4.1010    -0.3960 F     1 <1>  -0.1900 
 11 C        0.5010     3.5210    -1.8200 C.ar  1 <1>  -0.1500 
 12 O       -2.6710     0.5140    -1.6900 O.2   1 <1>  -0.5700 
 13 N       -3.8570     2.2330    -0.8730 N.am  1 <1>  -0.6600 
 14 C       -5.1540     1.5570    -1.1810 C.3   1 <1>   0.1400 
 15 C       -3.9340     3.5740    -0.2140 C.3   1 <1>   0.1400 
 16 C       -6.2550     2.5890    -1.4320 C.3   1 <1>  -0.1600 
 17 C       -5.2010     3.6620     0.6320 C.3   1 <1>  -0.1600 
 18 C       -6.4610     3.5420    -0.2410 C.3   1 <1>   0.4180 
 19 O       -6.7310     4.7980    -0.8170 O.3   1 <1>  -0.5600 
 20 C       -7.6470     3.0700     0.5980 C.2   1 <1>  -0.2880 
 21 C       -7.4340     5.7370    -0.0510 C.3   1 <1>   0.1200 
 22 C       -8.7360     3.8020     0.8440 C.2   1 <1>  -0.2760 
 23 C       -8.8330     5.2150     0.3020 C.3   1 <1>  -0.0220 
 24 C       -9.9360     3.3230     1.6400 C.3   1 <1>  -0.1020 
 25 H       -1.1730     2.8920    -2.9940 H     1 <1>   0.1500 
 26 H        2.0590     1.8850     3.1600 H     1 <1>   0.0800 
 27 H        2.2920     1.3340     1.5030 H     1 <1>   0.0800 
 28 H        0.7830     0.9800     2.3540 H     1 <1>   0.0800 
 29 H        1.0120     4.0090    -2.6310 H     1 <1>   0.1500 
 30 H       -5.4230     0.9230    -0.3540 H     1 <1>   0.0800 
 31 H       -5.0460     0.9360    -2.0550 H     1 <1>   0.0800 
 32 H       -3.9480     4.3410    -0.9700 H     1 <1>   0.0800 
 33 H       -3.0790     3.7310     0.4190 H     1 <1>   0.0800 
 34 H       -7.1750     2.0810    -1.6540 H     1 <1>   0.0800 
 35 H       -5.9790     3.1510    -2.3070 H     1 <1>   0.0800 
 36 H       -5.2100     4.5780     1.1890 H     1 <1>   0.0800 
 37 H       -5.1780     2.8600     1.3480 H     1 <1>   0.0800 
 38 H       -7.5200     2.0680     0.9670 H     1 <1>   0.1500 
 39 H       -7.5080     6.6420    -0.6270 H     1 <1>   0.0800 
 40 H       -6.8760     5.9410     0.8450 H     1 <1>   0.0800 
 41 H       -9.4590     5.2290    -0.5730 H     1 <1>   0.0800 
 42 H       -9.2660     5.8690     1.0370 H     1 <1>   0.0800 
 43 H      -10.0830     3.9460     2.5040 H     1 <1>   0.0800 
 44 H       -9.7890     2.3100     1.9710 H     1 <1>   0.0800 
 45 H      -10.8220     3.3570     1.0310 H     1 <1>   0.0800 
@<TRIPOS>BOND
  1   1   2  1   
  2   2   3  ar  
  3   2   4  ar  
  4   3   5  1   
  5   3   6  ar  
  6   4   7  1   
  7   4   8  ar  
  8   5   9  1   
  9   6  10  1   
 10   6  11  ar  
 11   7  12  2   
 12   7  13  am  
 13   8  11  ar  
 14   8  25  1   
 15   9  26  1   
 16   9  27  1   
 17   9  28  1   
 18  11  29  1   
 19  13  14  1   
 20  13  15  1   
 21  14  16  1   
 22  14  30  1   
 23  14  31  1   
 24  15  17  1   
 25  15  32  1   
 26  15  33  1   
 27  16  18  1   
 28  16  34  1   
 29  16  35  1   
 30  17  18  1   
 31  17  36  1   
 32  17  37  1   
 33  18  19  1   
 34  18  20  1   
 35  19  21  1   
 36  20  22  2   
 37  20  38  1   
 38  21  23  1   
 39  21  39  1   
 40  21  40  1   
 41  22  23  1   
 42  22  24  1   
 43  23  41  1   
 44  23  42  1   
 45  24  43  1   
 46  24  44  1   
 47  24  45  1   
@<TRIPOS>SUBSTRUCTURE
  1 ****  15 GROUP 4 **** **** 0

# MOE 2024.06 (io_trps.svl 2023.06)
