@<TRIPOS>MOLECULE
NONAME
53 56 1 0 0 
SMALL
USER_CHARGES


@<TRIPOS>ATOM
  1 F        1.6680    -0.5070     1.0550 F     1 <1>  -0.1900 
  2 C        1.5790    -1.7790     0.7780 C.ar  1 <1>   0.1900 
  3 C        0.8860    -2.1640    -0.3510 C.ar  1 <1>  -0.1500 
  4 C        2.1720    -2.6920     1.6230 C.ar  1 <1>  -0.1500 
  5 C        0.7710    -3.5160    -0.6520 C.ar  1 <1>  -0.1440 
  6 C        2.0740    -4.0360     1.3120 C.ar  1 <1>  -0.1500 
  7 C        1.3920    -4.4700     0.1730 C.ar  1 <1>  -0.0230 
  8 C       -0.0390    -3.9140    -1.8790 C.3   1 <1>   0.4870 
  9 N        1.3780    -5.8730    -0.1170 N.pl3 1 <1>   0.5930 
 10 N       -1.4150    -4.2640    -1.4380 N.4   1 <1>  -0.9590 
 11 N        0.3020    -6.5440    -0.6210 N.2   1 <1>  -0.7070 
 12 C        2.4250    -6.7230     0.0060 C.2   1 <1>  -0.3020 
 13 C       -2.1230    -5.1350    -2.4250 C.3   1 <1>   0.3430 
 14 C       -2.2220    -3.0790    -1.0320 C.3   1 <1>   0.3430 
 15 C        0.7030    -7.7700    -0.7780 C.2   1 <1>   0.1390 
 16 C        2.0270    -7.9430    -0.4030 C.2   1 <1>  -0.1500 
 17 C       -2.9390    -6.2490    -1.7340 C.3   1 <1>   0.1400 
 18 C       -3.2600    -3.4280     0.0330 C.3   1 <1>  -0.1600 
 19 N       -3.4520    -5.8540    -0.3800 N.am  1 <1>  -0.6600 
 20 C       -4.2080    -4.5720    -0.3330 C.3   1 <1>   0.1400 
 21 C       -3.3060    -6.5870     0.7800 C.2   1 <1>   0.5690 
 22 O       -3.6090    -6.1040     1.8450 O.2   1 <1>  -0.5700 
 23 C       -2.7580    -8.0130     0.7630 C.3   1 <1>  -0.0190 
 24 C       -3.7220    -9.0020     0.1340 C.3   1 <1>   0.1200 
 25 C       -2.4980    -8.6790     2.1120 C.3   1 <1>  -0.1600 
 26 O       -3.2550   -10.2440     0.5410 O.3   1 <1>  -0.5600 
 27 C       -2.7090   -10.1640     1.8230 C.3   1 <1>   0.1200 
 28 H        0.4500    -1.3990    -0.9690 H     1 <1>   0.1500 
 29 H        2.6970    -2.3540     2.5000 H     1 <1>   0.1500 
 30 H        2.5390    -4.7510     1.9710 H     1 <1>   0.1500 
 31 H        0.4260    -4.7680    -2.3460 H     1 <1>   0.0800 
 32 H       -0.0660    -3.1070    -2.5920 H     1 <1>   0.0800 
 33 H       -1.2910    -4.8630    -0.6000 H     1 <1>   0.4500 
 34 H        3.3860    -6.4100     0.3720 H     1 <1>   0.1500 
 35 H       -1.4090    -5.6050    -3.0830 H     1 <1>   0.0800 
 36 H       -2.7800    -4.5360    -3.0330 H     1 <1>   0.0800 
 37 H       -2.7130    -2.6600    -1.8950 H     1 <1>   0.0800 
 38 H       -1.5770    -2.3210    -0.6210 H     1 <1>   0.0800 
 39 H        0.0860    -8.5700    -1.1570 H     1 <1>   0.1500 
 40 H        2.5860    -8.8640    -0.4430 H     1 <1>   0.1500 
 41 H       -2.3060    -7.1130    -1.6570 H     1 <1>   0.0800 
 42 H       -3.7690    -6.5230    -2.3620 H     1 <1>   0.0800 
 43 H       -3.8540    -2.5500     0.2120 H     1 <1>   0.0800 
 44 H       -2.7660    -3.6550     0.9620 H     1 <1>   0.0800 
 45 H       -4.6940    -4.3850    -1.2760 H     1 <1>   0.0800 
 46 H       -4.9800    -4.6430     0.4170 H     1 <1>   0.0800 
 47 H       -1.8420    -8.0320     0.2130 H     1 <1>   0.0800 
 48 H       -3.7320    -8.9640    -0.9400 H     1 <1>   0.0800 
 49 H       -4.7190    -8.8760     0.5230 H     1 <1>   0.0800 
 50 H       -3.2170    -8.3690     2.8500 H     1 <1>   0.0800 
 51 H       -1.5090    -8.4760     2.4830 H     1 <1>   0.0800 
 52 H       -3.3990   -10.6090     2.5190 H     1 <1>   0.0800 
 53 H       -1.7810   -10.7090     1.8240 H     1 <1>   0.0800 
@<TRIPOS>BOND
  1   1   2  1   
  2   2   3  ar  
  3   2   4  ar  
  4   3   5  ar  
  5   3  28  1   
  6   4   6  ar  
  7   4  29  1   
  8   5   7  ar  
  9   5   8  1   
 10   6   7  ar  
 11   6  30  1   
 12   7   9  1   
 13   8  10  1   
 14   8  31  1   
 15   8  32  1   
 16   9  11  1   
 17   9  12  1   
 18  10  13  1   
 19  10  14  1   
 20  10  33  1   
 21  11  15  2   
 22  12  16  2   
 23  12  34  1   
 24  13  17  1   
 25  13  35  1   
 26  13  36  1   
 27  14  18  1   
 28  14  37  1   
 29  14  38  1   
 30  15  16  1   
 31  15  39  1   
 32  16  40  1   
 33  17  19  1   
 34  17  41  1   
 35  17  42  1   
 36  18  20  1   
 37  18  43  1   
 38  18  44  1   
 39  19  20  1   
 40  19  21  am  
 41  20  45  1   
 42  20  46  1   
 43  21  22  2   
 44  21  23  1   
 45  23  24  1   
 46  23  25  1   
 47  23  47  1   
 48  24  26  1   
 49  24  48  1   
 50  24  49  1   
 51  25  27  1   
 52  25  50  1   
 53  25  51  1   
 54  26  27  1   
 55  27  52  1   
 56  27  53  1   
@<TRIPOS>SUBSTRUCTURE
  1 ****  11 GROUP 4 **** **** 0

# MOE 2024.06 (io_trps.svl 2023.06)
