@<TRIPOS>MOLECULE
NONAME
42 44 1 0 0 
SMALL
USER_CHARGES


@<TRIPOS>ATOM
  1 O       -0.6510     0.5600     1.3980 O.3   1 <1>  -0.0190 
  2 N       -0.7870    -0.6660     0.9940 N.2   1 <1>  -0.4100 
  3 C       -1.3350     1.2590     0.5270 C.2   1 <1>   0.2980 
  4 C       -1.5180    -0.6400    -0.0510 C.2   1 <1>   0.3350 
  5 N       -1.8910     0.5860    -0.4020 N.2   1 <1>  -0.5650 
  6 C       -1.4160     2.7730     0.7000 C.3   1 <1>   0.2900 
  7 C       -1.9200    -1.8710    -0.8580 C.3   1 <1>   0.3010 
  8 N       -0.1130     3.4660     0.5580 N.3   1 <1>  -0.8100 
  9 O       -3.2610    -2.2150    -0.6270 O.3   1 <1>  -0.5600 
 10 C       -0.2530     4.8970     0.8820 C.3   1 <1>   0.2530 
 11 C        0.4550     3.2710    -0.7880 C.3   1 <1>   0.0300 
 12 C       -3.6980    -3.3210    -1.3470 C.3   1 <1>   0.0400 
 13 C        1.0990     5.5970     0.9280 C.ar  1 <1>  -0.1440 
 14 C        1.3300     6.7230     0.1550 C.ar  1 <1>  -0.1500 
 15 C        2.1080     5.1200     1.7490 C.ar  1 <1>  -0.1500 
 16 C        2.5550     7.3870     0.1880 C.ar  1 <1>  -0.0230 
 17 C        3.3290     5.7680     1.8010 C.ar  1 <1>  -0.1500 
 18 N        2.7740     8.5400    -0.6240 N.pl3 1 <1>   0.5930 
 19 C        3.5500     6.8940     1.0300 C.ar  1 <1>  -0.1500 
 20 N        1.7770     9.3730    -1.0270 N.2   1 <1>  -0.7070 
 21 C        3.9560     8.9730    -1.1330 C.2   1 <1>  -0.3020 
 22 C        2.3480    10.2850    -1.7480 C.2   1 <1>   0.1390 
 23 C        3.7190    10.0890    -1.8520 C.2   1 <1>  -0.1500 
 24 H       -1.8130     2.9650     1.6810 H     1 <1>   0.0800 
 25 H       -2.1120     3.1620    -0.0230 H     1 <1>   0.0800 
 26 H       -1.3020    -2.7030    -0.5730 H     1 <1>   0.0800 
 27 H       -1.7930    -1.6660    -1.9060 H     1 <1>   0.0800 
 28 H       -0.7120     4.9990     1.8510 H     1 <1>   0.0800 
 29 H       -0.8920     5.3730     0.1580 H     1 <1>   0.0800 
 30 H        0.5920     2.2210    -0.9870 H     1 <1>   0.0800 
 31 H        1.4190     3.7440    -0.8590 H     1 <1>   0.0800 
 32 H       -0.1950     3.6870    -1.5390 H     1 <1>   0.0800 
 33 H       -4.7290    -3.4950    -1.0950 H     1 <1>   0.0800 
 34 H       -3.1090    -4.1790    -1.0740 H     1 <1>   0.0800 
 35 H       -3.6130    -3.1170    -2.4000 H     1 <1>   0.0800 
 36 H        0.5520     7.1010    -0.4860 H     1 <1>   0.1500 
 37 H        1.9380     4.2390     2.3440 H     1 <1>   0.1500 
 38 H        4.1050     5.3910     2.4450 H     1 <1>   0.1500 
 39 H        4.5030     7.3890     1.0910 H     1 <1>   0.1500 
 40 H        4.8820     8.4620    -0.9550 H     1 <1>   0.1500 
 41 H        1.8130    11.0970    -2.2110 H     1 <1>   0.1500 
 42 H        4.4080    10.7080    -2.3980 H     1 <1>   0.1500 
@<TRIPOS>BOND
  1   1   2  1   
  2   1   3  1   
  3   2   4  2   
  4   3   5  2   
  5   3   6  1   
  6   4   5  1   
  7   4   7  1   
  8   6   8  1   
  9   6  24  1   
 10   6  25  1   
 11   7   9  1   
 12   7  26  1   
 13   7  27  1   
 14   8  10  1   
 15   8  11  1   
 16   9  12  1   
 17  10  13  1   
 18  10  28  1   
 19  10  29  1   
 20  11  30  1   
 21  11  31  1   
 22  11  32  1   
 23  12  33  1   
 24  12  34  1   
 25  12  35  1   
 26  13  14  ar  
 27  13  15  ar  
 28  14  16  ar  
 29  14  36  1   
 30  15  17  ar  
 31  15  37  1   
 32  16  18  1   
 33  16  19  ar  
 34  17  19  ar  
 35  17  38  1   
 36  18  20  1   
 37  18  21  1   
 38  19  39  1   
 39  20  22  2   
 40  21  23  2   
 41  21  40  1   
 42  22  23  1   
 43  22  41  1   
 44  23  42  1   
@<TRIPOS>SUBSTRUCTURE
  1 ****   8 GROUP 4 **** **** 0

# MOE 2024.06 (io_trps.svl 2023.06)
