@<TRIPOS>MOLECULE
NONAME
51 53 1 0 0 
SMALL
USER_CHARGES


@<TRIPOS>ATOM
  1 CL      -0.8700    -2.5120    -3.8560 Cl    1 <1>  -0.1770 
  2 C       -1.5840    -3.4640    -2.5810 C.ar  1 <1>   0.1770 
  3 C       -0.7790    -4.2810    -1.8100 C.ar  1 <1>  -0.1500 
  4 C       -2.9450    -3.3910    -2.3550 C.ar  1 <1>  -0.1500 
  5 C       -1.3510    -5.0340    -0.8010 C.ar  1 <1>  -0.1500 
  6 C       -3.5050    -4.1470    -1.3420 C.ar  1 <1>  -0.1500 
  7 C       -2.7240    -4.9890    -0.5440 C.ar  1 <1>   0.0530 
  8 C       -3.3040    -5.7830     0.5110 C.2   1 <1>   0.0870 
  9 O       -2.5820    -6.1620     1.5400 O.3   1 <1>  -0.0190 
 10 C       -4.5480    -6.2810     0.7110 C.2   1 <1>  -0.2330 
 11 N       -3.2650    -6.8630     2.4110 N.2   1 <1>  -0.4100 
 12 C       -4.4550    -6.9410     1.9340 C.2   1 <1>   0.3720 
 13 C       -5.7350    -6.2180    -0.0620 C.2   1 <1>   1.0330 
 14 N       -5.4910    -7.6010     2.6060 N.pl3 1 <1>  -0.8210 
 15 O       -6.5170    -5.2620     0.0430 O.co2 1 <1>  -0.9000 
 16 O       -6.1560    -7.2110    -0.6820 O.co2 1 <1>  -0.9000 
 17 C       -5.9190    -8.9040     1.9880 C.3   1 <1>   0.2090 
 18 C       -6.5770    -6.7030     3.1280 C.3   1 <1>   0.2090 
 19 C       -7.4390    -9.0270     1.7340 C.3   1 <1>   0.3430 
 20 C       -7.8720    -6.6350     2.2740 C.3   1 <1>   0.3430 
 21 N       -8.0050    -7.7290     1.2600 N.4   1 <1>  -0.9590 
 22 C       -9.3280    -7.7610     0.5790 C.3   1 <1>   0.3430 
 23 C       -9.3040    -8.5950    -0.7120 C.3   1 <1>   0.1200 
 24 O       -9.2450    -9.9560    -0.4010 O.3   1 <1>  -0.5600 
 25 C       -9.0190   -10.7690    -1.5060 C.3   1 <1>   0.1200 
 26 C       -8.9770   -12.2170    -1.0200 C.3   1 <1>  -0.1600 
 27 C       -8.7290   -13.1880    -2.1800 C.3   1 <1>  -0.2400 
 28 H        0.2780    -4.3230    -2.0010 H     1 <1>   0.1500 
 29 H       -3.5560    -2.7490    -2.9640 H     1 <1>   0.1500 
 30 H       -0.7270    -5.6730    -0.2000 H     1 <1>   0.1500 
 31 H       -4.5650    -4.0770    -1.1660 H     1 <1>   0.1500 
 32 H       -5.6030    -9.7100     2.6270 H     1 <1>   0.0800 
 33 H       -5.4110    -9.0330     1.0470 H     1 <1>   0.0800 
 34 H       -6.1900    -5.7030     3.2370 H     1 <1>   0.0800 
 35 H       -6.8380    -7.0400     4.1150 H     1 <1>   0.0800 
 36 H       -7.9320    -9.3290     2.6410 H     1 <1>   0.0800 
 37 H       -7.5890    -9.7960     0.9990 H     1 <1>   0.0800 
 38 H       -7.8880    -5.6860     1.7630 H     1 <1>   0.0800 
 39 H       -8.7170    -6.6510     2.9400 H     1 <1>   0.0800 
 40 H       -7.3430    -7.4470     0.4920 H     1 <1>   0.4500 
 41 H       -9.5910    -6.7520     0.3110 H     1 <1>   0.0800 
 42 H      -10.0850    -8.1450     1.2410 H     1 <1>   0.0800 
 43 H       -8.4510    -8.3200    -1.3110 H     1 <1>   0.0800 
 44 H      -10.2040    -8.4220    -1.2760 H     1 <1>   0.0800 
 45 H       -8.0790   -10.4930    -1.9560 H     1 <1>   0.0800 
 46 H       -9.8200   -10.6290    -2.2130 H     1 <1>   0.0800 
 47 H       -9.9140   -12.4600    -0.5510 H     1 <1>   0.0800 
 48 H       -8.1890   -12.3250    -0.2960 H     1 <1>   0.0800 
 49 H       -9.5150   -13.1110    -2.9110 H     1 <1>   0.0800 
 50 H       -8.7020   -14.1990    -1.8140 H     1 <1>   0.0800 
 51 H       -7.7880   -12.9730    -2.6570 H     1 <1>   0.0800 
@<TRIPOS>BOND
  1   1   2  1   
  2   2   3  ar  
  3   2   4  ar  
  4   3   5  ar  
  5   3  28  1   
  6   4   6  ar  
  7   4  29  1   
  8   5   7  ar  
  9   5  30  1   
 10   6   7  ar  
 11   6  31  1   
 12   7   8  1   
 13   8   9  1   
 14   8  10  2   
 15   9  11  1   
 16  10  12  1   
 17  10  13  1   
 18  11  12  2   
 19  12  14  1   
 20  13  15  ar  
 21  13  16  ar  
 22  14  17  1   
 23  14  18  1   
 24  17  19  1   
 25  17  32  1   
 26  17  33  1   
 27  18  20  1   
 28  18  34  1   
 29  18  35  1   
 30  19  21  1   
 31  19  36  1   
 32  19  37  1   
 33  20  21  1   
 34  20  38  1   
 35  20  39  1   
 36  21  22  1   
 37  21  40  1   
 38  22  23  1   
 39  22  41  1   
 40  22  42  1   
 41  23  24  1   
 42  23  43  1   
 43  23  44  1   
 44  24  25  1   
 45  25  26  1   
 46  25  45  1   
 47  25  46  1   
 48  26  27  1   
 49  26  47  1   
 50  26  48  1   
 51  27  49  1   
 52  27  50  1   
 53  27  51  1   
@<TRIPOS>SUBSTRUCTURE
  1 ****  13 GROUP 4 **** **** 0

# MOE 2024.06 (io_trps.svl 2023.06)
