@<TRIPOS>MOLECULE
NONAME
44 47 1 0 0 
SMALL
USER_CHARGES


@<TRIPOS>ATOM
  1 O       -0.4720     0.2420    -0.4460 O.2   1 <1>  -0.5700 
  2 C       -1.4980     0.8720    -0.3460 C.2   1 <1>   0.5770 
  3 N       -2.6730     0.2550     0.0080 N.am  1 <1>  -0.6600 
  4 C       -1.4650     2.3730    -0.6380 C.3   1 <1>   0.0530 
  5 C       -2.7140    -1.1920     0.3980 C.3   1 <1>   0.1400 
  6 C       -4.0330     0.8800    -0.0240 C.3   1 <1>   0.1400 
  7 C       -0.0610     3.0430    -0.6860 C.3   1 <1>   0.0000 
  8 C       -1.7560     3.2780     0.5910 C.3   1 <1>   0.0000 
  9 C       -3.7820    -1.9580    -0.4020 C.3   1 <1>   0.3440 
 10 C       -5.0320     0.0020    -0.8060 C.3   1 <1>   0.2950 
 11 C       -0.7090     4.2640     0.0140 C.3   1 <1>   0.0000 
 12 O       -5.0200    -1.3050    -0.3030 O.3   1 <1>  -0.5600 
 13 C       -3.9180    -3.3880     0.1140 C.ar  1 <1>  -0.1440 
 14 C       -6.4570     0.5760    -0.7070 C.3   1 <1>  -0.1950 
 15 C       -3.1360    -4.3930    -0.4400 C.ar  1 <1>  -0.1500 
 16 C       -4.7990    -3.7090     1.1380 C.ar  1 <1>  -0.1500 
 17 C       -7.3500     0.3070     0.4650 C.3   1 <1>  -0.2000 
 18 C       -7.6780    -0.2740    -0.8820 C.3   1 <1>  -0.2000 
 19 C       -3.2330    -5.6940     0.0220 C.ar  1 <1>  -0.1500 
 20 C       -4.8970    -5.0100     1.6010 C.ar  1 <1>  -0.1500 
 21 C       -4.1140    -6.0040     1.0430 C.ar  1 <1>  -0.1500 
 22 H       -2.0600     2.6470    -1.4940 H     1 <1>   0.0000 
 23 H       -1.7580    -1.6580     0.2380 H     1 <1>   0.0800 
 24 H       -2.9410    -1.2690     1.4470 H     1 <1>   0.0800 
 25 H       -4.3890     1.0000     0.9840 H     1 <1>   0.0800 
 26 H       -4.0010     1.8510    -0.4810 H     1 <1>   0.0800 
 27 H        0.6730     2.5640    -0.0600 H     1 <1>   0.0000 
 28 H        0.2900     3.2490    -1.6810 H     1 <1>   0.0000 
 29 H       -2.7560     3.6740     0.6180 H     1 <1>   0.0000 
 30 H       -1.4410     2.8390     1.5230 H     1 <1>   0.0000 
 31 H       -3.5040    -1.9840    -1.4420 H     1 <1>   0.0800 
 32 H       -4.7460    -0.0390    -1.8430 H     1 <1>   0.0800 
 33 H       -1.1370     4.9650    -0.6830 H     1 <1>   0.0000 
 34 H       -0.0840     4.7220     0.7600 H     1 <1>   0.0000 
 35 H       -6.5090     1.5630    -1.1330 H     1 <1>   0.1000 
 36 H       -2.4460    -4.1680    -1.2340 H     1 <1>   0.1500 
 37 H       -5.4170    -2.9440     1.5770 H     1 <1>   0.1500 
 38 H       -7.0200    -0.3680     1.2370 H     1 <1>   0.1000 
 39 H       -7.9650     1.1030     0.8480 H     1 <1>   0.1000 
 40 H       -8.5160     0.1250    -1.4280 H     1 <1>   0.1000 
 41 H       -7.5660    -1.3360    -1.0190 H     1 <1>   0.1000 
 42 H       -2.6230    -6.4660    -0.4140 H     1 <1>   0.1500 
 43 H       -5.5850    -5.2470     2.3930 H     1 <1>   0.1500 
 44 H       -4.1900    -7.0150     1.4020 H     1 <1>   0.1500 
@<TRIPOS>BOND
  1   1   2  2   
  2   2   3  am  
  3   2   4  1   
  4   3   5  1   
  5   3   6  1   
  6   4   7  1   
  7   4   8  1   
  8   4  22  1   
  9   5   9  1   
 10   5  23  1   
 11   5  24  1   
 12   6  10  1   
 13   6  25  1   
 14   6  26  1   
 15   7  11  1   
 16   7  27  1   
 17   7  28  1   
 18   8  11  1   
 19   8  29  1   
 20   8  30  1   
 21   9  12  1   
 22   9  13  1   
 23   9  31  1   
 24  10  12  1   
 25  10  14  1   
 26  10  32  1   
 27  11  33  1   
 28  11  34  1   
 29  13  15  ar  
 30  13  16  ar  
 31  14  17  1   
 32  14  18  1   
 33  14  35  1   
 34  15  19  ar  
 35  15  36  1   
 36  16  20  ar  
 37  16  37  1   
 38  17  18  1   
 39  17  38  1   
 40  17  39  1   
 41  18  40  1   
 42  18  41  1   
 43  19  21  ar  
 44  19  42  1   
 45  20  21  ar  
 46  20  43  1   
 47  21  44  1   
@<TRIPOS>SUBSTRUCTURE
  1 ****   5 GROUP 4 **** **** 0

# MOE 2024.06 (io_trps.svl 2023.06)
