@<TRIPOS>MOLECULE
NONAME
55 57 1 0 0 
SMALL
USER_CHARGES


@<TRIPOS>ATOM
  1 O        0.0380    -0.1440     1.2380 O.3   1 <1>  -0.3630 
  2 C        0.8330     0.2200     0.1890 C.ar  1 <1>   0.0830 
  3 C        0.5070    -1.1220     2.1530 C.3   1 <1>   0.2580 
  4 C        0.6740     1.4790    -0.3860 C.ar  1 <1>   0.0830 
  5 C        1.7790    -0.6780    -0.3110 C.ar  1 <1>   0.0280 
  6 C        1.1600    -2.2670     1.3890 C.2   1 <1>  -0.2760 
  7 O       -0.3120     2.2840     0.1020 O.3   1 <1>  -0.3620 
  8 C        1.5070     1.8610    -1.4320 C.ar  1 <1>  -0.1500 
  9 C        1.8090    -2.0030     0.2460 C.2   1 <1>  -0.1780 
 10 C        2.6030    -0.2750    -1.3550 C.ar  1 <1>  -0.1500 
 11 C        0.9940    -3.6530     1.9840 C.3   1 <1>   0.2480 
 12 C       -0.2880     3.6760    -0.1320 C.3   1 <1>   0.0400 
 13 C        2.4720     0.9870    -1.9070 C.ar  1 <1>  -0.1500 
 14 N        0.0460    -4.4090     1.1470 N.3   1 <1>  -0.8100 
 15 C       -0.0670    -5.8210     1.5310 C.3   1 <1>   0.2900 
 16 C       -1.2540    -3.7460     0.8910 C.3   1 <1>   0.1100 
 17 C       -0.7400    -6.5650     0.3940 C.2   1 <1>  -0.3320 
 18 C       -1.2510    -3.1930    -0.5450 C.3   1 <1>   0.3430 
 19 N       -1.7150    -7.4830     0.5410 N.pl3 1 <1>   0.0330 
 20 C       -0.5280    -6.4540    -0.9350 C.2   1 <1>   0.0770 
 21 N       -2.4690    -2.3850    -0.8760 N.4   1 <1>  -0.9590 
 22 C       -2.0530    -7.8440    -0.7160 C.2   1 <1>   0.0060 
 23 N       -1.3700    -7.2380    -1.6300 N.2   1 <1>  -0.5650 
 24 C       -2.6000    -2.2810    -2.3590 C.3   1 <1>   0.2630 
 25 C       -2.3890    -1.0170    -0.2690 C.3   1 <1>   0.2630 
 26 C       -3.1260    -8.8700    -1.0140 C.3   1 <1>  -0.0600 
 27 H       -0.3360    -1.4510     2.7320 H     1 <1>   0.0800 
 28 H        1.2190    -0.6520     2.8080 H     1 <1>   0.0800 
 29 H        1.4200     2.8270    -1.8920 H     1 <1>   0.1500 
 30 H        2.3310    -2.7600    -0.3150 H     1 <1>   0.1500 
 31 H        3.3470    -0.9520    -1.7370 H     1 <1>   0.1500 
 32 H        0.6460    -3.6030     3.0020 H     1 <1>   0.0800 
 33 H        1.9490    -4.1530     1.9750 H     1 <1>   0.0800 
 34 H       -1.0590     4.1290     0.4660 H     1 <1>   0.0800 
 35 H       -0.4810     3.8610    -1.1740 H     1 <1>   0.0800 
 36 H        0.6730     4.0630     0.1580 H     1 <1>   0.0800 
 37 H        3.1190     1.2900    -2.7130 H     1 <1>   0.1500 
 38 H       -0.6380    -5.9090     2.4400 H     1 <1>   0.0800 
 39 H        0.9120    -6.2410     1.6930 H     1 <1>   0.0800 
 40 H       -1.4210    -2.9590     1.6010 H     1 <1>   0.0800 
 41 H       -2.0610    -4.4520     0.9840 H     1 <1>   0.0800 
 42 H       -1.1870    -4.0320    -1.2170 H     1 <1>   0.0800 
 43 H       -0.3730    -2.5860    -0.6860 H     1 <1>   0.0800 
 44 H       -2.1190    -7.8490     1.4080 H     1 <1>   0.2700 
 45 H        0.1980    -5.8310    -1.4320 H     1 <1>   0.1500 
 46 H       -3.2940    -2.8810    -0.5110 H     1 <1>   0.4500 
 47 H       -1.7420    -1.7750    -2.7740 H     1 <1>   0.0800 
 48 H       -3.4870    -1.7270    -2.6200 H     1 <1>   0.0800 
 49 H       -2.6650    -3.2640    -2.7980 H     1 <1>   0.0800 
 50 H       -1.5350    -0.4840    -0.6580 H     1 <1>   0.0800 
 51 H       -2.2850    -1.0820     0.8010 H     1 <1>   0.0800 
 52 H       -3.2780    -0.4510    -0.4950 H     1 <1>   0.0800 
 53 H       -4.0710    -8.5460    -0.6180 H     1 <1>   0.0800 
 54 H       -2.8620    -9.8160    -0.5800 H     1 <1>   0.0800 
 55 H       -3.2220    -8.9960    -2.0770 H     1 <1>   0.0800 
@<TRIPOS>BOND
  1   1   2  1   
  2   1   3  1   
  3   2   4  ar  
  4   2   5  ar  
  5   3   6  1   
  6   3  27  1   
  7   3  28  1   
  8   4   7  1   
  9   4   8  ar  
 10   5   9  1   
 11   5  10  ar  
 12   6   9  2   
 13   6  11  1   
 14   7  12  1   
 15   8  13  ar  
 16   8  29  1   
 17   9  30  1   
 18  10  13  ar  
 19  10  31  1   
 20  11  14  1   
 21  11  32  1   
 22  11  33  1   
 23  12  34  1   
 24  12  35  1   
 25  12  36  1   
 26  13  37  1   
 27  14  15  1   
 28  14  16  1   
 29  15  17  1   
 30  15  38  1   
 31  15  39  1   
 32  16  18  1   
 33  16  40  1   
 34  16  41  1   
 35  17  19  1   
 36  17  20  2   
 37  18  21  1   
 38  18  42  1   
 39  18  43  1   
 40  19  22  1   
 41  19  44  1   
 42  20  23  1   
 43  20  45  1   
 44  21  24  1   
 45  21  25  1   
 46  21  46  1   
 47  22  23  2   
 48  22  26  1   
 49  24  47  1   
 50  24  48  1   
 51  24  49  1   
 52  25  50  1   
 53  25  51  1   
 54  25  52  1   
 55  26  53  1   
 56  26  54  1   
 57  26  55  1   
@<TRIPOS>SUBSTRUCTURE
  1 ****  18 GROUP 4 **** **** 0

# MOE 2024.06 (io_trps.svl 2023.06)
