@<TRIPOS>MOLECULE
NONAME
53 55 1 0 0 
SMALL
USER_CHARGES


@<TRIPOS>ATOM
  1 O       -2.2840    -0.0770    -2.9620 O.2   1 <1>  -0.5700 
  2 C       -1.9520     0.3850    -1.8960 C.2   1 <1>   0.5690 
  3 N       -1.7060    -0.4020    -0.8210 N.am  1 <1>  -0.7300 
  4 C       -1.8240     1.9040    -1.7310 C.3   1 <1>   0.1710 
  5 C       -1.7450    -1.8810    -0.7810 C.3   1 <1>   0.2200 
  6 N       -1.0250     2.3370    -0.5410 N.3   1 <1>  -0.8100 
  7 C       -2.9260    -2.3830     0.0380 C.3   1 <1>  -0.0800 
  8 C       -0.5810    -2.3850     0.0610 C.3   1 <1>   0.1200 
  9 C       -1.2960     3.7570    -0.2310 C.3   1 <1>   0.1100 
 10 C        0.4120     2.1070    -0.7770 C.3   1 <1>   0.0300 
 11 C       -2.3950    -2.2820     1.4730 C.3   1 <1>   0.1200 
 12 C       -4.2550    -1.6380    -0.2060 C.3   1 <1>  -0.0160 
 13 O       -0.9980    -2.2720     1.3890 O.3   1 <1>  -0.5600 
 14 C       -0.8420     4.1250     1.1840 C.3   1 <1>   0.1200 
 15 C       -5.4980    -2.1980     0.4970 C.ar  1 <1>  -0.1440 
 16 O       -1.1980     5.4500     1.4280 O.3   1 <1>  -0.5600 
 17 C       -6.7120    -1.4680     0.4570 C.ar  1 <1>   0.0000 
 18 C       -5.5150    -3.3890     1.1690 C.ar  1 <1>  -0.1500 
 19 C       -0.8660     5.8950     2.7030 C.3   1 <1>   0.0400 
 20 C       -7.8350    -2.0050     1.1340 C.ar  1 <1>   0.3100 
 21 C       -6.8810    -0.2370    -0.2210 C.ar  1 <1>  -0.1500 
 22 C       -6.6840    -3.8330     1.8000 C.ar  1 <1>   0.1600 
 23 N       -7.8040    -3.1850     1.8010 N.ar  1 <1>  -0.6200 
 24 C       -9.0460    -1.2940     1.1190 C.ar  1 <1>  -0.1500 
 25 C       -8.0760     0.4300    -0.2180 C.ar  1 <1>  -0.1500 
 26 C       -9.1740    -0.1020     0.4610 C.ar  1 <1>  -0.1500 
 27 H       -1.4060     0.0710     0.0390 H     1 <1>   0.3700 
 28 H       -2.8260     2.2840    -1.6430 H     1 <1>   0.0800 
 29 H       -1.3970     2.3150    -2.6290 H     1 <1>   0.0800 
 30 H       -1.7310    -2.2840    -1.7800 H     1 <1>   0.0800 
 31 H       -3.0580    -3.4220    -0.2050 H     1 <1>   0.0800 
 32 H        0.3190    -1.8150    -0.0870 H     1 <1>   0.0800 
 33 H       -0.3940    -3.4260    -0.1350 H     1 <1>   0.0800 
 34 H       -0.8070     4.3950    -0.9470 H     1 <1>   0.0800 
 35 H       -2.3570     3.9360    -0.2810 H     1 <1>   0.0800 
 36 H        0.9770     2.3260     0.1120 H     1 <1>   0.0800 
 37 H        0.7680     2.7300    -1.5800 H     1 <1>   0.0800 
 38 H        0.5900     1.0770    -1.0350 H     1 <1>   0.0800 
 39 H       -2.7000    -3.1130     2.0840 H     1 <1>   0.0800 
 40 H       -2.6970    -1.3600     1.9380 H     1 <1>   0.0800 
 41 H       -4.4460    -1.6270    -1.2660 H     1 <1>   0.0800 
 42 H       -4.1300    -0.6180     0.1110 H     1 <1>   0.0800 
 43 H        0.2250     4.0380     1.2800 H     1 <1>   0.0800 
 44 H       -1.3370     3.4960     1.9040 H     1 <1>   0.0800 
 45 H       -4.6590    -4.0290     1.2450 H     1 <1>   0.1500 
 46 H       -1.1770     6.9210     2.7900 H     1 <1>   0.0800 
 47 H        0.1990     5.8250     2.8380 H     1 <1>   0.0800 
 48 H       -1.3820     5.2960     3.4330 H     1 <1>   0.0800 
 49 H       -6.0550     0.1910    -0.7580 H     1 <1>   0.1500 
 50 H       -6.6470    -4.7750     2.3190 H     1 <1>   0.1500 
 51 H       -9.8770    -1.7250     1.6470 H     1 <1>   0.1500 
 52 H       -8.1860     1.3660    -0.7380 H     1 <1>   0.1500 
 53 H      -10.1090     0.4320     0.4580 H     1 <1>   0.1500 
@<TRIPOS>BOND
  1   1   2  2   
  2   2   3  am  
  3   2   4  1   
  4   3   5  1   
  5   3  27  1   
  6   4   6  1   
  7   4  28  1   
  8   4  29  1   
  9   5   7  1   
 10   5   8  1   
 11   5  30  1   
 12   6   9  1   
 13   6  10  1   
 14   7  11  1   
 15   7  12  1   
 16   7  31  1   
 17   8  13  1   
 18   8  32  1   
 19   8  33  1   
 20   9  14  1   
 21   9  34  1   
 22   9  35  1   
 23  10  36  1   
 24  10  37  1   
 25  10  38  1   
 26  11  13  1   
 27  11  39  1   
 28  11  40  1   
 29  12  15  1   
 30  12  41  1   
 31  12  42  1   
 32  14  16  1   
 33  14  43  1   
 34  14  44  1   
 35  15  17  ar  
 36  15  18  ar  
 37  16  19  1   
 38  17  20  ar  
 39  17  21  ar  
 40  18  22  ar  
 41  18  45  1   
 42  19  46  1   
 43  19  47  1   
 44  19  48  1   
 45  20  23  ar  
 46  20  24  ar  
 47  21  25  ar  
 48  21  49  1   
 49  22  23  ar  
 50  22  50  1   
 51  24  26  ar  
 52  24  51  1   
 53  25  26  ar  
 54  25  52  1   
 55  26  53  1   
@<TRIPOS>SUBSTRUCTURE
  1 ****  12 GROUP 4 **** **** 0

# MOE 2024.06 (io_trps.svl 2023.06)
