@<TRIPOS>MOLECULE
NONAME
43 44 1 0 0 
SMALL
USER_CHARGES


@<TRIPOS>ATOM
  1 S       -0.3240    -0.0880     2.3170 S.3   1 <1>  -0.0800 
  2 C       -1.1550     0.4840     0.8870 C.2   1 <1>   0.1980 
  3 C        0.3840     1.4810     2.5080 C.2   1 <1>  -0.1100 
  4 N       -0.9170     1.7040     0.6050 N.2   1 <1>  -0.5650 
  5 C       -2.0460    -0.5220     0.1610 C.3   1 <1>   0.1000 
  6 C       -0.0330     2.3040     1.5210 C.2   1 <1>   0.1410 
  7 C       -1.2000    -1.4630    -0.7060 C.3   1 <1>  -0.2400 
  8 C       -3.1050     0.1760    -0.7050 C.3   1 <1>  -0.2400 
  9 C        0.3510     3.6960     1.3550 C.2   1 <1>   0.7160 
 10 O        1.0790     4.2470     2.1630 O.2   1 <1>  -0.5700 
 11 N       -0.1400     4.3690     0.2730 N.am  1 <1>  -0.4930 
 12 C       -0.0290     5.7350    -0.0870 C.2   1 <1>   0.0630 
 13 C       -1.0860     6.5740    -0.4450 C.2   1 <1>   0.1080 
 14 C        1.0740     6.5090    -0.1850 C.2   1 <1>  -0.3320 
 15 N       -0.6880     7.7710    -0.7370 N.2   1 <1>  -0.7070 
 16 C       -2.5440     6.1760    -0.4960 C.3   1 <1>  -0.0590 
 17 N        0.6470     7.7400    -0.5660 N.pl3 1 <1>   0.3140 
 18 C        2.5310     6.1450     0.0610 C.3   1 <1>  -0.0600 
 19 C        1.4660     8.9510    -0.7840 C.3   1 <1>   0.0960 
 20 C        1.6860     9.7090     0.5330 C.3   1 <1>  -0.1600 
 21 C        2.5400    10.9640     0.3220 C.3   1 <1>  -0.2400 
 22 H        1.0460     1.6500     3.3380 H     1 <1>   0.1500 
 23 H       -2.5590    -1.1080     0.9050 H     1 <1>   0.0800 
 24 H       -0.6640    -0.9010    -1.4500 H     1 <1>   0.0800 
 25 H       -1.8260    -2.1850    -1.1990 H     1 <1>   0.0800 
 26 H       -0.4870    -1.9900    -0.0970 H     1 <1>   0.0800 
 27 H       -2.6330     0.7610    -1.4740 H     1 <1>   0.0800 
 28 H       -3.7020     0.8310    -0.0960 H     1 <1>   0.0800 
 29 H       -3.7510    -0.5490    -1.1660 H     1 <1>   0.0800 
 30 H       -0.7860     3.8040    -0.2820 H     1 <1>   0.3700 
 31 H       -2.7820     5.5380     0.3340 H     1 <1>   0.0800 
 32 H       -2.7460     5.6610    -1.4160 H     1 <1>   0.0800 
 33 H       -3.1600     7.0550    -0.4450 H     1 <1>   0.0800 
 34 H        2.6360     5.0850     0.2040 H     1 <1>   0.0800 
 35 H        2.8910     6.6410     0.9450 H     1 <1>   0.0800 
 36 H        3.1380     6.4280    -0.7790 H     1 <1>   0.0800 
 37 H        0.9480     9.5790    -1.4860 H     1 <1>   0.0800 
 38 H        2.4050     8.6610    -1.2140 H     1 <1>   0.0800 
 39 H        2.1720     9.0640     1.2440 H     1 <1>   0.0800 
 40 H        0.7280     9.9950     0.9360 H     1 <1>   0.0800 
 41 H        3.5100    10.7010    -0.0650 H     1 <1>   0.0800 
 42 H        2.6740    11.4780     1.2580 H     1 <1>   0.0800 
 43 H        2.0600    11.6350    -0.3690 H     1 <1>   0.0800 
@<TRIPOS>BOND
  1   1   2  1   
  2   1   3  1   
  3   2   4  2   
  4   2   5  1   
  5   3   6  2   
  6   3  22  1   
  7   4   6  1   
  8   5   7  1   
  9   5   8  1   
 10   5  23  1   
 11   6   9  1   
 12   7  24  1   
 13   7  25  1   
 14   7  26  1   
 15   8  27  1   
 16   8  28  1   
 17   8  29  1   
 18   9  10  2   
 19   9  11  am  
 20  11  12  1   
 21  11  30  1   
 22  12  13  1   
 23  12  14  2   
 24  13  15  2   
 25  13  16  1   
 26  14  17  1   
 27  14  18  1   
 28  15  17  1   
 29  16  31  1   
 30  16  32  1   
 31  16  33  1   
 32  17  19  1   
 33  18  34  1   
 34  18  35  1   
 35  18  36  1   
 36  19  20  1   
 37  19  37  1   
 38  19  38  1   
 39  20  21  1   
 40  20  39  1   
 41  20  40  1   
 42  21  41  1   
 43  21  42  1   
 44  21  43  1   
@<TRIPOS>SUBSTRUCTURE
  1 ****  11 GROUP 4 **** **** 0

# MOE 2024.06 (io_trps.svl 2023.06)
