@<TRIPOS>MOLECULE
NONAME
48 50 1 0 0 
SMALL
USER_CHARGES


@<TRIPOS>ATOM
  1 S        0.7520     1.7560    -1.4570 S.o2  1 <1>   1.3330 
  2 O       -0.1290     2.6030    -2.2300 O.2   1 <1>  -0.6500 
  3 O        1.3660     0.6170    -2.0990 O.2   1 <1>  -0.6500 
  4 N        2.0140     2.7270    -0.8770 N.am  1 <1>  -0.8490 
  5 C       -0.1590     1.1590    -0.0190 C.3   1 <1>  -0.0550 
  6 C        2.5720     3.5780    -1.9320 C.3   1 <1>   0.1160 
  7 C        3.0950     1.9790    -0.2280 C.3   1 <1>   0.1160 
  8 C       -0.7930     2.1550     0.9880 C.3   1 <1>  -0.0800 
  9 C       -1.5320     3.3430     0.3630 C.3   1 <1>   0.2000 
 10 C        0.2220     2.7940     1.9420 C.3   1 <1>   0.1400 
 11 O       -2.5620     3.6870     1.2260 O.3   1 <1>  -0.6800 
 12 C       -0.5220     4.4920     0.3630 C.3   1 <1>   0.1400 
 13 N        0.4170     4.1890     1.4790 N.am  1 <1>  -0.6600 
 14 C        1.6190     4.8390     1.6670 C.2   1 <1>   0.5440 
 15 O        2.4760     4.2930     2.3390 O.2   1 <1>  -0.5700 
 16 C        1.8930     6.1370     1.0790 C.ar  1 <1>   0.0860 
 17 C        3.0900     6.3750     0.4070 C.ar  1 <1>  -0.1500 
 18 C        0.9960     7.2010     1.1630 C.ar  1 <1>  -0.1500 
 19 C        3.3610     7.5960    -0.1790 C.ar  1 <1>  -0.1500 
 20 C        1.2660     8.4230     0.5770 C.ar  1 <1>  -0.1500 
 21 C        2.4530     8.6530    -0.1170 C.ar  1 <1>   0.0530 
 22 C        2.7310     9.9290    -0.7370 C.2   1 <1>   0.0870 
 23 O        3.8520    10.1100    -1.4250 O.3   1 <1>  -0.2800 
 24 C        2.0180    11.0890    -0.7670 C.2   1 <1>  -0.1500 
 25 C        3.8740    11.3410    -1.8870 C.2   1 <1>  -0.0100 
 26 C        2.7610    12.0050    -1.5140 C.2   1 <1>  -0.1500 
 27 H       -0.9610     0.5550    -0.3980 H     1 <1>   0.0800 
 28 H        0.4760     0.4920     0.5300 H     1 <1>   0.0800 
 29 H        3.3680     4.1870    -1.5410 H     1 <1>   0.0800 
 30 H        1.8100     4.2300    -2.3230 H     1 <1>   0.0800 
 31 H        2.9550     2.9720    -2.7370 H     1 <1>   0.0800 
 32 H        3.8010     2.6630     0.2120 H     1 <1>   0.0800 
 33 H        3.6040     1.3540    -0.9430 H     1 <1>   0.0800 
 34 H        2.7030     1.3570     0.5570 H     1 <1>   0.0800 
 35 H       -1.4820     1.5730     1.5750 H     1 <1>   0.0800 
 36 H       -1.9610     3.1450    -0.6040 H     1 <1>   0.0800 
 37 H        1.1540     2.2550     1.9550 H     1 <1>   0.0800 
 38 H       -0.1720     2.8190     2.9440 H     1 <1>   0.0800 
 39 H       -2.1780     4.0120     2.0640 H     1 <1>   0.4000 
 40 H       -1.0160     5.4370     0.4980 H     1 <1>   0.0800 
 41 H        0.0230     4.5130    -0.5630 H     1 <1>   0.0800 
 42 H        3.8140     5.5810     0.3530 H     1 <1>   0.1500 
 43 H        0.0760     7.0630     1.7040 H     1 <1>   0.1500 
 44 H        4.2960     7.7390    -0.6930 H     1 <1>   0.1500 
 45 H        0.5430     9.2140     0.6630 H     1 <1>   0.1500 
 46 H        1.0650    11.2940    -0.3150 H     1 <1>   0.1500 
 47 H        4.7180    11.6650    -2.4720 H     1 <1>   0.1500 
 48 H        2.4800    13.0200    -1.7290 H     1 <1>   0.1500 
@<TRIPOS>BOND
  1   1   2  2   
  2   1   3  2   
  3   1   4  am  
  4   1   5  1   
  5   4   6  1   
  6   4   7  1   
  7   5   8  1   
  8   5  27  1   
  9   5  28  1   
 10   6  29  1   
 11   6  30  1   
 12   6  31  1   
 13   7  32  1   
 14   7  33  1   
 15   7  34  1   
 16   8   9  1   
 17   8  10  1   
 18   8  35  1   
 19   9  11  1   
 20   9  12  1   
 21   9  36  1   
 22  10  13  1   
 23  10  37  1   
 24  10  38  1   
 25  11  39  1   
 26  12  13  1   
 27  12  40  1   
 28  12  41  1   
 29  13  14  am  
 30  14  15  2   
 31  14  16  1   
 32  16  17  ar  
 33  16  18  ar  
 34  17  19  ar  
 35  17  42  1   
 36  18  20  ar  
 37  18  43  1   
 38  19  21  ar  
 39  19  44  1   
 40  20  21  ar  
 41  20  45  1   
 42  21  22  1   
 43  22  23  1   
 44  22  24  2   
 45  23  25  1   
 46  24  26  1   
 47  24  46  1   
 48  25  26  2   
 49  25  47  1   
 50  26  48  1   
@<TRIPOS>SUBSTRUCTURE
  1 ****  16 GROUP 4 **** **** 0

# MOE 2024.06 (io_trps.svl 2023.06)
