@<TRIPOS>MOLECULE
NONAME
34 36 1 0 0 
SMALL
USER_CHARGES


@<TRIPOS>ATOM
  1 F        2.3950     1.1850    -2.2830 F     1 <1>  -0.3400 
  2 C        2.2530     1.7660    -1.0920 C.3   1 <1>   1.2010 
  3 F        1.1010     1.3120    -0.6040 F     1 <1>  -0.3400 
  4 F        3.2070     1.2440    -0.3220 F     1 <1>  -0.3400 
  5 C        2.3100     3.3230    -1.1490 C.2   1 <1>   0.3350 
  6 N        2.4360     4.0200    -2.2180 N.2   1 <1>  -0.4100 
  7 N        2.2300     4.0970    -0.0540 N.2   1 <1>  -0.5650 
  8 O        2.4480     5.2740    -1.8800 O.3   1 <1>  -0.0190 
  9 C        2.3230     5.2560    -0.5790 C.2   1 <1>   0.2980 
 10 C        2.3110     6.5820     0.1720 C.3   1 <1>   0.2900 
 11 N        3.5990     7.2990     0.0720 N.3   1 <1>  -0.6980 
 12 C        3.4610     8.6590     0.5750 C.3   1 <1>   0.0580 
 13 C        4.6860     6.5780     0.7620 C.3   1 <1>   0.2540 
 14 C        2.8420     9.6820    -0.3190 C.3   1 <1>  -0.2000 
 15 C        4.3090     9.7380    -0.0100 C.3   1 <1>  -0.2000 
 16 C        6.0420     7.0380     0.2520 C.ar  1 <1>  -0.1430 
 17 C        6.9880     7.6160     1.0750 C.ar  1 <1>  -0.1500 
 18 C        6.3950     6.8950    -1.0750 C.ar  1 <1>  -0.1500 
 19 C        8.2060     8.0080     0.5450 C.ar  1 <1>   0.1600 
 20 C        7.6400     7.3210    -1.5030 C.ar  1 <1>   0.1600 
 21 N        8.5560     7.8730    -0.7240 N.ar  1 <1>  -0.6200 
 22 H        2.0730     6.4050     1.2060 H     1 <1>   0.0800 
 23 H        1.5320     7.1920    -0.2500 H     1 <1>   0.0800 
 24 H        3.2420     8.7060     1.6300 H     1 <1>   0.1000 
 25 H        4.6140     5.5220     0.5710 H     1 <1>   0.0800 
 26 H        4.6110     6.7270     1.8250 H     1 <1>   0.0800 
 27 H        2.2100    10.4410     0.1060 H     1 <1>   0.1000 
 28 H        2.5470     9.3980    -1.3140 H     1 <1>   0.1000 
 29 H        5.0100     9.4840    -0.7860 H     1 <1>   0.1000 
 30 H        4.6680    10.5220     0.6320 H     1 <1>   0.1000 
 31 H        6.7900     7.7680     2.1200 H     1 <1>   0.1500 
 32 H        5.7030     6.4610    -1.7750 H     1 <1>   0.1500 
 33 H        8.9320     8.4580     1.2010 H     1 <1>   0.1500 
 34 H        7.8940     7.2030    -2.5420 H     1 <1>   0.1500 
@<TRIPOS>BOND
  1   1   2  1   
  2   2   3  1   
  3   2   4  1   
  4   2   5  1   
  5   5   6  2   
  6   5   7  1   
  7   6   8  1   
  8   7   9  2   
  9   8   9  1   
 10   9  10  1   
 11  10  11  1   
 12  10  22  1   
 13  10  23  1   
 14  11  12  1   
 15  11  13  1   
 16  12  14  1   
 17  12  15  1   
 18  12  24  1   
 19  13  16  1   
 20  13  25  1   
 21  13  26  1   
 22  14  15  1   
 23  14  27  1   
 24  14  28  1   
 25  15  29  1   
 26  15  30  1   
 27  16  17  ar  
 28  16  18  ar  
 29  17  19  ar  
 30  17  31  1   
 31  18  20  ar  
 32  18  32  1   
 33  19  21  ar  
 34  19  33  1   
 35  20  21  ar  
 36  20  34  1   
@<TRIPOS>SUBSTRUCTURE
  1 ****  13 GROUP 4 **** **** 0

# MOE 2024.06 (io_trps.svl 2023.06)
