@<TRIPOS>MOLECULE
NONAME
38 39 1 0 0 
SMALL
USER_CHARGES


@<TRIPOS>ATOM
  1 CL      -0.3230    -1.9430     2.9990 Cl    1 <1>  -0.1770 
  2 C        1.0470    -2.3790     2.0150 C.ar  1 <1>   0.1770 
  3 C        2.2980    -2.4690     2.5930 C.ar  1 <1>  -0.1500 
  4 C        0.8670    -2.6270     0.6690 C.ar  1 <1>  -0.1500 
  5 C        3.3850    -2.8180     1.8080 C.ar  1 <1>  -0.1500 
  6 C        1.9600    -2.9760    -0.1060 C.ar  1 <1>  -0.1500 
  7 C        3.2410    -3.0850     0.4420 C.ar  1 <1>   0.0860 
  8 C        4.3700    -3.4660    -0.3880 C.2   1 <1>   0.5440 
  9 O        4.3970    -3.1810    -1.5680 O.2   1 <1>  -0.5700 
 10 N        5.4260    -4.1430     0.1490 N.am  1 <1>  -0.7300 
 11 C        6.4190    -5.0600    -0.5200 C.3   1 <1>   0.4050 
 12 C        7.3380    -4.3560    -1.5930 C.cat 1 <1>   0.6040 
 13 C        7.2640    -5.6200     0.6620 C.3   1 <1>  -0.1600 
 14 C        5.6160    -6.2130    -1.1620 C.3   1 <1>  -0.1600 
 15 N        7.0780    -3.0960    -1.9610 N.pl3 1 <1>  -0.7540 
 16 N        8.3500    -4.9420    -2.1940 N.pl3 1 <1>  -0.8240 
 17 C        6.7120    -6.9010     1.3280 C.3   1 <1>  -0.1600 
 18 C        4.6690    -6.9560    -0.1920 C.3   1 <1>  -0.1600 
 19 O        8.7400    -6.1760    -2.0440 O.3   1 <1>  -0.4800 
 20 C        5.1840    -7.0100     1.2590 C.3   1 <1>  -0.1600 
 21 H        2.4130    -2.2650     3.6430 H     1 <1>   0.1500 
 22 H       -0.1150    -2.5470     0.2380 H     1 <1>   0.1500 
 23 H        4.3570    -2.8720     2.2660 H     1 <1>   0.1500 
 24 H        1.8240    -3.1690    -1.1580 H     1 <1>   0.1500 
 25 H        5.3190    -4.4350     1.1190 H     1 <1>   0.3700 
 26 H        7.4010    -4.8520     1.4010 H     1 <1>   0.0800 
 27 H        8.2530    -5.8620     0.3180 H     1 <1>   0.0800 
 28 H        6.3250    -6.9250    -1.5500 H     1 <1>   0.0800 
 29 H        5.0630    -5.8460    -2.0090 H     1 <1>   0.0800 
 30 H        7.5620    -2.6500    -2.7310 H     1 <1>   0.4500 
 31 H        6.1320    -2.7390    -1.7580 H     1 <1>   0.4500 
 32 H        8.9210    -4.4390    -2.8760 H     1 <1>   0.4500 
 33 H        7.0430    -6.9510     2.3510 H     1 <1>   0.0800 
 34 H        7.1300    -7.7540     0.8170 H     1 <1>   0.0800 
 35 H        4.5370    -7.9600    -0.5590 H     1 <1>   0.0800 
 36 H        3.7010    -6.4860    -0.2000 H     1 <1>   0.0800 
 37 H        4.7460    -6.2110     1.8300 H     1 <1>   0.0800 
 38 H        4.8670    -7.9330     1.7130 H     1 <1>   0.0800 
@<TRIPOS>BOND
  1   1   2  1   
  2   2   3  ar  
  3   2   4  ar  
  4   3   5  ar  
  5   3  21  1   
  6   4   6  ar  
  7   4  22  1   
  8   5   7  ar  
  9   5  23  1   
 10   6   7  ar  
 11   6  24  1   
 12   7   8  1   
 13   8   9  2   
 14   8  10  am  
 15  10  11  1   
 16  10  25  1   
 17  11  12  1   
 18  11  13  1   
 19  11  14  1   
 20  12  15  ar  
 21  12  16  ar  
 22  13  17  1   
 23  13  26  1   
 24  13  27  1   
 25  14  18  1   
 26  14  28  1   
 27  14  29  1   
 28  15  30  1   
 29  15  31  1   
 30  16  19  1   
 31  16  32  1   
 32  17  20  1   
 33  17  33  1   
 34  17  34  1   
 35  18  20  1   
 36  18  35  1   
 37  18  36  1   
 38  20  37  1   
 39  20  38  1   
@<TRIPOS>SUBSTRUCTURE
  1 ****  10 GROUP 4 **** **** 0

# MOE 2024.06 (io_trps.svl 2023.06)
