@<TRIPOS>MOLECULE
NONAME
46 48 1 0 0 
SMALL
USER_CHARGES


@<TRIPOS>ATOM
  1 O       -0.1800     1.5630     2.4640 O.2   1 <1>  -0.5700 
  2 C        0.0500     2.4180     1.6290 C.2   1 <1>   0.5440 
  3 N       -1.0000     3.1270     1.0810 N.am  1 <1>  -0.6600 
  4 C        1.4210     2.6760     1.2310 C.ar  1 <1>   0.0860 
  5 C       -2.4190     2.8690     1.4630 C.3   1 <1>   0.1400 
  6 C       -0.8440     4.1460     0.0080 C.3   1 <1>   0.1400 
  7 C        2.0550     1.9930     0.1820 C.ar  1 <1>  -0.1440 
  8 C        2.1320     3.6650     1.9050 C.ar  1 <1>  -0.1500 
  9 C       -3.2130     2.3430     0.2520 C.3   1 <1>   0.0000 
 10 C       -1.6090     3.6970    -1.2430 C.3   1 <1>  -0.1600 
 11 C        3.3550     2.3310    -0.1880 C.ar  1 <1>  -0.1440 
 12 C        1.3090     0.8790    -0.5560 C.3   1 <1>  -0.0970 
 13 C        3.4230     3.9910     1.5480 C.ar  1 <1>  -0.1500 
 14 C       -4.6750     2.0630     0.6520 C.3   1 <1>   0.2000 
 15 C       -3.0760     3.3470    -0.9300 C.3   1 <1>  -0.1600 
 16 C       -2.7500     0.9360    -0.1680 C.3   1 <1>  -0.1600 
 17 C        4.0300     3.3270     0.5010 C.ar  1 <1>  -0.1500 
 18 C        4.0780     1.6380    -1.3360 C.3   1 <1>  -0.0970 
 19 O       -5.4750     3.1900     0.6080 O.3   1 <1>  -0.6800 
 20 C       -5.1950     1.0070    -0.3220 C.3   1 <1>  -0.1600 
 21 C       -3.9520     0.2880    -0.8620 C.3   1 <1>  -0.1600 
 22 H       -2.4720     2.1610     2.2720 H     1 <1>   0.0800 
 23 H       -2.8590     3.7880     1.8090 H     1 <1>   0.0800 
 24 H       -1.2410     5.0820     0.3600 H     1 <1>   0.0800 
 25 H        0.1920     4.2980    -0.2390 H     1 <1>   0.0800 
 26 H        1.6550     4.1810     2.7200 H     1 <1>   0.1500 
 27 H       -1.5790     4.4880    -1.9720 H     1 <1>   0.0800 
 28 H       -1.1050     2.8520    -1.6740 H     1 <1>   0.0800 
 29 H        1.9750     0.0760    -0.8140 H     1 <1>   0.0800 
 30 H        0.8680     1.2680    -1.4540 H     1 <1>   0.0800 
 31 H        0.5320     0.4510     0.0510 H     1 <1>   0.0800 
 32 H        3.9560     4.7590     2.0820 H     1 <1>   0.1500 
 33 H       -4.7110     1.6700     1.6550 H     1 <1>   0.0800 
 34 H       -3.5490     2.9580    -1.8140 H     1 <1>   0.0800 
 35 H       -3.5710     4.2670    -0.6720 H     1 <1>   0.0800 
 36 H       -1.8800     0.9410    -0.7970 H     1 <1>   0.0800 
 37 H       -2.5120     0.3640     0.7150 H     1 <1>   0.0800 
 38 H        5.0370     3.5910     0.2280 H     1 <1>   0.1500 
 39 H        4.9880     2.1520    -1.5860 H     1 <1>   0.0800 
 40 H        3.4560     1.6200    -2.2120 H     1 <1>   0.0800 
 41 H        4.3250     0.6300    -1.0570 H     1 <1>   0.0800 
 42 H       -5.4980     3.5350    -0.3040 H     1 <1>   0.4000 
 43 H       -5.8420     0.3180     0.1920 H     1 <1>   0.0800 
 44 H       -5.7320     1.4600    -1.1380 H     1 <1>   0.0800 
 45 H       -3.9880    -0.7690    -0.6610 H     1 <1>   0.0800 
 46 H       -3.8820     0.4350    -1.9270 H     1 <1>   0.0800 
@<TRIPOS>BOND
  1   1   2  2   
  2   2   3  am  
  3   2   4  1   
  4   3   5  1   
  5   3   6  1   
  6   4   7  ar  
  7   4   8  ar  
  8   5   9  1   
  9   5  22  1   
 10   5  23  1   
 11   6  10  1   
 12   6  24  1   
 13   6  25  1   
 14   7  11  ar  
 15   7  12  1   
 16   8  13  ar  
 17   8  26  1   
 18   9  14  1   
 19   9  15  1   
 20   9  16  1   
 21  10  15  1   
 22  10  27  1   
 23  10  28  1   
 24  11  17  ar  
 25  11  18  1   
 26  12  29  1   
 27  12  30  1   
 28  12  31  1   
 29  13  17  ar  
 30  13  32  1   
 31  14  19  1   
 32  14  20  1   
 33  14  33  1   
 34  15  34  1   
 35  15  35  1   
 36  16  21  1   
 37  16  36  1   
 38  16  37  1   
 39  17  38  1   
 40  18  39  1   
 41  18  40  1   
 42  18  41  1   
 43  19  42  1   
 44  20  21  1   
 45  20  43  1   
 46  20  44  1   
 47  21  45  1   
 48  21  46  1   
@<TRIPOS>SUBSTRUCTURE
  1 ****   3 GROUP 4 **** **** 0

# MOE 2024.06 (io_trps.svl 2023.06)
