@<TRIPOS>MOLECULE
NONAME
38 39 1 0 0 
SMALL
USER_CHARGES


@<TRIPOS>ATOM
  1 O       -0.1290     0.6010     1.1890 O.2   1 <1>  -0.5700 
  2 C       -0.3180     1.6400     0.5920 C.2   1 <1>   0.5690 
  3 N       -1.5740     2.1830     0.4740 N.am  1 <1>  -0.6600 
  4 C        0.9000     2.3280    -0.0400 C.3   1 <1>   0.1810 
  5 C       -2.7300     1.5540     1.1820 C.3   1 <1>   0.1400 
  6 C       -1.8680     3.4060    -0.3340 C.3   1 <1>   0.1400 
  7 O        2.0960     1.8820     0.5260 O.3   1 <1>  -0.6800 
  8 C       -3.7460     2.6230     1.5930 C.3   1 <1>  -0.1600 
  9 C       -3.3220     3.3850    -0.8020 C.3   1 <1>  -0.1600 
 10 C       -4.3020     3.4250     0.3890 C.3   1 <1>   0.2800 
 11 O       -4.3480     4.7770     0.7710 O.3   1 <1>  -0.5600 
 12 C       -5.7140     2.9490    -0.0600 C.3   1 <1>  -0.1600 
 13 C       -5.4090     5.1680     1.5960 C.3   1 <1>   0.1200 
 14 C       -6.6670     4.1090    -0.3640 C.3   1 <1>   0.2800 
 15 C       -6.7480     5.0370     0.8520 C.3   1 <1>  -0.1600 
 16 O       -6.1280     4.8370    -1.3910 O.3   1 <1>  -0.6800 
 17 C       -8.0400     3.6370    -0.8320 C.3   1 <1>  -0.2400 
 18 H        0.8510     3.3920     0.1020 H     1 <1>   0.0800 
 19 H        0.9310     2.1040    -1.0900 H     1 <1>   0.0800 
 20 H       -2.3830     1.0370     2.0610 H     1 <1>   0.0800 
 21 H       -3.1930     0.8330     0.5300 H     1 <1>   0.0800 
 22 H       -1.2230     3.4470    -1.1950 H     1 <1>   0.0800 
 23 H       -1.6960     4.2820     0.2700 H     1 <1>   0.0800 
 24 H        1.9000     1.0360     0.9920 H     1 <1>   0.4000 
 25 H       -3.2410     3.2910     2.2690 H     1 <1>   0.0800 
 26 H       -4.5360     2.1530     2.1450 H     1 <1>   0.0800 
 27 H       -3.4650     2.4900    -1.3800 H     1 <1>   0.0800 
 28 H       -3.5040     4.2170    -1.4570 H     1 <1>   0.0800 
 29 H       -6.1630     2.3630     0.7180 H     1 <1>   0.0800 
 30 H       -5.6490     2.2990    -0.9130 H     1 <1>   0.0800 
 31 H       -5.2400     6.1900     1.8890 H     1 <1>   0.0800 
 32 H       -5.4000     4.5530     2.4800 H     1 <1>   0.0800 
 33 H       -7.1010     6.0080     0.5490 H     1 <1>   0.0800 
 34 H       -7.4690     4.6510     1.5490 H     1 <1>   0.0800 
 35 H       -5.2910     5.2160    -1.0480 H     1 <1>   0.4000 
 36 H       -8.5150     3.0500    -0.0680 H     1 <1>   0.0800 
 37 H       -7.9440     3.0330    -1.7170 H     1 <1>   0.0800 
 38 H       -8.6670     4.4830    -1.0520 H     1 <1>   0.0800 
@<TRIPOS>BOND
  1   1   2  2   
  2   2   3  am  
  3   2   4  1   
  4   3   5  1   
  5   3   6  1   
  6   4   7  1   
  7   4  18  1   
  8   4  19  1   
  9   5   8  1   
 10   5  20  1   
 11   5  21  1   
 12   6   9  1   
 13   6  22  1   
 14   6  23  1   
 15   7  24  1   
 16   8  10  1   
 17   8  25  1   
 18   8  26  1   
 19   9  10  1   
 20   9  27  1   
 21   9  28  1   
 22  10  11  1   
 23  10  12  1   
 24  11  13  1   
 25  12  14  1   
 26  12  29  1   
 27  12  30  1   
 28  13  15  1   
 29  13  31  1   
 30  13  32  1   
 31  14  15  1   
 32  14  16  1   
 33  14  17  1   
 34  15  33  1   
 35  15  34  1   
 36  16  35  1   
 37  17  36  1   
 38  17  37  1   
 39  17  38  1   
@<TRIPOS>SUBSTRUCTURE
  1 ****  10 GROUP 4 **** **** 0

# MOE 2024.06 (io_trps.svl 2023.06)
