@<TRIPOS>MOLECULE
NONAME
50 54 1 0 0 
SMALL
USER_CHARGES


@<TRIPOS>ATOM
  1 O       -0.0830     0.7960    -0.5350 O.2   1 <1>  -0.5700 
  2 C       -0.6670     1.8680    -0.5130 C.2   1 <1>   0.7160 
  3 N       -2.0400     1.8320    -0.3140 N.am  1 <1>  -0.6600 
  4 C        0.1210     3.0830    -0.7040 C.2   1 <1>   0.2030 
  5 C       -2.9780     2.9720    -0.5550 C.3   1 <1>   0.1400 
  6 C       -2.7080     0.5520     0.0810 C.3   1 <1>   0.1400 
  7 N       -0.1700     4.3100    -0.3740 N.2   1 <1>  -0.4100 
  8 C        1.3840     3.0930    -1.2810 C.2   1 <1>  -0.1500 
  9 C       -3.7840     3.3080     0.7210 C.3   1 <1>   0.1440 
 10 C       -4.1400     0.7730     0.6030 C.3   1 <1>  -0.1600 
 11 O        0.8050     5.1220    -0.7010 O.3   1 <1>  -0.0190 
 12 C        1.7420     4.3790    -1.2460 C.2   1 <1>  -0.0400 
 13 C       -4.9540     4.1760     0.2880 C.ar  1 <1>   0.1660 
 14 C       -4.2230     2.0300     1.4850 C.3   1 <1>  -0.1600 
 15 C       -3.0080     4.2730     1.6540 C.3   1 <1>  -0.1600 
 16 C        3.0140     5.0460    -1.7240 C.3   1 <1>  -0.0600 
 17 N       -6.0450     3.7490    -0.3000 N.ar  1 <1>  -0.6200 
 18 C       -4.7290     5.4900     0.5660 C.ar  1 <1>  -0.1440 
 19 C       -3.3900     5.7000     1.2290 C.3   1 <1>  -0.0170 
 20 C       -6.9510     4.6880    -0.6050 C.ar  1 <1>   0.6200 
 21 C       -5.7020     6.3900     0.2190 C.ar  1 <1>   0.1600 
 22 N       -6.8130     6.0000    -0.3620 N.ar  1 <1>  -0.6200 
 23 C       -8.1810     4.2480    -1.2510 C.ar  1 <1>   0.0000 
 24 C       -8.2200     3.0990    -2.0480 C.ar  1 <1>  -0.1500 
 25 C       -9.3790     4.9520    -1.1050 C.ar  1 <1>  -0.1500 
 26 C       -9.3860     2.6770    -2.6620 C.ar  1 <1>  -0.1500 
 27 C      -10.5490     4.5370    -1.7160 C.ar  1 <1>  -0.1500 
 28 C      -10.5550     3.3960    -2.4970 C.ar  1 <1>  -0.1500 
 29 H       -3.6660     2.6710    -1.3270 H     1 <1>   0.0800 
 30 H       -2.4780     3.8450    -0.9240 H     1 <1>   0.0800 
 31 H       -2.1220     0.0890     0.8570 H     1 <1>   0.0800 
 32 H       -2.7250    -0.1170    -0.7630 H     1 <1>   0.0800 
 33 H        1.9090     2.2310    -1.6510 H     1 <1>   0.1500 
 34 H       -4.4480    -0.0910     1.1650 H     1 <1>   0.0800 
 35 H       -4.8160     0.8710    -0.2290 H     1 <1>   0.0800 
 36 H       -5.2240     2.1500     1.8620 H     1 <1>   0.0800 
 37 H       -3.5750     1.8730     2.3290 H     1 <1>   0.0800 
 38 H       -1.9460     4.1080     1.6280 H     1 <1>   0.0800 
 39 H       -3.3450     4.1360     2.6670 H     1 <1>   0.0800 
 40 H        3.6840     4.3160    -2.1420 H     1 <1>   0.0800 
 41 H        3.5010     5.5340    -0.8990 H     1 <1>   0.0800 
 42 H        2.7820     5.7790    -2.4760 H     1 <1>   0.0800 
 43 H       -2.6830     6.0840     0.5130 H     1 <1>   0.0800 
 44 H       -3.4550     6.3620     2.0740 H     1 <1>   0.0800 
 45 H       -5.5680     7.4400     0.4190 H     1 <1>   0.1500 
 46 H       -7.3210     2.5260    -2.1890 H     1 <1>   0.1500 
 47 H       -9.3950     5.8420    -0.5010 H     1 <1>   0.1500 
 48 H       -9.3830     1.7880    -3.2680 H     1 <1>   0.1500 
 49 H      -11.4550     5.1020    -1.5830 H     1 <1>   0.1500 
 50 H      -11.4630     3.0700    -2.9730 H     1 <1>   0.1500 
@<TRIPOS>BOND
  1   1   2  2   
  2   2   3  am  
  3   2   4  1   
  4   3   5  1   
  5   3   6  1   
  6   4   7  2   
  7   4   8  1   
  8   5   9  1   
  9   5  29  1   
 10   5  30  1   
 11   6  10  1   
 12   6  31  1   
 13   6  32  1   
 14   7  11  1   
 15   8  12  2   
 16   8  33  1   
 17   9  13  1   
 18   9  14  1   
 19   9  15  1   
 20  10  14  1   
 21  10  34  1   
 22  10  35  1   
 23  11  12  1   
 24  12  16  1   
 25  13  17  ar  
 26  13  18  ar  
 27  14  36  1   
 28  14  37  1   
 29  15  19  1   
 30  15  38  1   
 31  15  39  1   
 32  16  40  1   
 33  16  41  1   
 34  16  42  1   
 35  17  20  ar  
 36  18  19  1   
 37  18  21  ar  
 38  19  43  1   
 39  19  44  1   
 40  20  22  ar  
 41  20  23  1   
 42  21  22  ar  
 43  21  45  1   
 44  23  24  ar  
 45  23  25  ar  
 46  24  26  ar  
 47  24  46  1   
 48  25  27  ar  
 49  25  47  1   
 50  26  28  ar  
 51  26  48  1   
 52  27  28  ar  
 53  27  49  1   
 54  28  50  1   
@<TRIPOS>SUBSTRUCTURE
  1 ****   5 GROUP 4 **** **** 0

# MOE 2024.06 (io_trps.svl 2023.06)
