@<TRIPOS>MOLECULE
NONAME
40 42 1 0 0 
SMALL
USER_CHARGES


@<TRIPOS>ATOM
  1 CL      -0.8930    -0.1960    -2.1100 Cl    1 <1>  -0.1770 
  2 C       -1.9290    -0.9510    -0.9220 C.ar  1 <1>   0.1770 
  3 C       -2.7110    -0.1830    -0.0760 C.ar  1 <1>   0.1770 
  4 C       -1.9570    -2.3300    -0.8430 C.ar  1 <1>  -0.1500 
  5 CL      -2.6900     1.5610    -0.1670 Cl    1 <1>  -0.1770 
  6 C       -3.5240    -0.7950     0.8600 C.ar  1 <1>  -0.1500 
  7 C       -2.7770    -2.9730     0.0850 C.ar  1 <1>   0.0860 
  8 C       -3.5500    -2.1780     0.9370 C.ar  1 <1>  -0.1500 
  9 C       -2.8040    -4.4200     0.1610 C.2   1 <1>   0.5440 
 10 O       -1.7700    -5.0250     0.3620 O.2   1 <1>  -0.5700 
 11 N       -3.9670    -5.1340     0.0020 N.am  1 <1>  -0.6600 
 12 C       -5.2620    -4.6060    -0.5020 C.3   1 <1>   0.1400 
 13 C       -4.0040    -6.6220     0.0240 C.3   1 <1>   0.1400 
 14 C       -6.2470    -5.7500    -0.2750 C.3   1 <1>   0.2000 
 15 C       -5.3940    -7.0010    -0.5020 C.3   1 <1>  -0.0800 
 16 O       -6.6560    -5.7000     1.0500 O.3   1 <1>  -0.6800 
 17 C       -5.9520    -8.3040     0.0970 C.3   1 <1>   0.0210 
 18 C       -5.0270    -9.4690    -0.1960 C.2   1 <1>   0.1080 
 19 N       -4.7870    -9.8900    -1.3990 N.2   1 <1>  -0.7070 
 20 C       -4.3350   -10.1980     0.7640 C.2   1 <1>  -0.1500 
 21 N       -3.9250   -10.9110    -1.2360 N.pl3 1 <1>   0.3000 
 22 C       -3.6340   -11.1160     0.0660 C.2   1 <1>  -0.3320 
 23 C       -2.6910   -12.1930     0.5700 C.3   1 <1>  -0.0600 
 24 H       -1.3380    -2.9170    -1.5000 H     1 <1>   0.1500 
 25 H       -4.1240    -0.1920     1.5200 H     1 <1>   0.1500 
 26 H       -4.1730    -2.6580     1.6730 H     1 <1>   0.1500 
 27 H       -5.5730    -3.7140     0.0120 H     1 <1>   0.0800 
 28 H       -5.1710    -4.4050    -1.5560 H     1 <1>   0.0800 
 29 H       -3.2270    -7.0360    -0.5980 H     1 <1>   0.0800 
 30 H       -3.8630    -6.9620     1.0350 H     1 <1>   0.0800 
 31 H       -7.1160    -5.7000    -0.9090 H     1 <1>   0.0800 
 32 H       -5.3000    -7.1420    -1.5650 H     1 <1>   0.0800 
 33 H       -5.8590    -5.6540     1.6160 H     1 <1>   0.4000 
 34 H       -6.9150    -8.5130    -0.3320 H     1 <1>   0.0800 
 35 H       -6.0750    -8.2140     1.1610 H     1 <1>   0.0800 
 36 H       -4.3670   -10.0410     1.8270 H     1 <1>   0.1500 
 37 H       -3.5550   -11.4450    -2.0310 H     1 <1>   0.2700 
 38 H       -2.6240   -12.1530     1.6420 H     1 <1>   0.0800 
 39 H       -1.7070   -12.0460     0.1600 H     1 <1>   0.0800 
 40 H       -3.0500   -13.1660     0.2840 H     1 <1>   0.0800 
@<TRIPOS>BOND
  1   1   2  1   
  2   2   3  ar  
  3   2   4  ar  
  4   3   5  1   
  5   3   6  ar  
  6   4   7  ar  
  7   4  24  1   
  8   6   8  ar  
  9   6  25  1   
 10   7   8  ar  
 11   7   9  1   
 12   8  26  1   
 13   9  10  2   
 14   9  11  am  
 15  11  12  1   
 16  11  13  1   
 17  12  14  1   
 18  12  27  1   
 19  12  28  1   
 20  13  15  1   
 21  13  29  1   
 22  13  30  1   
 23  14  15  1   
 24  14  16  1   
 25  14  31  1   
 26  15  17  1   
 27  15  32  1   
 28  16  33  1   
 29  17  18  1   
 30  17  34  1   
 31  17  35  1   
 32  18  19  2   
 33  18  20  1   
 34  19  21  1   
 35  20  22  2   
 36  20  36  1   
 37  21  22  1   
 38  21  37  1   
 39  22  23  1   
 40  23  38  1   
 41  23  39  1   
 42  23  40  1   
@<TRIPOS>SUBSTRUCTURE
  1 ****  11 GROUP 4 **** **** 0

# MOE 2024.06 (io_trps.svl 2023.06)
