@<TRIPOS>MOLECULE
NONAME
44 45 1 0 0 
SMALL
USER_CHARGES


@<TRIPOS>ATOM
  1 S        0.8600     0.0070    -0.3140 S.o2  1 <1>   1.3330 
  2 O        0.3390    -0.2680    -1.6320 O.2   1 <1>  -0.6500 
  3 O        2.2460     0.3900    -0.1620 O.2   1 <1>  -0.6500 
  4 N        0.5070    -1.2820     0.7260 N.am  1 <1>  -0.8490 
  5 C       -0.0920     1.3640     0.3660 C.3   1 <1>  -0.0550 
  6 C       -0.6910    -2.0370     0.3350 C.3   1 <1>   0.1160 
  7 C        1.6390    -2.2020     0.8850 C.3   1 <1>   0.1160 
  8 C        0.0510     2.6540    -0.4750 C.3   1 <1>  -0.0800 
  9 C       -0.6950     3.8770     0.0570 C.3   1 <1>   0.2000 
 10 C        1.5070     3.1290    -0.6180 C.3   1 <1>   0.3430 
 11 O       -0.4990     3.9800     1.4320 O.3   1 <1>  -0.6800 
 12 C        0.0430     5.0320    -0.6260 C.3   1 <1>   0.3430 
 13 N        1.4840     4.6210    -0.6670 N.4   1 <1>  -0.9590 
 14 C        2.2340     5.1880     0.4890 C.3   1 <1>   0.4860 
 15 C        2.3240     6.6920     0.3170 C.ar  1 <1>  -0.1440 
 16 C        3.2130     7.2470    -0.5940 C.ar  1 <1>  -0.1500 
 17 C        1.5080     7.5240     1.0730 C.ar  1 <1>  -0.1500 
 18 C        3.2660     8.6220    -0.7510 C.ar  1 <1>   0.0820 
 19 C        1.5670     8.8980     0.9100 C.ar  1 <1>  -0.1500 
 20 O        4.1180     9.1760    -1.6260 O.3   1 <1>  -0.5330 
 21 C        2.4450     9.4480    -0.0050 C.ar  1 <1>  -0.1500 
 22 H       -1.1260     1.0820     0.4040 H     1 <1>   0.0800 
 23 H        0.2400     1.5400     1.3710 H     1 <1>   0.0800 
 24 H       -0.9150    -2.7860     1.0750 H     1 <1>   0.0800 
 25 H       -0.5380    -2.5200    -0.6170 H     1 <1>   0.0800 
 26 H       -1.5380    -1.3770     0.2540 H     1 <1>   0.0800 
 27 H        1.3840    -2.9930     1.5710 H     1 <1>   0.0800 
 28 H        2.4910    -1.6760     1.2840 H     1 <1>   0.0800 
 29 H        1.9110    -2.6320    -0.0650 H     1 <1>   0.0800 
 30 H       -0.3130     2.4460    -1.4670 H     1 <1>   0.0800 
 31 H       -1.7520     3.8780    -0.1530 H     1 <1>   0.0800 
 32 H        1.9530     2.7140    -1.5090 H     1 <1>   0.0800 
 33 H        2.0800     2.7980     0.2340 H     1 <1>   0.0800 
 34 H       -1.1980     3.5040     1.9300 H     1 <1>   0.4000 
 35 H       -0.1090     5.9600    -0.1020 H     1 <1>   0.0800 
 36 H       -0.3260     5.1350    -1.6330 H     1 <1>   0.0800 
 37 H        1.9210     4.9790    -1.5240 H     1 <1>   0.4500 
 38 H        1.7300     4.9520     1.4130 H     1 <1>   0.0800 
 39 H        3.2280     4.7740     0.5270 H     1 <1>   0.0800 
 40 H        3.8650     6.6240    -1.1780 H     1 <1>   0.1500 
 41 H        0.8220     7.1150     1.7960 H     1 <1>   0.1500 
 42 H        0.9330     9.5430     1.4960 H     1 <1>   0.1500 
 43 H        4.7180     8.5450    -2.0600 H     1 <1>   0.4500 
 44 H        2.5010    10.5140    -0.1420 H     1 <1>   0.1500 
@<TRIPOS>BOND
  1   1   2  2   
  2   1   3  2   
  3   1   4  am  
  4   1   5  1   
  5   4   6  1   
  6   4   7  1   
  7   5   8  1   
  8   5  22  1   
  9   5  23  1   
 10   6  24  1   
 11   6  25  1   
 12   6  26  1   
 13   7  27  1   
 14   7  28  1   
 15   7  29  1   
 16   8   9  1   
 17   8  10  1   
 18   8  30  1   
 19   9  11  1   
 20   9  12  1   
 21   9  31  1   
 22  10  13  1   
 23  10  32  1   
 24  10  33  1   
 25  11  34  1   
 26  12  13  1   
 27  12  35  1   
 28  12  36  1   
 29  13  14  1   
 30  13  37  1   
 31  14  15  1   
 32  14  38  1   
 33  14  39  1   
 34  15  16  ar  
 35  15  17  ar  
 36  16  18  ar  
 37  16  40  1   
 38  17  19  ar  
 39  17  41  1   
 40  18  20  1   
 41  18  21  ar  
 42  19  21  ar  
 43  19  42  1   
 44  20  43  1   
 45  21  44  1   
@<TRIPOS>SUBSTRUCTURE
  1 ****  13 GROUP 4 **** **** 0

# MOE 2024.06 (io_trps.svl 2023.06)
