@<TRIPOS>MOLECULE
NONAME
42 43 1 0 0 
SMALL
USER_CHARGES


@<TRIPOS>ATOM
  1 O        3.3970     1.4630     1.9310 O.co2 1 <1>  -0.9000 
  2 C        2.6120     0.6840     1.3690 C.2   1 <1>   0.9060 
  3 O        2.5380    -0.4940     1.7150 O.co2 1 <1>  -0.9000 
  4 C        1.9700     1.0920     0.0250 C.3   1 <1>  -0.1060 
  5 C        2.6200     0.1200    -0.9910 C.3   1 <1>   0.2000 
  6 C        2.3820     2.5500    -0.3770 C.3   1 <1>  -0.1600 
  7 C        0.4250     0.9530     0.1720 C.3   1 <1>  -0.1600 
  8 O        2.2670     0.4720    -2.2940 O.3   1 <1>  -0.6800 
  9 C        4.1670     0.1920    -0.8810 C.3   1 <1>   0.3430 
 10 C        3.8030     2.6610    -0.9690 C.3   1 <1>   0.3430 
 11 C       -0.4440     1.0910    -1.0930 C.3   1 <1>  -0.1600 
 12 N        4.6530     1.5560    -0.4510 N.4   1 <1>  -0.9590 
 13 C       -1.9300     1.1110    -0.7250 C.3   1 <1>  -0.2400 
 14 C        6.1090     1.7460    -0.5730 C.3   1 <1>   0.4860 
 15 C        6.5060     3.0570     0.0850 C.ar  1 <1>  -0.1440 
 16 C        7.1860     4.0420    -0.6050 C.ar  1 <1>  -0.1500 
 17 C        6.1970     3.3370     1.4040 C.ar  1 <1>  -0.1500 
 18 C        7.5120     5.2250     0.0370 C.ar  1 <1>   0.1600 
 19 C        6.5650     4.5540     1.9490 C.ar  1 <1>   0.1600 
 20 N        7.2140     5.5030     1.2940 N.ar  1 <1>  -0.6200 
 21 H        2.2900    -0.8920    -0.8220 H     1 <1>   0.0800 
 22 H        2.3070     3.1950     0.4820 H     1 <1>   0.0800 
 23 H        1.7080     2.9490    -1.1090 H     1 <1>   0.0800 
 24 H        0.2130    -0.0110     0.6080 H     1 <1>   0.0800 
 25 H        0.1030     1.6860     0.8930 H     1 <1>   0.0800 
 26 H        1.2900     0.4960    -2.3550 H     1 <1>   0.4000 
 27 H        4.5930    -0.0870    -1.8290 H     1 <1>   0.0800 
 28 H        4.4790    -0.5270    -0.1400 H     1 <1>   0.0800 
 29 H        4.2210     3.6190    -0.7070 H     1 <1>   0.0800 
 30 H        3.7470     2.5890    -2.0430 H     1 <1>   0.0800 
 31 H       -0.2130     1.9970    -1.6240 H     1 <1>   0.0800 
 32 H       -0.2780     0.2520    -1.7450 H     1 <1>   0.0800 
 33 H        4.4450     1.5870     0.5810 H     1 <1>   0.4500 
 34 H       -2.1500     1.9520    -0.0910 H     1 <1>   0.0800 
 35 H       -2.2010     0.2080    -0.2060 H     1 <1>   0.0800 
 36 H       -2.5310     1.1870    -1.6140 H     1 <1>   0.0800 
 37 H        6.6220     0.9350    -0.0810 H     1 <1>   0.0800 
 38 H        6.3920     1.7540    -1.6120 H     1 <1>   0.0800 
 39 H        7.4710     3.9090    -1.6340 H     1 <1>   0.1500 
 40 H        5.6660     2.6290     2.0220 H     1 <1>   0.1500 
 41 H        8.0440     5.9840    -0.5120 H     1 <1>   0.1500 
 42 H        6.3110     4.7550     2.9760 H     1 <1>   0.1500 
@<TRIPOS>BOND
  1   1   2  ar  
  2   2   3  ar  
  3   2   4  1   
  4   4   5  1   
  5   4   6  1   
  6   4   7  1   
  7   5   8  1   
  8   5   9  1   
  9   5  21  1   
 10   6  10  1   
 11   6  22  1   
 12   6  23  1   
 13   7  11  1   
 14   7  24  1   
 15   7  25  1   
 16   8  26  1   
 17   9  12  1   
 18   9  27  1   
 19   9  28  1   
 20  10  12  1   
 21  10  29  1   
 22  10  30  1   
 23  11  13  1   
 24  11  31  1   
 25  11  32  1   
 26  12  14  1   
 27  12  33  1   
 28  13  34  1   
 29  13  35  1   
 30  13  36  1   
 31  14  15  1   
 32  14  37  1   
 33  14  38  1   
 34  15  16  ar  
 35  15  17  ar  
 36  16  18  ar  
 37  16  39  1   
 38  17  19  ar  
 39  17  40  1   
 40  18  20  ar  
 41  18  41  1   
 42  19  20  ar  
 43  19  42  1   
@<TRIPOS>SUBSTRUCTURE
  1 ****  12 GROUP 4 **** **** 0

# MOE 2024.06 (io_trps.svl 2023.06)
