@<TRIPOS>MOLECULE
NONAME
53 57 1 0 0 
SMALL
USER_CHARGES


@<TRIPOS>ATOM
  1 O       -6.6740    -1.1940    -4.4450 O.2   1 <1>  -0.5200 
  2 N       -5.7090    -1.0000    -3.6840 N.pl3 1 <1>   0.8360 
  3 O       -4.7860    -0.2430    -4.0380 O.2   1 <1>  -0.5200 
  4 C       -5.5730    -1.7530    -2.5110 C.2   1 <1>   0.2190 
  5 C       -6.3980    -1.3850    -1.4130 C.2   1 <1>   0.6160 
  6 C       -4.6960    -2.7960    -2.3960 C.2   1 <1>  -0.1500 
  7 O       -7.1830    -0.4430    -1.4710 O.2   1 <1>  -0.5700 
  8 N       -6.3040    -2.1130    -0.2310 N.am  1 <1>  -0.4690 
  9 C       -4.6410    -3.5290    -1.1940 C.2   1 <1>  -0.1500 
 10 C       -5.4410    -3.1990    -0.1410 C.2   1 <1>  -0.0290 
 11 C       -7.0960    -1.6260     0.9480 C.3   1 <1>   0.1400 
 12 C       -5.4290    -4.0630     1.1260 C.3   1 <1>   0.0580 
 13 C       -7.2100    -2.6460     2.0930 C.3   1 <1>  -0.0800 
 14 C       -6.4270    -5.2210     0.9550 C.3   1 <1>   0.1400 
 15 C       -5.8250    -3.2470     2.3610 C.3   1 <1>  -0.1600 
 16 C       -8.2590    -3.7450     1.8010 C.3   1 <1>   0.1400 
 17 N       -7.8070    -4.6840     0.7250 N.am  1 <1>  -0.6600 
 18 C       -8.4500    -4.9300    -0.4680 C.2   1 <1>   0.5690 
 19 O       -7.9320    -5.6000    -1.3300 O.2   1 <1>  -0.5700 
 20 C       -9.8260    -4.3400    -0.7640 C.3   1 <1>  -0.0190 
 21 C       -9.7040    -2.9140    -1.3100 C.3   1 <1>   0.1400 
 22 C      -10.6890    -5.0910    -1.8040 C.3   1 <1>  -0.0990 
 23 N      -10.8620    -2.7880    -2.2040 N.am  1 <1>  -0.6600 
 24 C      -11.4330    -3.9760    -2.4830 C.2   1 <1>   0.5690 
 25 C      -11.3380    -1.4660    -2.6690 C.3   1 <1>   0.3200 
 26 O      -12.4110    -4.1460    -3.1680 O.2   1 <1>  -0.5700 
 27 C      -11.9560    -0.6910    -1.5160 C.2   1 <1>  -0.0400 
 28 O      -11.1750    -0.1180    -0.6170 O.3   1 <1>  -0.2800 
 29 C      -13.2550    -0.4600    -1.2260 C.2   1 <1>  -0.1500 
 30 C      -11.9520     0.4900     0.2560 C.2   1 <1>  -0.0100 
 31 C      -13.2530     0.3160    -0.0600 C.2   1 <1>  -0.1500 
 32 H       -4.0530    -3.0810    -3.2120 H     1 <1>   0.1500 
 33 H       -3.9660    -4.3670    -1.1430 H     1 <1>   0.1500 
 34 H       -6.6080    -0.7420     1.3210 H     1 <1>   0.0800 
 35 H       -8.0820    -1.3330     0.6320 H     1 <1>   0.0800 
 36 H       -4.4470    -4.4750     1.2750 H     1 <1>   0.0800 
 37 H       -7.5350    -2.1130     2.9690 H     1 <1>   0.0800 
 38 H       -6.4330    -5.8360     1.8370 H     1 <1>   0.0800 
 39 H       -6.1130    -5.8380     0.1320 H     1 <1>   0.0800 
 40 H       -5.8520    -3.8780     3.2330 H     1 <1>   0.0800 
 41 H       -5.1040    -2.4660     2.5320 H     1 <1>   0.0800 
 42 H       -9.1910    -3.2760     1.5480 H     1 <1>   0.0800 
 43 H       -8.4220    -4.3190     2.6980 H     1 <1>   0.0800 
 44 H      -10.4000    -4.3070     0.1420 H     1 <1>   0.0800 
 45 H       -8.8010    -2.7920    -1.8840 H     1 <1>   0.0800 
 46 H       -9.7410    -2.1860    -0.5210 H     1 <1>   0.0800 
 47 H      -11.3660    -5.7840    -1.3420 H     1 <1>   0.0800 
 48 H      -10.0960    -5.5960    -2.5450 H     1 <1>   0.0800 
 49 H      -10.5160    -0.9110    -3.0860 H     1 <1>   0.0800 
 50 H      -12.0760    -1.6090    -3.4390 H     1 <1>   0.0800 
 51 H      -14.1300    -0.7910    -1.7570 H     1 <1>   0.1500 
 52 H      -11.4970     1.0250     1.0710 H     1 <1>   0.1500 
 53 H      -14.1260     0.6820     0.4490 H     1 <1>   0.1500 
@<TRIPOS>BOND
  1   1   2  2   
  2   2   3  2   
  3   2   4  1   
  4   4   5  1   
  5   4   6  2   
  6   5   7  2   
  7   5   8  am  
  8   6   9  1   
  9   6  32  1   
 10   8  10  1   
 11   8  11  1   
 12   9  10  2   
 13   9  33  1   
 14  10  12  1   
 15  11  13  1   
 16  11  34  1   
 17  11  35  1   
 18  12  14  1   
 19  12  15  1   
 20  12  36  1   
 21  13  15  1   
 22  13  16  1   
 23  13  37  1   
 24  14  17  1   
 25  14  38  1   
 26  14  39  1   
 27  15  40  1   
 28  15  41  1   
 29  16  17  1   
 30  16  42  1   
 31  16  43  1   
 32  17  18  am  
 33  18  19  2   
 34  18  20  1   
 35  20  21  1   
 36  20  22  1   
 37  20  44  1   
 38  21  23  1   
 39  21  45  1   
 40  21  46  1   
 41  22  24  1   
 42  22  47  1   
 43  22  48  1   
 44  23  24  am  
 45  23  25  1   
 46  24  26  2   
 47  25  27  1   
 48  25  49  1   
 49  25  50  1   
 50  27  28  1   
 51  27  29  2   
 52  28  30  1   
 53  29  31  1   
 54  29  51  1   
 55  30  31  2   
 56  30  52  1   
 57  31  53  1   
@<TRIPOS>SUBSTRUCTURE
  1 ****  21 GROUP 4 **** **** 0

# MOE 2024.06 (io_trps.svl 2023.06)
