@<TRIPOS>MOLECULE
NONAME
48 50 1 0 0 
SMALL
USER_CHARGES


@<TRIPOS>ATOM
  1 O       -0.8700     0.3850    -0.6710 O.2   1 <1>  -0.5700 
  2 C       -1.8490     0.8630    -0.1290 C.2   1 <1>   0.5440 
  3 N       -1.9620     2.2360    -0.0570 N.am  1 <1>  -0.6600 
  4 C       -2.8550    -0.0260     0.4030 C.ar  1 <1>   0.0860 
  5 C       -3.2670     2.9630    -0.0410 C.3   1 <1>   0.1400 
  6 C       -0.7970     3.1370    -0.3180 C.3   1 <1>   0.1400 
  7 C       -3.2060    -1.1810    -0.2900 C.ar  1 <1>   0.1600 
  8 C       -3.5040     0.1960     1.6130 C.ar  1 <1>  -0.1500 
  9 C       -3.3930     3.8810    -1.2700 C.3   1 <1>   0.1200 
 10 C       -1.0680     4.0330    -1.5360 C.3   1 <1>   0.1200 
 11 N       -4.1080    -2.0720     0.0870 N.ar  1 <1>  -0.6200 
 12 C       -4.4450    -0.7190     2.0200 C.ar  1 <1>  -0.1500 
 13 O       -2.2780     4.7200    -1.3800 O.3   1 <1>  -0.5600 
 14 C       -4.7260    -1.8360     1.2380 C.ar  1 <1>   0.4100 
 15 N       -5.6710    -2.7300     1.6700 N.pl3 1 <1>  -0.8690 
 16 C       -5.9790    -4.0980     1.1020 C.3   1 <1>   0.3500 
 17 C       -4.8310    -5.1220     1.2650 C.2   1 <1>   0.5690 
 18 C       -6.4770    -3.9920    -0.3490 C.3   1 <1>  -0.0170 
 19 O       -5.0130    -6.1430     1.8820 O.2   1 <1>  -0.5700 
 20 N       -3.6110    -4.8740     0.7440 N.am  1 <1>  -0.8000 
 21 C       -7.2900    -5.2140    -0.7540 C.ar  1 <1>  -0.1440 
 22 C       -6.6560    -6.3590    -1.2130 C.ar  1 <1>  -0.1500 
 23 C       -8.6740    -5.1940    -0.6660 C.ar  1 <1>  -0.1500 
 24 C       -7.3960    -7.4700    -1.5780 C.ar  1 <1>  -0.1500 
 25 C       -9.4150    -6.3040    -1.0310 C.ar  1 <1>  -0.1500 
 26 C       -8.7760    -7.4440    -1.4880 C.ar  1 <1>  -0.1500 
 27 H       -4.0900     2.2710    -0.0420 H     1 <1>   0.0800 
 28 H       -3.3300     3.5600     0.8520 H     1 <1>   0.0800 
 29 H       -0.6310     3.7570     0.5450 H     1 <1>   0.0800 
 30 H        0.0990     2.5650    -0.4870 H     1 <1>   0.0800 
 31 H       -2.6980    -1.3690    -1.2220 H     1 <1>   0.1500 
 32 H       -3.2650     1.0590     2.2100 H     1 <1>   0.1500 
 33 H       -4.2640     4.5050    -1.1810 H     1 <1>   0.0800 
 34 H       -3.4750     3.2980    -2.1710 H     1 <1>   0.0800 
 35 H       -1.1150     3.4420    -2.4350 H     1 <1>   0.0800 
 36 H       -0.2860     4.7630    -1.6420 H     1 <1>   0.0800 
 37 H       -4.9730    -0.5830     2.9450 H     1 <1>   0.1500 
 38 H       -5.9250    -2.6640     2.6570 H     1 <1>   0.4000 
 39 H       -6.8020    -4.4850     1.6760 H     1 <1>   0.0800 
 40 H       -7.0910    -3.1150    -0.4460 H     1 <1>   0.0800 
 41 H       -5.6460    -3.8870    -1.0210 H     1 <1>   0.0800 
 42 H       -2.8290    -5.5040     0.9090 H     1 <1>   0.3700 
 43 H       -3.4080    -3.9460     0.3480 H     1 <1>   0.3700 
 44 H       -5.5830    -6.3940    -1.2850 H     1 <1>   0.1500 
 45 H       -9.1830    -4.3140    -0.3130 H     1 <1>   0.1500 
 46 H       -6.8960    -8.3560    -1.9290 H     1 <1>   0.1500 
 47 H      -10.4880    -6.2820    -0.9600 H     1 <1>   0.1500 
 48 H       -9.3510    -8.3080    -1.7710 H     1 <1>   0.1500 
@<TRIPOS>BOND
  1   1   2  2   
  2   2   3  am  
  3   2   4  1   
  4   3   5  1   
  5   3   6  1   
  6   4   7  ar  
  7   4   8  ar  
  8   5   9  1   
  9   5  27  1   
 10   5  28  1   
 11   6  10  1   
 12   6  29  1   
 13   6  30  1   
 14   7  11  ar  
 15   7  31  1   
 16   8  12  ar  
 17   8  32  1   
 18   9  13  1   
 19   9  33  1   
 20   9  34  1   
 21  10  13  1   
 22  10  35  1   
 23  10  36  1   
 24  11  14  ar  
 25  12  14  ar  
 26  12  37  1   
 27  14  15  1   
 28  15  16  1   
 29  15  38  1   
 30  16  17  1   
 31  16  18  1   
 32  16  39  1   
 33  17  19  2   
 34  17  20  am  
 35  18  21  1   
 36  18  40  1   
 37  18  41  1   
 38  20  42  1   
 39  20  43  1   
 40  21  22  ar  
 41  21  23  ar  
 42  22  24  ar  
 43  22  44  1   
 44  23  25  ar  
 45  23  45  1   
 46  24  26  ar  
 47  24  46  1   
 48  25  26  ar  
 49  25  47  1   
 50  26  48  1   
@<TRIPOS>SUBSTRUCTURE
  1 ****  11 GROUP 4 **** **** 0

# MOE 2024.06 (io_trps.svl 2023.06)
