@<TRIPOS>MOLECULE
NONAME
51 53 1 0 0 
SMALL
USER_CHARGES


@<TRIPOS>ATOM
  1 O        0.6650    -1.5140    -2.0950 O.3   1 <1>  -0.6800 
  2 C        0.0270    -1.9030    -0.9250 C.3   1 <1>   0.1200 
  3 C        0.9940    -1.8800     0.2950 C.3   1 <1>   0.0000 
  4 C        2.3540    -2.5910     0.0330 C.3   1 <1>   0.4230 
  5 C        1.2660    -0.4080     0.7060 C.3   1 <1>  -0.1600 
  6 C        0.2890    -2.5930     1.4850 C.3   1 <1>  -0.1600 
  7 N        2.2050    -4.0660    -0.3430 N.4   1 <1>  -0.9590 
  8 C        3.3000    -1.7510    -0.8870 C.3   1 <1>   0.3430 
  9 C        2.1300     0.3710    -0.2910 C.3   1 <1>   0.3430 
 10 C        0.6940    -4.0720     1.6540 C.3   1 <1>  -0.1600 
 11 C        1.0450    -4.7490     0.3280 C.3   1 <1>   0.3430 
 12 C        2.1390    -4.3430    -1.8190 C.3   1 <1>   0.2630 
 13 N        3.4500    -0.3120    -0.4610 N.4   1 <1>  -0.9590 
 14 C        4.2990     0.4550    -1.4210 C.3   1 <1>   0.4860 
 15 C        4.6240     1.7930    -0.7930 C.ar  1 <1>  -0.1430 
 16 C        5.5520     1.8770     0.2360 C.ar  1 <1>  -0.1500 
 17 C        3.9900     2.9450    -1.2370 C.ar  1 <1>  -0.1500 
 18 C        5.8320     3.0950     0.8320 C.ar  1 <1>  -0.1430 
 19 C        4.2710     4.1620    -0.6450 C.ar  1 <1>  -0.1500 
 20 C        5.1870     4.2360     0.3880 C.ar  1 <1>  -0.1500 
 21 C        6.8480     3.1910     1.9580 C.3   1 <1>  -0.0970 
 22 H        0.0030    -1.3730    -2.8110 H     1 <1>   0.4000 
 23 H       -0.8000    -1.2300    -0.7590 H     1 <1>   0.0800 
 24 H       -0.3790    -2.8850    -1.0890 H     1 <1>   0.0800 
 25 H        2.8440    -2.5890     0.9930 H     1 <1>   0.0800 
 26 H        1.7560    -0.3660     1.6640 H     1 <1>   0.0800 
 27 H        0.3300     0.1140     0.8190 H     1 <1>   0.0800 
 28 H        0.5080    -2.0980     2.4170 H     1 <1>   0.0800 
 29 H       -0.7810    -2.5300     1.3650 H     1 <1>   0.0800 
 30 H        3.0430    -4.5510     0.0150 H     1 <1>   0.4500 
 31 H        2.9080    -1.7700    -1.8900 H     1 <1>   0.0800 
 32 H        4.2710    -2.2170    -0.9010 H     1 <1>   0.0800 
 33 H        2.2790     1.3750     0.0770 H     1 <1>   0.0800 
 34 H        1.6230     0.4380    -1.2400 H     1 <1>   0.0800 
 35 H       -0.1190    -4.6070     2.1160 H     1 <1>   0.0800 
 36 H        1.5350    -4.1530     2.3210 H     1 <1>   0.0800 
 37 H        0.1790    -4.7120    -0.3130 H     1 <1>   0.0800 
 38 H        1.2790    -5.7880     0.5000 H     1 <1>   0.0800 
 39 H        1.2810    -3.8590    -2.2570 H     1 <1>   0.0800 
 40 H        2.0560    -5.4040    -1.9960 H     1 <1>   0.0800 
 41 H        3.0260    -3.9880    -2.3170 H     1 <1>   0.0800 
 42 H        3.9410    -0.2350     0.4420 H     1 <1>   0.4500 
 43 H        5.2180    -0.0730    -1.6170 H     1 <1>   0.0800 
 44 H        3.7790     0.6000    -2.3540 H     1 <1>   0.0800 
 45 H        6.0740     1.0010     0.5830 H     1 <1>   0.1500 
 46 H        3.2780     2.9160    -2.0450 H     1 <1>   0.1500 
 47 H        3.7810     5.0590    -0.9880 H     1 <1>   0.1500 
 48 H        5.4000     5.1900     0.8400 H     1 <1>   0.1500 
 49 H        6.5620     3.9560     2.6570 H     1 <1>   0.0800 
 50 H        7.8150     3.4390     1.5550 H     1 <1>   0.0800 
 51 H        6.9230     2.2600     2.4890 H     1 <1>   0.0800 
@<TRIPOS>BOND
  1   1   2  1   
  2   1  22  1   
  3   2   3  1   
  4   2  23  1   
  5   2  24  1   
  6   3   4  1   
  7   3   5  1   
  8   3   6  1   
  9   4   7  1   
 10   4   8  1   
 11   4  25  1   
 12   5   9  1   
 13   5  26  1   
 14   5  27  1   
 15   6  10  1   
 16   6  28  1   
 17   6  29  1   
 18   7  11  1   
 19   7  12  1   
 20   7  30  1   
 21   8  13  1   
 22   8  31  1   
 23   8  32  1   
 24   9  13  1   
 25   9  33  1   
 26   9  34  1   
 27  10  11  1   
 28  10  35  1   
 29  10  36  1   
 30  11  37  1   
 31  11  38  1   
 32  12  39  1   
 33  12  40  1   
 34  12  41  1   
 35  13  14  1   
 36  13  42  1   
 37  14  15  1   
 38  14  43  1   
 39  14  44  1   
 40  15  16  ar  
 41  15  17  ar  
 42  16  18  ar  
 43  16  45  1   
 44  17  19  ar  
 45  17  46  1   
 46  18  20  ar  
 47  18  21  1   
 48  19  20  ar  
 49  19  47  1   
 50  20  48  1   
 51  21  49  1   
 52  21  50  1   
 53  21  51  1   
@<TRIPOS>SUBSTRUCTURE
  1 ****  13 GROUP 4 **** **** 0

# MOE 2024.06 (io_trps.svl 2023.06)
