@<TRIPOS>MOLECULE
NONAME
46 48 1 0 0 
SMALL
USER_CHARGES


@<TRIPOS>ATOM
  1 O        3.6170     0.3510     1.5030 O.2   1 <1>  -0.5700 
  2 C        3.2830    -0.0760     0.4140 C.2   1 <1>   0.5440 
  3 N        2.8230     0.8040    -0.5430 N.am  1 <1>  -0.6600 
  4 C        3.3590    -1.4960     0.1620 C.ar  1 <1>   0.0860 
  5 C        2.8140     0.4530    -2.0030 C.3   1 <1>   0.1400 
  6 C        2.4860     2.2130    -0.1930 C.3   1 <1>   0.1400 
  7 C        4.5520    -2.0990    -0.2240 C.ar  1 <1>   0.1600 
  8 C        2.2440    -2.3120     0.2920 C.ar  1 <1>  -0.1500 
  9 C        3.6020     1.4440    -2.8810 C.3   1 <1>   0.1400 
 10 C        3.7410     3.0980    -0.1290 C.3   1 <1>  -0.1600 
 11 N        4.7160    -3.3890    -0.4780 N.ar  1 <1>  -0.6200 
 12 C        2.3860    -3.6590     0.0340 C.ar  1 <1>  -0.1430 
 13 N        4.7580     2.0440    -2.1510 N.am  1 <1>  -0.6600 
 14 C        4.4540     3.3280    -1.4680 C.3   1 <1>   0.1400 
 15 C        3.6320    -4.1360    -0.3430 C.ar  1 <1>   0.1600 
 16 C        1.1980    -4.5980     0.1620 C.3   1 <1>  -0.0970 
 17 C        5.8640     1.2780    -1.8530 C.2   1 <1>   0.5440 
 18 O        5.9530     0.1590    -2.3200 O.2   1 <1>  -0.5700 
 19 C        6.9130     1.7660    -0.9820 C.ar  1 <1>   0.0860 
 20 C        6.9510     1.4140     0.3650 C.ar  1 <1>  -0.1500 
 21 C        7.9140     2.6030    -1.4670 C.ar  1 <1>  -0.1500 
 22 C        7.9440     1.8760     1.2180 C.ar  1 <1>   0.0730 
 23 C        8.9120     3.0750    -0.6360 C.ar  1 <1>  -0.1500 
 24 C        7.9670     1.5030     2.6050 C.1   1 <1>   0.4840 
 25 C        8.9240     2.7130     0.6990 C.ar  1 <1>  -0.1500 
 26 N        8.0160     1.2270     3.7100 N.1   1 <1>  -0.5570 
 27 H        1.7980     0.3990    -2.3510 H     1 <1>   0.0800 
 28 H        3.2520    -0.5180    -2.1520 H     1 <1>   0.0800 
 29 H        2.0090     2.2200     0.7730 H     1 <1>   0.0800 
 30 H        1.7850     2.6090    -0.9070 H     1 <1>   0.0800 
 31 H        5.4190    -1.4700    -0.3340 H     1 <1>   0.1500 
 32 H        1.3020    -1.8880     0.5910 H     1 <1>   0.1500 
 33 H        2.9420     2.2240    -3.2170 H     1 <1>   0.0800 
 34 H        3.9600     0.9300    -3.7560 H     1 <1>   0.0800 
 35 H        4.4300     2.6810     0.5820 H     1 <1>   0.0800 
 36 H        3.4500     4.0570     0.2560 H     1 <1>   0.0800 
 37 H        5.3640     3.8770    -1.2990 H     1 <1>   0.0800 
 38 H        3.8330     3.9300    -2.1090 H     1 <1>   0.0800 
 39 H        3.7470    -5.1870    -0.5460 H     1 <1>   0.1500 
 40 H        0.4910    -4.2170     0.8760 H     1 <1>   0.0800 
 41 H        1.5220    -5.5690     0.4930 H     1 <1>   0.0800 
 42 H        0.7090    -4.7000    -0.7900 H     1 <1>   0.0800 
 43 H        6.1800     0.7670     0.7510 H     1 <1>   0.1500 
 44 H        7.9040     2.8770    -2.5080 H     1 <1>   0.1500 
 45 H        9.6800     3.7220    -1.0280 H     1 <1>   0.1500 
 46 H        9.7050     3.0830     1.3430 H     1 <1>   0.1500 
@<TRIPOS>BOND
  1   1   2  2   
  2   2   3  am  
  3   2   4  1   
  4   3   5  1   
  5   3   6  1   
  6   4   7  ar  
  7   4   8  ar  
  8   5   9  1   
  9   5  27  1   
 10   5  28  1   
 11   6  10  1   
 12   6  29  1   
 13   6  30  1   
 14   7  11  ar  
 15   7  31  1   
 16   8  12  ar  
 17   8  32  1   
 18   9  13  1   
 19   9  33  1   
 20   9  34  1   
 21  10  14  1   
 22  10  35  1   
 23  10  36  1   
 24  11  15  ar  
 25  12  15  ar  
 26  12  16  1   
 27  13  14  1   
 28  13  17  am  
 29  14  37  1   
 30  14  38  1   
 31  15  39  1   
 32  16  40  1   
 33  16  41  1   
 34  16  42  1   
 35  17  18  2   
 36  17  19  1   
 37  19  20  ar  
 38  19  21  ar  
 39  20  22  ar  
 40  20  43  1   
 41  21  23  ar  
 42  21  44  1   
 43  22  24  1   
 44  22  25  ar  
 45  23  25  ar  
 46  23  45  1   
 47  24  26  3   
 48  25  46  1   
@<TRIPOS>SUBSTRUCTURE
  1 ****   2 GROUP 4 **** **** 0

# MOE 2024.06 (io_trps.svl 2023.06)
