@<TRIPOS>MOLECULE
NONAME
50 54 1 0 0 
SMALL
USER_CHARGES


@<TRIPOS>ATOM
  1 F       -2.1960     1.0810    -1.3460 F     1 <1>  -0.1900 
  2 C       -1.8050     1.5870    -0.2000 C.ar  1 <1>   0.1900 
  3 C       -0.6000     2.3000    -0.1210 C.ar  1 <1>   0.4100 
  4 C       -2.6030     1.3980     0.9000 C.ar  1 <1>  -0.1500 
  5 N       -0.1590     2.8330     1.0190 N.ar  1 <1>  -0.6200 
  6 N        0.2230     2.5030    -1.2210 N.pl3 1 <1>  -0.8380 
  7 C       -2.1400     1.9540     2.0770 C.ar  1 <1>  -0.1500 
  8 C       -0.9380     2.6450     2.0790 C.ar  1 <1>   0.1600 
  9 C        0.3100     3.9070    -1.7130 C.3   1 <1>   0.2090 
 10 C        1.5300     1.7880    -1.1930 C.3   1 <1>   0.2090 
 11 C        1.4080     4.7000    -0.9710 C.3   1 <1>   0.3430 
 12 C        2.6100     2.6120    -0.4590 C.3   1 <1>   0.3430 
 13 N        2.7630     4.0190    -1.0000 N.4   1 <1>  -0.9590 
 14 C        3.8480     4.8080    -0.3320 C.3   1 <1>   0.5030 
 15 C        3.5690     5.0170     1.1740 C.3   1 <1>  -0.1600 
 16 C        3.9770     6.1910    -1.0150 C.3   1 <1>  -0.1600 
 17 C        5.1980     4.0690    -0.4940 C.3   1 <1>  -0.1600 
 18 C        4.7080     5.8310     1.8190 C.3   1 <1>  -0.0800 
 19 C        5.1140     7.0110    -0.3770 C.3   1 <1>  -0.0800 
 20 C        6.3420     4.8760     0.1470 C.3   1 <1>  -0.0800 
 21 C        4.8150     7.2000     1.1220 C.3   1 <1>  -0.1600 
 22 C        6.0380     5.0760     1.6440 C.3   1 <1>  -0.1600 
 23 C        6.4410     6.2500    -0.5380 C.3   1 <1>  -0.1600 
 24 H       -3.5280     0.8510     0.8410 H     1 <1>   0.1500 
 25 H       -2.7070     1.8500     2.9860 H     1 <1>   0.1500 
 26 H       -0.6000     3.0680     3.0110 H     1 <1>   0.1500 
 27 H       -0.6390     4.3960    -1.5640 H     1 <1>   0.0800 
 28 H        0.5090     3.9020    -2.7710 H     1 <1>   0.0800 
 29 H        1.8450     1.5820    -2.2010 H     1 <1>   0.0800 
 30 H        1.4060     0.8430    -0.6910 H     1 <1>   0.0800 
 31 H        1.0900     4.8200     0.0510 H     1 <1>   0.0800 
 32 H        1.4720     5.6780    -1.4140 H     1 <1>   0.0800 
 33 H        3.5420     2.0800    -0.5310 H     1 <1>   0.0800 
 34 H        2.3350     2.6570     0.5820 H     1 <1>   0.0800 
 35 H        3.0360     3.9360    -1.9830 H     1 <1>   0.4500 
 36 H        3.4960     4.0740     1.6830 H     1 <1>   0.0800 
 37 H        2.6470     5.5490     1.3210 H     1 <1>   0.0800 
 38 H        3.0760     6.7640    -0.9050 H     1 <1>   0.0800 
 39 H        4.1800     6.0710    -2.0640 H     1 <1>   0.0800 
 40 H        5.4180     3.9190    -1.5360 H     1 <1>   0.0800 
 41 H        5.1780     3.1120    -0.0080 H     1 <1>   0.0800 
 42 H        4.5080     5.9740     2.8690 H     1 <1>   0.0800 
 43 H        5.1890     7.9730    -0.8560 H     1 <1>   0.0800 
 44 H        7.2750     4.3490     0.0340 H     1 <1>   0.0800 
 45 H        5.6030     7.7770     1.5780 H     1 <1>   0.0800 
 46 H        3.9010     7.7530     1.2510 H     1 <1>   0.0800 
 47 H        5.9900     4.1230     2.1420 H     1 <1>   0.0800 
 48 H        6.8360     5.6360     2.1030 H     1 <1>   0.0800 
 49 H        7.2410     6.8190    -0.0950 H     1 <1>   0.0800 
 50 H        6.6730     6.1270    -1.5820 H     1 <1>   0.0800 
@<TRIPOS>BOND
  1   1   2  1   
  2   2   3  ar  
  3   2   4  ar  
  4   3   5  ar  
  5   3   6  1   
  6   4   7  ar  
  7   4  24  1   
  8   5   8  ar  
  9   6   9  1   
 10   6  10  1   
 11   7   8  ar  
 12   7  25  1   
 13   8  26  1   
 14   9  11  1   
 15   9  27  1   
 16   9  28  1   
 17  10  12  1   
 18  10  29  1   
 19  10  30  1   
 20  11  13  1   
 21  11  31  1   
 22  11  32  1   
 23  12  13  1   
 24  12  33  1   
 25  12  34  1   
 26  13  14  1   
 27  13  35  1   
 28  14  15  1   
 29  14  16  1   
 30  14  17  1   
 31  15  18  1   
 32  15  36  1   
 33  15  37  1   
 34  16  19  1   
 35  16  38  1   
 36  16  39  1   
 37  17  20  1   
 38  17  40  1   
 39  17  41  1   
 40  18  21  1   
 41  18  22  1   
 42  18  42  1   
 43  19  21  1   
 44  19  23  1   
 45  19  43  1   
 46  20  22  1   
 47  20  23  1   
 48  20  44  1   
 49  21  45  1   
 50  21  46  1   
 51  22  47  1   
 52  22  48  1   
 53  23  49  1   
 54  23  50  1   
@<TRIPOS>SUBSTRUCTURE
  1 ****  13 GROUP 4 **** **** 0

# MOE 2024.06 (io_trps.svl 2023.06)
