@<TRIPOS>MOLECULE
NONAME
49 51 1 0 0 
SMALL
USER_CHARGES


@<TRIPOS>ATOM
  1 O        1.4380    -0.2570     1.4580 O.co2 1 <1>  -0.9000 
  2 C        1.4920     0.6020     0.5610 C.2   1 <1>   0.9060 
  3 O        0.6260     1.4660     0.4470 O.co2 1 <1>  -0.9000 
  4 C        2.6680     0.5670    -0.4350 C.3   1 <1>  -0.1060 
  5 C        3.9060    -0.0170     0.2830 C.3   1 <1>   0.4230 
  6 C        3.0150     2.0030    -0.9270 C.3   1 <1>  -0.1600 
  7 C        2.3200    -0.3100    -1.6610 C.3   1 <1>  -0.1600 
  8 N        3.6560    -1.4460     0.6840 N.4   1 <1>  -0.9590 
  9 C        4.3320     0.9220     1.4390 C.3   1 <1>   0.2090 
 10 C        3.5150     2.9090     0.2100 C.3   1 <1>   0.2090 
 11 C        2.1720    -1.7890    -1.2700 C.3   1 <1>  -0.1600 
 12 C        3.3830    -2.3090    -0.4920 C.3   1 <1>   0.3430 
 13 C        4.6760    -2.0260     1.5950 C.3   1 <1>   0.2630 
 14 N        4.6830     2.2480     0.8580 N.pl3 1 <1>  -0.8380 
 15 C        5.9600     2.5120     0.4160 C.ar  1 <1>   0.7200 
 16 N        6.2490     3.7750     0.1350 N.ar  1 <1>  -0.6200 
 17 N        6.7830     1.4710     0.2920 N.ar  1 <1>  -0.6200 
 18 C        7.4640     4.0330    -0.2860 C.ar  1 <1>   0.1670 
 19 C        7.9930     1.7510    -0.1280 C.ar  1 <1>   0.1600 
 20 C        8.4030     3.0290    -0.4360 C.ar  1 <1>  -0.1430 
 21 C        7.7620     5.4960    -0.5880 C.3   1 <1>  -0.0170 
 22 C        9.8290     3.2780    -0.9110 C.3   1 <1>  -0.0970 
 23 C        8.1800     6.2540     0.6770 C.3   1 <1>  -0.2400 
 24 H        4.7240    -0.0130    -0.4180 H     1 <1>   0.0800 
 25 H        2.1430     2.4560    -1.3650 H     1 <1>   0.0800 
 26 H        3.7760     1.9680    -1.6860 H     1 <1>   0.0800 
 27 H        1.3990     0.0400    -2.0980 H     1 <1>   0.0800 
 28 H        3.0930    -0.2190    -2.4040 H     1 <1>   0.0800 
 29 H        2.7400    -1.3430     1.1990 H     1 <1>   0.4500 
 30 H        5.1840     0.5310     1.9610 H     1 <1>   0.0800 
 31 H        3.5330     1.0470     2.1500 H     1 <1>   0.0800 
 32 H        2.7340     3.0590     0.9380 H     1 <1>   0.0800 
 33 H        3.7840     3.8750    -0.1830 H     1 <1>   0.0800 
 34 H        2.0400    -2.3810    -2.1580 H     1 <1>   0.0800 
 35 H        1.2880    -1.9190    -0.6680 H     1 <1>   0.0800 
 36 H        4.2460    -2.3200    -1.1380 H     1 <1>   0.0800 
 37 H        3.1860    -3.3170    -0.1660 H     1 <1>   0.0800 
 38 H        5.6460    -2.0140     1.1250 H     1 <1>   0.0800 
 39 H        4.4170    -3.0420     1.8420 H     1 <1>   0.0800 
 40 H        4.7230    -1.4580     2.5090 H     1 <1>   0.0800 
 41 H        8.6840     0.9330    -0.2300 H     1 <1>   0.1500 
 42 H        8.5300     5.5820    -1.3340 H     1 <1>   0.0800 
 43 H        6.8750     5.9510    -0.9940 H     1 <1>   0.0800 
 44 H       10.4270     2.3890    -0.8250 H     1 <1>   0.0800 
 45 H       10.2890     4.0480    -0.3180 H     1 <1>   0.0800 
 46 H        9.8250     3.5850    -1.9420 H     1 <1>   0.0800 
 47 H        9.0710     5.8230     1.0960 H     1 <1>   0.0800 
 48 H        7.3940     6.1980     1.4110 H     1 <1>   0.0800 
 49 H        8.3660     7.2880     0.4480 H     1 <1>   0.0800 
@<TRIPOS>BOND
  1   1   2  ar  
  2   2   3  ar  
  3   2   4  1   
  4   4   5  1   
  5   4   6  1   
  6   4   7  1   
  7   5   8  1   
  8   5   9  1   
  9   5  24  1   
 10   6  10  1   
 11   6  25  1   
 12   6  26  1   
 13   7  11  1   
 14   7  27  1   
 15   7  28  1   
 16   8  12  1   
 17   8  13  1   
 18   8  29  1   
 19   9  14  1   
 20   9  30  1   
 21   9  31  1   
 22  10  14  1   
 23  10  32  1   
 24  10  33  1   
 25  11  12  1   
 26  11  34  1   
 27  11  35  1   
 28  12  36  1   
 29  12  37  1   
 30  13  38  1   
 31  13  39  1   
 32  13  40  1   
 33  14  15  1   
 34  15  16  ar  
 35  15  17  ar  
 36  16  18  ar  
 37  17  19  ar  
 38  18  20  ar  
 39  18  21  1   
 40  19  20  ar  
 41  19  41  1   
 42  20  22  1   
 43  21  23  1   
 44  21  42  1   
 45  21  43  1   
 46  22  44  1   
 47  22  45  1   
 48  22  46  1   
 49  23  47  1   
 50  23  48  1   
 51  23  49  1   
@<TRIPOS>SUBSTRUCTURE
  1 ****  14 GROUP 4 **** **** 0

# MOE 2024.06 (io_trps.svl 2023.06)
