@<TRIPOS>MOLECULE
NONAME
51 53 1 0 0 
SMALL
USER_CHARGES


@<TRIPOS>ATOM
  1 O       -1.1850     0.8000     2.3320 O.2   1 <1>  -0.5700 
  2 C       -1.3930     1.2730     1.2290 C.2   1 <1>   0.5440 
  3 N       -2.2340     0.5850     0.3760 N.am  1 <1>  -0.6600 
  4 C       -0.8030     2.5410     0.8810 C.ar  1 <1>   0.0860 
  5 C       -2.7480    -0.7740     0.7310 C.3   1 <1>   0.1400 
  6 C       -2.9520     1.2350    -0.7580 C.3   1 <1>   0.1400 
  7 C        0.0390     2.6850    -0.2390 C.ar  1 <1>   0.4100 
  8 C       -1.0470     3.6630     1.6600 C.ar  1 <1>  -0.1500 
  9 C       -4.0620    -0.7040     1.5260 C.3   1 <1>   0.1400 
 10 C       -4.1040     2.1230    -0.2650 C.3   1 <1>  -0.1600 
 11 N        0.5770     3.8450    -0.6120 N.ar  1 <1>  -0.6200 
 12 N        0.3520     1.6000    -1.0310 N.pl3 1 <1>  -0.8690 
 13 C       -0.4780     4.8560     1.2800 C.ar  1 <1>  -0.1500 
 14 N       -5.1100     0.1120     0.8270 N.am  1 <1>  -0.6600 
 15 C       -4.8910     1.5810     0.9370 C.3   1 <1>   0.1400 
 16 C        0.3140     4.8900     0.1460 C.ar  1 <1>   0.1600 
 17 C        1.3740     1.5870    -2.1090 C.3   1 <1>   0.1290 
 18 C       -6.1820    -0.3870     0.1380 C.2   1 <1>   0.5690 
 19 O       -7.0070     0.3370    -0.3700 O.2   1 <1>  -0.5700 
 20 C       -6.3660    -1.8850    -0.0140 C.3   1 <1>  -0.0990 
 21 C       -7.4050    -2.2360    -1.0890 C.3   1 <1>   0.0960 
 22 N       -7.5710    -3.6980    -1.1880 N.pl3 1 <1>   0.3140 
 23 N       -6.6250    -4.4870    -1.6490 N.2   1 <1>  -0.4180 
 24 C       -8.5950    -4.4630    -0.8410 C.2   1 <1>   0.0060 
 25 N       -7.0840    -5.6840    -1.5760 N.2   1 <1>   0.0000 
 26 N       -8.3140    -5.6870    -1.0730 N.2   1 <1>  -0.3380 
 27 C       -9.9080    -3.9780    -0.2550 C.3   1 <1>  -0.0600 
 28 H       -2.0120    -1.2920     1.3210 H     1 <1>   0.0800 
 29 H       -2.8990    -1.3480    -0.1660 H     1 <1>   0.0800 
 30 H       -3.3540     0.4720    -1.4020 H     1 <1>   0.0800 
 31 H       -2.2720     1.8230    -1.3500 H     1 <1>   0.0800 
 32 H       -1.6650     3.5890     2.5380 H     1 <1>   0.1500 
 33 H       -3.8560    -0.2690     2.4890 H     1 <1>   0.0800 
 34 H       -4.4170    -1.7020     1.7070 H     1 <1>   0.0800 
 35 H       -4.7870     2.2730    -1.0810 H     1 <1>   0.0800 
 36 H       -3.7140     3.0910    -0.0070 H     1 <1>   0.0800 
 37 H       -0.0620     0.6950    -0.7790 H     1 <1>   0.4000 
 38 H       -0.6400     5.7520     1.8520 H     1 <1>   0.1500 
 39 H       -5.8400     2.0880     1.0030 H     1 <1>   0.0800 
 40 H       -4.3490     1.7930     1.8430 H     1 <1>   0.0800 
 41 H        0.7530     5.8280    -0.1500 H     1 <1>   0.1500 
 42 H        2.1560     2.2950    -1.8940 H     1 <1>   0.0800 
 43 H        0.9140     1.8490    -3.0460 H     1 <1>   0.0800 
 44 H        1.8100     0.6060    -2.1880 H     1 <1>   0.0800 
 45 H       -6.6780    -2.2840     0.9340 H     1 <1>   0.0800 
 46 H       -5.4250    -2.3220    -0.2910 H     1 <1>   0.0800 
 47 H       -7.0840    -1.8650    -2.0450 H     1 <1>   0.0800 
 48 H       -8.3530    -1.7880    -0.8520 H     1 <1>   0.0800 
 49 H       -9.7320    -3.4460     0.6620 H     1 <1>   0.0800 
 50 H      -10.5460    -4.8190    -0.0460 H     1 <1>   0.0800 
 51 H      -10.4110    -3.3330    -0.9520 H     1 <1>   0.0800 
@<TRIPOS>BOND
  1   1   2  2   
  2   2   3  am  
  3   2   4  1   
  4   3   5  1   
  5   3   6  1   
  6   4   7  ar  
  7   4   8  ar  
  8   5   9  1   
  9   5  28  1   
 10   5  29  1   
 11   6  10  1   
 12   6  30  1   
 13   6  31  1   
 14   7  11  ar  
 15   7  12  1   
 16   8  13  ar  
 17   8  32  1   
 18   9  14  1   
 19   9  33  1   
 20   9  34  1   
 21  10  15  1   
 22  10  35  1   
 23  10  36  1   
 24  11  16  ar  
 25  12  17  1   
 26  12  37  1   
 27  13  16  ar  
 28  13  38  1   
 29  14  15  1   
 30  14  18  am  
 31  15  39  1   
 32  15  40  1   
 33  16  41  1   
 34  17  42  1   
 35  17  43  1   
 36  17  44  1   
 37  18  19  2   
 38  18  20  1   
 39  20  21  1   
 40  20  45  1   
 41  20  46  1   
 42  21  22  1   
 43  21  47  1   
 44  21  48  1   
 45  22  23  1   
 46  22  24  1   
 47  23  25  2   
 48  24  26  2   
 49  24  27  1   
 50  25  26  1   
 51  27  49  1   
 52  27  50  1   
 53  27  51  1   
@<TRIPOS>SUBSTRUCTURE
  1 ****   5 GROUP 4 **** **** 0

# MOE 2024.06 (io_trps.svl 2023.06)
