@<TRIPOS>MOLECULE
NONAME
53 55 1 0 0 
SMALL
USER_CHARGES


@<TRIPOS>ATOM
  1 O        0.3150     0.2640     1.3910 O.2   1 <1>  -0.5700 
  2 C        0.2310    -0.9390     1.2920 C.2   1 <1>   0.5690 
  3 N       -0.9150    -1.5610     1.6560 N.am  1 <1>  -0.7300 
  4 C        1.4380    -1.7580     0.7600 C.3   1 <1>   0.2510 
  5 C       -1.0800    -3.0330     1.6370 C.3   1 <1>   0.1400 
  6 N        1.2900    -3.2480     0.8550 N.3   1 <1>  -0.8100 
  7 C        2.7130    -1.3250     1.5070 C.3   1 <1>  -0.0990 
  8 C       -0.1110    -3.6770     0.6320 C.3   1 <1>   0.1100 
  9 C        2.1930    -3.9400    -0.0960 C.3   1 <1>   0.2530 
 10 C        3.4300    -0.2420     0.7360 C.2   1 <1>   0.5690 
 11 C        2.1770    -5.4530     0.1240 C.ar  1 <1>  -0.1440 
 12 O        4.3860    -0.5650     0.0770 O.2   1 <1>  -0.5700 
 13 N        2.9450     1.0300     0.7920 N.am  1 <1>  -0.4940 
 14 C        1.8520    -6.3620    -0.8820 C.ar  1 <1>  -0.1430 
 15 C        2.5040    -5.9270     1.3860 C.ar  1 <1>  -0.1500 
 16 C        3.4240     2.2160     0.2280 C.2   1 <1>   0.2040 
 17 C        1.8600    -7.7210    -0.6020 C.ar  1 <1>  -0.1500 
 18 C        1.4860    -5.9150    -2.2910 C.3   1 <1>  -0.0970 
 19 C        2.5110    -7.2820     1.6570 C.ar  1 <1>  -0.1500 
 20 O        2.5500     3.1480    -0.0680 O.3   1 <1>  -0.0190 
 21 C        4.6460     2.6940    -0.0980 C.2   1 <1>  -0.1810 
 22 C        2.1880    -8.1820     0.6600 C.ar  1 <1>  -0.1500 
 23 N        3.1120     4.2100    -0.5810 N.2   1 <1>  -0.4100 
 24 C        4.3720     3.9620    -0.6100 C.2   1 <1>   0.1080 
 25 C        6.0270     2.0730     0.0570 C.3   1 <1>   0.0210 
 26 C        5.3880     4.9550    -1.1360 C.3   1 <1>  -0.0590 
 27 C        6.5570     1.5570    -1.2830 C.3   1 <1>  -0.2400 
 28 H       -1.6620    -0.9900     2.0570 H     1 <1>   0.3700 
 29 H        1.5380    -1.5020    -0.2810 H     1 <1>   0.0800 
 30 H       -2.0910    -3.2780     1.3650 H     1 <1>   0.0800 
 31 H       -0.8860    -3.4270     2.6200 H     1 <1>   0.0800 
 32 H        3.3900    -2.1480     1.6340 H     1 <1>   0.0800 
 33 H        2.4700    -0.9650     2.4890 H     1 <1>   0.0800 
 34 H       -0.4170    -3.4220    -0.3680 H     1 <1>   0.0800 
 35 H       -0.1870    -4.7460     0.7380 H     1 <1>   0.0800 
 36 H        3.2060    -3.6030     0.0420 H     1 <1>   0.0800 
 37 H        1.9110    -3.6880    -1.1020 H     1 <1>   0.0800 
 38 H        1.9890     1.1100     1.1670 H     1 <1>   0.3700 
 39 H        2.7510    -5.2280     2.1670 H     1 <1>   0.1500 
 40 H        1.6130    -8.4350    -1.3670 H     1 <1>   0.1500 
 41 H        0.6150    -5.2860    -2.2640 H     1 <1>   0.0800 
 42 H        1.2710    -6.7590    -2.9200 H     1 <1>   0.0800 
 43 H        2.3040    -5.3710    -2.7280 H     1 <1>   0.0800 
 44 H        2.7660    -7.6340     2.6410 H     1 <1>   0.1500 
 45 H        2.1920    -9.2380     0.8650 H     1 <1>   0.1500 
 46 H        5.9820     1.2620     0.7620 H     1 <1>   0.0800 
 47 H        6.7060     2.8030     0.4590 H     1 <1>   0.0800 
 48 H        6.2140     5.0380    -0.4540 H     1 <1>   0.0800 
 49 H        4.9320     5.9220    -1.2440 H     1 <1>   0.0800 
 50 H        5.7470     4.6340    -2.0950 H     1 <1>   0.0800 
 51 H        5.8790     0.8260    -1.6870 H     1 <1>   0.0800 
 52 H        7.5170     1.0930    -1.1450 H     1 <1>   0.0800 
 53 H        6.6570     2.3600    -1.9880 H     1 <1>   0.0800 
@<TRIPOS>BOND
  1   1   2  2   
  2   2   3  am  
  3   2   4  1   
  4   3   5  1   
  5   3  28  1   
  6   4   6  1   
  7   4   7  1   
  8   4  29  1   
  9   5   8  1   
 10   5  30  1   
 11   5  31  1   
 12   6   8  1   
 13   6   9  1   
 14   7  10  1   
 15   7  32  1   
 16   7  33  1   
 17   8  34  1   
 18   8  35  1   
 19   9  11  1   
 20   9  36  1   
 21   9  37  1   
 22  10  12  2   
 23  10  13  am  
 24  11  14  ar  
 25  11  15  ar  
 26  13  16  1   
 27  13  38  1   
 28  14  17  ar  
 29  14  18  1   
 30  15  19  ar  
 31  15  39  1   
 32  16  20  1   
 33  16  21  2   
 34  17  22  ar  
 35  17  40  1   
 36  18  41  1   
 37  18  42  1   
 38  18  43  1   
 39  19  22  ar  
 40  19  44  1   
 41  20  23  1   
 42  21  24  1   
 43  21  25  1   
 44  22  45  1   
 45  23  24  2   
 46  24  26  1   
 47  25  27  1   
 48  25  46  1   
 49  25  47  1   
 50  26  48  1   
 51  26  49  1   
 52  26  50  1   
 53  27  51  1   
 54  27  52  1   
 55  27  53  1   
@<TRIPOS>SUBSTRUCTURE
  1 ****   4 GROUP 4 **** **** 0

# MOE 2024.06 (io_trps.svl 2023.06)
