@<TRIPOS>MOLECULE
NONAME
49 51 1 0 0 
SMALL
USER_CHARGES


@<TRIPOS>ATOM
  1 S       -0.4380     0.2820    -0.7660 S.o2  1 <1>   1.5760 
  2 O       -0.5640    -0.5640    -1.9310 O.2   1 <1>  -0.6500 
  3 O       -0.6250     1.7110    -0.8790 O.2   1 <1>  -0.6500 
  4 N       -1.4420    -0.3020     0.4590 N.am  1 <1>  -0.8490 
  5 N        1.0650    -0.0070    -0.0630 N.am  1 <1>  -0.8490 
  6 C       -1.3700    -1.7700     0.6370 C.3   1 <1>   0.1960 
  7 C       -2.8450     0.1130     0.2950 C.3   1 <1>   0.1960 
  8 C        1.3290     0.8050     1.1120 C.3   1 <1>   0.1960 
  9 C        2.1630     0.2580    -0.9700 C.3   1 <1>   0.1960 
 10 C       -2.2200    -2.5860    -0.3690 C.3   1 <1>   0.3440 
 11 C       -3.6040    -0.7250    -0.7650 C.3   1 <1>   0.2000 
 12 C        2.8350     0.6890     1.3150 C.3   1 <1>  -0.1600 
 13 C        3.3890     0.3450    -0.0680 C.3   1 <1>  -0.1600 
 14 O       -3.5280    -2.0810    -0.4230 O.3   1 <1>  -0.5600 
 15 C       -2.2600    -4.0530     0.0470 C.ar  1 <1>  -0.1430 
 16 C       -5.0980    -0.3570    -0.9180 C.3   1 <1>  -0.0800 
 17 C       -1.3400    -4.9420    -0.4890 C.ar  1 <1>  -0.1500 
 18 C       -3.1900    -4.5200     0.9670 C.ar  1 <1>  -0.1500 
 19 C       -5.2830     1.0770    -1.4390 C.3   1 <1>  -0.2400 
 20 C       -5.9200    -0.5500     0.3680 C.3   1 <1>  -0.2400 
 21 C       -1.3450    -6.2740    -0.1110 C.ar  1 <1>  -0.1500 
 22 C       -3.1970    -5.8510     1.3470 C.ar  1 <1>  -0.1500 
 23 C       -2.2740    -6.7290     0.8080 C.ar  1 <1>  -0.1500 
 24 H       -0.3460    -2.0990     0.5810 H     1 <1>   0.0800 
 25 H       -1.7190    -2.0070     1.6260 H     1 <1>   0.0800 
 26 H       -3.3420     0.0020     1.2420 H     1 <1>   0.0800 
 27 H       -2.8850     1.1570     0.0370 H     1 <1>   0.0800 
 28 H        1.0690     1.8340     0.9250 H     1 <1>   0.0800 
 29 H        0.7760     0.4440     1.9630 H     1 <1>   0.0800 
 30 H        2.2540    -0.5260    -1.7040 H     1 <1>   0.0800 
 31 H        2.0100     1.2020    -1.4690 H     1 <1>   0.0800 
 32 H       -1.8050    -2.5240    -1.3590 H     1 <1>   0.0800 
 33 H       -3.1340    -0.6030    -1.7260 H     1 <1>   0.0800 
 34 H        3.2410     1.6070     1.7000 H     1 <1>   0.0800 
 35 H        3.0440    -0.1070     2.0090 H     1 <1>   0.0800 
 36 H        3.8890    -0.6080    -0.0430 H     1 <1>   0.0800 
 37 H        4.0740     1.0920    -0.4280 H     1 <1>   0.0800 
 38 H       -5.5000    -1.0190    -1.6670 H     1 <1>   0.0800 
 39 H       -0.6120    -4.6020    -1.2060 H     1 <1>   0.1500 
 40 H       -3.9140    -3.8440     1.3880 H     1 <1>   0.1500 
 41 H       -4.9690     1.8020    -0.7090 H     1 <1>   0.0800 
 42 H       -6.3190     1.2560    -1.6660 H     1 <1>   0.0800 
 43 H       -4.7130     1.2250    -2.3400 H     1 <1>   0.0800 
 44 H       -5.6150     0.1380     1.1360 H     1 <1>   0.0800 
 45 H       -5.8050    -1.5540     0.7370 H     1 <1>   0.0800 
 46 H       -6.9640    -0.3880     0.1650 H     1 <1>   0.0800 
 47 H       -0.6280    -6.9560    -0.5330 H     1 <1>   0.1500 
 48 H       -3.9220    -6.2020     2.0590 H     1 <1>   0.1500 
 49 H       -2.2790    -7.7640     1.1020 H     1 <1>   0.1500 
@<TRIPOS>BOND
  1   1   2  2   
  2   1   3  2   
  3   1   4  am  
  4   1   5  am  
  5   4   6  1   
  6   4   7  1   
  7   5   8  1   
  8   5   9  1   
  9   6  10  1   
 10   6  24  1   
 11   6  25  1   
 12   7  11  1   
 13   7  26  1   
 14   7  27  1   
 15   8  12  1   
 16   8  28  1   
 17   8  29  1   
 18   9  13  1   
 19   9  30  1   
 20   9  31  1   
 21  10  14  1   
 22  10  15  1   
 23  10  32  1   
 24  11  14  1   
 25  11  16  1   
 26  11  33  1   
 27  12  13  1   
 28  12  34  1   
 29  12  35  1   
 30  13  36  1   
 31  13  37  1   
 32  15  17  ar  
 33  15  18  ar  
 34  16  19  1   
 35  16  20  1   
 36  16  38  1   
 37  17  21  ar  
 38  17  39  1   
 39  18  22  ar  
 40  18  40  1   
 41  19  41  1   
 42  19  42  1   
 43  19  43  1   
 44  20  44  1   
 45  20  45  1   
 46  20  46  1   
 47  21  23  ar  
 48  21  47  1   
 49  22  23  ar  
 50  22  48  1   
 51  23  49  1   
@<TRIPOS>SUBSTRUCTURE
  1 ****   6 GROUP 4 **** **** 0

# MOE 2024.06 (io_trps.svl 2023.06)
