@<TRIPOS>MOLECULE
NONAME
52 54 1 0 0 
SMALL
USER_CHARGES


@<TRIPOS>ATOM
  1 CL       0.0400    -0.7510    -0.0100 Cl    1 <1>  -0.1770 
  2 C       -1.4290    -1.3480     0.7270 C.ar  1 <1>   0.1770 
  3 C       -1.7150    -2.7060     0.7430 C.ar  1 <1>  -0.1440 
  4 C       -2.2860    -0.4140     1.2800 C.ar  1 <1>  -0.1500 
  5 C       -2.9220    -3.1370     1.3110 C.ar  1 <1>   0.0860 
  6 C       -0.7260    -3.7130     0.1520 C.3   1 <1>  -0.0970 
  7 C       -3.4640    -0.8370     1.8650 C.ar  1 <1>  -0.1500 
  8 C       -3.3220    -4.5300     1.3160 C.2   1 <1>   0.5440 
  9 C       -3.7710    -2.1850     1.8770 C.ar  1 <1>  -0.1500 
 10 O       -3.2280    -5.1770     2.3410 O.2   1 <1>  -0.5700 
 11 N       -3.8090    -5.1240     0.1750 N.am  1 <1>  -0.6600 
 12 C       -3.9060    -6.6200     0.1010 C.3   1 <1>   0.3640 
 13 C       -4.3570    -4.3030    -0.9470 C.3   1 <1>   0.1400 
 14 C       -2.5200    -7.1840    -0.2270 C.ar  1 <1>  -0.1430 
 15 C       -4.9640    -7.1690    -0.9030 C.3   1 <1>   0.2000 
 16 C       -5.0330    -5.1310    -2.0490 C.3   1 <1>   0.1200 
 17 C       -1.9510    -8.1230     0.6230 C.ar  1 <1>  -0.1500 
 18 C       -1.8120    -6.7830    -1.3540 C.ar  1 <1>  -0.1500 
 19 O       -5.7630    -6.1700    -1.4830 O.3   1 <1>  -0.5600 
 20 C       -5.9150    -8.1770    -0.2440 C.3   1 <1>   0.1200 
 21 C       -0.7030    -8.6610     0.3560 C.ar  1 <1>   0.0830 
 22 C       -0.5570    -7.3030    -1.6210 C.ar  1 <1>  -0.1500 
 23 O       -5.2100    -9.2750     0.2440 O.3   1 <1>  -0.6800 
 24 O       -0.2300    -9.6010     1.2100 O.3   1 <1>  -0.3630 
 25 C        0.0120    -8.2290    -0.7660 C.ar  1 <1>   0.0830 
 26 C       -0.1300   -10.9100     0.6970 C.3   1 <1>   0.0400 
 27 O        1.2590    -8.6710    -1.0660 O.3   1 <1>  -0.3630 
 28 C        2.2760    -8.3560    -0.1410 C.3   1 <1>   0.0400 
 29 H       -2.0280     0.6300     1.2530 H     1 <1>   0.1500 
 30 H       -0.8250    -4.6810     0.6120 H     1 <1>   0.0800 
 31 H        0.2880    -3.3950     0.3110 H     1 <1>   0.0800 
 32 H       -0.8930    -3.8170    -0.9050 H     1 <1>   0.0800 
 33 H       -4.1360    -0.1220     2.3080 H     1 <1>   0.1500 
 34 H       -4.6860    -2.5200     2.3350 H     1 <1>   0.1500 
 35 H       -4.1800    -6.9790     1.0780 H     1 <1>   0.0800 
 36 H       -5.0870    -3.6220    -0.5450 H     1 <1>   0.0800 
 37 H       -3.5680    -3.7150    -1.3820 H     1 <1>   0.0800 
 38 H       -4.4630    -7.6690    -1.7130 H     1 <1>   0.0800 
 39 H       -4.3110    -5.5410    -2.7320 H     1 <1>   0.0800 
 40 H       -5.7150    -4.5130    -2.6060 H     1 <1>   0.0800 
 41 H       -2.4750    -8.4490     1.5040 H     1 <1>   0.1500 
 42 H       -2.2270    -6.0570    -2.0260 H     1 <1>   0.1500 
 43 H       -6.6400    -8.5340    -0.9550 H     1 <1>   0.0800 
 44 H       -6.4230    -7.7180     0.5870 H     1 <1>   0.0800 
 45 H       -0.0090    -6.9880    -2.4910 H     1 <1>   0.1500 
 46 H       -4.8160    -9.7940    -0.4850 H     1 <1>   0.4000 
 47 H        0.1900   -11.5580     1.4930 H     1 <1>   0.0800 
 48 H        0.5900   -10.9260    -0.1010 H     1 <1>   0.0800 
 49 H       -1.0960   -11.2160     0.3370 H     1 <1>   0.0800 
 50 H        3.2210    -8.6350    -0.5710 H     1 <1>   0.0800 
 51 H        2.1140    -8.9030     0.7700 H     1 <1>   0.0800 
 52 H        2.2560    -7.2970     0.0510 H     1 <1>   0.0800 
@<TRIPOS>BOND
  1   1   2  1   
  2   2   3  ar  
  3   2   4  ar  
  4   3   5  ar  
  5   3   6  1   
  6   4   7  ar  
  7   4  29  1   
  8   5   8  1   
  9   5   9  ar  
 10   6  30  1   
 11   6  31  1   
 12   6  32  1   
 13   7   9  ar  
 14   7  33  1   
 15   8  10  2   
 16   8  11  am  
 17   9  34  1   
 18  11  12  1   
 19  11  13  1   
 20  12  14  1   
 21  12  15  1   
 22  12  35  1   
 23  13  16  1   
 24  13  36  1   
 25  13  37  1   
 26  14  17  ar  
 27  14  18  ar  
 28  15  19  1   
 29  15  20  1   
 30  15  38  1   
 31  16  19  1   
 32  16  39  1   
 33  16  40  1   
 34  17  21  ar  
 35  17  41  1   
 36  18  22  ar  
 37  18  42  1   
 38  20  23  1   
 39  20  43  1   
 40  20  44  1   
 41  21  24  1   
 42  21  25  ar  
 43  22  25  ar  
 44  22  45  1   
 45  23  46  1   
 46  24  26  1   
 47  25  27  1   
 48  26  47  1   
 49  26  48  1   
 50  26  49  1   
 51  27  28  1   
 52  28  50  1   
 53  28  51  1   
 54  28  52  1   
@<TRIPOS>SUBSTRUCTURE
  1 ****  14 GROUP 4 **** **** 0

# MOE 2024.06 (io_trps.svl 2023.06)
