@<TRIPOS>MOLECULE
NONAME
46 48 1 0 0 
SMALL
USER_CHARGES


@<TRIPOS>ATOM
  1 S        0.1020     0.2220    -0.6800 S.3   1 <1>  -0.0800 
  2 C        1.6900    -0.2600    -0.1160 C.2   1 <1>   0.4620 
  3 C       -0.4500    -1.4110    -0.4240 C.2   1 <1>  -0.1100 
  4 N        1.7800    -1.4910     0.2180 N.2   1 <1>  -0.5650 
  5 N        2.6800     0.6640    -0.0720 N.pl3 1 <1>  -0.8840 
  6 C        0.5740    -2.1450     0.0450 C.2   1 <1>   0.0460 
  7 C        0.5600    -3.6230     0.4120 C.3   1 <1>   0.0210 
  8 C       -0.7900    -4.3080     0.1410 C.3   1 <1>  -0.0990 
  9 C       -0.8060    -5.7880     0.4930 C.2   1 <1>   0.5690 
 10 O        0.1650    -6.2850     1.0110 O.2   1 <1>  -0.5700 
 11 N       -1.9180    -6.5290     0.2120 N.am  1 <1>  -0.6600 
 12 C       -3.1560    -6.0700    -0.4670 C.3   1 <1>   0.1400 
 13 C       -2.0380    -7.9590     0.5700 C.3   1 <1>   0.1400 
 14 C       -4.1130    -7.2710    -0.4460 C.3   1 <1>   0.2000 
 15 C       -3.1840    -8.4820    -0.2970 C.3   1 <1>  -0.0800 
 16 O       -4.9410    -7.1970     0.6800 O.3   1 <1>  -0.5600 
 17 C       -3.8620    -9.7430     0.2720 C.3   1 <1>   0.0200 
 18 C       -6.1150    -6.4670     0.5080 C.3   1 <1>   0.0400 
 19 C       -2.9680   -10.9720     0.2400 C.2   1 <1>  -0.0400 
 20 O       -3.4120   -12.0830     0.7660 O.3   1 <1>  -0.0190 
 21 C       -1.7370   -11.2120    -0.2400 C.2   1 <1>  -0.1500 
 22 N       -2.5460   -13.0500     0.6660 N.2   1 <1>  -0.4100 
 23 C       -1.5260   -12.5540     0.0650 C.2   1 <1>   0.1080 
 24 C       -0.2700   -13.3290    -0.2610 C.3   1 <1>  -0.0590 
 25 H       -1.4750    -1.6290    -0.6550 H     1 <1>   0.1500 
 26 H        2.5350     1.6370    -0.3360 H     1 <1>   0.4000 
 27 H        3.6010     0.3890     0.2690 H     1 <1>   0.4000 
 28 H        1.3300    -4.1200    -0.1520 H     1 <1>   0.0800 
 29 H        0.8090    -3.7170     1.4550 H     1 <1>   0.0800 
 30 H       -1.0270    -4.2050    -0.9010 H     1 <1>   0.0800 
 31 H       -1.5520    -3.8210     0.7210 H     1 <1>   0.0800 
 32 H       -3.5800    -5.2190     0.0370 H     1 <1>   0.0800 
 33 H       -2.9180    -5.8130    -1.4840 H     1 <1>   0.0800 
 34 H       -1.1140    -8.4810     0.3850 H     1 <1>   0.0800 
 35 H       -2.2870    -8.0340     1.6150 H     1 <1>   0.0800 
 36 H       -4.7200    -7.3380    -1.3330 H     1 <1>   0.0800 
 37 H       -2.7850    -8.7110    -1.2690 H     1 <1>   0.0800 
 38 H       -4.7490    -9.9570    -0.2970 H     1 <1>   0.0800 
 39 H       -4.1650    -9.5670     1.2900 H     1 <1>   0.0800 
 40 H       -6.6490    -6.4720     1.4430 H     1 <1>   0.0800 
 41 H       -6.7170    -6.9340    -0.2520 H     1 <1>   0.0800 
 42 H       -5.8760    -5.4540     0.2360 H     1 <1>   0.0800 
 43 H       -1.0440   -10.5650    -0.7440 H     1 <1>   0.1500 
 44 H       -0.1080   -13.3330    -1.3230 H     1 <1>   0.0800 
 45 H       -0.3660   -14.3440     0.0800 H     1 <1>   0.0800 
 46 H        0.5740   -12.8770     0.2260 H     1 <1>   0.0800 
@<TRIPOS>BOND
  1   1   2  1   
  2   1   3  1   
  3   2   4  2   
  4   2   5  1   
  5   3   6  2   
  6   3  25  1   
  7   4   6  1   
  8   5  26  1   
  9   5  27  1   
 10   6   7  1   
 11   7   8  1   
 12   7  28  1   
 13   7  29  1   
 14   8   9  1   
 15   8  30  1   
 16   8  31  1   
 17   9  10  2   
 18   9  11  am  
 19  11  12  1   
 20  11  13  1   
 21  12  14  1   
 22  12  32  1   
 23  12  33  1   
 24  13  15  1   
 25  13  34  1   
 26  13  35  1   
 27  14  15  1   
 28  14  16  1   
 29  14  36  1   
 30  15  17  1   
 31  15  37  1   
 32  16  18  1   
 33  17  19  1   
 34  17  38  1   
 35  17  39  1   
 36  18  40  1   
 37  18  41  1   
 38  18  42  1   
 39  19  20  1   
 40  19  21  2   
 41  20  22  1   
 42  21  23  1   
 43  21  43  1   
 44  22  23  2   
 45  23  24  1   
 46  24  44  1   
 47  24  45  1   
 48  24  46  1   
@<TRIPOS>SUBSTRUCTURE
  1 ****  11 GROUP 4 **** **** 0

# MOE 2024.06 (io_trps.svl 2023.06)
