@<TRIPOS>MOLECULE
NONAME
56 58 1 0 0 
SMALL
USER_CHARGES


@<TRIPOS>ATOM
  1 O       -2.2140     3.1160    -1.8380 O.2   1 <1>  -0.5700 
  2 C       -2.2760     3.2060    -0.6260 C.2   1 <1>   0.5440 
  3 N       -3.1000     2.3380     0.0700 N.am  1 <1>  -0.6600 
  4 C       -1.4720     4.2070     0.0560 C.ar  1 <1>   0.0860 
  5 C       -4.1870     1.5950    -0.6420 C.3   1 <1>   0.2200 
  6 C       -2.6020     1.7330     1.3440 C.3   1 <1>   0.0600 
  7 C       -0.1920     4.5260    -0.3940 C.ar  1 <1>  -0.1500 
  8 C       -1.9450     4.8910     1.1770 C.ar  1 <1>  -0.1500 
  9 C       -5.1080     2.5280    -1.4280 C.3   1 <1>  -0.1600 
 10 C       -5.1670     0.8910     0.3000 C.3   1 <1>  -0.1600 
 11 C        0.5940     5.4700     0.2430 C.ar  1 <1>   0.0830 
 12 C       -1.1720     5.8370     1.8260 C.ar  1 <1>  -0.1500 
 13 C       -6.4060     1.7380    -1.6400 C.3   1 <1>  -0.0800 
 14 C       -6.4510     0.6900    -0.5190 C.3   1 <1>  -0.0800 
 15 O        1.8230     5.6950    -0.2810 O.3   1 <1>  -0.3630 
 16 C        0.0990     6.1290     1.3650 C.ar  1 <1>  -0.1500 
 17 C       -7.6700     2.5930    -1.4970 C.3   1 <1>  -0.1600 
 18 C       -7.7360     0.9570     0.2750 C.3   1 <1>  -0.1600 
 19 C        2.7010     6.6610     0.2880 C.3   1 <1>   0.1810 
 20 C       -8.0800     2.4110    -0.0370 C.3   1 <1>   0.4230 
 21 C        4.0130     6.7550    -0.4830 C.2   1 <1>   0.5690 
 22 N       -9.5050     2.7550     0.2600 N.4   1 <1>  -0.9590 
 23 O        4.8960     7.4500    -0.0530 O.2   1 <1>  -0.5700 
 24 N        4.1920     6.0760    -1.6350 N.am  1 <1>  -0.8000 
 25 C      -10.5260     2.0180    -0.5570 C.3   1 <1>   0.2630 
 26 C       -9.7220     4.2300     0.1420 C.3   1 <1>   0.2630 
 27 H       -3.7480     0.8750    -1.3150 H     1 <1>   0.0800 
 28 H       -3.2680     1.9770     2.1530 H     1 <1>   0.0800 
 29 H       -1.6190     2.0980     1.5860 H     1 <1>   0.0800 
 30 H       -2.5400     0.6630     1.2430 H     1 <1>   0.0800 
 31 H        0.1940     4.0240    -1.2640 H     1 <1>   0.1500 
 32 H       -2.9350     4.6780     1.5390 H     1 <1>   0.1500 
 33 H       -5.2860     3.4140    -0.8450 H     1 <1>   0.0800 
 34 H       -4.6750     2.8060    -2.3730 H     1 <1>   0.0800 
 35 H       -4.7770    -0.0520     0.6410 H     1 <1>   0.0800 
 36 H       -5.3640     1.5290     1.1420 H     1 <1>   0.0800 
 37 H       -1.5600     6.3490     2.6900 H     1 <1>   0.1500 
 38 H       -6.3740     1.2530    -2.6030 H     1 <1>   0.0800 
 39 H       -6.4570    -0.3030    -0.9400 H     1 <1>   0.0800 
 40 H        0.6770     6.8670     1.8890 H     1 <1>   0.1500 
 41 H       -8.4120     2.1960    -2.1640 H     1 <1>   0.0800 
 42 H       -7.4830     3.6230    -1.7430 H     1 <1>   0.0800 
 43 H       -7.6000     0.7920     1.3290 H     1 <1>   0.0800 
 44 H       -8.4940     0.2920    -0.0930 H     1 <1>   0.0800 
 45 H        2.2130     7.6170     0.2670 H     1 <1>   0.0800 
 46 H        2.9090     6.3740     1.3020 H     1 <1>   0.0800 
 47 H       -7.4320     3.0300     0.5630 H     1 <1>   0.0800 
 48 H       -9.6580     2.4970     1.2460 H     1 <1>   0.4500 
 49 H        5.0740     6.1420    -2.1430 H     1 <1>   0.3700 
 50 H        3.4670     5.4670    -2.0200 H     1 <1>   0.3700 
 51 H      -10.4270     2.2690    -1.6000 H     1 <1>   0.0800 
 52 H      -11.5200     2.2830    -0.2360 H     1 <1>   0.0800 
 53 H      -10.4070     0.9540    -0.4450 H     1 <1>   0.0800 
 54 H       -9.5750     4.5490    -0.8780 H     1 <1>   0.0800 
 55 H       -9.0280     4.7630     0.7720 H     1 <1>   0.0800 
 56 H      -10.7250     4.4870     0.4420 H     1 <1>   0.0800 
@<TRIPOS>BOND
  1   1   2  2   
  2   2   3  am  
  3   2   4  1   
  4   3   5  1   
  5   3   6  1   
  6   4   7  ar  
  7   4   8  ar  
  8   5   9  1   
  9   5  10  1   
 10   5  27  1   
 11   6  28  1   
 12   6  29  1   
 13   6  30  1   
 14   7  11  ar  
 15   7  31  1   
 16   8  12  ar  
 17   8  32  1   
 18   9  13  1   
 19   9  33  1   
 20   9  34  1   
 21  10  14  1   
 22  10  35  1   
 23  10  36  1   
 24  11  15  1   
 25  11  16  ar  
 26  12  16  ar  
 27  12  37  1   
 28  13  14  1   
 29  13  17  1   
 30  13  38  1   
 31  14  18  1   
 32  14  39  1   
 33  15  19  1   
 34  16  40  1   
 35  17  20  1   
 36  17  41  1   
 37  17  42  1   
 38  18  20  1   
 39  18  43  1   
 40  18  44  1   
 41  19  21  1   
 42  19  45  1   
 43  19  46  1   
 44  20  22  1   
 45  20  47  1   
 46  21  23  2   
 47  21  24  am  
 48  22  25  1   
 49  22  26  1   
 50  22  48  1   
 51  24  49  1   
 52  24  50  1   
 53  25  51  1   
 54  25  52  1   
 55  25  53  1   
 56  26  54  1   
 57  26  55  1   
 58  26  56  1   
@<TRIPOS>SUBSTRUCTURE
  1 ****   2 GROUP 4 **** **** 0

# MOE 2024.06 (io_trps.svl 2023.06)
