@<TRIPOS>MOLECULE
Untitled Document
43 44 1 0 0 
SMALL
USER_CHARGES


@<TRIPOS>ATOM
  1 S       -0.5580    -0.2340    -0.2510 S.3   1 <1>  -0.3710 
  2 C       -0.2370     1.0300    -1.4320 C.2   1 <1>   0.7710 
  3 C       -1.8150     0.7590     0.6710 C.3   1 <1>   0.3540 
  4 O        0.5460     0.8810    -2.3300 O.2   1 <1>  -0.5700 
  5 N       -0.9640     2.1300    -1.1570 N.am  1 <1>  -0.4900 
  6 C       -3.1360    -0.0190     0.6500 C.ar  1 <1>  -0.1440 
  7 C       -1.7770     2.1020    -0.0710 C.2   1 <1>   0.5690 
  8 C       -4.3080     0.5110     0.1190 C.ar  1 <1>  -0.1500 
  9 C       -3.1660    -1.2990     1.1910 C.ar  1 <1>  -0.1500 
 10 O       -2.3930     3.0750     0.2820 O.2   1 <1>  -0.5700 
 11 C       -5.4910    -0.2200     0.1240 C.ar  1 <1>   0.0830 
 12 C       -4.3350    -2.0390     1.1930 C.ar  1 <1>  -0.1500 
 13 O       -6.6510     0.2960    -0.3680 O.3   1 <1>  -0.3630 
 14 C       -5.4930    -1.5120     0.6520 C.ar  1 <1>   0.0830 
 15 C       -6.9320     1.6670    -0.2060 C.3   1 <1>   0.1200 
 16 O       -6.6130    -2.2740     0.6850 O.3   1 <1>  -0.3630 
 17 C       -8.4200     1.8760    -0.4670 C.3   1 <1>  -0.2400 
 18 C       -7.0860    -2.7640    -0.5520 C.3   1 <1>   0.1200 
 19 C       -8.5810    -3.0730    -0.4290 C.3   1 <1>  -0.1600 
 20 C       -9.4060    -1.8070    -0.1510 C.3   1 <1>  -0.1600 
 21 C      -10.9040    -2.1190    -0.0700 C.3   1 <1>  -0.1600 
 22 C      -11.7130    -0.8470     0.2000 C.3   1 <1>  -0.2400 
 23 H       -1.4560     0.8800     1.6760 H     1 <1>   0.0800 
 24 H       -0.8650     2.9650    -1.7250 H     1 <1>   0.3700 
 25 H       -4.3150     1.4970    -0.3050 H     1 <1>   0.1500 
 26 H       -2.2770    -1.7340     1.6150 H     1 <1>   0.1500 
 27 H       -4.3550    -3.0290     1.6120 H     1 <1>   0.1500 
 28 H       -6.3410     2.2240    -0.9110 H     1 <1>   0.0800 
 29 H       -6.6790     1.9520     0.8010 H     1 <1>   0.0800 
 30 H       -8.6690     1.5640    -1.4650 H     1 <1>   0.0800 
 31 H       -8.6660     2.9170    -0.3600 H     1 <1>   0.0800 
 32 H       -9.0000     1.3120     0.2410 H     1 <1>   0.0800 
 33 H       -6.5270    -3.6510    -0.7890 H     1 <1>   0.0800 
 34 H       -6.9180    -2.0250    -1.3160 H     1 <1>   0.0800 
 35 H       -8.7280    -3.7930     0.3560 H     1 <1>   0.0800 
 36 H       -8.9130    -3.5150    -1.3510 H     1 <1>   0.0800 
 37 H       -9.2290    -1.0910    -0.9350 H     1 <1>   0.0800 
 38 H       -9.0800    -1.3660     0.7760 H     1 <1>   0.0800 
 39 H      -11.0810    -2.8280     0.7210 H     1 <1>   0.0800 
 40 H      -11.2330    -2.5600    -0.9950 H     1 <1>   0.0800 
 41 H      -11.4110    -0.4030     1.1320 H     1 <1>   0.0800 
 42 H      -12.7610    -1.0820     0.2550 H     1 <1>   0.0800 
 43 H      -11.5620    -0.1320    -0.5900 H     1 <1>   0.0800 
@<TRIPOS>BOND
  1   1   2  1   
  2   1   3  1   
  3   2   4  2   
  4   2   5  am  
  5   3   6  1   
  6   3   7  1   
  7   3  23  1   
  8   5   7  am  
  9   5  24  1   
 10   6   8  ar  
 11   6   9  ar  
 12   7  10  2   
 13   8  11  ar  
 14   8  25  1   
 15   9  12  ar  
 16   9  26  1   
 17  11  13  1   
 18  11  14  ar  
 19  12  14  ar  
 20  12  27  1   
 21  13  15  1   
 22  14  16  1   
 23  15  17  1   
 24  15  28  1   
 25  15  29  1   
 26  16  18  1   
 27  17  30  1   
 28  17  31  1   
 29  17  32  1   
 30  18  19  1   
 31  18  33  1   
 32  18  34  1   
 33  19  20  1   
 34  19  35  1   
 35  19  36  1   
 36  20  21  1   
 37  20  37  1   
 38  20  38  1   
 39  21  22  1   
 40  21  39  1   
 41  21  40  1   
 42  22  41  1   
 43  22  42  1   
 44  22  43  1   
@<TRIPOS>SUBSTRUCTURE
  1 ****  11 GROUP 4 **** **** 0

# MOE 2024.06 (io_trps.svl 2023.06)
