@<TRIPOS>MOLECULE
NONAME
53 55 1 0 0 
SMALL
USER_CHARGES


@<TRIPOS>ATOM
  1 O       -2.3580     2.1480     0.7720 O.co2 1 <1>  -0.9000 
  2 C       -1.6360     2.4790    -0.1830 C.2   1 <1>   0.9060 
  3 O       -2.0490     2.3920    -1.3460 O.co2 1 <1>  -0.9000 
  4 C       -0.2220     3.0080     0.1170 C.3   1 <1>  -0.1060 
  5 C       -0.3120     4.0830     1.2250 C.3   1 <1>   0.2000 
  6 C        0.4160     3.6800    -1.1350 C.3   1 <1>   0.1100 
  7 C        0.6700     1.8290     0.5930 C.3   1 <1>  -0.0650 
  8 O       -0.8590     3.5550     2.3780 O.3   1 <1>  -0.6800 
  9 C       -1.1660     5.2850     0.7950 C.3   1 <1>  -0.1600 
 10 N        0.2900     5.1620    -1.1710 N.3   1 <1>  -0.8100 
 11 C        0.9340     0.7670    -0.4860 C.3   1 <1>  -0.1950 
 12 C       -1.0480     5.5650    -0.7070 C.3   1 <1>   0.1100 
 13 C        0.5530     5.6680    -2.5520 C.3   1 <1>   0.1710 
 14 C        2.0100    -0.2510    -0.2870 C.3   1 <1>  -0.2000 
 15 C        2.1570     0.8000    -1.3480 C.3   1 <1>  -0.2000 
 16 C        0.9310     7.1510    -2.5890 C.2   1 <1>   0.5690 
 17 O        0.9190     7.7450    -3.6410 O.2   1 <1>  -0.5700 
 18 N        1.2660     7.7040    -1.3870 N.am  1 <1>  -0.5470 
 19 C        1.6310     8.9910    -0.9700 C.ar  1 <1>   0.1170 
 20 C        1.7370     9.2380     0.3920 C.ar  1 <1>  -0.1500 
 21 C        1.8930    10.0320    -1.8500 C.ar  1 <1>  -0.1500 
 22 C        2.0930    10.4860     0.8790 C.ar  1 <1>  -0.1430 
 23 C        2.2490    11.2810    -1.3760 C.ar  1 <1>  -0.1500 
 24 C        2.3510    11.5200    -0.0140 C.ar  1 <1>  -0.1430 
 25 C        2.1910    10.6930     2.3840 C.3   1 <1>  -0.0970 
 26 C        2.7450    12.9090     0.4660 C.3   1 <1>  -0.0970 
 27 H        0.6790     4.4270     1.4680 H     1 <1>   0.0800 
 28 H        0.0040     3.2510    -2.0340 H     1 <1>   0.0800 
 29 H        1.4680     3.4620    -1.1460 H     1 <1>   0.0800 
 30 H        1.6070     2.2110     0.9580 H     1 <1>   0.0800 
 31 H        0.1810     1.3410     1.4200 H     1 <1>   0.0800 
 32 H       -1.6020     2.9580     2.0610 H     1 <1>   0.4000 
 33 H       -2.2030     5.1020     1.0170 H     1 <1>   0.0800 
 34 H       -0.8520     6.1510     1.3470 H     1 <1>   0.0800 
 35 H        0.0200     0.4090    -0.9360 H     1 <1>   0.1000 
 36 H       -1.2220     6.6120    -0.8890 H     1 <1>   0.0800 
 37 H       -1.7980     5.0060    -1.2450 H     1 <1>   0.0800 
 38 H        1.3760     5.1240    -2.9780 H     1 <1>   0.0800 
 39 H       -0.3100     5.5030    -3.1740 H     1 <1>   0.0800 
 40 H        2.6230    -0.1890     0.5960 H     1 <1>   0.1000 
 41 H        1.8090    -1.2670    -0.5790 H     1 <1>   0.1000 
 42 H        2.0520     0.5210    -2.3820 H     1 <1>   0.1000 
 43 H        2.8900     1.5730    -1.2000 H     1 <1>   0.1000 
 44 H        1.1540     7.0020    -0.6450 H     1 <1>   0.3700 
 45 H        1.5360     8.4360     1.0780 H     1 <1>   0.1500 
 46 H        1.8230     9.8730    -2.9090 H     1 <1>   0.1500 
 47 H        2.4450    12.0690    -2.0820 H     1 <1>   0.1500 
 48 H        1.9550     9.7900     2.9160 H     1 <1>   0.0800 
 49 H        1.5020    11.4570     2.6960 H     1 <1>   0.0800 
 50 H        3.1890    10.9900     2.6500 H     1 <1>   0.0800 
 51 H        2.9060    13.5730    -0.3640 H     1 <1>   0.0800 
 52 H        3.6540    12.8570     1.0370 H     1 <1>   0.0800 
 53 H        1.9650    13.3210     1.0800 H     1 <1>   0.0800 
@<TRIPOS>BOND
  1   1   2  ar  
  2   2   3  ar  
  3   2   4  1   
  4   4   5  1   
  5   4   6  1   
  6   4   7  1   
  7   5   8  1   
  8   5   9  1   
  9   5  27  1   
 10   6  10  1   
 11   6  28  1   
 12   6  29  1   
 13   7  11  1   
 14   7  30  1   
 15   7  31  1   
 16   8  32  1   
 17   9  12  1   
 18   9  33  1   
 19   9  34  1   
 20  10  12  1   
 21  10  13  1   
 22  11  14  1   
 23  11  15  1   
 24  11  35  1   
 25  12  36  1   
 26  12  37  1   
 27  13  16  1   
 28  13  38  1   
 29  13  39  1   
 30  14  15  1   
 31  14  40  1   
 32  14  41  1   
 33  15  42  1   
 34  15  43  1   
 35  16  17  2   
 36  16  18  am  
 37  18  19  1   
 38  18  44  1   
 39  19  20  ar  
 40  19  21  ar  
 41  20  22  ar  
 42  20  45  1   
 43  21  23  ar  
 44  21  46  1   
 45  22  24  ar  
 46  22  25  1   
 47  23  24  ar  
 48  23  47  1   
 49  24  26  1   
 50  25  48  1   
 51  25  49  1   
 52  25  50  1   
 53  26  51  1   
 54  26  52  1   
 55  26  53  1   
@<TRIPOS>SUBSTRUCTURE
  1 ****  10 GROUP 4 **** **** 0

# MOE 2024.06 (io_trps.svl 2023.06)
