@<TRIPOS>MOLECULE
NONAME
50 52 1 0 0 
SMALL
USER_CHARGES


@<TRIPOS>ATOM
  1 CL       0.4450     0.1320     2.3220 Cl    1 <1>  -0.1770 
  2 C       -0.7920     1.2510     1.8130 C.ar  1 <1>   0.1770 
  3 C       -0.4480     2.5570     1.5380 C.ar  1 <1>  -0.1500 
  4 C       -2.0920     0.8130     1.6880 C.ar  1 <1>  -0.1500 
  5 C       -1.4060     3.4780     1.1130 C.ar  1 <1>   0.0860 
  6 C       -3.0630     1.7120     1.2870 C.ar  1 <1>  -0.1500 
  7 C       -2.7350     3.0320     1.0080 C.ar  1 <1>  -0.1440 
  8 C       -0.9690     4.8300     0.7970 C.2   1 <1>   0.5440 
  9 C       -3.8690     3.9700     0.6070 C.3   1 <1>  -0.0960 
 10 O       -0.1170     5.3860     1.4660 O.2   1 <1>  -0.5700 
 11 N       -1.3610     5.4780    -0.3480 N.am  1 <1>  -0.6600 
 12 C       -0.8460     4.9940    -1.6640 C.3   1 <1>   0.1400 
 13 C       -1.8130     6.9010    -0.3160 C.3   1 <1>   0.1400 
 14 C        0.6770     5.2330    -1.7930 C.3   1 <1>   0.3430 
 15 C       -0.6500     7.9080    -0.2740 C.3   1 <1>  -0.1600 
 16 N        1.1360     6.3630    -0.9240 N.4   1 <1>  -0.9590 
 17 C        0.4860     7.6550    -1.2670 C.3   1 <1>   0.3430 
 18 C        2.6250     6.4480    -0.7670 C.3   1 <1>   0.3430 
 19 C        3.0610     7.1260     0.5490 C.3   1 <1>   0.2000 
 20 O        2.5650     8.4390     0.6000 O.3   1 <1>  -0.5600 
 21 C        4.5960     7.1550     0.6800 C.3   1 <1>   0.1200 
 22 C        2.9300     9.1230     1.7690 C.3   1 <1>   0.1200 
 23 O        4.9600     7.8260     1.8470 O.3   1 <1>  -0.5600 
 24 C        4.4610     9.1300     1.9280 C.3   1 <1>   0.1200 
 25 H        0.5760     2.8600     1.6600 H     1 <1>   0.1500 
 26 H       -2.3390    -0.2120     1.9060 H     1 <1>   0.1500 
 27 H       -4.0810     1.3710     1.1990 H     1 <1>   0.1500 
 28 H       -3.7970     4.8960     1.1480 H     1 <1>   0.0800 
 29 H       -4.8270     3.5350     0.8300 H     1 <1>   0.0800 
 30 H       -3.8280     4.1730    -0.4480 H     1 <1>   0.0800 
 31 H       -1.3580     5.5040    -2.4620 H     1 <1>   0.0800 
 32 H       -1.0540     3.9430    -1.7720 H     1 <1>   0.0800 
 33 H       -2.4310     7.0490     0.5540 H     1 <1>   0.0800 
 34 H       -2.4280     7.0910    -1.1800 H     1 <1>   0.0800 
 35 H        0.9320     5.4190    -2.8240 H     1 <1>   0.0800 
 36 H        1.1810     4.3310    -1.4880 H     1 <1>   0.0800 
 37 H       -0.2450     7.9430     0.7220 H     1 <1>   0.0800 
 38 H       -1.0530     8.8850    -0.4670 H     1 <1>   0.0800 
 39 H        0.7450     6.1410     0.0210 H     1 <1>   0.4500 
 40 H        1.2000     8.4600    -1.1930 H     1 <1>   0.0800 
 41 H        0.1070     7.6340    -2.2750 H     1 <1>   0.0800 
 42 H        3.0540     6.9810    -1.5990 H     1 <1>   0.0800 
 43 H        3.0340     5.4520    -0.7690 H     1 <1>   0.0800 
 44 H        2.6490     6.5760     1.3790 H     1 <1>   0.0800 
 45 H        5.0480     7.6580    -0.1580 H     1 <1>   0.0800 
 46 H        4.9920     6.1570     0.7450 H     1 <1>   0.0800 
 47 H        2.4670     8.6400     2.6140 H     1 <1>   0.0800 
 48 H        2.5570    10.1290     1.6990 H     1 <1>   0.0800 
 49 H        4.7370     9.5310     2.8870 H     1 <1>   0.0800 
 50 H        4.9210     9.7250     1.1580 H     1 <1>   0.0800 
@<TRIPOS>BOND
  1   1   2  1   
  2   2   3  ar  
  3   2   4  ar  
  4   3   5  ar  
  5   3  25  1   
  6   4   6  ar  
  7   4  26  1   
  8   5   7  ar  
  9   5   8  1   
 10   6   7  ar  
 11   6  27  1   
 12   7   9  1   
 13   8  10  2   
 14   8  11  am  
 15   9  28  1   
 16   9  29  1   
 17   9  30  1   
 18  11  12  1   
 19  11  13  1   
 20  12  14  1   
 21  12  31  1   
 22  12  32  1   
 23  13  15  1   
 24  13  33  1   
 25  13  34  1   
 26  14  16  1   
 27  14  35  1   
 28  14  36  1   
 29  15  17  1   
 30  15  37  1   
 31  15  38  1   
 32  16  17  1   
 33  16  18  1   
 34  16  39  1   
 35  17  40  1   
 36  17  41  1   
 37  18  19  1   
 38  18  42  1   
 39  18  43  1   
 40  19  20  1   
 41  19  21  1   
 42  19  44  1   
 43  20  22  1   
 44  21  23  1   
 45  21  45  1   
 46  21  46  1   
 47  22  24  1   
 48  22  47  1   
 49  22  48  1   
 50  23  24  1   
 51  24  49  1   
 52  24  50  1   
@<TRIPOS>SUBSTRUCTURE
  1 ****  10 GROUP 4 **** **** 0

# MOE 2024.06 (io_trps.svl 2023.06)
