@<TRIPOS>MOLECULE
NONAME
46 48 1 0 0 
SMALL
USER_CHARGES


@<TRIPOS>ATOM
  1 S       -0.0320     0.0570     0.1440 S.o2  1 <1>   1.3330 
  2 O       -0.6490     1.3630     0.1770 O.2   1 <1>  -0.6500 
  3 O        0.0070    -0.7450     1.3460 O.2   1 <1>  -0.6500 
  4 N       -0.7820    -0.8610    -1.0710 N.am  1 <1>  -0.8490 
  5 C        1.6330     0.2600    -0.4940 C.3   1 <1>  -0.0550 
  6 C       -0.5770    -2.3060    -0.9220 C.3   1 <1>   0.1160 
  7 C       -2.2140    -0.5690    -1.1870 C.3   1 <1>   0.1160 
  8 C        2.5140     1.1850     0.3690 C.3   1 <1>  -0.0800 
  9 C        3.8430     1.4680    -0.3150 C.3   1 <1>   0.2200 
 10 C        2.9410     0.5230     1.6900 C.3   1 <1>   0.1200 
 11 N        4.3440     2.7860     0.1340 N.am  1 <1>  -0.7300 
 12 C        4.7270     0.3720     0.2610 C.3   1 <1>   0.1200 
 13 O        4.3000     0.2170     1.5770 O.3   1 <1>  -0.5600 
 14 C        4.4440     3.9010    -0.6490 C.2   1 <1>   0.6160 
 15 O        4.0980     3.8070    -1.8110 O.2   1 <1>  -0.5700 
 16 C        4.9450     5.1510    -0.1080 C.2   1 <1>   0.0910 
 17 O        4.9780     6.1860    -0.9720 O.3   1 <1>  -0.1590 
 18 C        5.3710     5.3570     1.1680 C.2   1 <1>  -0.1360 
 19 C        5.4120     7.4200    -0.6350 C.ar  1 <1>   0.0820 
 20 C        5.8460     6.6140     1.6180 C.2   1 <1>   0.4690 
 21 C        5.8610     7.6860     0.6620 C.ar  1 <1>   0.0860 
 22 C        5.4020     8.4140    -1.6030 C.ar  1 <1>  -0.1500 
 23 O        6.2200     6.7540     2.7680 O.2   1 <1>  -0.5700 
 24 C        6.2990     8.9800     0.9540 C.ar  1 <1>  -0.1500 
 25 C        5.8390     9.6870    -1.2920 C.ar  1 <1>  -0.1500 
 26 C        6.2880     9.9690    -0.0100 C.ar  1 <1>  -0.1500 
 27 H        2.0990    -0.7010    -0.5900 H     1 <1>   0.0800 
 28 H        1.5570     0.6860    -1.4760 H     1 <1>   0.0800 
 29 H       -0.9920    -2.8270    -1.7680 H     1 <1>   0.0800 
 30 H       -1.0520    -2.6630    -0.0220 H     1 <1>   0.0800 
 31 H        0.4750    -2.5290    -0.8690 H     1 <1>   0.0800 
 32 H       -2.6530    -1.1550    -1.9750 H     1 <1>   0.0800 
 33 H       -2.3610     0.4720    -1.4220 H     1 <1>   0.0800 
 34 H       -2.7170    -0.7870    -0.2590 H     1 <1>   0.0800 
 35 H        1.9740     2.0980     0.5510 H     1 <1>   0.0800 
 36 H        3.7910     1.4240    -1.3900 H     1 <1>   0.0800 
 37 H        2.4080    -0.3890     1.8990 H     1 <1>   0.0800 
 38 H        2.8240     1.1990     2.5200 H     1 <1>   0.0800 
 39 H        4.6300     2.8000     1.1150 H     1 <1>   0.3700 
 40 H        5.7720     0.6260     0.2440 H     1 <1>   0.0800 
 41 H        4.5680    -0.5610    -0.2510 H     1 <1>   0.0800 
 42 H        5.3720     4.5800     1.9070 H     1 <1>   0.1500 
 43 H        5.0510     8.1840    -2.5940 H     1 <1>   0.1500 
 44 H        6.6480     9.2010     1.9490 H     1 <1>   0.1500 
 45 H        5.8320    10.4600    -2.0420 H     1 <1>   0.1500 
 46 H        6.6290    10.9620     0.2300 H     1 <1>   0.1500 
@<TRIPOS>BOND
  1   1   2  2   
  2   1   3  2   
  3   1   4  am  
  4   1   5  1   
  5   4   6  1   
  6   4   7  1   
  7   5   8  1   
  8   5  27  1   
  9   5  28  1   
 10   6  29  1   
 11   6  30  1   
 12   6  31  1   
 13   7  32  1   
 14   7  33  1   
 15   7  34  1   
 16   8   9  1   
 17   8  10  1   
 18   8  35  1   
 19   9  11  1   
 20   9  12  1   
 21   9  36  1   
 22  10  13  1   
 23  10  37  1   
 24  10  38  1   
 25  11  14  am  
 26  11  39  1   
 27  12  13  1   
 28  12  40  1   
 29  12  41  1   
 30  14  15  2   
 31  14  16  1   
 32  16  17  1   
 33  16  18  2   
 34  17  19  1   
 35  18  20  1   
 36  18  42  1   
 37  19  21  ar  
 38  19  22  ar  
 39  20  21  1   
 40  20  23  2   
 41  21  24  ar  
 42  22  25  ar  
 43  22  43  1   
 44  24  26  ar  
 45  24  44  1   
 46  25  26  ar  
 47  25  45  1   
 48  26  46  1   
@<TRIPOS>SUBSTRUCTURE
  1 ****  11 GROUP 4 **** **** 0

# MOE 2024.06 (io_trps.svl 2023.06)
