@<TRIPOS>MOLECULE
NONAME
37 39 1 0 0 
SMALL
USER_CHARGES


@<TRIPOS>ATOM
  1 S       -0.8040    -0.6950    -0.7450 S.3   1 <1>  -0.4600 
  2 C       -2.3490     0.2560    -0.5830 C.3   1 <1>   0.2510 
  3 C       -1.4550    -2.3520    -0.3640 C.3   1 <1>   0.2510 
  4 C       -3.3610    -0.7920    -0.1850 C.2   1 <1>   0.1080 
  5 C       -2.9150    -2.0940    -0.0740 C.2   1 <1>  -0.1810 
  6 N       -4.6230    -0.6600     0.0780 N.2   1 <1>  -0.7070 
  7 C       -4.0010    -2.8150     0.2940 C.2   1 <1>  -0.0880 
  8 N       -5.0240    -1.9190     0.3750 N.pl3 1 <1>   0.3140 
  9 N       -4.1520    -4.1960     0.5620 N.am  1 <1>  -0.4940 
 10 C       -6.4200    -2.2130     0.7240 C.3   1 <1>   0.0160 
 11 C       -3.3100    -5.2630     0.4090 C.2   1 <1>   0.5690 
 12 O       -2.1820    -5.1760    -0.0140 O.2   1 <1>  -0.5700 
 13 C       -3.8130    -6.6340     0.8090 C.3   1 <1>   0.1570 
 14 N       -5.2350    -6.7830     0.4470 N.pl3 1 <1>   0.3140 
 15 N       -6.1990    -6.1310     1.1350 N.2   1 <1>  -0.7070 
 16 C       -5.7640    -7.5040    -0.5680 C.2   1 <1>  -0.3320 
 17 C       -7.3080    -6.4690     0.5570 C.2   1 <1>   0.1080 
 18 C       -7.1000    -7.3240    -0.5170 C.2   1 <1>  -0.1500 
 19 C       -4.9710    -8.3400    -1.5590 C.3   1 <1>  -0.0600 
 20 C       -8.6570    -5.9750     1.0260 C.3   1 <1>  -0.0590 
 21 H       -2.5790     0.6980    -1.5350 H     1 <1>   0.0800 
 22 H       -2.2150     0.9980     0.1810 H     1 <1>   0.0800 
 23 H       -0.9300    -2.7390     0.4900 H     1 <1>   0.0800 
 24 H       -1.3160    -2.9770    -1.2280 H     1 <1>   0.0800 
 25 H       -5.0920    -4.4900     0.8740 H     1 <1>   0.3700 
 26 H       -7.0020    -1.3150     0.6310 H     1 <1>   0.0800 
 27 H       -6.4630    -2.5680     1.7360 H     1 <1>   0.0800 
 28 H       -6.8010    -2.9610     0.0550 H     1 <1>   0.0800 
 29 H       -3.7150    -6.7530     1.8700 H     1 <1>   0.0800 
 30 H       -3.2340    -7.3900     0.3170 H     1 <1>   0.0800 
 31 H       -7.8610    -7.7370    -1.1560 H     1 <1>   0.1500 
 32 H       -4.2640    -7.7240    -2.0870 H     1 <1>   0.0800 
 33 H       -5.6340    -8.7880    -2.2780 H     1 <1>   0.0800 
 34 H       -4.4430    -9.1260    -1.0490 H     1 <1>   0.0800 
 35 H       -8.7850    -6.2160     2.0650 H     1 <1>   0.0800 
 36 H       -9.4430    -6.4380     0.4600 H     1 <1>   0.0800 
 37 H       -8.7150    -4.9100     0.9040 H     1 <1>   0.0800 
@<TRIPOS>BOND
  1   1   2  1   
  2   1   3  1   
  3   2   4  1   
  4   2  21  1   
  5   2  22  1   
  6   3   5  1   
  7   3  23  1   
  8   3  24  1   
  9   4   5  1   
 10   4   6  2   
 11   5   7  2   
 12   6   8  1   
 13   7   8  1   
 14   7   9  1   
 15   8  10  1   
 16   9  11  am  
 17   9  25  1   
 18  10  26  1   
 19  10  27  1   
 20  10  28  1   
 21  11  12  2   
 22  11  13  1   
 23  13  14  1   
 24  13  29  1   
 25  13  30  1   
 26  14  15  1   
 27  14  16  1   
 28  15  17  2   
 29  16  18  2   
 30  16  19  1   
 31  17  18  1   
 32  17  20  1   
 33  18  31  1   
 34  19  32  1   
 35  19  33  1   
 36  19  34  1   
 37  20  35  1   
 38  20  36  1   
 39  20  37  1   
@<TRIPOS>SUBSTRUCTURE
  1 ****   9 GROUP 4 **** **** 0

# MOE 2024.06 (io_trps.svl 2023.06)
