@<TRIPOS>MOLECULE
NONAME
57 60 1 0 0 
SMALL
USER_CHARGES


@<TRIPOS>ATOM
  1 O        3.0060     1.2730     2.1720 O.3   1 <1>  -0.6800 
  2 C        2.3700     0.7380     1.0440 C.3   1 <1>   0.2000 
  3 C        3.4860    -0.0640     0.1900 C.3   1 <1>   0.0000 
  4 C        1.5770     1.9220     0.4350 C.3   1 <1>  -0.1600 
  5 C        3.7140     1.1410    -0.8290 C.3   1 <1>   0.3430 
  6 C        3.3420    -1.3000     1.1930 C.3   1 <1>   0.1200 
  7 C        4.5470    -0.9010    -0.6780 C.3   1 <1>  -0.0170 
  8 C        2.5020     3.0640     0.0080 C.3   1 <1>   0.3430 
  9 N        3.8460     2.4860    -0.2070 N.4   1 <1>  -0.9590 
 10 O        2.3900    -2.1720     0.6720 O.3   1 <1>  -0.6800 
 11 C        5.9850    -0.3980    -0.4860 C.ar  1 <1>  -0.1430 
 12 C        4.8300     3.3860    -0.8660 C.3   1 <1>   0.4860 
 13 C        6.5000    -0.1400     0.7770 C.ar  1 <1>  -0.1500 
 14 C        6.7870    -0.1800    -1.5970 C.ar  1 <1>  -0.1500 
 15 C        4.9080     4.6800    -0.0730 C.ar  1 <1>  -0.1430 
 16 C        7.7910     0.3380     0.9240 C.ar  1 <1>  -0.1500 
 17 C        8.0750     0.3050    -1.4510 C.ar  1 <1>  -0.1500 
 18 C        5.5070     4.6510     1.2140 C.ar  1 <1>   0.0000 
 19 C        4.3820     5.8480    -0.5810 C.ar  1 <1>  -0.1430 
 20 C        8.5770     0.5670    -0.1890 C.ar  1 <1>  -0.1500 
 21 C        5.4820     5.8230     2.0050 C.ar  1 <1>   0.3100 
 22 C        6.1430     3.5210     1.7750 C.ar  1 <1>  -0.1500 
 23 C        4.3960     7.0080     0.2030 C.ar  1 <1>  -0.1500 
 24 C        3.7680     5.9550    -1.9730 C.3   1 <1>  -0.0970 
 25 N        5.9700     5.8780     3.2690 N.ar  1 <1>  -0.6200 
 26 C        4.9250     6.9860     1.4620 C.ar  1 <1>  -0.1500 
 27 C        6.6410     3.6070     3.0390 C.ar  1 <1>  -0.1500 
 28 C        6.5240     4.8090     3.7470 C.ar  1 <1>   0.1600 
 29 H        2.3580     1.4490     2.8870 H     1 <1>   0.4000 
 30 H        1.5880     0.0810     1.3970 H     1 <1>   0.0800 
 31 H        1.0220     1.5740    -0.4180 H     1 <1>   0.0800 
 32 H        0.8520     2.2910     1.1390 H     1 <1>   0.0800 
 33 H        2.8820     1.1530    -1.5140 H     1 <1>   0.0800 
 34 H        4.5790     1.0270    -1.4580 H     1 <1>   0.0800 
 35 H        3.0300    -1.0750     2.2010 H     1 <1>   0.0800 
 36 H        4.2500    -1.8550     1.3720 H     1 <1>   0.0800 
 37 H        4.5960    -1.9730    -0.5540 H     1 <1>   0.0800 
 38 H        4.2880    -0.8730    -1.7270 H     1 <1>   0.0800 
 39 H        2.5550     3.8090     0.7870 H     1 <1>   0.0800 
 40 H        2.1310     3.5280    -0.8910 H     1 <1>   0.0800 
 41 H        4.1920     2.3080     0.7540 H     1 <1>   0.4500 
 42 H        2.3150    -2.9820     1.2190 H     1 <1>   0.4000 
 43 H        5.8010     2.9180    -0.8930 H     1 <1>   0.0800 
 44 H        4.5240     3.5830    -1.8790 H     1 <1>   0.0800 
 45 H        5.9130    -0.3090     1.6620 H     1 <1>   0.1500 
 46 H        6.4240    -0.3910    -2.5890 H     1 <1>   0.1500 
 47 H        8.1890     0.5280     1.9070 H     1 <1>   0.1500 
 48 H        8.6930     0.4710    -2.3170 H     1 <1>   0.1500 
 49 H        9.5810     0.9380    -0.0750 H     1 <1>   0.1500 
 50 H        6.2490     2.6070     1.2240 H     1 <1>   0.1500 
 51 H        3.9860     7.9250    -0.1850 H     1 <1>   0.1500 
 52 H        3.5940     6.9840    -2.2360 H     1 <1>   0.0800 
 53 H        2.8270     5.4390    -2.0110 H     1 <1>   0.0800 
 54 H        4.4320     5.5450    -2.7130 H     1 <1>   0.0800 
 55 H        4.9320     7.8700     2.0740 H     1 <1>   0.1500 
 56 H        7.1310     2.7750     3.5120 H     1 <1>   0.1500 
 57 H        6.9210     4.8480     4.7480 H     1 <1>   0.1500 
@<TRIPOS>BOND
  1   1   2  1   
  2   1  29  1   
  3   2   3  1   
  4   2   4  1   
  5   2  30  1   
  6   3   5  1   
  7   3   6  1   
  8   3   7  1   
  9   4   8  1   
 10   4  31  1   
 11   4  32  1   
 12   5   9  1   
 13   5  33  1   
 14   5  34  1   
 15   6  10  1   
 16   6  35  1   
 17   6  36  1   
 18   7  11  1   
 19   7  37  1   
 20   7  38  1   
 21   8   9  1   
 22   8  39  1   
 23   8  40  1   
 24   9  12  1   
 25   9  41  1   
 26  10  42  1   
 27  11  13  ar  
 28  11  14  ar  
 29  12  15  1   
 30  12  43  1   
 31  12  44  1   
 32  13  16  ar  
 33  13  45  1   
 34  14  17  ar  
 35  14  46  1   
 36  15  18  ar  
 37  15  19  ar  
 38  16  20  ar  
 39  16  47  1   
 40  17  20  ar  
 41  17  48  1   
 42  18  21  ar  
 43  18  22  ar  
 44  19  23  ar  
 45  19  24  1   
 46  20  49  1   
 47  21  25  ar  
 48  21  26  ar  
 49  22  27  ar  
 50  22  50  1   
 51  23  26  ar  
 52  23  51  1   
 53  24  52  1   
 54  24  53  1   
 55  24  54  1   
 56  25  28  ar  
 57  26  55  1   
 58  27  28  ar  
 59  27  56  1   
 60  28  57  1   
@<TRIPOS>SUBSTRUCTURE
  1 ****   9 GROUP 4 **** **** 0

# MOE 2024.06 (io_trps.svl 2023.06)
