@<TRIPOS>MOLECULE
NONAME
44 46 1 0 0 
SMALL
USER_CHARGES


@<TRIPOS>ATOM
  1 S       -2.2470     0.0510    -2.2490 S.3   1 <1>  -0.0800 
  2 C       -2.9070     0.5630    -0.7070 C.2   1 <1>  -0.1100 
  3 C       -1.3180     1.5320    -2.3880 C.2   1 <1>  -0.1100 
  4 C       -2.4400     1.7810    -0.3620 C.2   1 <1>  -0.1810 
  5 C       -1.5280     2.3270    -1.3240 C.2   1 <1>  -0.1500 
  6 C       -2.7860     2.5600     0.9040 C.3   1 <1>   0.0820 
  7 C       -4.1070     2.1380     1.5280 C.2   1 <1>   0.5690 
  8 O       -4.1370     1.7850     2.6820 O.2   1 <1>  -0.5700 
  9 N       -5.2310     2.1480     0.7680 N.am  1 <1>  -0.7300 
 10 C       -6.5850     1.7480     1.2250 C.3   1 <1>   0.2200 
 11 C       -6.7210     0.2100     1.3020 C.3   1 <1>   0.2000 
 12 C       -7.6120     2.3590     0.2660 C.3   1 <1>  -0.1600 
 13 O       -5.9100    -0.2890     2.3140 O.3   1 <1>  -0.6800 
 14 C       -8.1630    -0.2260     1.5860 C.3   1 <1>   0.1400 
 15 C       -9.0310     1.9220     0.6320 C.3   1 <1>   0.1400 
 16 N       -9.1020     0.4360     0.6280 N.am  1 <1>  -0.6600 
 17 C       -9.8020    -0.2520    -0.3440 C.2   1 <1>   0.5440 
 18 O      -10.1780     0.3540    -1.3300 O.2   1 <1>  -0.5700 
 19 C      -10.0860    -1.6710    -0.2340 C.ar  1 <1>   0.0860 
 20 C      -10.6500    -2.2190     0.9190 C.ar  1 <1>  -0.1500 
 21 C       -9.8060    -2.5390    -1.2890 C.ar  1 <1>  -0.1500 
 22 C      -10.9070    -3.5740     1.0220 C.ar  1 <1>  -0.1500 
 23 C      -10.0610    -3.8960    -1.1940 C.ar  1 <1>  -0.1500 
 24 C      -10.6100    -4.4160    -0.0360 C.ar  1 <1>  -0.1500 
 25 H       -3.5830    -0.1160    -0.2160 H     1 <1>   0.1500 
 26 H       -0.7040     1.6490    -3.2640 H     1 <1>   0.1500 
 27 H       -1.0690     3.2900    -1.1750 H     1 <1>   0.1500 
 28 H       -2.8550     3.6070     0.6730 H     1 <1>   0.0800 
 29 H       -1.9990     2.4310     1.6230 H     1 <1>   0.0800 
 30 H       -5.1400     2.3220    -0.2360 H     1 <1>   0.3700 
 31 H       -6.7580     2.1520     2.2090 H     1 <1>   0.0800 
 32 H       -6.3970    -0.2300     0.3750 H     1 <1>   0.0800 
 33 H       -7.5560     3.4310     0.3110 H     1 <1>   0.0800 
 34 H       -7.4130     2.0470    -0.7450 H     1 <1>   0.0800 
 35 H       -5.1860     0.3630     2.5080 H     1 <1>   0.4000 
 36 H       -8.4340     0.0560     2.5890 H     1 <1>   0.0800 
 37 H       -8.2170    -1.2960     1.5030 H     1 <1>   0.0800 
 38 H       -9.7340     2.3380    -0.0710 H     1 <1>   0.0800 
 39 H       -9.2920     2.2850     1.6110 H     1 <1>   0.0800 
 40 H      -10.8910    -1.5680     1.7410 H     1 <1>   0.1500 
 41 H       -9.3860    -2.1350    -2.1940 H     1 <1>   0.1500 
 42 H      -11.3400    -3.9750     1.9220 H     1 <1>   0.1500 
 43 H       -9.8340    -4.5460    -2.0210 H     1 <1>   0.1500 
 44 H      -10.8100    -5.4710     0.0410 H     1 <1>   0.1500 
@<TRIPOS>BOND
  1   1   2  1   
  2   1   3  1   
  3   2   4  2   
  4   2  25  1   
  5   3   5  2   
  6   3  26  1   
  7   4   5  1   
  8   4   6  1   
  9   5  27  1   
 10   6   7  1   
 11   6  28  1   
 12   6  29  1   
 13   7   8  2   
 14   7   9  am  
 15   9  10  1   
 16   9  30  1   
 17  10  11  1   
 18  10  12  1   
 19  10  31  1   
 20  11  13  1   
 21  11  14  1   
 22  11  32  1   
 23  12  15  1   
 24  12  33  1   
 25  12  34  1   
 26  13  35  1   
 27  14  16  1   
 28  14  36  1   
 29  14  37  1   
 30  15  16  1   
 31  15  38  1   
 32  15  39  1   
 33  16  17  am  
 34  17  18  2   
 35  17  19  1   
 36  19  20  ar  
 37  19  21  ar  
 38  20  22  ar  
 39  20  40  1   
 40  21  23  ar  
 41  21  41  1   
 42  22  24  ar  
 43  22  42  1   
 44  23  24  ar  
 45  23  43  1   
 46  24  44  1   
@<TRIPOS>SUBSTRUCTURE
  1 ****  11 GROUP 4 **** **** 0

# MOE 2024.06 (io_trps.svl 2023.06)
