@<TRIPOS>MOLECULE
NONAME
48 50 1 0 0 
SMALL
USER_CHARGES


@<TRIPOS>ATOM
  1 F       -2.9290    -1.3110    -1.5910 F     1 <1>  -0.3400 
  2 C       -3.8980    -1.4050    -0.6920 C.3   1 <1>   0.8800 
  3 F       -4.4970    -2.5690    -0.9270 F     1 <1>  -0.3400 
  4 O       -4.8330    -0.3830    -0.9570 O.3   1 <1>  -0.3630 
  5 C       -4.9860     0.6000    -0.0440 C.ar  1 <1>   0.0830 
  6 C       -5.4750     0.3490     1.2460 C.ar  1 <1>   0.0860 
  7 C       -4.6720     1.8890    -0.4420 C.ar  1 <1>  -0.1500 
  8 C       -5.8400    -0.9800     1.6720 C.2   1 <1>   0.5440 
  9 C       -5.6100     1.4310     2.1150 C.ar  1 <1>  -0.1500 
 10 C       -4.8160     2.9460     0.4360 C.ar  1 <1>  -0.1500 
 11 O       -4.9700    -1.7190     2.0950 O.2   1 <1>  -0.5700 
 12 N       -7.1220    -1.4650     1.5430 N.am  1 <1>  -0.6600 
 13 C       -5.2840     2.7150     1.7190 C.ar  1 <1>  -0.1500 
 14 C       -7.4260    -2.9080     1.7700 C.3   1 <1>   0.1400 
 15 C       -8.1830    -0.7720     0.7570 C.3   1 <1>   0.1400 
 16 C       -7.4680    -3.6120     0.3920 C.3   1 <1>   0.4230 
 17 C       -8.3080    -1.4620    -0.6110 C.3   1 <1>  -0.1600 
 18 N       -7.6210    -5.1050     0.4540 N.4   1 <1>  -0.9590 
 19 C       -8.5810    -2.9900    -0.4810 C.3   1 <1>  -0.1060 
 20 C       -7.5060    -5.7190    -0.8920 C.3   1 <1>   0.3430 
 21 C       -6.7680    -5.7860     1.4630 C.3   1 <1>   0.2630 
 22 C       -9.9390    -3.2490     0.2000 C.2   1 <1>   0.9060 
 23 C       -8.5410    -3.6190    -1.8940 C.3   1 <1>  -0.1600 
 24 C       -8.5760    -5.1540    -1.8300 C.3   1 <1>  -0.1600 
 25 O      -10.0990    -4.3010     0.8400 O.co2 1 <1>  -0.9000 
 26 O      -10.8320    -2.4070     0.1160 O.co2 1 <1>  -0.9000 
 27 H       -3.4870    -1.3820     0.3020 H     1 <1>   0.0800 
 28 H       -4.3130     2.0620    -1.4420 H     1 <1>   0.1500 
 29 H       -5.9780     1.2560     3.1110 H     1 <1>   0.1500 
 30 H       -4.5660     3.9470     0.1250 H     1 <1>   0.1500 
 31 H       -5.3960     3.5380     2.4050 H     1 <1>   0.1500 
 32 H       -6.6680    -3.3410     2.3950 H     1 <1>   0.0800 
 33 H       -8.3710    -2.9970     2.2780 H     1 <1>   0.0800 
 34 H       -9.1200    -0.8320     1.2880 H     1 <1>   0.0800 
 35 H       -7.9530     0.2700     0.6220 H     1 <1>   0.0800 
 36 H       -6.5250    -3.4040    -0.0820 H     1 <1>   0.0800 
 37 H       -9.1130    -0.9980    -1.1550 H     1 <1>   0.0800 
 38 H       -7.4050    -1.2870    -1.1680 H     1 <1>   0.0800 
 39 H       -8.6360    -5.1870     0.7340 H     1 <1>   0.4500 
 40 H       -6.5290    -5.5170    -1.2980 H     1 <1>   0.0800 
 41 H       -7.6330    -6.7870    -0.8180 H     1 <1>   0.0800 
 42 H       -5.7260    -5.6050     1.2540 H     1 <1>   0.0800 
 43 H       -6.9520    -6.8480     1.4460 H     1 <1>   0.0800 
 44 H       -6.9960    -5.4200     2.4500 H     1 <1>   0.0800 
 45 H       -9.3840    -3.2650    -2.4660 H     1 <1>   0.0800 
 46 H       -7.6440    -3.3120    -2.4040 H     1 <1>   0.0800 
 47 H       -8.4280    -5.5550    -2.8170 H     1 <1>   0.0800 
 48 H       -9.5450    -5.4830    -1.4950 H     1 <1>   0.0800 
@<TRIPOS>BOND
  1   1   2  1   
  2   2   3  1   
  3   2   4  1   
  4   2  27  1   
  5   4   5  1   
  6   5   6  ar  
  7   5   7  ar  
  8   6   8  1   
  9   6   9  ar  
 10   7  10  ar  
 11   7  28  1   
 12   8  11  2   
 13   8  12  am  
 14   9  13  ar  
 15   9  29  1   
 16  10  13  ar  
 17  10  30  1   
 18  12  14  1   
 19  12  15  1   
 20  13  31  1   
 21  14  16  1   
 22  14  32  1   
 23  14  33  1   
 24  15  17  1   
 25  15  34  1   
 26  15  35  1   
 27  16  18  1   
 28  16  19  1   
 29  16  36  1   
 30  17  19  1   
 31  17  37  1   
 32  17  38  1   
 33  18  20  1   
 34  18  21  1   
 35  18  39  1   
 36  19  22  1   
 37  19  23  1   
 38  20  24  1   
 39  20  40  1   
 40  20  41  1   
 41  21  42  1   
 42  21  43  1   
 43  21  44  1   
 44  22  25  ar  
 45  22  26  ar  
 46  23  24  1   
 47  23  45  1   
 48  23  46  1   
 49  24  47  1   
 50  24  48  1   
@<TRIPOS>SUBSTRUCTURE
  1 ****  12 GROUP 4 **** **** 0

# MOE 2024.06 (io_trps.svl 2023.06)
