@<TRIPOS>MOLECULE
NONAME
52 54 1 0 0 
SMALL
USER_CHARGES


@<TRIPOS>ATOM
  1 O       -1.3160     0.3200     1.9210 O.2   1 <1>  -0.5700 
  2 C       -2.1230     1.1510     1.5410 C.2   1 <1>   0.5440 
  3 N       -3.4560     0.8030     1.4980 N.am  1 <1>  -0.6600 
  4 C       -1.6720     2.4590     1.1310 C.ar  1 <1>   0.0860 
  5 C       -3.8940    -0.5740     1.8560 C.3   1 <1>   0.1400 
  6 C       -4.4410     1.5090     0.6270 C.3   1 <1>   0.1400 
  7 C       -1.1370     2.6820    -0.1420 C.ar  1 <1>   0.0830 
  8 C       -1.7730     3.5510     1.9920 C.ar  1 <1>  -0.1500 
  9 C       -3.9560    -1.3880     0.5450 C.3   1 <1>   0.4230 
 10 C       -4.6230     0.7020    -0.6700 C.3   1 <1>  -0.1600 
 11 O       -1.0260     1.6660    -1.0200 O.3   1 <1>  -0.3630 
 12 C       -0.7340     3.9450    -0.5420 C.ar  1 <1>  -0.1500 
 13 C       -1.3650     4.8110     1.6000 C.ar  1 <1>  -0.1500 
 14 N       -4.2020    -2.8600     0.7120 N.4   1 <1>  -0.9590 
 15 C       -5.0150    -0.7840    -0.4080 C.3   1 <1>  -0.1060 
 16 C        0.2030     0.9760    -1.0220 C.3   1 <1>   0.0400 
 17 C       -0.8450     5.0200     0.3310 C.ar  1 <1>   0.0830 
 18 C       -4.1540    -3.6290    -0.5660 C.3   1 <1>   0.3430 
 19 C       -3.4490    -3.5160     1.8130 C.3   1 <1>   0.2630 
 20 C       -6.3840    -0.8870     0.2910 C.2   1 <1>   0.9060 
 21 C       -5.0620    -1.5610    -1.7570 C.3   1 <1>  -0.1600 
 22 O       -0.4750     6.2830     0.0230 O.3   1 <1>  -0.3630 
 23 C       -4.0610    -2.7270    -1.8050 C.3   1 <1>  -0.1600 
 24 O       -6.6620    -1.9420     0.8850 O.co2 1 <1>  -0.9000 
 25 O       -7.1640     0.0640     0.2710 O.co2 1 <1>  -0.9000 
 26 C        0.0630     6.6110    -1.2390 C.3   1 <1>   0.0400 
 27 H       -3.1900    -1.0050     2.5430 H     1 <1>   0.0800 
 28 H       -4.8560    -0.5320     2.3370 H     1 <1>   0.0800 
 29 H       -5.3800     1.5950     1.1490 H     1 <1>   0.0800 
 30 H       -4.1090     2.5060     0.3920 H     1 <1>   0.0800 
 31 H       -2.1790     3.4000     2.9780 H     1 <1>   0.1500 
 32 H       -2.9900    -1.2720     0.0830 H     1 <1>   0.0800 
 33 H       -5.3890     1.1760    -1.2610 H     1 <1>   0.0800 
 34 H       -3.7070     0.7510    -1.2320 H     1 <1>   0.0800 
 35 H       -0.3440     4.0650    -1.5340 H     1 <1>   0.1500 
 36 H       -1.4460     5.6470     2.2730 H     1 <1>   0.1500 
 37 H       -5.2270    -2.8400     0.9700 H     1 <1>   0.4500 
 38 H        0.1520     0.1950    -1.7580 H     1 <1>   0.0800 
 39 H        0.3700     0.5520    -0.0460 H     1 <1>   0.0800 
 40 H        0.9910     1.6650    -1.2680 H     1 <1>   0.0800 
 41 H       -3.3090    -4.2980    -0.5590 H     1 <1>   0.0800 
 42 H       -5.0490    -4.2260    -0.6370 H     1 <1>   0.0800 
 43 H       -2.3890    -3.4430     1.6330 H     1 <1>   0.0800 
 44 H       -3.7240    -4.5550     1.8810 H     1 <1>   0.0800 
 45 H       -3.6770    -3.0430     2.7540 H     1 <1>   0.0800 
 46 H       -6.0550    -1.9560    -1.9010 H     1 <1>   0.0800 
 47 H       -4.8750    -0.9000    -2.5860 H     1 <1>   0.0800 
 48 H       -3.0590    -2.3420    -1.8880 H     1 <1>   0.0800 
 49 H       -4.2450    -3.3200    -2.6840 H     1 <1>   0.0800 
 50 H        0.2780     7.6640    -1.2470 H     1 <1>   0.0800 
 51 H       -0.6630     6.3800    -1.9990 H     1 <1>   0.0800 
 52 H        0.9690     6.0520    -1.3890 H     1 <1>   0.0800 
@<TRIPOS>BOND
  1   1   2  2   
  2   2   3  am  
  3   2   4  1   
  4   3   5  1   
  5   3   6  1   
  6   4   7  ar  
  7   4   8  ar  
  8   5   9  1   
  9   5  27  1   
 10   5  28  1   
 11   6  10  1   
 12   6  29  1   
 13   6  30  1   
 14   7  11  1   
 15   7  12  ar  
 16   8  13  ar  
 17   8  31  1   
 18   9  14  1   
 19   9  15  1   
 20   9  32  1   
 21  10  15  1   
 22  10  33  1   
 23  10  34  1   
 24  11  16  1   
 25  12  17  ar  
 26  12  35  1   
 27  13  17  ar  
 28  13  36  1   
 29  14  18  1   
 30  14  19  1   
 31  14  37  1   
 32  15  20  1   
 33  15  21  1   
 34  16  38  1   
 35  16  39  1   
 36  16  40  1   
 37  17  22  1   
 38  18  23  1   
 39  18  41  1   
 40  18  42  1   
 41  19  43  1   
 42  19  44  1   
 43  19  45  1   
 44  20  24  ar  
 45  20  25  ar  
 46  21  23  1   
 47  21  46  1   
 48  21  47  1   
 49  22  26  1   
 50  23  48  1   
 51  23  49  1   
 52  26  50  1   
 53  26  51  1   
 54  26  52  1   
@<TRIPOS>SUBSTRUCTURE
  1 ****   3 GROUP 4 **** **** 0

# MOE 2024.06 (io_trps.svl 2023.06)
