@<TRIPOS>MOLECULE
NONAME
42 43 1 0 0 
SMALL
USER_CHARGES


@<TRIPOS>ATOM
  1 O       -0.9510    -1.0930    -1.4730 O.2   1 <1>  -0.5700 
  2 C       -1.3340    -0.0220    -1.0560 C.2   1 <1>   0.5690 
  3 N       -2.0760     0.0520     0.0970 N.am  1 <1>  -0.6600 
  4 C       -0.9870     1.2100    -1.8880 C.3   1 <1>   0.0440 
  5 C       -2.3430    -1.1800     0.8960 C.3   1 <1>   0.3200 
  6 C       -2.7730     1.2770     0.5960 C.3   1 <1>   0.1400 
  7 C       -0.3050     2.3210    -1.0950 C.ar  1 <1>  -0.1440 
  8 C       -3.5170    -1.9460     0.3120 C.2   1 <1>   0.0060 
  9 C       -2.0370     1.8710     1.8070 C.3   1 <1>   0.1200 
 10 C       -0.7720     3.6240    -1.1680 C.ar  1 <1>  -0.1500 
 11 C        0.7820     2.0380    -0.2860 C.ar  1 <1>  -0.1500 
 12 N       -4.6450    -2.1600     0.9130 N.2   1 <1>  -0.5650 
 13 N       -3.4530    -2.4780    -0.9260 N.pl3 1 <1>   0.0330 
 14 O       -1.9860     3.2520     1.6980 O.3   1 <1>  -0.6800 
 15 C       -0.1850     4.6350    -0.4240 C.ar  1 <1>  -0.1430 
 16 C        1.3730     3.0420     0.4580 C.ar  1 <1>  -0.1500 
 17 C       -5.3540    -2.8730     0.0150 C.2   1 <1>   0.0770 
 18 C       -4.6420    -3.0770    -1.1150 C.2   1 <1>  -0.3020 
 19 C        0.8940     4.3410     0.4010 C.ar  1 <1>  -0.1430 
 20 C       -0.7460     6.0470    -0.5220 C.3   1 <1>  -0.0970 
 21 C        1.5660     5.4140     1.2460 C.3   1 <1>  -0.0970 
 22 H       -1.8910     1.5720    -2.3400 H     1 <1>   0.0800 
 23 H       -0.3290     0.9120    -2.6840 H     1 <1>   0.0800 
 24 H       -2.5610    -0.9210     1.9170 H     1 <1>   0.0800 
 25 H       -1.4710    -1.8110     0.8960 H     1 <1>   0.0800 
 26 H       -3.7780     1.0170     0.8840 H     1 <1>   0.0800 
 27 H       -2.8430     2.0090    -0.1870 H     1 <1>   0.0800 
 28 H       -1.0240     1.5120     1.8660 H     1 <1>   0.0800 
 29 H       -2.5590     1.6310     2.7170 H     1 <1>   0.0800 
 30 H       -1.6070     3.8540    -1.8070 H     1 <1>   0.1500 
 31 H        1.1710     1.0360    -0.2260 H     1 <1>   0.1500 
 32 H       -2.6440    -2.3960    -1.5580 H     1 <1>   0.2700 
 33 H       -1.3020     3.5100     1.0340 H     1 <1>   0.4000 
 34 H        2.2140     2.8010     1.0860 H     1 <1>   0.1500 
 35 H       -6.3550    -3.2060     0.2330 H     1 <1>   0.1500 
 36 H       -4.9070    -3.5980    -2.0170 H     1 <1>   0.1500 
 37 H       -1.5640     6.0920    -1.2190 H     1 <1>   0.0800 
 38 H        0.0180     6.7250    -0.8570 H     1 <1>   0.0800 
 39 H       -1.1060     6.3680     0.4390 H     1 <1>   0.0800 
 40 H        0.8540     5.8460     1.9260 H     1 <1>   0.0800 
 41 H        1.9630     6.1860     0.6130 H     1 <1>   0.0800 
 42 H        2.3740     5.0020     1.8230 H     1 <1>   0.0800 
@<TRIPOS>BOND
  1   1   2  2   
  2   2   3  am  
  3   2   4  1   
  4   3   5  1   
  5   3   6  1   
  6   4   7  1   
  7   4  22  1   
  8   4  23  1   
  9   5   8  1   
 10   5  24  1   
 11   5  25  1   
 12   6   9  1   
 13   6  26  1   
 14   6  27  1   
 15   7  10  ar  
 16   7  11  ar  
 17   8  12  2   
 18   8  13  1   
 19   9  14  1   
 20   9  28  1   
 21   9  29  1   
 22  10  15  ar  
 23  10  30  1   
 24  11  16  ar  
 25  11  31  1   
 26  12  17  1   
 27  13  18  1   
 28  13  32  1   
 29  14  33  1   
 30  15  19  ar  
 31  15  20  1   
 32  16  19  ar  
 33  16  34  1   
 34  17  18  2   
 35  17  35  1   
 36  18  36  1   
 37  19  21  1   
 38  20  37  1   
 39  20  38  1   
 40  20  39  1   
 41  21  40  1   
 42  21  41  1   
 43  21  42  1   
@<TRIPOS>SUBSTRUCTURE
  1 ****   3 GROUP 4 **** **** 0

# MOE 2024.06 (io_trps.svl 2023.06)
