@<TRIPOS>MOLECULE
NONAME
51 53 1 0 0 
SMALL
USER_CHARGES


@<TRIPOS>ATOM
  1 O       -0.6830     0.0920    -1.0830 O.2   1 <1>  -0.5700 
  2 C       -1.6240     0.7980    -0.7880 C.2   1 <1>   0.5690 
  3 N       -2.7950     0.1940    -0.3800 N.am  1 <1>  -0.6600 
  4 C       -1.4560     2.3370    -0.9770 C.3   1 <1>   0.0610 
  5 C       -4.0250     0.8220     0.1650 C.3   1 <1>   0.1400 
  6 C       -2.8940    -1.2840    -0.2680 C.3   1 <1>   0.1400 
  7 C       -1.9590     3.1750     0.2220 C.3   1 <1>   0.1200 
  8 C        0.0310     2.7070    -1.2100 C.3   1 <1>  -0.2400 
  9 C       -2.2220     2.7800    -2.2420 C.3   1 <1>  -0.2400 
 10 C       -4.9620    -0.3420     0.4790 C.3   1 <1>   0.2000 
 11 C       -4.0470    -1.5430     0.7030 C.3   1 <1>  -0.0800 
 12 O       -1.5600     2.6190     1.4410 O.3   1 <1>  -0.5600 
 13 O       -5.7200    -0.0950     1.6120 O.3   1 <1>  -0.6800 
 14 C       -4.7720    -2.8830     0.4780 C.3   1 <1>  -0.0170 
 15 C       -0.6680     3.3890     2.1830 C.3   1 <1>   0.0400 
 16 C       -3.9480    -4.1560     0.7070 C.ar  1 <1>  -0.1440 
 17 C       -4.4560    -5.4110     0.2860 C.ar  1 <1>   0.0000 
 18 C       -2.7260    -4.1600     1.3210 C.ar  1 <1>  -0.1500 
 19 C       -3.6530    -6.5600     0.4980 C.ar  1 <1>   0.3100 
 20 C       -5.7190    -5.5980    -0.3260 C.ar  1 <1>  -0.1500 
 21 C       -2.0170    -5.3550     1.4870 C.ar  1 <1>   0.1600 
 22 N       -2.4380    -6.5150     1.0980 N.ar  1 <1>  -0.6200 
 23 C       -4.1280    -7.8130     0.0780 C.ar  1 <1>  -0.1500 
 24 C       -6.1540    -6.8340    -0.7210 C.ar  1 <1>  -0.1500 
 25 C       -5.3500    -7.9570    -0.5200 C.ar  1 <1>  -0.1500 
 26 H       -3.7810     1.3460     1.0720 H     1 <1>   0.0800 
 27 H       -4.4700     1.4850    -0.5530 H     1 <1>   0.0800 
 28 H       -3.1100    -1.6910    -1.2410 H     1 <1>   0.0800 
 29 H       -1.9690    -1.7020     0.0900 H     1 <1>   0.0800 
 30 H       -3.0320     3.2200     0.2300 H     1 <1>   0.0800 
 31 H       -1.6040     4.1890     0.1480 H     1 <1>   0.0800 
 32 H        0.1580     3.7690    -1.3240 H     1 <1>   0.0800 
 33 H        0.4050     2.2250    -2.0970 H     1 <1>   0.0800 
 34 H        0.6280     2.3740    -0.3800 H     1 <1>   0.0800 
 35 H       -2.0870     3.8320    -2.4230 H     1 <1>   0.0800 
 36 H       -3.2730     2.5830    -2.1440 H     1 <1>   0.0800 
 37 H       -1.8610     2.2380    -3.0980 H     1 <1>   0.0800 
 38 H       -5.6300    -0.5050    -0.3500 H     1 <1>   0.0800 
 39 H       -3.6560    -1.4970     1.7040 H     1 <1>   0.0800 
 40 H       -5.1390     0.0380     2.3860 H     1 <1>   0.4000 
 41 H       -5.1340    -2.8870    -0.5350 H     1 <1>   0.0800 
 42 H       -5.6290    -2.9200     1.1280 H     1 <1>   0.0800 
 43 H       -0.4210     2.8450     3.0770 H     1 <1>   0.0800 
 44 H       -1.1370     4.3220     2.4430 H     1 <1>   0.0800 
 45 H        0.2240     3.5600     1.6060 H     1 <1>   0.0800 
 46 H       -2.2610    -3.2710     1.6980 H     1 <1>   0.1500 
 47 H       -6.3620    -4.7530    -0.4850 H     1 <1>   0.1500 
 48 H       -1.0550    -5.3040     1.9700 H     1 <1>   0.1500 
 49 H       -3.4930    -8.6620     0.2470 H     1 <1>   0.1500 
 50 H       -7.1170    -6.9570    -1.1870 H     1 <1>   0.1500 
 51 H       -5.7010    -8.9240    -0.8360 H     1 <1>   0.1500 
@<TRIPOS>BOND
  1   1   2  2   
  2   2   3  am  
  3   2   4  1   
  4   3   5  1   
  5   3   6  1   
  6   4   7  1   
  7   4   8  1   
  8   4   9  1   
  9   5  10  1   
 10   5  26  1   
 11   5  27  1   
 12   6  11  1   
 13   6  28  1   
 14   6  29  1   
 15   7  12  1   
 16   7  30  1   
 17   7  31  1   
 18   8  32  1   
 19   8  33  1   
 20   8  34  1   
 21   9  35  1   
 22   9  36  1   
 23   9  37  1   
 24  10  11  1   
 25  10  13  1   
 26  10  38  1   
 27  11  14  1   
 28  11  39  1   
 29  12  15  1   
 30  13  40  1   
 31  14  16  1   
 32  14  41  1   
 33  14  42  1   
 34  15  43  1   
 35  15  44  1   
 36  15  45  1   
 37  16  17  ar  
 38  16  18  ar  
 39  17  19  ar  
 40  17  20  ar  
 41  18  21  ar  
 42  18  46  1   
 43  19  22  ar  
 44  19  23  ar  
 45  20  24  ar  
 46  20  47  1   
 47  21  22  ar  
 48  21  48  1   
 49  23  25  ar  
 50  23  49  1   
 51  24  25  ar  
 52  24  50  1   
 53  25  51  1   
@<TRIPOS>SUBSTRUCTURE
  1 ****   6 GROUP 4 **** **** 0

# MOE 2024.06 (io_trps.svl 2023.06)
