@<TRIPOS>MOLECULE
NONAME
46 48 1 0 0 
SMALL
USER_CHARGES


@<TRIPOS>ATOM
  1 F       -4.4480    -1.0770    -0.7480 F     1 <1>  -0.3400 
  2 C       -3.1640    -1.2450    -1.0610 C.3   1 <1>   1.2010 
  3 F       -2.4880    -0.3780    -0.3090 F     1 <1>  -0.3400 
  4 F       -3.0380    -0.8100    -2.3130 F     1 <1>  -0.3400 
  5 C       -2.6850    -2.7150    -0.8600 C.2   1 <1>   0.3350 
  6 N       -2.2160    -3.4750    -1.7810 N.2   1 <1>  -0.4100 
  7 N       -2.7260    -3.3370     0.3280 N.2   1 <1>  -0.5650 
  8 O       -1.9320    -4.6230    -1.2460 O.3   1 <1>  -0.0190 
  9 C       -2.2640    -4.4830     0.0120 C.2   1 <1>   0.2980 
 10 C       -2.0760    -5.6700     0.9580 C.3   1 <1>   0.2900 
 11 N       -3.1790    -6.6640     0.9300 N.3   1 <1>  -0.8100 
 12 C       -3.2530    -7.3760    -0.3660 C.3   1 <1>   0.1100 
 13 C       -4.4660    -6.0510     1.2950 C.3   1 <1>   0.1100 
 14 C       -4.2530    -8.5540    -0.3090 C.3   1 <1>   0.0000 
 15 C       -5.5430    -7.1290     1.4100 C.3   1 <1>  -0.1600 
 16 C       -5.6140    -7.9450     0.1170 C.3   1 <1>   0.2000 
 17 C       -4.4360    -9.1430    -1.7290 C.3   1 <1>   0.1200 
 18 C       -3.7790    -9.6490     0.6980 C.3   1 <1>  -0.0170 
 19 O       -6.5800    -8.9230     0.2770 O.3   1 <1>  -0.6800 
 20 O       -3.2150    -9.4060    -2.3370 O.3   1 <1>  -0.6800 
 21 C       -2.4820   -10.3650     0.3330 C.ar  1 <1>  -0.1440 
 22 C       -2.5130   -11.5720    -0.3500 C.ar  1 <1>  -0.1500 
 23 C       -1.2590    -9.8210     0.6910 C.ar  1 <1>  -0.1500 
 24 C       -1.3360   -12.2170    -0.6860 C.ar  1 <1>  -0.1500 
 25 C       -0.0800   -10.4650     0.3560 C.ar  1 <1>  -0.1500 
 26 C       -0.1180   -11.6620    -0.3350 C.ar  1 <1>  -0.1500 
 27 H       -1.9880    -5.2880     1.9600 H     1 <1>   0.0800 
 28 H       -1.1490    -6.1610     0.7210 H     1 <1>   0.0800 
 29 H       -3.5620    -6.6910    -1.1390 H     1 <1>   0.0800 
 30 H       -2.2770    -7.7410    -0.6340 H     1 <1>   0.0800 
 31 H       -4.3710    -5.5400     2.2390 H     1 <1>   0.0800 
 32 H       -4.7580    -5.3310     0.5480 H     1 <1>   0.0800 
 33 H       -6.4910    -6.6520     1.5840 H     1 <1>   0.0800 
 34 H       -5.3190    -7.7540     2.2540 H     1 <1>   0.0800 
 35 H       -5.9630    -7.2960    -0.6700 H     1 <1>   0.0800 
 36 H       -4.9590    -8.4490    -2.3640 H     1 <1>   0.0800 
 37 H       -5.0000   -10.0600    -1.6910 H     1 <1>   0.0800 
 38 H       -3.6480    -9.2130     1.6720 H     1 <1>   0.0800 
 39 H       -4.5440   -10.3970     0.7980 H     1 <1>   0.0800 
 40 H       -6.4300    -9.4060     1.1120 H     1 <1>   0.4000 
 41 H       -2.6650    -9.9720    -1.7470 H     1 <1>   0.4000 
 42 H       -3.4540   -12.0160    -0.6260 H     1 <1>   0.1500 
 43 H       -1.2230    -8.8930     1.2350 H     1 <1>   0.1500 
 44 H       -1.3670   -13.1510    -1.2200 H     1 <1>   0.1500 
 45 H        0.8660   -10.0340     0.6350 H     1 <1>   0.1500 
 46 H        0.7980   -12.1630    -0.5970 H     1 <1>   0.1500 
@<TRIPOS>BOND
  1   1   2  1   
  2   2   3  1   
  3   2   4  1   
  4   2   5  1   
  5   5   6  2   
  6   5   7  1   
  7   6   8  1   
  8   7   9  2   
  9   8   9  1   
 10   9  10  1   
 11  10  11  1   
 12  10  27  1   
 13  10  28  1   
 14  11  12  1   
 15  11  13  1   
 16  12  14  1   
 17  12  29  1   
 18  12  30  1   
 19  13  15  1   
 20  13  31  1   
 21  13  32  1   
 22  14  16  1   
 23  14  17  1   
 24  14  18  1   
 25  15  16  1   
 26  15  33  1   
 27  15  34  1   
 28  16  19  1   
 29  16  35  1   
 30  17  20  1   
 31  17  36  1   
 32  17  37  1   
 33  18  21  1   
 34  18  38  1   
 35  18  39  1   
 36  19  40  1   
 37  20  41  1   
 38  21  22  ar  
 39  21  23  ar  
 40  22  24  ar  
 41  22  42  1   
 42  23  25  ar  
 43  23  43  1   
 44  24  26  ar  
 45  24  44  1   
 46  25  26  ar  
 47  25  45  1   
 48  26  46  1   
@<TRIPOS>SUBSTRUCTURE
  1 ****  12 GROUP 4 **** **** 0

# MOE 2024.06 (io_trps.svl 2023.06)
