@<TRIPOS>MOLECULE
NONAME
47 48 1 0 0 
SMALL
USER_CHARGES


@<TRIPOS>ATOM
  1 N       -0.9240    -0.8310     0.6050 N.ar  1 <1>  -0.6200 
  2 C       -1.8030    -1.5180    -0.1050 C.ar  1 <1>   0.4100 
  3 C        0.1520    -1.5480     0.9060 C.ar  1 <1>   0.1600 
  4 N       -2.9680    -0.8310    -0.4840 N.pl3 1 <1>  -0.8380 
  5 C       -1.6010    -2.8860    -0.4880 C.ar  1 <1>   0.4100 
  6 C        0.3440    -2.8660     0.5340 C.ar  1 <1>   0.1600 
  7 C       -2.9750    -0.3350    -1.8850 C.3   1 <1>   0.1290 
  8 C       -3.5400     0.1430     0.4870 C.3   1 <1>   0.1290 
  9 N       -0.5250    -3.5820    -0.1680 N.ar  1 <1>  -0.6200 
 10 N       -2.5780    -3.5470    -1.2240 N.pl3 1 <1>  -0.8690 
 11 C       -2.8220    -5.0070    -1.0500 C.3   1 <1>   0.2090 
 12 C       -3.3130    -5.3320     0.3650 C.3   1 <1>   0.2090 
 13 N       -3.6110    -6.7920     0.4860 N.pl3 1 <1>  -0.8380 
 14 C       -4.9560    -7.1460     0.4940 C.ar  1 <1>   0.1000 
 15 C       -2.7320    -7.5420     1.4140 C.3   1 <1>   0.2090 
 16 C       -5.5060    -7.7880    -0.6070 C.ar  1 <1>  -0.1500 
 17 C       -5.7710    -6.8720     1.5860 C.ar  1 <1>  -0.1500 
 18 C       -1.4010    -7.8210     0.7270 C.3   1 <1>  -0.2400 
 19 C       -6.8420    -8.1510    -0.6300 C.ar  1 <1>  -0.1430 
 20 C       -7.1060    -7.2310     1.5740 C.ar  1 <1>  -0.1500 
 21 C       -7.6410    -7.8700     0.4670 C.ar  1 <1>  -0.1500 
 22 C       -7.4330    -8.8530    -1.8380 C.3   1 <1>  -0.0970 
 23 H        0.9170    -1.0520     1.4770 H     1 <1>   0.1500 
 24 H        1.2530    -3.3610     0.8260 H     1 <1>   0.1500 
 25 H       -2.4940    -1.0480    -2.5340 H     1 <1>   0.0800 
 26 H       -2.4440     0.5990    -1.9440 H     1 <1>   0.0800 
 27 H       -3.9880    -0.1920    -2.2180 H     1 <1>   0.0800 
 28 H       -3.4800    -0.2580     1.4840 H     1 <1>   0.0800 
 29 H       -4.5710     0.3350     0.2510 H     1 <1>   0.0800 
 30 H       -2.9860     1.0660     0.4520 H     1 <1>   0.0800 
 31 H       -3.4340    -2.9800    -1.2360 H     1 <1>   0.4000 
 32 H       -1.9120    -5.5460    -1.2460 H     1 <1>   0.0800 
 33 H       -3.5650    -5.3240    -1.7600 H     1 <1>   0.0800 
 34 H       -4.2050    -4.7640     0.5640 H     1 <1>   0.0800 
 35 H       -2.5590    -5.0470     1.0780 H     1 <1>   0.0800 
 36 H       -3.2030    -8.4750     1.6750 H     1 <1>   0.0800 
 37 H       -2.5790    -6.9750     2.3170 H     1 <1>   0.0800 
 38 H       -4.8630    -7.9960    -1.4410 H     1 <1>   0.1500 
 39 H       -5.3510    -6.3770     2.4400 H     1 <1>   0.1500 
 40 H       -1.5700    -8.3550    -0.1910 H     1 <1>   0.0800 
 41 H       -0.7820    -8.4230     1.3670 H     1 <1>   0.0800 
 42 H       -0.8840    -6.9030     0.5170 H     1 <1>   0.0800 
 43 H       -7.7300    -7.0150     2.4230 H     1 <1>   0.1500 
 44 H       -8.6800    -8.1480     0.4640 H     1 <1>   0.1500 
 45 H       -6.7530    -8.8190    -2.6690 H     1 <1>   0.0800 
 46 H       -8.3510    -8.3750    -2.1290 H     1 <1>   0.0800 
 47 H       -7.6350    -9.8810    -1.5980 H     1 <1>   0.0800 
@<TRIPOS>BOND
  1   1   2  ar  
  2   1   3  ar  
  3   2   4  1   
  4   2   5  ar  
  5   3   6  ar  
  6   3  23  1   
  7   4   7  1   
  8   4   8  1   
  9   5   9  ar  
 10   5  10  1   
 11   6   9  ar  
 12   6  24  1   
 13   7  25  1   
 14   7  26  1   
 15   7  27  1   
 16   8  28  1   
 17   8  29  1   
 18   8  30  1   
 19  10  11  1   
 20  10  31  1   
 21  11  12  1   
 22  11  32  1   
 23  11  33  1   
 24  12  13  1   
 25  12  34  1   
 26  12  35  1   
 27  13  14  1   
 28  13  15  1   
 29  14  16  ar  
 30  14  17  ar  
 31  15  18  1   
 32  15  36  1   
 33  15  37  1   
 34  16  19  ar  
 35  16  38  1   
 36  17  20  ar  
 37  17  39  1   
 38  18  40  1   
 39  18  41  1   
 40  18  42  1   
 41  19  21  ar  
 42  19  22  1   
 43  20  21  ar  
 44  20  43  1   
 45  21  44  1   
 46  22  45  1   
 47  22  46  1   
 48  22  47  1   
@<TRIPOS>SUBSTRUCTURE
  1 ****  12 GROUP 4 **** **** 0

# MOE 2024.06 (io_trps.svl 2023.06)
