@<TRIPOS>MOLECULE
NONAME
54 56 1 0 0 
SMALL
USER_CHARGES


@<TRIPOS>ATOM
  1 F       -0.3600     0.8330     0.9270 F     1 <1>  -0.1900 
  2 C       -1.6460     1.0120     0.7620 C.ar  1 <1>   0.1900 
  3 C       -2.1560     1.9090    -0.1830 C.ar  1 <1>   0.0830 
  4 C       -2.4780     0.2670     1.5750 C.ar  1 <1>  -0.1500 
  5 O       -1.4420     2.6970    -1.0370 O.3   1 <1>  -0.3630 
  6 C       -3.5330     2.0270    -0.2790 C.ar  1 <1>  -0.1500 
  7 C       -3.8480     0.4100     1.4530 C.ar  1 <1>  -0.1500 
  8 C       -0.0330     2.6780    -1.1050 C.3   1 <1>   0.0400 
  9 C       -4.4050     1.2870     0.5220 C.ar  1 <1>   0.0530 
 10 C       -5.8310     1.4460     0.3890 C.2   1 <1>   0.0870 
 11 O       -6.3290     2.6480     0.2380 O.3   1 <1>  -0.0190 
 12 C       -6.8810     0.5780     0.3890 C.2   1 <1>  -0.0860 
 13 N       -7.6310     2.6550     0.1480 N.2   1 <1>  -0.4100 
 14 C       -7.9890     1.4230     0.2360 C.2   1 <1>   0.3720 
 15 C       -6.9110    -0.8510     0.4900 C.2   1 <1>   0.7160 
 16 N       -9.3310     1.0200     0.1680 N.pl3 1 <1>  -0.8210 
 17 O       -5.8940    -1.5070     0.3780 O.2   1 <1>  -0.5700 
 18 N       -8.0910    -1.4930     0.7140 N.am  1 <1>  -0.7300 
 19 C       -9.9130     1.2240    -1.1880 C.3   1 <1>   0.1290 
 20 C      -10.1810     1.6530     1.2150 C.3   1 <1>   0.1290 
 21 C       -8.4100    -2.9370     0.6510 C.3   1 <1>   0.3000 
 22 C       -9.8780    -3.0810     1.1140 C.3   1 <1>  -0.1600 
 23 C       -8.2890    -3.4100    -0.8120 C.3   1 <1>  -0.1600 
 24 C       -7.4510    -3.7330     1.5810 C.3   1 <1>   0.1200 
 25 C      -10.8920    -2.3970     0.1780 C.3   1 <1>  -0.1600 
 26 C       -9.2830    -2.7150    -1.7600 C.3   1 <1>  -0.1600 
 27 O       -7.8270    -5.0700     1.7280 O.3   1 <1>  -0.6800 
 28 C      -10.7270    -2.8810    -1.2680 C.3   1 <1>  -0.1600 
 29 H       -2.0580    -0.4160     2.2920 H     1 <1>   0.1500 
 30 H       -3.9390     2.7130    -1.0000 H     1 <1>   0.1500 
 31 H       -4.4950    -0.1700     2.0880 H     1 <1>   0.1500 
 32 H        0.2740     3.3710    -1.8680 H     1 <1>   0.0800 
 33 H        0.2920     1.6860    -1.3620 H     1 <1>   0.0800 
 34 H        0.3680     2.9830    -0.1550 H     1 <1>   0.0800 
 35 H       -8.9120    -0.8830     0.6020 H     1 <1>   0.3700 
 36 H       -9.2570     0.8090    -1.9340 H     1 <1>   0.0800 
 37 H      -10.0360     2.2760    -1.3850 H     1 <1>   0.0800 
 38 H      -10.8690     0.7350    -1.2570 H     1 <1>   0.0800 
 39 H       -9.7180     1.5370     2.1800 H     1 <1>   0.0800 
 40 H      -11.1490     1.1850     1.2370 H     1 <1>   0.0800 
 41 H      -10.3000     2.7050     1.0140 H     1 <1>   0.0800 
 42 H       -9.9810    -2.6920     2.1110 H     1 <1>   0.0800 
 43 H      -10.1340    -4.1240     1.1480 H     1 <1>   0.0800 
 44 H       -8.4710    -4.4700    -0.8460 H     1 <1>   0.0800 
 45 H       -7.2830    -3.2550    -1.1610 H     1 <1>   0.0800 
 46 H       -7.4310    -3.2880     2.5600 H     1 <1>   0.0800 
 47 H       -6.4550    -3.7330     1.1770 H     1 <1>   0.0800 
 48 H      -10.7680    -1.3310     0.2160 H     1 <1>   0.0800 
 49 H      -11.8910    -2.6160     0.5140 H     1 <1>   0.0800 
 50 H       -9.1890    -3.1360    -2.7460 H     1 <1>   0.0800 
 51 H       -9.0430    -1.6680    -1.8290 H     1 <1>   0.0800 
 52 H       -8.6810    -5.1380     2.1940 H     1 <1>   0.4000 
 53 H      -11.3930    -2.3330    -1.9120 H     1 <1>   0.0800 
 54 H      -10.9990    -3.9220    -1.3260 H     1 <1>   0.0800 
@<TRIPOS>BOND
  1   1   2  1   
  2   2   3  ar  
  3   2   4  ar  
  4   3   5  1   
  5   3   6  ar  
  6   4   7  ar  
  7   4  29  1   
  8   5   8  1   
  9   6   9  ar  
 10   6  30  1   
 11   7   9  ar  
 12   7  31  1   
 13   8  32  1   
 14   8  33  1   
 15   8  34  1   
 16   9  10  1   
 17  10  11  1   
 18  10  12  2   
 19  11  13  1   
 20  12  14  1   
 21  12  15  1   
 22  13  14  2   
 23  14  16  1   
 24  15  17  2   
 25  15  18  am  
 26  16  19  1   
 27  16  20  1   
 28  18  21  1   
 29  18  35  1   
 30  19  36  1   
 31  19  37  1   
 32  19  38  1   
 33  20  39  1   
 34  20  40  1   
 35  20  41  1   
 36  21  22  1   
 37  21  23  1   
 38  21  24  1   
 39  22  25  1   
 40  22  42  1   
 41  22  43  1   
 42  23  26  1   
 43  23  44  1   
 44  23  45  1   
 45  24  27  1   
 46  24  46  1   
 47  24  47  1   
 48  25  28  1   
 49  25  48  1   
 50  25  49  1   
 51  26  28  1   
 52  26  50  1   
 53  26  51  1   
 54  27  52  1   
 55  28  53  1   
 56  28  54  1   
@<TRIPOS>SUBSTRUCTURE
  1 ****  12 GROUP 4 **** **** 0

# MOE 2024.06 (io_trps.svl 2023.06)
