@<TRIPOS>MOLECULE
NONAME
56 60 1 0 0 
SMALL
USER_CHARGES


@<TRIPOS>ATOM
  1 O       -4.5280    -1.7260     0.8460 O.2   1 <1>  -0.5700 
  2 C       -3.5700    -1.2560     0.2610 C.2   1 <1>   0.5440 
  3 N       -2.5330    -2.1200     0.0020 N.am  1 <1>  -0.6600 
  4 C       -3.5730     0.1120    -0.2240 C.ar  1 <1>   0.0860 
  5 C       -2.1510    -3.1450     1.0470 C.3   1 <1>   0.2200 
  6 C       -2.1500    -2.3620    -1.4190 C.3   1 <1>   0.1400 
  7 C       -4.7630     0.7590    -0.5250 C.ar  1 <1>  -0.1500 
  8 C       -2.3660     0.8230    -0.4100 C.ar  1 <1>  -0.1500 
  9 C       -0.7110    -3.6580     0.8830 C.3   1 <1>   0.1200 
 10 C       -3.1420    -4.3360     1.0700 C.3   1 <1>   0.3430 
 11 C       -2.0340    -3.8540    -1.7890 C.3   1 <1>  -0.0800 
 12 C       -4.7540     2.0580    -1.0160 C.ar  1 <1>   0.2270 
 13 C       -2.3430     2.1120    -0.8900 C.ar  1 <1>  -0.1500 
 14 O       -0.6780    -4.7490     0.0100 O.3   1 <1>  -0.5600 
 15 N       -3.9890    -4.3820    -0.1700 N.4   1 <1>  -0.9590 
 16 C       -0.6880    -4.4510    -1.3450 C.3   1 <1>   0.1200 
 17 C       -3.2390    -4.7530    -1.4190 C.3   1 <1>   0.3430 
 18 N       -5.8000     2.8480    -1.3820 N.2   1 <1>  -0.5650 
 19 C       -3.5580     2.7250    -1.1960 C.ar  1 <1>  -0.1520 
 20 C       -5.2530    -5.1430     0.0230 C.3   1 <1>   0.3430 
 21 C       -5.2500     3.9480    -1.7620 C.2   1 <1>   0.0360 
 22 N       -3.8950     3.9470    -1.6760 N.pl3 1 <1>   0.0330 
 23 C       -4.9940    -6.6340     0.2520 C.3   1 <1>  -0.1600 
 24 C       -6.3150    -7.4110     0.3670 C.3   1 <1>   0.0960 
 25 N       -6.0530    -8.8620     0.3730 N.pl3 1 <1>   0.3140 
 26 N       -5.5190    -9.4760    -0.6970 N.2   1 <1>  -0.7070 
 27 C       -6.2770    -9.7310     1.3780 C.2   1 <1>  -0.3020 
 28 C       -5.4200   -10.7240    -0.3490 C.2   1 <1>   0.1390 
 29 C       -5.8800   -10.9450     0.9440 C.2   1 <1>  -0.1500 
 30 H       -2.1990    -2.6590     2.0060 H     1 <1>   0.0800 
 31 H       -2.8860    -1.9060    -2.0610 H     1 <1>   0.0800 
 32 H       -1.2130    -1.8680    -1.6150 H     1 <1>   0.0800 
 33 H       -5.7130     0.2770    -0.3880 H     1 <1>   0.1500 
 34 H       -1.4380     0.3400    -0.1600 H     1 <1>   0.1500 
 35 H       -0.3560    -4.0190     1.8330 H     1 <1>   0.0800 
 36 H       -0.0410    -2.8860     0.5450 H     1 <1>   0.0800 
 37 H       -3.7830    -4.2070     1.9260 H     1 <1>   0.0800 
 38 H       -2.6070    -5.2630     1.1970 H     1 <1>   0.0800 
 39 H       -1.9820    -3.8740    -2.8630 H     1 <1>   0.0800 
 40 H       -1.4180     2.6460    -1.0260 H     1 <1>   0.1500 
 41 H       -4.2560    -3.3800    -0.2600 H     1 <1>   0.4500 
 42 H        0.1340    -3.7890    -1.5620 H     1 <1>   0.0800 
 43 H       -0.5110    -5.3780    -1.8660 H     1 <1>   0.0800 
 44 H       -2.8880    -5.7690    -1.3350 H     1 <1>   0.0800 
 45 H       -3.9330    -4.7240    -2.2430 H     1 <1>   0.0800 
 46 H       -5.7880    -4.7370     0.8680 H     1 <1>   0.0800 
 47 H       -5.8760    -5.0210    -0.8490 H     1 <1>   0.0800 
 48 H       -5.7930     4.8060    -2.1190 H     1 <1>   0.1500 
 49 H       -3.2600     4.7110    -1.9200 H     1 <1>   0.2700 
 50 H       -4.4270    -6.7850     1.1530 H     1 <1>   0.0800 
 51 H       -4.4420    -7.0320    -0.5810 H     1 <1>   0.0800 
 52 H       -6.9480    -7.2040    -0.4770 H     1 <1>   0.0800 
 53 H       -6.8390    -7.1480     1.2680 H     1 <1>   0.0800 
 54 H       -6.6990    -9.4490     2.3250 H     1 <1>   0.1500 
 55 H       -5.0270   -11.4920    -0.9940 H     1 <1>   0.1500 
 56 H       -5.9010   -11.8910     1.4560 H     1 <1>   0.1500 
@<TRIPOS>BOND
  1   1   2  2   
  2   2   3  am  
  3   2   4  1   
  4   3   5  1   
  5   3   6  1   
  6   4   7  ar  
  7   4   8  ar  
  8   5   9  1   
  9   5  10  1   
 10   5  30  1   
 11   6  11  1   
 12   6  31  1   
 13   6  32  1   
 14   7  12  ar  
 15   7  33  1   
 16   8  13  ar  
 17   8  34  1   
 18   9  14  1   
 19   9  35  1   
 20   9  36  1   
 21  10  15  1   
 22  10  37  1   
 23  10  38  1   
 24  11  16  1   
 25  11  17  1   
 26  11  39  1   
 27  12  18  1   
 28  12  19  ar  
 29  13  19  ar  
 30  13  40  1   
 31  14  16  1   
 32  15  17  1   
 33  15  20  1   
 34  15  41  1   
 35  16  42  1   
 36  16  43  1   
 37  17  44  1   
 38  17  45  1   
 39  18  21  2   
 40  19  22  1   
 41  20  23  1   
 42  20  46  1   
 43  20  47  1   
 44  21  22  1   
 45  21  48  1   
 46  22  49  1   
 47  23  24  1   
 48  23  50  1   
 49  23  51  1   
 50  24  25  1   
 51  24  52  1   
 52  24  53  1   
 53  25  26  1   
 54  25  27  1   
 55  26  28  2   
 56  27  29  2   
 57  27  54  1   
 58  28  29  1   
 59  28  55  1   
 60  29  56  1   
@<TRIPOS>SUBSTRUCTURE
  1 ****  15 GROUP 4 **** **** 0

# MOE 2024.06 (io_trps.svl 2023.06)
