@<TRIPOS>MOLECULE
NONAME
41 43 1 0 0 
SMALL
USER_CHARGES


@<TRIPOS>ATOM
  1 O       -0.1480     0.1670    -0.2470 O.3   1 <1>  -0.5600 
  2 C       -0.0910     1.0620    -1.3060 C.3   1 <1>   0.1200 
  3 C       -1.4140     0.2320     0.3390 C.3   1 <1>   0.1200 
  4 C       -0.8160     2.2830    -0.7540 C.3   1 <1>   0.4230 
  5 C       -1.9810     1.6170    -0.0270 C.3   1 <1>  -0.0800 
  6 N        0.0540     2.9320     0.2610 N.4   1 <1>  -0.9060 
  7 C       -3.2290     1.5130    -0.9260 C.3   1 <1>  -0.0170 
  8 C        1.1360     3.7790    -0.2720 C.3   1 <1>   0.4230 
  9 C       -4.3850     0.8740    -0.1740 C.ar  1 <1>  -0.1430 
 10 C        2.0140     4.1990     0.8980 C.3   1 <1>  -0.1600 
 11 C        0.5510     5.1050    -0.7480 C.3   1 <1>  -0.1600 
 12 C       -5.1270     1.5780     0.7540 C.ar  1 <1>  -0.1500 
 13 C       -4.7570    -0.4400    -0.3800 C.ar  1 <1>  -0.1500 
 14 C        1.2810     5.3630     1.5770 C.3   1 <1>  -0.1600 
 15 C        0.3340     5.9440     0.5180 C.3   1 <1>  -0.1600 
 16 C       -6.1650     0.9490     1.4210 C.ar  1 <1>   0.1600 
 17 C       -5.8120    -0.9750     0.3410 C.ar  1 <1>   0.1600 
 18 N       -6.5200    -0.3110     1.2400 N.ar  1 <1>  -0.6200 
 19 H        0.9350     1.2450    -1.5730 H     1 <1>   0.0800 
 20 H       -0.6140     0.6310    -2.1430 H     1 <1>   0.0800 
 21 H       -2.0080    -0.5770    -0.0540 H     1 <1>   0.0800 
 22 H       -1.3040     0.1050     1.4030 H     1 <1>   0.0800 
 23 H       -1.1330     2.9760    -1.5160 H     1 <1>   0.0800 
 24 H       -2.2550     2.1560     0.8630 H     1 <1>   0.0800 
 25 H       -0.4920     3.5020     0.9120 H     1 <1>   0.4500 
 26 H        0.4720     2.1590     0.7990 H     1 <1>   0.4500 
 27 H       -3.0160     0.9370    -1.8100 H     1 <1>   0.0800 
 28 H       -3.5340     2.4950    -1.2460 H     1 <1>   0.0800 
 29 H        1.6980     3.2680    -1.0390 H     1 <1>   0.0800 
 30 H        2.2370     3.3940     1.5760 H     1 <1>   0.0800 
 31 H        2.9460     4.5680     0.5030 H     1 <1>   0.0800 
 32 H        1.2910     5.5970    -1.3570 H     1 <1>   0.0800 
 33 H       -0.3450     5.0030    -1.3340 H     1 <1>   0.0800 
 34 H       -4.9170     2.6090     0.9680 H     1 <1>   0.1500 
 35 H       -4.2440    -1.0610    -1.0920 H     1 <1>   0.1500 
 36 H        0.7170     5.0130     2.4260 H     1 <1>   0.0800 
 37 H        1.9820     6.1060     1.9210 H     1 <1>   0.0800 
 38 H        0.5530     6.9820     0.3300 H     1 <1>   0.0800 
 39 H       -0.6870     5.8690     0.8550 H     1 <1>   0.0800 
 40 H       -6.7350     1.5110     2.1420 H     1 <1>   0.1500 
 41 H       -6.0890    -2.0010     0.1700 H     1 <1>   0.1500 
@<TRIPOS>BOND
  1   1   2  1   
  2   1   3  1   
  3   2   4  1   
  4   2  19  1   
  5   2  20  1   
  6   3   5  1   
  7   3  21  1   
  8   3  22  1   
  9   4   5  1   
 10   4   6  1   
 11   4  23  1   
 12   5   7  1   
 13   5  24  1   
 14   6   8  1   
 15   6  25  1   
 16   6  26  1   
 17   7   9  1   
 18   7  27  1   
 19   7  28  1   
 20   8  10  1   
 21   8  11  1   
 22   8  29  1   
 23   9  12  ar  
 24   9  13  ar  
 25  10  14  1   
 26  10  30  1   
 27  10  31  1   
 28  11  15  1   
 29  11  32  1   
 30  11  33  1   
 31  12  16  ar  
 32  12  34  1   
 33  13  17  ar  
 34  13  35  1   
 35  14  15  1   
 36  14  36  1   
 37  14  37  1   
 38  15  38  1   
 39  15  39  1   
 40  16  18  ar  
 41  16  40  1   
 42  17  18  ar  
 43  17  41  1   
@<TRIPOS>SUBSTRUCTURE
  1 ****   5 GROUP 4 **** **** 0

# MOE 2024.06 (io_trps.svl 2023.06)
