@<TRIPOS>MOLECULE
NONAME
53 56 1 0 0 
SMALL
USER_CHARGES


@<TRIPOS>ATOM
  1 O       -0.1220    -0.9120     1.6760 O.2   1 <1>  -0.5700 
  2 C       -1.0460    -1.3250     1.0070 C.2   1 <1>   0.5440 
  3 N       -0.9470    -2.3500     0.0910 N.am  1 <1>  -0.6600 
  4 C       -2.4010    -0.8700     1.1170 C.ar  1 <1>   0.0860 
  5 C        0.2590    -3.2310    -0.1290 C.3   1 <1>   0.3000 
  6 C       -2.3280    -2.6670    -0.4100 C.3   1 <1>   0.2840 
  7 C       -3.1950    -1.6470     0.3010 C.ar  1 <1>  -0.1440 
  8 C       -2.9740     0.1450     1.8720 C.ar  1 <1>  -0.1500 
  9 C        0.4670    -4.0280     1.1970 C.3   1 <1>  -0.1600 
 10 C        0.0390    -4.0960    -1.4180 C.3   1 <1>  -0.1600 
 11 C        1.5210    -2.3600    -0.3870 C.3   1 <1>  -0.0990 
 12 C       -4.5590    -1.4400     0.2140 C.ar  1 <1>  -0.1500 
 13 C       -4.3400     0.3640     1.7940 C.ar  1 <1>  -0.1500 
 14 C        0.0770    -5.4940     1.1650 C.3   1 <1>   0.3430 
 15 C       -0.3220    -5.5540    -1.1800 C.3   1 <1>   0.3430 
 16 C        2.8130    -3.1400    -0.6170 C.2   1 <1>   0.5690 
 17 C       -5.1290    -0.4260     0.9690 C.ar  1 <1>  -0.1500 
 18 N        0.5460    -6.0770    -0.1070 N.4   1 <1>  -0.9590 
 19 O        2.8480    -4.3490    -0.5500 O.2   1 <1>  -0.5700 
 20 N        3.9310    -2.4550    -0.9000 N.am  1 <1>  -0.8000 
 21 C        0.5930    -7.5690    -0.0710 C.3   1 <1>   0.4860 
 22 C       -0.8060    -8.1510     0.0690 C.ar  1 <1>  -0.1430 
 23 C       -1.5300    -8.5070    -1.0610 C.ar  1 <1>  -0.1500 
 24 C       -1.3710    -8.3410     1.3240 C.ar  1 <1>  -0.1500 
 25 C       -2.8090    -9.0220    -0.9390 C.ar  1 <1>  -0.1500 
 26 C       -2.6500    -8.8550     1.4440 C.ar  1 <1>  -0.1500 
 27 C       -3.3710    -9.1920     0.3130 C.ar  1 <1>  -0.1500 
 28 H       -2.6160    -3.6670    -0.1380 H     1 <1>   0.0800 
 29 H       -2.3980    -2.5190    -1.4730 H     1 <1>   0.0800 
 30 H       -2.3500     0.7480     2.5090 H     1 <1>   0.1500 
 31 H       -0.0670    -3.5680     2.0090 H     1 <1>   0.0800 
 32 H        1.4940    -3.9940     1.5060 H     1 <1>   0.0800 
 33 H        0.9250    -4.1250    -2.0200 H     1 <1>   0.0800 
 34 H       -0.6780    -3.6540    -2.0810 H     1 <1>   0.0800 
 35 H        1.7200    -1.7230     0.4510 H     1 <1>   0.0800 
 36 H        1.3470    -1.7320    -1.2410 H     1 <1>   0.0800 
 37 H       -5.1750    -2.0490    -0.4260 H     1 <1>   0.1500 
 38 H       -4.7920     1.1490     2.3760 H     1 <1>   0.1500 
 39 H       -0.9940    -5.5960     1.2420 H     1 <1>   0.0800 
 40 H        0.5300    -6.0010     2.0020 H     1 <1>   0.0800 
 41 H       -0.1700    -6.1120    -2.0900 H     1 <1>   0.0800 
 42 H       -1.3570    -5.6460    -0.8920 H     1 <1>   0.0800 
 43 H       -6.1900    -0.2480     0.9150 H     1 <1>   0.1500 
 44 H        1.5100    -5.7160    -0.2740 H     1 <1>   0.4500 
 45 H        4.8160    -2.9480    -1.0410 H     1 <1>   0.3700 
 46 H        3.9830    -1.4350    -0.9320 H     1 <1>   0.3700 
 47 H        1.2030    -7.8960     0.7550 H     1 <1>   0.0800 
 48 H        1.0410    -7.9390    -0.9790 H     1 <1>   0.0800 
 49 H       -1.1110    -8.3960    -2.0470 H     1 <1>   0.1500 
 50 H       -0.8270    -8.1000     2.2210 H     1 <1>   0.1500 
 51 H       -3.3700    -9.2980    -1.8170 H     1 <1>   0.1500 
 52 H       -3.0880    -8.9990     2.4180 H     1 <1>   0.1500 
 53 H       -4.3650    -9.5940     0.4070 H     1 <1>   0.1500 
@<TRIPOS>BOND
  1   1   2  2   
  2   2   3  am  
  3   2   4  1   
  4   3   5  1   
  5   3   6  1   
  6   4   7  ar  
  7   4   8  ar  
  8   5   9  1   
  9   5  10  1   
 10   5  11  1   
 11   6   7  1   
 12   6  28  1   
 13   6  29  1   
 14   7  12  ar  
 15   8  13  ar  
 16   8  30  1   
 17   9  14  1   
 18   9  31  1   
 19   9  32  1   
 20  10  15  1   
 21  10  33  1   
 22  10  34  1   
 23  11  16  1   
 24  11  35  1   
 25  11  36  1   
 26  12  17  ar  
 27  12  37  1   
 28  13  17  ar  
 29  13  38  1   
 30  14  18  1   
 31  14  39  1   
 32  14  40  1   
 33  15  18  1   
 34  15  41  1   
 35  15  42  1   
 36  16  19  2   
 37  16  20  am  
 38  17  43  1   
 39  18  21  1   
 40  18  44  1   
 41  20  45  1   
 42  20  46  1   
 43  21  22  1   
 44  21  47  1   
 45  21  48  1   
 46  22  23  ar  
 47  22  24  ar  
 48  23  25  ar  
 49  23  49  1   
 50  24  26  ar  
 51  24  50  1   
 52  25  27  ar  
 53  25  51  1   
 54  26  27  ar  
 55  26  52  1   
 56  27  53  1   
@<TRIPOS>SUBSTRUCTURE
  1 ****   5 GROUP 4 **** **** 0

# MOE 2024.06 (io_trps.svl 2023.06)
