@<TRIPOS>MOLECULE
NONAME
60 63 1 0 0 
SMALL
USER_CHARGES


@<TRIPOS>ATOM
  1 O       -0.3370     0.8940    -0.0520 O.2   1 <1>  -0.5700 
  2 C       -1.4220     1.2600    -0.4630 C.2   1 <1>   0.5440 
  3 N       -1.5280     2.5070    -1.0510 N.am  1 <1>  -0.6600 
  4 C       -2.5650     0.3810    -0.3100 C.ar  1 <1>   0.0860 
  5 C       -2.8150     3.2410    -1.1940 C.3   1 <1>   0.1400 
  6 C       -0.3210     3.3110    -1.3830 C.3   1 <1>   0.1400 
  7 C       -2.9030    -0.1430     0.9370 C.ar  1 <1>  -0.1500 
  8 C       -3.3640     0.0220    -1.3970 C.ar  1 <1>  -0.1500 
  9 C       -2.7880     4.4920    -0.3120 C.3   1 <1>  -0.1600 
 10 C       -0.2720     4.5530    -0.4890 C.3   1 <1>  -0.1600 
 11 C       -3.9970    -0.9720     1.1040 C.ar  1 <1>  -0.1500 
 12 C       -4.4600    -0.8060    -1.2400 C.ar  1 <1>  -0.1500 
 13 C       -1.5640     5.3870    -0.6040 C.3   1 <1>  -0.0190 
 14 C       -4.7890    -1.3070     0.0090 C.ar  1 <1>   0.0830 
 15 C       -1.5050     6.6290     0.2900 C.2   1 <1>   0.5690 
 16 O       -5.8770    -2.1060     0.0820 O.3   1 <1>  -0.3630 
 17 O       -2.1960     6.6910     1.2790 O.2   1 <1>  -0.5700 
 18 N       -0.6490     7.6300    -0.0820 N.am  1 <1>  -0.4940 
 19 C       -6.2830    -2.6970     1.2960 C.3   1 <1>   0.0400 
 20 C       -0.4510     8.8950     0.5250 C.2   1 <1>  -0.0880 
 21 N        0.7630     9.4390     0.8190 N.pl3 1 <1>   0.3140 
 22 C       -1.3790     9.8020     0.9140 C.2   1 <1>  -0.1810 
 23 N        0.6290    10.6760     1.3600 N.2   1 <1>  -0.7070 
 24 C        2.0910     8.7860     0.6310 C.3   1 <1>   0.1760 
 25 C       -0.6510    10.8720     1.4190 C.2   1 <1>   0.1390 
 26 C       -2.8930     9.7260     0.8390 C.3   1 <1>  -0.0590 
 27 C        2.9670     8.7970     1.8850 C.3   1 <1>  -0.1600 
 28 C        2.9540     9.4800    -0.4230 C.3   1 <1>  -0.1600 
 29 C        4.3880     8.5800     1.3630 C.3   1 <1>  -0.1600 
 30 C        4.3990     9.0930    -0.0830 C.3   1 <1>  -0.1600 
 31 H       -3.6480     2.6260    -0.9000 H     1 <1>   0.0800 
 32 H       -2.9500     3.5170    -2.2250 H     1 <1>   0.0800 
 33 H       -0.3700     3.6010    -2.4190 H     1 <1>   0.0800 
 34 H        0.5750     2.7300    -1.2470 H     1 <1>   0.0800 
 35 H       -2.2870     0.1110     1.7830 H     1 <1>   0.1500 
 36 H       -3.1140     0.3970    -2.3740 H     1 <1>   0.1500 
 37 H       -2.7730     4.1830     0.7190 H     1 <1>   0.0800 
 38 H       -3.6920     5.0550    -0.4660 H     1 <1>   0.0800 
 39 H        0.5820     5.1440    -0.7640 H     1 <1>   0.0800 
 40 H       -0.1350     4.2360     0.5310 H     1 <1>   0.0800 
 41 H       -4.2160    -1.3470     2.0850 H     1 <1>   0.1500 
 42 H       -5.0690    -1.0740    -2.0850 H     1 <1>   0.1500 
 43 H       -1.6530     5.7320    -1.6190 H     1 <1>   0.0800 
 44 H       -0.0840     7.4440    -0.9080 H     1 <1>   0.3700 
 45 H       -7.1570    -3.2920     1.1010 H     1 <1>   0.0800 
 46 H       -6.5190    -1.9200     2.0010 H     1 <1>   0.0800 
 47 H       -5.4890    -3.3230     1.6620 H     1 <1>   0.0800 
 48 H        1.9390     7.7630     0.3400 H     1 <1>   0.0800 
 49 H       -1.0900    11.7720     1.8160 H     1 <1>   0.1500 
 50 H       -3.1950     9.0130     0.0940 H     1 <1>   0.0800 
 51 H       -3.3030    10.6860     0.5840 H     1 <1>   0.0800 
 52 H       -3.2850     9.4140     1.7900 H     1 <1>   0.0800 
 53 H        2.6730     8.0360     2.5860 H     1 <1>   0.0800 
 54 H        2.9140     9.7620     2.3600 H     1 <1>   0.0800 
 55 H        2.8480    10.5480    -0.3250 H     1 <1>   0.0800 
 56 H        2.6850     9.1830    -1.4210 H     1 <1>   0.0800 
 57 H        4.6220     7.5280     1.3740 H     1 <1>   0.0800 
 58 H        5.1080     9.1000     1.9730 H     1 <1>   0.0800 
 59 H        5.0480     9.9460    -0.1850 H     1 <1>   0.0800 
 60 H        4.7440     8.3150    -0.7430 H     1 <1>   0.0800 
@<TRIPOS>BOND
  1   1   2  2   
  2   2   3  am  
  3   2   4  1   
  4   3   5  1   
  5   3   6  1   
  6   4   7  ar  
  7   4   8  ar  
  8   5   9  1   
  9   5  31  1   
 10   5  32  1   
 11   6  10  1   
 12   6  33  1   
 13   6  34  1   
 14   7  11  ar  
 15   7  35  1   
 16   8  12  ar  
 17   8  36  1   
 18   9  13  1   
 19   9  37  1   
 20   9  38  1   
 21  10  13  1   
 22  10  39  1   
 23  10  40  1   
 24  11  14  ar  
 25  11  41  1   
 26  12  14  ar  
 27  12  42  1   
 28  13  15  1   
 29  13  43  1   
 30  14  16  1   
 31  15  17  2   
 32  15  18  am  
 33  16  19  1   
 34  18  20  1   
 35  18  44  1   
 36  19  45  1   
 37  19  46  1   
 38  19  47  1   
 39  20  21  1   
 40  20  22  2   
 41  21  23  1   
 42  21  24  1   
 43  22  25  1   
 44  22  26  1   
 45  23  25  2   
 46  24  27  1   
 47  24  28  1   
 48  24  48  1   
 49  25  49  1   
 50  26  50  1   
 51  26  51  1   
 52  26  52  1   
 53  27  29  1   
 54  27  53  1   
 55  27  54  1   
 56  28  30  1   
 57  28  55  1   
 58  28  56  1   
 59  29  30  1   
 60  29  57  1   
 61  29  58  1   
 62  30  59  1   
 63  30  60  1   
@<TRIPOS>SUBSTRUCTURE
  1 ****  13 GROUP 4 **** **** 0

# MOE 2024.06 (io_trps.svl 2023.06)
