@<TRIPOS>MOLECULE
NONAME
38 39 1 0 0 
SMALL
USER_CHARGES


@<TRIPOS>ATOM
  1 F        0.5640     1.7020    -0.8880 F     1 <1>  -0.3400 
  2 C        1.6790     1.0480    -1.1960 C.3   1 <1>   1.1640 
  3 F        1.3590     0.2200    -2.1800 F     1 <1>  -0.3400 
  4 F        2.4890     1.9540    -1.7350 F     1 <1>  -0.3400 
  5 C        2.2780     0.3350     0.0360 C.ar  1 <1>  -0.1440 
  6 C        1.6520    -0.7530     0.6600 C.ar  1 <1>  -0.1440 
  7 C        3.4870     0.7920     0.5610 C.ar  1 <1>  -0.1500 
  8 C        2.2490    -1.3490     1.7620 C.ar  1 <1>  -0.1500 
  9 C        0.3160    -1.3540     0.1970 C.3   1 <1>   0.0450 
 10 C        4.0670     0.1930     1.6640 C.ar  1 <1>  -0.1500 
 11 C        3.4470    -0.8820     2.2660 C.ar  1 <1>  -0.1500 
 12 C        0.4420    -2.5680    -0.7220 C.2   1 <1>   0.5690 
 13 O        1.5320    -2.8560    -1.1600 O.2   1 <1>  -0.5700 
 14 N       -0.6690    -3.3110    -1.0320 N.am  1 <1>  -0.6600 
 15 C       -0.5320    -4.6100    -1.7830 C.3   1 <1>   0.1400 
 16 C       -2.0670    -3.0080    -0.6140 C.3   1 <1>   0.1400 
 17 C       -1.5940    -5.6630    -1.3920 C.3   1 <1>   0.2000 
 18 C       -2.5700    -4.0760     0.3690 C.3   1 <1>  -0.1600 
 19 O       -2.7150    -5.5260    -2.1970 O.3   1 <1>  -0.6800 
 20 C       -2.0310    -5.5000     0.0700 C.3   1 <1>  -0.1860 
 21 C       -3.0140    -6.5870     0.4570 C.2   1 <1>   0.9060 
 22 O       -2.7940    -7.2520     1.4720 O.co2 1 <1>  -0.9000 
 23 O       -4.0040    -6.7740    -0.2660 O.co2 1 <1>  -0.9000 
 24 H        4.0020     1.6280     0.1170 H     1 <1>   0.1500 
 25 H        1.7830    -2.1960     2.2370 H     1 <1>   0.1500 
 26 H       -0.2870    -0.6190    -0.2970 H     1 <1>   0.0800 
 27 H       -0.2290    -1.6630     1.0690 H     1 <1>   0.0800 
 28 H        5.0010     0.5620     2.0510 H     1 <1>   0.1500 
 29 H        3.8960    -1.3560     3.1200 H     1 <1>   0.1500 
 30 H       -0.5770    -4.4250    -2.8410 H     1 <1>   0.0800 
 31 H        0.4350    -5.0270    -1.5630 H     1 <1>   0.0800 
 32 H       -2.1560    -2.0310    -0.1760 H     1 <1>   0.0800 
 33 H       -2.6880    -3.0220    -1.4940 H     1 <1>   0.0800 
 34 H       -1.2100    -6.6550    -1.5580 H     1 <1>   0.0800 
 35 H       -2.3020    -3.8060     1.3750 H     1 <1>   0.0800 
 36 H       -3.6450    -4.0860     0.3200 H     1 <1>   0.0800 
 37 H       -3.4480    -6.0110    -1.7110 H     1 <1>   0.4000 
 38 H       -1.1560    -5.6510     0.6740 H     1 <1>   0.0800 
@<TRIPOS>BOND
  1   1   2  1   
  2   2   3  1   
  3   2   4  1   
  4   2   5  1   
  5   5   6  ar  
  6   5   7  ar  
  7   6   8  ar  
  8   6   9  1   
  9   7  10  ar  
 10   7  24  1   
 11   8  11  ar  
 12   8  25  1   
 13   9  12  1   
 14   9  26  1   
 15   9  27  1   
 16  10  11  ar  
 17  10  28  1   
 18  11  29  1   
 19  12  13  2   
 20  12  14  am  
 21  14  15  1   
 22  14  16  1   
 23  15  17  1   
 24  15  30  1   
 25  15  31  1   
 26  16  18  1   
 27  16  32  1   
 28  16  33  1   
 29  17  19  1   
 30  17  20  1   
 31  17  34  1   
 32  18  20  1   
 33  18  35  1   
 34  18  36  1   
 35  19  37  1   
 36  20  21  1   
 37  20  38  1   
 38  21  22  ar  
 39  21  23  ar  
@<TRIPOS>SUBSTRUCTURE
  1 ****  12 GROUP 4 **** **** 0

# MOE 2024.06 (io_trps.svl 2023.06)
