@<TRIPOS>MOLECULE
NONAME
46 48 1 0 0 
SMALL
USER_CHARGES


@<TRIPOS>ATOM
  1 O       -0.1650     1.5830     2.2810 O.2   1 <1>  -0.5700 
  2 C        0.0340     2.4660     1.4680 C.2   1 <1>   0.5440 
  3 N       -1.0390     3.1660     0.9550 N.am  1 <1>  -0.6600 
  4 C        1.3930     2.7600     1.0520 C.ar  1 <1>   0.0860 
  5 C       -2.4380     2.9250     1.4180 C.3   1 <1>   0.1400 
  6 C       -0.9390     4.1310    -0.1720 C.3   1 <1>   0.1400 
  7 C        2.0820     1.9750     0.1180 C.ar  1 <1>  -0.1440 
  8 C        2.0350     3.8750     1.5890 C.ar  1 <1>  -0.1500 
  9 C       -3.2920     2.3440     0.2740 C.3   1 <1>   0.0000 
 10 C       -1.7610     3.6200    -1.3610 C.3   1 <1>  -0.1600 
 11 C        3.3760     2.3270    -0.2500 C.ar  1 <1>  -0.1500 
 12 C        1.3750     0.7420    -0.4600 C.3   1 <1>  -0.0170 
 13 C        3.3190     4.2180     1.2160 C.ar  1 <1>  -0.1500 
 14 C       -4.7330     2.0920     0.7600 C.3   1 <1>   0.2000 
 15 C       -3.2120     3.2880    -0.9610 C.3   1 <1>  -0.1600 
 16 C       -2.8550     0.9150    -0.0980 C.3   1 <1>  -0.1600 
 17 C        3.9900     3.4410     0.2930 C.ar  1 <1>  -0.1500 
 18 C        2.1190     0.0040    -1.5790 C.3   1 <1>  -0.2400 
 19 O       -5.5310     3.2200     0.7030 O.3   1 <1>  -0.6800 
 20 C       -5.3050     0.9940    -0.1350 C.3   1 <1>  -0.1600 
 21 C       -4.0930     0.2390    -0.6970 C.3   1 <1>  -0.1600 
 22 H       -2.4480     2.2560     2.2610 H     1 <1>   0.0800 
 23 H       -2.8630     3.8590     1.7420 H     1 <1>   0.0800 
 24 H       -1.3220     5.0840     0.1530 H     1 <1>   0.0800 
 25 H        0.0830     4.2710    -0.4770 H     1 <1>   0.0800 
 26 H        1.5100     4.4750     2.3120 H     1 <1>   0.1500 
 27 H       -1.7670     4.3720    -2.1300 H     1 <1>   0.0800 
 28 H       -1.2770     2.7530    -1.7720 H     1 <1>   0.0800 
 29 H        3.9320     1.7450    -0.9610 H     1 <1>   0.1500 
 30 H        1.1900     0.0490     0.3440 H     1 <1>   0.0800 
 31 H        0.4180     1.0470    -0.8460 H     1 <1>   0.0800 
 32 H        3.7970     5.0830     1.6440 H     1 <1>   0.1500 
 33 H       -4.7200     1.7470     1.7810 H     1 <1>   0.0800 
 34 H       -3.7260     2.8560    -1.8020 H     1 <1>   0.0800 
 35 H       -3.6940     4.2200    -0.7260 H     1 <1>   0.0800 
 36 H       -2.0200     0.8850    -0.7730 H     1 <1>   0.0800 
 37 H       -2.5720     0.3870     0.7970 H     1 <1>   0.0800 
 38 H        4.9930     3.7000    -0.0020 H     1 <1>   0.1500 
 39 H        3.0490    -0.3930    -1.2120 H     1 <1>   0.0800 
 40 H        2.3130     0.6680    -2.4030 H     1 <1>   0.0800 
 41 H        1.5200    -0.8150    -1.9340 H     1 <1>   0.0800 
 42 H       -5.5990     3.5210    -0.2220 H     1 <1>   0.4000 
 43 H       -5.9310     0.3360     0.4420 H     1 <1>   0.0800 
 44 H       -5.8770     1.4110    -0.9460 H     1 <1>   0.0800 
 45 H       -4.1220    -0.8060    -0.4370 H     1 <1>   0.0800 
 46 H       -4.0760     0.3280    -1.7690 H     1 <1>   0.0800 
@<TRIPOS>BOND
  1   1   2  2   
  2   2   3  am  
  3   2   4  1   
  4   3   5  1   
  5   3   6  1   
  6   4   7  ar  
  7   4   8  ar  
  8   5   9  1   
  9   5  22  1   
 10   5  23  1   
 11   6  10  1   
 12   6  24  1   
 13   6  25  1   
 14   7  11  ar  
 15   7  12  1   
 16   8  13  ar  
 17   8  26  1   
 18   9  14  1   
 19   9  15  1   
 20   9  16  1   
 21  10  15  1   
 22  10  27  1   
 23  10  28  1   
 24  11  17  ar  
 25  11  29  1   
 26  12  18  1   
 27  12  30  1   
 28  12  31  1   
 29  13  17  ar  
 30  13  32  1   
 31  14  19  1   
 32  14  20  1   
 33  14  33  1   
 34  15  34  1   
 35  15  35  1   
 36  16  21  1   
 37  16  36  1   
 38  16  37  1   
 39  17  38  1   
 40  18  39  1   
 41  18  40  1   
 42  18  41  1   
 43  19  42  1   
 44  20  21  1   
 45  20  43  1   
 46  20  44  1   
 47  21  45  1   
 48  21  46  1   
@<TRIPOS>SUBSTRUCTURE
  1 ****   3 GROUP 4 **** **** 0

# MOE 2024.06 (io_trps.svl 2023.06)
