@<TRIPOS>MOLECULE
NONAME
47 49 1 0 0 
SMALL
USER_CHARGES


@<TRIPOS>ATOM
  1 O        0.7290     2.3870     2.1450 O.2   1 <1>  -0.5700 
  2 C        0.7090     3.5000     1.6840 C.2   1 <1>   0.5690 
  3 N        0.0900     3.7910     0.5030 N.am  1 <1>  -0.3680 
  4 C        1.3580     4.6520     2.4260 C.3   1 <1>  -0.0990 
  5 N        0.0790     5.0240    -0.1380 N.2   1 <1>  -0.5120 
  6 C        1.8010     5.7740     1.4650 C.3   1 <1>  -0.0990 
  7 C        0.8350     5.9490     0.2880 C.2   1 <1>   0.3280 
  8 C        0.8580     7.3160    -0.3750 C.3   1 <1>  -0.0990 
  9 C        2.1050     7.5040    -1.2580 C.3   1 <1>  -0.0990 
 10 C        2.2330     8.8970    -1.8610 C.2   1 <1>   0.5690 
 11 O        1.3320     9.6860    -1.6930 O.2   1 <1>  -0.5700 
 12 N        3.3650     9.2490    -2.5480 N.am  1 <1>  -0.6600 
 13 C        3.5880    10.6740    -2.9300 C.3   1 <1>   0.1400 
 14 C        4.5340     8.3600    -2.7930 C.3   1 <1>   0.1400 
 15 C        4.0920    11.5120    -1.7400 C.3   1 <1>   0.1400 
 16 C        5.6070     8.5140    -1.7060 C.3   1 <1>  -0.1600 
 17 N        4.9940    10.7510    -0.8130 N.am  1 <1>  -0.6600 
 18 C        6.0760     9.9550    -1.4560 C.3   1 <1>   0.1400 
 19 C        4.8100    10.7130     0.5600 C.2   1 <1>   0.7150 
 20 O        5.5450    10.0010     1.2250 O.2   1 <1>  -0.5700 
 21 C        3.7690    11.4680     1.2220 C.2   1 <1>   0.0550 
 22 O        4.0720    12.4850     2.0250 O.3   1 <1>  -0.2800 
 23 C        2.4120    11.3410     1.1890 C.2   1 <1>  -0.1500 
 24 C        2.9610    13.0010     2.4980 C.2   1 <1>  -0.0100 
 25 C        1.8900    12.3360     2.0160 C.2   1 <1>  -0.1500 
 26 H       -0.4220     3.0140     0.0740 H     1 <1>   0.3700 
 27 H        2.1970     4.2910     2.9930 H     1 <1>   0.0800 
 28 H        0.6290     5.0400     3.1130 H     1 <1>   0.0800 
 29 H        2.7680     5.5290     1.0640 H     1 <1>   0.0800 
 30 H        1.8910     6.6920     2.0160 H     1 <1>   0.0800 
 31 H        0.8180     8.0790     0.3810 H     1 <1>   0.0800 
 32 H       -0.0210     7.4220    -0.9880 H     1 <1>   0.0800 
 33 H        2.0740     6.7870    -2.0580 H     1 <1>   0.0800 
 34 H        2.9820     7.3180    -0.6670 H     1 <1>   0.0800 
 35 H        2.6680    11.0990    -3.2950 H     1 <1>   0.0800 
 36 H        4.3010    10.7280    -3.7330 H     1 <1>   0.0800 
 37 H        4.9600     8.6000    -3.7530 H     1 <1>   0.0800 
 38 H        4.2160     7.3330    -2.8400 H     1 <1>   0.0800 
 39 H        3.2290    11.8740    -1.2130 H     1 <1>   0.0800 
 40 H        4.6160    12.3740    -2.1120 H     1 <1>   0.0800 
 41 H        6.4610     7.9340    -2.0030 H     1 <1>   0.0800 
 42 H        5.2550     8.0940    -0.7810 H     1 <1>   0.0800 
 43 H        6.3790    10.4200    -2.3790 H     1 <1>   0.0800 
 44 H        6.9350     9.9380    -0.8060 H     1 <1>   0.0800 
 45 H        1.8310    10.6220     0.6390 H     1 <1>   0.1500 
 46 H        3.0190    13.8380     3.1710 H     1 <1>   0.1500 
 47 H        0.8460    12.5100     2.2090 H     1 <1>   0.1500 
@<TRIPOS>BOND
  1   1   2  2   
  2   2   3  am  
  3   2   4  1   
  4   3   5  1   
  5   3  26  1   
  6   4   6  1   
  7   4  27  1   
  8   4  28  1   
  9   5   7  2   
 10   6   7  1   
 11   6  29  1   
 12   6  30  1   
 13   7   8  1   
 14   8   9  1   
 15   8  31  1   
 16   8  32  1   
 17   9  10  1   
 18   9  33  1   
 19   9  34  1   
 20  10  11  2   
 21  10  12  am  
 22  12  13  1   
 23  12  14  1   
 24  13  15  1   
 25  13  35  1   
 26  13  36  1   
 27  14  16  1   
 28  14  37  1   
 29  14  38  1   
 30  15  17  1   
 31  15  39  1   
 32  15  40  1   
 33  16  18  1   
 34  16  41  1   
 35  16  42  1   
 36  17  18  1   
 37  17  19  am  
 38  18  43  1   
 39  18  44  1   
 40  19  20  2   
 41  19  21  1   
 42  21  22  1   
 43  21  23  2   
 44  22  24  1   
 45  23  25  1   
 46  23  45  1   
 47  24  25  2   
 48  24  46  1   
 49  25  47  1   
@<TRIPOS>SUBSTRUCTURE
  1 ****   9 GROUP 4 **** **** 0

# MOE 2024.06 (io_trps.svl 2023.06)
