@<TRIPOS>MOLECULE
NONAME
51 54 1 0 0 
SMALL
USER_CHARGES


@<TRIPOS>ATOM
  1 S        0.7150     0.4540     2.7960 S.3   1 <1>  -0.0800 
  2 C        1.5070     0.0940     1.2640 C.2   1 <1>   0.3250 
  3 C       -0.0820    -1.0860     2.7600 C.2   1 <1>  -0.1100 
  4 N        1.1830    -1.0690     0.8110 N.2   1 <1>  -0.5650 
  5 C        2.4000     1.0680     0.6750 C.ar  1 <1>   0.0530 
  6 C        0.2940    -1.7310     1.6460 C.2   1 <1>   0.0460 
  7 C        3.2910     0.6840    -0.3280 C.ar  1 <1>  -0.1500 
  8 C        2.4190     2.4130     1.0500 C.ar  1 <1>  -0.1500 
  9 C       -0.1810    -3.1090     1.1990 C.3   1 <1>   0.5240 
 10 C        4.1510     1.5850    -0.9260 C.ar  1 <1>  -0.1500 
 11 C        3.2780     3.3190     0.4560 C.ar  1 <1>  -0.1500 
 12 N       -0.2900    -3.0890    -0.2920 N.4   1 <1>  -0.9590 
 13 C        4.1600     2.9200    -0.5420 C.ar  1 <1>  -0.1430 
 14 C       -1.6280    -2.7950    -0.8800 C.3   1 <1>   0.4230 
 15 C        0.3480    -4.2890    -0.9080 C.3   1 <1>   0.2630 
 16 C        5.1090     3.9290    -1.2090 C.3   1 <1>   1.1630 
 17 C       -2.6980    -3.8320    -0.5500 C.3   1 <1>  -0.1600 
 18 C       -2.2380    -1.4740    -0.4230 C.3   1 <1>  -0.1600 
 19 F        4.5510     4.5120    -2.2610 F     1 <1>  -0.3400 
 20 F        5.4760     4.9080    -0.3900 F     1 <1>  -0.3400 
 21 F        6.2330     3.3710    -1.6430 F     1 <1>  -0.3400 
 22 C       -4.0220    -3.1220    -0.8730 C.3   1 <1>  -0.0800 
 23 C       -3.7250    -1.6040    -0.7760 C.3   1 <1>  -0.0800 
 24 C       -5.2100    -3.6300    -0.0280 C.3   1 <1>   0.1400 
 25 C       -4.6480    -0.8310     0.1900 C.3   1 <1>  -0.0990 
 26 N       -6.2910    -2.6280    -0.0470 N.am  1 <1>  -0.7300 
 27 C       -6.0790    -1.2990     0.0490 C.2   1 <1>   0.5690 
 28 O       -6.9870    -0.5110     0.0350 O.2   1 <1>  -0.5700 
 29 H       -0.7390    -1.3250     3.5780 H     1 <1>   0.1500 
 30 H        3.3120    -0.3440    -0.6450 H     1 <1>   0.1500 
 31 H        1.7530     2.7710     1.8150 H     1 <1>   0.1500 
 32 H       -1.1200    -3.3560     1.6630 H     1 <1>   0.0800 
 33 H        0.5580    -3.8320     1.5000 H     1 <1>   0.0800 
 34 H        4.8180     1.2370    -1.6980 H     1 <1>   0.1500 
 35 H        3.2530     4.3480     0.7780 H     1 <1>   0.1500 
 36 H        0.3090    -2.2690    -0.5150 H     1 <1>   0.4500 
 37 H       -1.5340    -2.7490    -1.9540 H     1 <1>   0.0800 
 38 H       -0.2050    -5.1800    -0.6580 H     1 <1>   0.0800 
 39 H        1.3600    -4.3980    -0.5520 H     1 <1>   0.0800 
 40 H        0.3740    -4.1880    -1.9810 H     1 <1>   0.0800 
 41 H       -2.5880    -4.7240    -1.1420 H     1 <1>   0.0800 
 42 H       -2.6740    -4.0850     0.4940 H     1 <1>   0.0800 
 43 H       -2.1450    -1.3510     0.6390 H     1 <1>   0.0800 
 44 H       -1.7900    -0.6330    -0.9230 H     1 <1>   0.0800 
 45 H       -4.2640    -3.3300    -1.9030 H     1 <1>   0.0800 
 46 H       -3.8790    -1.1890    -1.7600 H     1 <1>   0.0800 
 47 H       -4.9120    -3.7840     0.9950 H     1 <1>   0.0800 
 48 H       -5.5730    -4.5650    -0.4220 H     1 <1>   0.0800 
 49 H       -4.5970     0.2240    -0.0110 H     1 <1>   0.0800 
 50 H       -4.3580    -0.9930     1.2110 H     1 <1>   0.0800 
 51 H       -7.2630    -2.9440    -0.1040 H     1 <1>   0.3700 
@<TRIPOS>BOND
  1   1   2  1   
  2   1   3  1   
  3   2   4  2   
  4   2   5  1   
  5   3   6  2   
  6   3  29  1   
  7   4   6  1   
  8   5   7  ar  
  9   5   8  ar  
 10   6   9  1   
 11   7  10  ar  
 12   7  30  1   
 13   8  11  ar  
 14   8  31  1   
 15   9  12  1   
 16   9  32  1   
 17   9  33  1   
 18  10  13  ar  
 19  10  34  1   
 20  11  13  ar  
 21  11  35  1   
 22  12  14  1   
 23  12  15  1   
 24  12  36  1   
 25  13  16  1   
 26  14  17  1   
 27  14  18  1   
 28  14  37  1   
 29  15  38  1   
 30  15  39  1   
 31  15  40  1   
 32  16  19  1   
 33  16  20  1   
 34  16  21  1   
 35  17  22  1   
 36  17  41  1   
 37  17  42  1   
 38  18  23  1   
 39  18  43  1   
 40  18  44  1   
 41  22  23  1   
 42  22  24  1   
 43  22  45  1   
 44  23  25  1   
 45  23  46  1   
 46  24  26  1   
 47  24  47  1   
 48  24  48  1   
 49  25  27  1   
 50  25  49  1   
 51  25  50  1   
 52  26  27  am  
 53  26  51  1   
 54  27  28  2   
@<TRIPOS>SUBSTRUCTURE
  1 ****   4 GROUP 4 **** **** 0

# MOE 2024.06 (io_trps.svl 2023.06)
