@<TRIPOS>MOLECULE
NONAME
46 48 1 0 0 
SMALL
USER_CHARGES


@<TRIPOS>ATOM
  1 O       -0.2760     0.0250    -0.1900 O.2   1 <1>  -0.5700 
  2 C       -1.3070     0.6540    -0.1470 C.2   1 <1>   0.5690 
  3 N       -2.5200     0.0260    -0.1590 N.am  1 <1>  -0.6600 
  4 C       -1.2520     2.1690    -0.0840 C.3   1 <1>  -0.0990 
  5 C       -3.8530     0.6780    -0.1630 C.3   1 <1>   0.1400 
  6 C       -2.6520    -1.4490    -0.2080 C.3   1 <1>   0.1400 
  7 C        0.1780     2.6960     0.0260 C.3   1 <1>   0.1200 
  8 C       -4.8490    -0.4660    -0.3610 C.3   1 <1>   0.2000 
  9 C       -4.1240    -1.7300     0.0990 C.3   1 <1>  -0.0800 
 10 O        0.1250     4.1040     0.0940 O.3   1 <1>  -0.3630 
 11 O       -5.9990    -0.2760     0.3880 O.3   1 <1>  -0.6800 
 12 C       -4.6620    -3.0050    -0.5700 C.3   1 <1>  -0.0170 
 13 C        1.2590     4.8430     0.1960 C.ar  1 <1>   0.0820 
 14 C       -3.9160    -4.2370    -0.0830 C.ar  1 <1>  -0.1440 
 15 C        2.5390     4.2960     0.2400 C.ar  1 <1>  -0.1500 
 16 C        1.1040     6.2190     0.2580 C.ar  1 <1>  -0.1500 
 17 C       -2.8740    -4.7960    -0.7960 C.ar  1 <1>  -0.1500 
 18 C       -4.2450    -4.8600     1.1030 C.ar  1 <1>  -0.1500 
 19 C        3.6430     5.1250     0.3450 C.ar  1 <1>  -0.1500 
 20 C        2.2080     7.0460     0.3630 C.ar  1 <1>  -0.1500 
 21 C       -2.2290    -5.9170    -0.2990 C.ar  1 <1>   0.1600 
 22 C       -3.5360    -5.9780     1.5100 C.ar  1 <1>   0.1600 
 23 C        3.4790     6.4990     0.4060 C.ar  1 <1>  -0.1500 
 24 N       -2.5350    -6.5210     0.8370 N.ar  1 <1>  -0.6200 
 25 H       -1.7010     2.5660    -0.9750 H     1 <1>   0.0800 
 26 H       -1.8080     2.4980     0.7740 H     1 <1>   0.0800 
 27 H       -4.0130     1.1660     0.7830 H     1 <1>   0.0800 
 28 H       -3.9260     1.3870    -0.9680 H     1 <1>   0.0800 
 29 H       -2.3900    -1.7860    -1.1960 H     1 <1>   0.0800 
 30 H       -2.0010    -1.9180     0.5110 H     1 <1>   0.0800 
 31 H        0.7530     2.4150    -0.8400 H     1 <1>   0.0800 
 32 H        0.6510     2.3270     0.9200 H     1 <1>   0.0800 
 33 H       -5.1270    -0.5290    -1.4000 H     1 <1>   0.0800 
 34 H       -4.2110    -1.8240     1.1670 H     1 <1>   0.0800 
 35 H       -5.7900    -0.2720     1.3420 H     1 <1>   0.4000 
 36 H       -4.5730    -2.9250    -1.6390 H     1 <1>   0.0800 
 37 H       -5.7090    -3.1120    -0.3410 H     1 <1>   0.0800 
 38 H        2.6970     3.2350     0.1940 H     1 <1>   0.1500 
 39 H        0.1140     6.6360     0.2230 H     1 <1>   0.1500 
 40 H       -2.5550    -4.3740    -1.7310 H     1 <1>   0.1500 
 41 H       -5.0470    -4.4880     1.7150 H     1 <1>   0.1500 
 42 H        4.6310     4.7010     0.3790 H     1 <1>   0.1500 
 43 H        2.0790     8.1130     0.4110 H     1 <1>   0.1500 
 44 H       -1.4170    -6.3380    -0.8670 H     1 <1>   0.1500 
 45 H       -3.8080    -6.4510     2.4380 H     1 <1>   0.1500 
 46 H        4.3390     7.1410     0.4880 H     1 <1>   0.1500 
@<TRIPOS>BOND
  1   1   2  2   
  2   2   3  am  
  3   2   4  1   
  4   3   5  1   
  5   3   6  1   
  6   4   7  1   
  7   4  25  1   
  8   4  26  1   
  9   5   8  1   
 10   5  27  1   
 11   5  28  1   
 12   6   9  1   
 13   6  29  1   
 14   6  30  1   
 15   7  10  1   
 16   7  31  1   
 17   7  32  1   
 18   8   9  1   
 19   8  11  1   
 20   8  33  1   
 21   9  12  1   
 22   9  34  1   
 23  10  13  1   
 24  11  35  1   
 25  12  14  1   
 26  12  36  1   
 27  12  37  1   
 28  13  15  ar  
 29  13  16  ar  
 30  14  17  ar  
 31  14  18  ar  
 32  15  19  ar  
 33  15  38  1   
 34  16  20  ar  
 35  16  39  1   
 36  17  21  ar  
 37  17  40  1   
 38  18  22  ar  
 39  18  41  1   
 40  19  23  ar  
 41  19  42  1   
 42  20  23  ar  
 43  20  43  1   
 44  21  24  ar  
 45  21  44  1   
 46  22  24  ar  
 47  22  45  1   
 48  23  46  1   
@<TRIPOS>SUBSTRUCTURE
  1 ****   2 GROUP 4 **** **** 0

# MOE 2024.06 (io_trps.svl 2023.06)
