@<TRIPOS>MOLECULE
NONAME
56 59 1 0 0 
SMALL
USER_CHARGES


@<TRIPOS>ATOM
  1 O       -3.1550    -0.4750     2.0840 O.2   1 <1>  -0.5700 
  2 C       -2.3690    -1.0550     1.3580 C.2   1 <1>   0.6900 
  3 N       -1.6700    -0.3810     0.3890 N.am  1 <1>  -0.6600 
  4 N       -2.2010    -2.3890     1.4920 N.am  1 <1>  -0.7300 
  5 C       -1.6350     1.1080     0.3550 C.3   1 <1>   0.0600 
  6 C       -0.8610    -1.0470    -0.6680 C.3   1 <1>   0.0600 
  7 C       -2.9380    -3.2690     2.4500 C.3   1 <1>   0.2010 
  8 C       -3.7220    -4.3850     1.7530 C.2   1 <1>   0.5690 
  9 O       -3.1840    -5.4670     1.6830 O.2   1 <1>  -0.5700 
 10 N       -4.9780    -4.1820     1.2320 N.am  1 <1>  -0.6600 
 11 C       -5.6940    -2.8640     1.2100 C.3   1 <1>   0.1400 
 12 C       -5.7440    -5.3400     0.6770 C.3   1 <1>   0.1400 
 13 C       -6.1540    -2.4770    -0.2170 C.3   1 <1>   0.1430 
 14 C       -6.9580    -4.9000    -0.1560 C.3   1 <1>  -0.1600 
 15 C       -7.2650    -1.4490    -0.0690 C.ar  1 <1>   0.1670 
 16 C       -6.5970    -3.7070    -1.0510 C.3   1 <1>  -0.1600 
 17 C       -5.0680    -1.6630    -0.9660 C.3   1 <1>  -0.1600 
 18 N       -8.5020    -1.7080     0.2820 N.ar  1 <1>  -0.6200 
 19 C       -6.8210    -0.1900    -0.3330 C.ar  1 <1>  -0.1440 
 20 C       -5.3590    -0.1760    -0.7000 C.3   1 <1>  -0.0170 
 21 C       -9.3230    -0.6530     0.3580 C.ar  1 <1>   0.6200 
 22 C       -7.7200     0.8390    -0.2290 C.ar  1 <1>   0.1600 
 23 N       -8.9700     0.6180     0.1130 N.ar  1 <1>  -0.6200 
 24 C      -10.7080    -0.9080     0.7370 C.ar  1 <1>   0.0000 
 25 C      -11.4920     0.0690     1.3590 C.ar  1 <1>  -0.1500 
 26 C      -11.3190    -2.1430     0.4950 C.ar  1 <1>  -0.1500 
 27 C      -12.8060    -0.1710     1.7190 C.ar  1 <1>  -0.1500 
 28 C      -12.6320    -2.3900     0.8530 C.ar  1 <1>  -0.1500 
 29 C      -13.3800    -1.4030     1.4670 C.ar  1 <1>  -0.1500 
 30 H       -1.5230    -2.8540     0.8950 H     1 <1>   0.3700 
 31 H       -2.1100     1.5240     1.2270 H     1 <1>   0.0800 
 32 H       -2.1480     1.4630    -0.5210 H     1 <1>   0.0800 
 33 H       -0.6140     1.4470     0.3310 H     1 <1>   0.0800 
 34 H       -1.2690    -2.0140    -0.9060 H     1 <1>   0.0800 
 35 H        0.1540    -1.1610    -0.3290 H     1 <1>   0.0800 
 36 H       -0.8670    -0.4520    -1.5650 H     1 <1>   0.0800 
 37 H       -3.6060    -2.6880     3.0580 H     1 <1>   0.0800 
 38 H       -2.2230    -3.7240     3.1110 H     1 <1>   0.0800 
 39 H       -5.0900    -2.0740     1.6150 H     1 <1>   0.0800 
 40 H       -6.5610    -2.9520     1.8430 H     1 <1>   0.0800 
 41 H       -6.0660    -5.9730     1.4860 H     1 <1>   0.0800 
 42 H       -5.0830    -5.9170     0.0510 H     1 <1>   0.0800 
 43 H       -7.7700    -4.6320     0.5000 H     1 <1>   0.0800 
 44 H       -7.2910    -5.7260    -0.7590 H     1 <1>   0.0800 
 45 H       -5.7920    -4.0180    -1.6940 H     1 <1>   0.0800 
 46 H       -7.4330    -3.4480    -1.6780 H     1 <1>   0.0800 
 47 H       -5.1630    -1.8280    -2.0250 H     1 <1>   0.0800 
 48 H       -4.0740    -1.9440    -0.6700 H     1 <1>   0.0800 
 49 H       -5.1670     0.4280    -1.5690 H     1 <1>   0.0800 
 50 H       -4.7830     0.1860     0.1330 H     1 <1>   0.0800 
 51 H       -7.4140     1.8520    -0.4260 H     1 <1>   0.1500 
 52 H      -11.0640     1.0340     1.5650 H     1 <1>   0.1500 
 53 H      -10.7540    -2.9240     0.0170 H     1 <1>   0.1500 
 54 H      -13.3820     0.6030     2.1960 H     1 <1>   0.1500 
 55 H      -13.0710    -3.3510     0.6530 H     1 <1>   0.1500 
 56 H      -14.4020    -1.5920     1.7460 H     1 <1>   0.1500 
@<TRIPOS>BOND
  1   1   2  2   
  2   2   3  am  
  3   2   4  am  
  4   3   5  1   
  5   3   6  1   
  6   4   7  1   
  7   4  30  1   
  8   5  31  1   
  9   5  32  1   
 10   5  33  1   
 11   6  34  1   
 12   6  35  1   
 13   6  36  1   
 14   7   8  1   
 15   7  37  1   
 16   7  38  1   
 17   8   9  2   
 18   8  10  am  
 19  10  11  1   
 20  10  12  1   
 21  11  13  1   
 22  11  39  1   
 23  11  40  1   
 24  12  14  1   
 25  12  41  1   
 26  12  42  1   
 27  13  15  1   
 28  13  16  1   
 29  13  17  1   
 30  14  16  1   
 31  14  43  1   
 32  14  44  1   
 33  15  18  ar  
 34  15  19  ar  
 35  16  45  1   
 36  16  46  1   
 37  17  20  1   
 38  17  47  1   
 39  17  48  1   
 40  18  21  ar  
 41  19  20  1   
 42  19  22  ar  
 43  20  49  1   
 44  20  50  1   
 45  21  23  ar  
 46  21  24  1   
 47  22  23  ar  
 48  22  51  1   
 49  24  25  ar  
 50  24  26  ar  
 51  25  27  ar  
 52  25  52  1   
 53  26  28  ar  
 54  26  53  1   
 55  27  29  ar  
 56  27  54  1   
 57  28  29  ar  
 58  28  55  1   
 59  29  56  1   
@<TRIPOS>SUBSTRUCTURE
  1 ****  15 GROUP 4 **** **** 0

# MOE 2024.06 (io_trps.svl 2023.06)
