@<TRIPOS>MOLECULE
NONAME
48 49 1 0 0 
SMALL
USER_CHARGES


@<TRIPOS>ATOM
  1 S        1.1780    -1.4890     1.4650 S.o2  1 <1>   1.5010 
  2 O        1.1190    -1.1850     2.8740 O.2   1 <1>  -0.6500 
  3 O        2.2940    -2.2440     0.9390 O.2   1 <1>  -0.6500 
  4 N       -0.1950    -2.4080     1.1730 N.am  1 <1>  -0.9140 
  5 C        0.8720    -0.0140     0.4780 C.2   1 <1>  -0.0630 
  6 C       -0.1570    -3.1860    -0.0580 C.3   1 <1>   0.2760 
  7 C        1.8310     0.7370    -0.1960 C.2   1 <1>   0.1080 
  8 C       -0.2870     0.6440     0.2190 C.2   1 <1>  -0.3020 
  9 C       -1.5740    -3.5790    -0.4560 C.3   1 <1>  -0.0800 
 10 C        0.4390    -4.5660     0.2100 C.3   1 <1>   0.1200 
 11 N        1.3210     1.7490    -0.8250 N.2   1 <1>  -0.7070 
 12 C        3.3190     0.4570    -0.2300 C.3   1 <1>  -0.0590 
 13 N        0.0060     1.6960    -0.5650 N.pl3 1 <1>   0.3140 
 14 C       -1.8220    -4.8670     0.3440 C.3   1 <1>   0.1200 
 15 C       -2.6390    -2.4860    -0.2320 C.3   1 <1>  -0.0550 
 16 O       -0.5810    -5.2680     0.8460 O.3   1 <1>  -0.5600 
 17 C       -0.9390     2.6980    -1.0970 C.3   1 <1>   0.0960 
 18 S       -4.2360    -2.9090    -0.9200 S.o2  1 <1>   1.3330 
 19 C       -1.3210     3.7240    -0.0230 C.3   1 <1>  -0.2400 
 20 O       -4.7950    -4.0210    -0.1850 O.2   1 <1>  -0.6500 
 21 O       -4.0730    -3.0050    -2.3530 O.2   1 <1>  -0.6500 
 22 N       -5.1720    -1.5330    -0.5810 N.am  1 <1>  -0.8490 
 23 C       -6.2700    -1.3660    -1.5390 C.3   1 <1>   0.1160 
 24 C       -5.7030    -1.5160     0.7870 C.3   1 <1>   0.1160 
 25 H       -0.2110    -3.0910     1.9320 H     1 <1>   0.4200 
 26 H        0.3500    -2.6540    -0.8470 H     1 <1>   0.0800 
 27 H       -1.2820     0.4190     0.5540 H     1 <1>   0.1500 
 28 H       -1.5670    -3.8400    -1.5010 H     1 <1>   0.0800 
 29 H        1.3130    -4.5490     0.8370 H     1 <1>   0.0800 
 30 H        0.6660    -5.0730    -0.7130 H     1 <1>   0.0800 
 31 H        3.6950     0.3180     0.7670 H     1 <1>   0.0800 
 32 H        3.8370     1.2860    -0.6790 H     1 <1>   0.0800 
 33 H        3.5130    -0.4260    -0.8100 H     1 <1>   0.0800 
 34 H       -2.2180    -5.6530    -0.2770 H     1 <1>   0.0800 
 35 H       -2.4770    -4.7050     1.1830 H     1 <1>   0.0800 
 36 H       -2.3000    -1.5790    -0.6930 H     1 <1>   0.0800 
 37 H       -2.7450    -2.2980     0.8190 H     1 <1>   0.0800 
 38 H       -0.4690     3.1940    -1.9270 H     1 <1>   0.0800 
 39 H       -1.8140     2.1870    -1.4550 H     1 <1>   0.0800 
 40 H       -0.4410     4.2350     0.3260 H     1 <1>   0.0800 
 41 H       -1.8050     3.2410     0.8070 H     1 <1>   0.0800 
 42 H       -1.9960     4.4520    -0.4370 H     1 <1>   0.0800 
 43 H       -6.8360    -0.4800    -1.3090 H     1 <1>   0.0800 
 44 H       -6.9250    -2.2220    -1.5120 H     1 <1>   0.0800 
 45 H       -5.8770    -1.2640    -2.5370 H     1 <1>   0.0800 
 46 H       -6.2170    -0.5890     0.9720 H     1 <1>   0.0800 
 47 H       -4.9010    -1.6070     1.4990 H     1 <1>   0.0800 
 48 H       -6.3900    -2.3330     0.9350 H     1 <1>   0.0800 
@<TRIPOS>BOND
  1   1   2  2   
  2   1   3  2   
  3   1   4  am  
  4   1   5  1   
  5   4   6  1   
  6   4  25  1   
  7   5   7  1   
  8   5   8  2   
  9   6   9  1   
 10   6  10  1   
 11   6  26  1   
 12   7  11  2   
 13   7  12  1   
 14   8  13  1   
 15   8  27  1   
 16   9  14  1   
 17   9  15  1   
 18   9  28  1   
 19  10  16  1   
 20  10  29  1   
 21  10  30  1   
 22  11  13  1   
 23  12  31  1   
 24  12  32  1   
 25  12  33  1   
 26  13  17  1   
 27  14  16  1   
 28  14  34  1   
 29  14  35  1   
 30  15  18  1   
 31  15  36  1   
 32  15  37  1   
 33  17  19  1   
 34  17  38  1   
 35  17  39  1   
 36  18  20  2   
 37  18  21  2   
 38  18  22  am  
 39  19  40  1   
 40  19  41  1   
 41  19  42  1   
 42  22  23  1   
 43  22  24  1   
 44  23  43  1   
 45  23  44  1   
 46  23  45  1   
 47  24  46  1   
 48  24  47  1   
 49  24  48  1   
@<TRIPOS>SUBSTRUCTURE
  1 ****   4 GROUP 4 **** **** 0

# MOE 2024.06 (io_trps.svl 2023.06)
