@<TRIPOS>MOLECULE
NONAME
54 57 1 0 0 
SMALL
USER_CHARGES


@<TRIPOS>ATOM
  1 O        1.0940    -0.1540    -0.6790 O.2   1 <1>  -0.5700 
  2 C        0.0110     0.3590    -0.8450 C.2   1 <1>   0.5690 
  3 N       -1.1560    -0.3360    -0.6290 N.am  1 <1>  -0.6600 
  4 C        0.0010     1.8110    -1.3120 C.3   1 <1>   0.0440 
  5 C       -2.5120     0.2690    -0.8100 C.3   1 <1>   0.1400 
  6 C       -1.1090    -1.7410    -0.1200 C.3   1 <1>   0.1400 
  7 C       -0.6500     2.7670    -0.3160 C.ar  1 <1>  -0.1440 
  8 C       -3.5750    -0.8190    -0.9450 C.3   1 <1>  -0.1600 
  9 C       -2.2320    -1.9870     0.8910 C.3   1 <1>  -0.1600 
 10 C       -1.5540     3.7340    -0.7120 C.ar  1 <1>  -0.1500 
 11 C       -0.3700     2.7130     1.0350 C.ar  1 <1>  -0.1500 
 12 C       -3.6380    -1.6820     0.3250 C.3   1 <1>   0.4240 
 13 C       -2.1210     4.5700     0.2360 C.ar  1 <1>   0.1600 
 14 C       -0.9930     3.5960     1.9000 C.ar  1 <1>   0.1600 
 15 O       -4.2940    -0.8670     1.2640 O.3   1 <1>  -0.5600 
 16 C       -4.4300    -2.9790     0.0510 C.ar  1 <1>  -0.1430 
 17 N       -1.8640     4.5220     1.5330 N.ar  1 <1>  -0.6200 
 18 C       -4.8800    -1.5040     2.3570 C.3   1 <1>   0.1200 
 19 C       -5.5750    -3.2910     0.7710 C.ar  1 <1>  -0.1430 
 20 C       -3.9990    -3.8770    -0.9170 C.ar  1 <1>  -0.1500 
 21 C       -6.0500    -2.3470     1.8590 C.3   1 <1>  -0.0170 
 22 C       -6.2800    -4.4540     0.5060 C.ar  1 <1>  -0.1500 
 23 C       -4.6820    -5.0500    -1.1900 C.ar  1 <1>   0.0820 
 24 C       -5.8570    -5.3440    -0.4780 C.ar  1 <1>   0.0820 
 25 O       -4.1100    -5.8170    -2.1630 O.3   1 <1>  -0.3620 
 26 O       -6.5710    -6.4740    -0.7600 O.3   1 <1>  -0.3620 
 27 C       -4.3440    -7.2040    -2.2650 C.3   1 <1>   0.0400 
 28 C       -7.8820    -6.6720    -0.2760 C.3   1 <1>   0.0400 
 29 H       -0.4970     1.8590    -2.2610 H     1 <1>   0.0800 
 30 H        1.0160     2.1260    -1.4680 H     1 <1>   0.0800 
 31 H       -2.5270     0.8850    -1.6910 H     1 <1>   0.0800 
 32 H       -2.7390     0.8890     0.0430 H     1 <1>   0.0800 
 33 H       -0.1620    -1.9340     0.3550 H     1 <1>   0.0800 
 34 H       -1.2020    -2.4170    -0.9520 H     1 <1>   0.0800 
 35 H       -3.3390    -1.4140    -1.8070 H     1 <1>   0.0800 
 36 H       -4.5400    -0.3780    -1.1180 H     1 <1>   0.0800 
 37 H       -2.0360    -1.3640     1.7450 H     1 <1>   0.0800 
 38 H       -2.1870    -3.0090     1.2170 H     1 <1>   0.0800 
 39 H       -1.8240     3.8490    -1.7450 H     1 <1>   0.1500 
 40 H        0.3260     1.9900     1.4230 H     1 <1>   0.1500 
 41 H       -2.8230     5.3170    -0.0890 H     1 <1>   0.1500 
 42 H       -0.7630     3.5350     2.9500 H     1 <1>   0.1500 
 43 H       -5.2230    -0.7440     3.0370 H     1 <1>   0.0800 
 44 H       -4.1410    -2.1130     2.8480 H     1 <1>   0.0800 
 45 H       -3.1090    -3.6800    -1.4850 H     1 <1>   0.1500 
 46 H       -6.8160    -1.7010     1.4700 H     1 <1>   0.0800 
 47 H       -6.4600    -2.9030     2.6830 H     1 <1>   0.0800 
 48 H       -7.1620    -4.6510     1.0820 H     1 <1>   0.1500 
 49 H       -3.5940    -7.6240    -2.9090 H     1 <1>   0.0800 
 50 H       -5.3180    -7.3600    -2.6920 H     1 <1>   0.0800 
 51 H       -4.2790    -7.6440    -1.2860 H     1 <1>   0.0800 
 52 H       -8.2720    -7.5650    -0.7290 H     1 <1>   0.0800 
 53 H       -8.4880    -5.8270    -0.5530 H     1 <1>   0.0800 
 54 H       -7.8470    -6.7920     0.7920 H     1 <1>   0.0800 
@<TRIPOS>BOND
  1   1   2  2   
  2   2   3  am  
  3   2   4  1   
  4   3   5  1   
  5   3   6  1   
  6   4   7  1   
  7   4  29  1   
  8   4  30  1   
  9   5   8  1   
 10   5  31  1   
 11   5  32  1   
 12   6   9  1   
 13   6  33  1   
 14   6  34  1   
 15   7  10  ar  
 16   7  11  ar  
 17   8  12  1   
 18   8  35  1   
 19   8  36  1   
 20   9  12  1   
 21   9  37  1   
 22   9  38  1   
 23  10  13  ar  
 24  10  39  1   
 25  11  14  ar  
 26  11  40  1   
 27  12  15  1   
 28  12  16  1   
 29  13  17  ar  
 30  13  41  1   
 31  14  17  ar  
 32  14  42  1   
 33  15  18  1   
 34  16  19  ar  
 35  16  20  ar  
 36  18  21  1   
 37  18  43  1   
 38  18  44  1   
 39  19  21  1   
 40  19  22  ar  
 41  20  23  ar  
 42  20  45  1   
 43  21  46  1   
 44  21  47  1   
 45  22  24  ar  
 46  22  48  1   
 47  23  24  ar  
 48  23  25  1   
 49  24  26  1   
 50  25  27  1   
 51  26  28  1   
 52  27  49  1   
 53  27  50  1   
 54  27  51  1   
 55  28  52  1   
 56  28  53  1   
 57  28  54  1   
@<TRIPOS>SUBSTRUCTURE
  1 ****  12 GROUP 4 **** **** 0

# MOE 2024.06 (io_trps.svl 2023.06)
