@<TRIPOS>MOLECULE
NONAME
43 45 1 0 0 
SMALL
USER_CHARGES


@<TRIPOS>ATOM
  1 F        1.0480     0.5250     2.5760 F     1 <1>  -0.1900 
  2 C        1.7380     1.0630     1.6060 C.ar  1 <1>   0.1900 
  3 C        2.4490     0.2360     0.7390 C.ar  1 <1>   0.0860 
  4 C        1.6960     2.4380     1.4890 C.ar  1 <1>  -0.1500 
  5 C        3.1540     0.8740    -0.2950 C.ar  1 <1>   0.0820 
  6 C        2.3940    -1.1920     0.9120 C.2   1 <1>   0.5440 
  7 C        2.3890     3.0410     0.4540 C.ar  1 <1>  -0.1500 
  8 O        3.8960     0.2240    -1.2210 O.3   1 <1>  -0.3630 
  9 C        3.1070     2.2560    -0.4300 C.ar  1 <1>  -0.1500 
 10 O        3.1110    -1.7400     1.7280 O.2   1 <1>  -0.5700 
 11 N        1.5510    -1.9670     0.1530 N.am  1 <1>  -0.6600 
 12 C        4.7650    -0.8310    -0.8570 C.3   1 <1>   0.0400 
 13 C        0.5400    -1.4600    -0.8080 C.3   1 <1>   0.1400 
 14 C        1.3880    -3.4260     0.3550 C.3   1 <1>   0.1400 
 15 C       -0.5540    -2.5270    -0.7860 C.3   1 <1>   0.2000 
 16 C        0.2190    -3.8300    -0.5520 C.3   1 <1>  -0.0800 
 17 O       -1.3770    -2.2730     0.3010 O.3   1 <1>  -0.6800 
 18 C       -0.6130    -5.0040    -0.0050 C.3   1 <1>  -0.0170 
 19 C        0.2360    -6.2600     0.1150 C.ar  1 <1>  -0.1430 
 20 C        0.8350    -6.6280     1.3030 C.ar  1 <1>  -0.1500 
 21 C        0.4560    -7.0940    -0.9630 C.ar  1 <1>  -0.1500 
 22 C        1.6080    -7.7760     1.3520 C.ar  1 <1>   0.1600 
 23 C        1.2460    -8.2210    -0.8060 C.ar  1 <1>   0.1600 
 24 N        1.8300    -8.5810     0.3260 N.ar  1 <1>  -0.6200 
 25 H        1.1300     3.0240     2.1920 H     1 <1>   0.1500 
 26 H        2.3690     4.1120     0.3380 H     1 <1>   0.1500 
 27 H        3.6480     2.7170    -1.2380 H     1 <1>   0.1500 
 28 H        5.5630    -0.8700    -1.5760 H     1 <1>   0.0800 
 29 H        4.2210    -1.7580    -0.8740 H     1 <1>   0.0800 
 30 H        5.1650    -0.6430     0.1240 H     1 <1>   0.0800 
 31 H        0.1570    -0.4930    -0.5300 H     1 <1>   0.0800 
 32 H        0.9850    -1.4060    -1.7860 H     1 <1>   0.0800 
 33 H        2.2920    -3.9510     0.0940 H     1 <1>   0.0800 
 34 H        1.1590    -3.6110     1.3910 H     1 <1>   0.0800 
 35 H       -1.1560    -2.5370    -1.6780 H     1 <1>   0.0800 
 36 H        0.6410    -4.1290    -1.4960 H     1 <1>   0.0800 
 37 H       -0.8140    -2.1040     1.0850 H     1 <1>   0.4000 
 38 H       -1.4410    -5.1940    -0.6660 H     1 <1>   0.0800 
 39 H       -1.0230    -4.7570     0.9590 H     1 <1>   0.0800 
 40 H        0.7110    -6.0350     2.1900 H     1 <1>   0.1500 
 41 H        0.0220    -6.8790    -1.9220 H     1 <1>   0.1500 
 42 H        2.0690    -8.0470     2.2870 H     1 <1>   0.1500 
 43 H        1.4070    -8.8610    -1.6570 H     1 <1>   0.1500 
@<TRIPOS>BOND
  1   1   2  1   
  2   2   3  ar  
  3   2   4  ar  
  4   3   5  ar  
  5   3   6  1   
  6   4   7  ar  
  7   4  25  1   
  8   5   8  1   
  9   5   9  ar  
 10   6  10  2   
 11   6  11  am  
 12   7   9  ar  
 13   7  26  1   
 14   8  12  1   
 15   9  27  1   
 16  11  13  1   
 17  11  14  1   
 18  12  28  1   
 19  12  29  1   
 20  12  30  1   
 21  13  15  1   
 22  13  31  1   
 23  13  32  1   
 24  14  16  1   
 25  14  33  1   
 26  14  34  1   
 27  15  16  1   
 28  15  17  1   
 29  15  35  1   
 30  16  18  1   
 31  16  36  1   
 32  17  37  1   
 33  18  19  1   
 34  18  38  1   
 35  18  39  1   
 36  19  20  ar  
 37  19  21  ar  
 38  20  22  ar  
 39  20  40  1   
 40  21  23  ar  
 41  21  41  1   
 42  22  24  ar  
 43  22  42  1   
 44  23  24  ar  
 45  23  43  1   
@<TRIPOS>SUBSTRUCTURE
  1 ****  11 GROUP 4 **** **** 0

# MOE 2024.06 (io_trps.svl 2023.06)
