@<TRIPOS>MOLECULE
NONAME
42 44 1 0 0 
SMALL
USER_CHARGES


@<TRIPOS>ATOM
  1 F        1.7990    -1.4670     1.2180 F     1 <1>  -0.3400 
  2 C        0.7850    -2.1640     1.7220 C.3   1 <1>   1.2010 
  3 F        1.3380    -3.1330     2.4490 F     1 <1>  -0.3400 
  4 F        0.1750    -1.3640     2.5920 F     1 <1>  -0.3400 
  5 C       -0.1730    -2.7230     0.6310 C.2   1 <1>   0.1080 
  6 N       -0.8700    -2.0100    -0.2230 N.2   1 <1>  -0.7070 
  7 C       -0.4050    -4.0780     0.4320 C.2   1 <1>  -0.1500 
  8 N       -1.5470    -2.8940    -0.9700 N.pl3 1 <1>   0.3140 
  9 C       -1.2910    -4.1760    -0.5990 C.2   1 <1>  -0.2370 
 10 C       -2.4340    -2.4110    -2.0430 C.3   1 <1>   0.0160 
 11 C       -1.8660    -5.3430    -1.2090 C.2   1 <1>   0.7150 
 12 O       -2.6620    -5.2730    -2.1240 O.2   1 <1>  -0.5700 
 13 N       -1.5190    -6.5730    -0.7470 N.am  1 <1>  -0.7300 
 14 C       -2.0090    -7.8640    -1.2780 C.3   1 <1>   0.2200 
 15 C       -3.0500    -8.4310    -0.3270 C.3   1 <1>  -0.0800 
 16 C       -0.9020    -8.9050    -1.1790 C.3   1 <1>   0.1200 
 17 C       -2.1880    -9.1630     0.7110 C.3   1 <1>   0.1200 
 18 C       -4.0210    -9.3800    -1.0550 C.3   1 <1>  -0.0160 
 19 O       -0.9230    -9.3500     0.1430 O.3   1 <1>  -0.5600 
 20 C       -5.0740    -9.9350    -0.1080 C.ar  1 <1>  -0.1440 
 21 C       -5.0400   -11.2380     0.3460 C.ar  1 <1>  -0.1500 
 22 C       -6.1220    -9.1590     0.3440 C.ar  1 <1>  -0.1500 
 23 C       -6.0250   -11.6880     1.2110 C.ar  1 <1>   0.1600 
 24 C       -7.0560    -9.7060     1.2090 C.ar  1 <1>   0.1600 
 25 N       -7.0310   -10.9520     1.6550 N.ar  1 <1>  -0.6200 
 26 H        0.0410    -4.8790     0.9970 H     1 <1>   0.1500 
 27 H       -2.1030    -2.8110    -2.9830 H     1 <1>   0.0800 
 28 H       -2.4020    -1.3380    -2.0770 H     1 <1>   0.0800 
 29 H       -3.4390    -2.7350    -1.8450 H     1 <1>   0.0800 
 30 H       -0.8840    -6.6540     0.0460 H     1 <1>   0.3700 
 31 H       -2.3700    -7.7470    -2.2870 H     1 <1>   0.0800 
 32 H       -3.6220    -7.6460     0.1350 H     1 <1>   0.0800 
 33 H        0.0690    -8.5060    -1.4130 H     1 <1>   0.0800 
 34 H       -1.1110    -9.7490    -1.8120 H     1 <1>   0.0800 
 35 H       -2.5870   -10.1230     0.9890 H     1 <1>   0.0800 
 36 H       -2.0620    -8.5620     1.5950 H     1 <1>   0.0800 
 37 H       -3.4800   -10.1930    -1.5090 H     1 <1>   0.0800 
 38 H       -4.5190    -8.8430    -1.8440 H     1 <1>   0.0800 
 39 H       -4.2600   -11.9100     0.0380 H     1 <1>   0.1500 
 40 H       -6.2220    -8.1360     0.0330 H     1 <1>   0.1500 
 41 H       -5.9820   -12.7070     1.5550 H     1 <1>   0.1500 
 42 H       -7.8660    -9.0860     1.5520 H     1 <1>   0.1500 
@<TRIPOS>BOND
  1   1   2  1   
  2   2   3  1   
  3   2   4  1   
  4   2   5  1   
  5   5   6  2   
  6   5   7  1   
  7   6   8  1   
  8   7   9  2   
  9   7  26  1   
 10   8   9  1   
 11   8  10  1   
 12   9  11  1   
 13  10  27  1   
 14  10  28  1   
 15  10  29  1   
 16  11  12  2   
 17  11  13  am  
 18  13  14  1   
 19  13  30  1   
 20  14  15  1   
 21  14  16  1   
 22  14  31  1   
 23  15  17  1   
 24  15  18  1   
 25  15  32  1   
 26  16  19  1   
 27  16  33  1   
 28  16  34  1   
 29  17  19  1   
 30  17  35  1   
 31  17  36  1   
 32  18  20  1   
 33  18  37  1   
 34  18  38  1   
 35  20  21  ar  
 36  20  22  ar  
 37  21  23  ar  
 38  21  39  1   
 39  22  24  ar  
 40  22  40  1   
 41  23  25  ar  
 42  23  41  1   
 43  24  25  ar  
 44  24  42  1   
@<TRIPOS>SUBSTRUCTURE
  1 ****  13 GROUP 4 **** **** 0

# MOE 2024.06 (io_trps.svl 2023.06)
