@<TRIPOS>MOLECULE
NONAME
51 53 1 0 0 
SMALL
USER_CHARGES


@<TRIPOS>ATOM
  1 O        2.0130     0.1620     2.1360 O.co2 1 <1>  -0.9000 
  2 C        1.8470    -0.1400     0.9490 C.2   1 <1>   0.9060 
  3 O        1.4240    -1.2570     0.6140 O.co2 1 <1>  -0.9000 
  4 C        2.2770     0.8210    -0.1630 C.3   1 <1>  -0.1060 
  5 C        3.5320     0.1270    -0.7460 C.3   1 <1>   0.2000 
  6 C        2.6620     2.2370     0.3680 C.3   1 <1>  -0.1600 
  7 C        1.1370     0.9800    -1.2140 C.3   1 <1>  -0.0160 
  8 O        3.1590    -0.8860    -1.6160 O.3   1 <1>  -0.6800 
  9 C        4.5060     1.1020    -1.4200 C.3   1 <1>   0.1400 
 10 C        4.1350     2.3250     0.7670 C.3   1 <1>   0.1400 
 11 C       -0.0260     1.8620    -0.7640 C.ar  1 <1>  -0.1440 
 12 N        4.9910     2.1560    -0.4550 N.am  1 <1>  -0.6600 
 13 C       -0.2220     3.1130    -1.3300 C.ar  1 <1>  -0.1500 
 14 C       -0.9040     1.4180     0.2130 C.ar  1 <1>  -0.1500 
 15 C        6.0980     2.9060    -0.8050 C.2   1 <1>   0.5690 
 16 C       -1.2780     3.9110    -0.9230 C.ar  1 <1>  -0.1500 
 17 C       -1.9590     2.2140     0.6230 C.ar  1 <1>  -0.1500 
 18 O        6.5660     2.7700    -1.9160 O.2   1 <1>  -0.5700 
 19 C        6.7810     3.9530     0.1360 C.3   1 <1>   0.0610 
 20 C       -2.1480     3.4610     0.0550 C.ar  1 <1>  -0.1500 
 21 C        7.1120     3.3930     1.5360 C.3   1 <1>  -0.1600 
 22 C        8.2090     4.3010    -0.3410 C.3   1 <1>  -0.1600 
 23 C        5.9630     5.2620     0.1920 C.3   1 <1>  -0.2400 
 24 C        8.3920     2.5710     1.3630 C.3   1 <1>  -0.1600 
 25 C        9.0970     3.1500     0.1350 C.3   1 <1>  -0.1600 
 26 H        4.0750    -0.3550     0.0510 H     1 <1>   0.0800 
 27 H        2.0420     2.4900     1.2110 H     1 <1>   0.0800 
 28 H        2.4900     2.9860    -0.3840 H     1 <1>   0.0800 
 29 H        1.5550     1.3890    -2.1160 H     1 <1>   0.0800 
 30 H        0.7380     0.0150    -1.4750 H     1 <1>   0.0800 
 31 H        2.4970    -1.4320    -1.1150 H     1 <1>   0.4000 
 32 H        4.0160     1.5860    -2.2460 H     1 <1>   0.0800 
 33 H        5.3500     0.5490    -1.7940 H     1 <1>   0.0800 
 34 H        4.3590     1.5480     1.4800 H     1 <1>   0.0800 
 35 H        4.3080     3.2680     1.2420 H     1 <1>   0.0800 
 36 H        0.4500     3.4700    -2.0890 H     1 <1>   0.1500 
 37 H       -0.7630     0.4470     0.6620 H     1 <1>   0.1500 
 38 H       -1.4210     4.8800    -1.3660 H     1 <1>   0.1500 
 39 H       -2.6270     1.8560     1.3860 H     1 <1>   0.1500 
 40 H       -2.9680     4.0790     0.3750 H     1 <1>   0.1500 
 41 H        7.3200     4.2090     2.2050 H     1 <1>   0.0800 
 42 H        6.3400     2.7950     1.9770 H     1 <1>   0.0800 
 43 H        8.2790     4.4510    -1.4040 H     1 <1>   0.0800 
 44 H        8.5450     5.2040     0.1410 H     1 <1>   0.0800 
 45 H        6.4420     5.9890     0.8240 H     1 <1>   0.0800 
 46 H        4.9710     5.1010     0.5620 H     1 <1>   0.0800 
 47 H        5.8810     5.6740    -0.7980 H     1 <1>   0.0800 
 48 H        9.0110     2.6300     2.2410 H     1 <1>   0.0800 
 49 H        8.1410     1.5400     1.1790 H     1 <1>   0.0800 
 50 H        9.1560     2.3990    -0.6350 H     1 <1>   0.0800 
 51 H       10.0900     3.4940     0.3660 H     1 <1>   0.0800 
@<TRIPOS>BOND
  1   1   2  ar  
  2   2   3  ar  
  3   2   4  1   
  4   4   5  1   
  5   4   6  1   
  6   4   7  1   
  7   5   8  1   
  8   5   9  1   
  9   5  26  1   
 10   6  10  1   
 11   6  27  1   
 12   6  28  1   
 13   7  11  1   
 14   7  29  1   
 15   7  30  1   
 16   8  31  1   
 17   9  12  1   
 18   9  32  1   
 19   9  33  1   
 20  10  12  1   
 21  10  34  1   
 22  10  35  1   
 23  11  13  ar  
 24  11  14  ar  
 25  12  15  am  
 26  13  16  ar  
 27  13  36  1   
 28  14  17  ar  
 29  14  37  1   
 30  15  18  2   
 31  15  19  1   
 32  16  20  ar  
 33  16  38  1   
 34  17  20  ar  
 35  17  39  1   
 36  19  21  1   
 37  19  22  1   
 38  19  23  1   
 39  20  40  1   
 40  21  24  1   
 41  21  41  1   
 42  21  42  1   
 43  22  25  1   
 44  22  43  1   
 45  22  44  1   
 46  23  45  1   
 47  23  46  1   
 48  23  47  1   
 49  24  25  1   
 50  24  48  1   
 51  24  49  1   
 52  25  50  1   
 53  25  51  1   
@<TRIPOS>SUBSTRUCTURE
  1 ****   6 GROUP 4 **** **** 0

# MOE 2024.06 (io_trps.svl 2023.06)
