@<TRIPOS>MOLECULE
NONAME
41 45 1 0 0 
SMALL
USER_CHARGES


@<TRIPOS>ATOM
  1 S       -0.4110     0.5660     1.6960 S.3   1 <1>  -0.0800 
  2 C       -0.2090     1.9220     0.6080 C.2   1 <1>  -0.1400 
  3 C        1.1930     0.8370     2.3630 C.2   1 <1>  -0.1100 
  4 C        0.9890     2.5040     0.7510 C.2   1 <1>  -0.1810 
  5 C       -1.2780     2.3570    -0.3570 C.3   1 <1>   0.0200 
  6 C        1.7930     1.8850     1.7650 C.2   1 <1>  -0.1500 
  7 C        1.3930     3.7030    -0.1120 C.3   1 <1>   0.4610 
  8 C       -0.9370     3.7900    -0.7970 C.3   1 <1>   0.1200 
  9 O        0.4260     3.9100    -1.1290 O.3   1 <1>  -0.5600 
 10 C        2.7140     3.4170    -0.8320 C.3   1 <1>  -0.1600 
 11 C        1.5120     4.9750     0.7380 C.3   1 <1>  -0.1600 
 12 C        3.1830     4.6220    -1.6450 C.3   1 <1>   0.2090 
 13 C        1.9780     6.1670    -0.0950 C.3   1 <1>   0.2090 
 14 N        3.2550     5.8170    -0.7620 N.pl3 1 <1>  -0.8380 
 15 C        4.4600     6.2660    -0.2600 C.ar  1 <1>   0.4100 
 16 N        5.3840     5.3730     0.0160 N.ar  1 <1>  -0.6200 
 17 C        4.6990     7.6310    -0.0330 C.ar  1 <1>   0.0000 
 18 C        6.5280     5.8380     0.5360 C.ar  1 <1>   0.4700 
 19 C        5.9190     7.9680     0.5120 C.ar  1 <1>   0.1050 
 20 C        4.0090     8.8520    -0.2280 C.2   1 <1>  -0.1500 
 21 N        6.8630     7.0740     0.8120 N.ar  1 <1>  -0.5670 
 22 N        5.9850     9.3190     0.6670 N.pl3 1 <1>   0.0330 
 23 C        4.8100     9.8540     0.2090 C.2   1 <1>  -0.3020 
 24 H        1.5200     0.1740     3.1430 H     1 <1>   0.1500 
 25 H       -2.2420     2.3400     0.1170 H     1 <1>   0.0800 
 26 H       -1.2960     1.6990    -1.2070 H     1 <1>   0.0800 
 27 H        2.7780     2.2520     1.9970 H     1 <1>   0.1500 
 28 H       -1.1590     4.4860    -0.0090 H     1 <1>   0.0800 
 29 H       -1.5120     4.0580    -1.6660 H     1 <1>   0.0800 
 30 H        2.5930     2.5650    -1.4740 H     1 <1>   0.0800 
 31 H        3.4770     3.1820    -0.1150 H     1 <1>   0.0800 
 32 H        2.2330     4.8090     1.5180 H     1 <1>   0.0800 
 33 H        0.5760     5.1960     1.2130 H     1 <1>   0.0800 
 34 H        2.4930     4.8180    -2.4480 H     1 <1>   0.0800 
 35 H        4.1490     4.4220    -2.0760 H     1 <1>   0.0800 
 36 H        2.1120     7.0190     0.5470 H     1 <1>   0.0800 
 37 H        1.2420     6.4120    -0.8420 H     1 <1>   0.0800 
 38 H        7.2640     5.0840     0.7550 H     1 <1>   0.1500 
 39 H        3.0250     8.9200    -0.6590 H     1 <1>   0.1500 
 40 H        6.7960     9.8120     1.0500 H     1 <1>   0.2700 
 41 H        4.6220    10.9140     0.2190 H     1 <1>   0.1500 
@<TRIPOS>BOND
  1   1   2  1   
  2   1   3  1   
  3   2   4  2   
  4   2   5  1   
  5   3   6  2   
  6   3  24  1   
  7   4   6  1   
  8   4   7  1   
  9   5   8  1   
 10   5  25  1   
 11   5  26  1   
 12   6  27  1   
 13   7   9  1   
 14   7  10  1   
 15   7  11  1   
 16   8   9  1   
 17   8  28  1   
 18   8  29  1   
 19  10  12  1   
 20  10  30  1   
 21  10  31  1   
 22  11  13  1   
 23  11  32  1   
 24  11  33  1   
 25  12  14  1   
 26  12  34  1   
 27  12  35  1   
 28  13  14  1   
 29  13  36  1   
 30  13  37  1   
 31  14  15  1   
 32  15  16  ar  
 33  15  17  ar  
 34  16  18  ar  
 35  17  19  ar  
 36  17  20  1   
 37  18  21  ar  
 38  18  38  1   
 39  19  21  ar  
 40  19  22  1   
 41  20  23  2   
 42  20  39  1   
 43  22  23  1   
 44  22  40  1   
 45  23  41  1   
@<TRIPOS>SUBSTRUCTURE
  1 ****  14 GROUP 4 **** **** 0

# MOE 2024.06 (io_trps.svl 2023.06)
