@<TRIPOS>MOLECULE
NONAME
47 50 1 0 0 
SMALL
USER_CHARGES


@<TRIPOS>ATOM
  1 S        0.0050     0.7870    -0.0300 S.3   1 <1>  -0.0800 
  2 C        1.7600     0.6280    -0.2240 C.2   1 <1>   0.4620 
  3 C       -0.0890    -0.8820     0.4760 C.ar  1 <1>   0.0400 
  4 N        2.2050    -0.5430     0.0580 N.2   1 <1>  -0.5650 
  5 N        2.5040     1.7090    -0.6490 N.pl3 1 <1>  -0.8220 
  6 C        1.1910    -1.4000     0.4510 C.ar  1 <1>   0.2270 
  7 C       -1.2060    -1.6080     0.8450 C.ar  1 <1>  -0.1500 
  8 C        3.9490     1.4980    -0.9860 C.3   1 <1>   0.2090 
  9 C        1.9640     3.0970    -0.7470 C.3   1 <1>   0.2090 
 10 C        1.3610    -2.7280     0.8200 C.ar  1 <1>  -0.1500 
 11 C       -1.0160    -2.9320     1.2090 C.ar  1 <1>  -0.1500 
 12 C        4.8470     1.6860     0.2460 C.3   1 <1>   0.2090 
 13 C        2.9200     4.1790    -0.2230 C.3   1 <1>  -0.1600 
 14 C        0.2620    -3.4860     1.1960 C.ar  1 <1>  -0.1500 
 15 N        4.9850     3.1340     0.6160 N.pl3 1 <1>  -0.8380 
 16 C        3.7070     3.7780     1.0280 C.3   1 <1>   0.2090 
 17 C        6.1510     3.8410     0.4490 C.ar  1 <1>   0.7200 
 18 N        6.1520     5.1270     0.8000 N.ar  1 <1>  -0.6200 
 19 N        7.2000     3.1980    -0.0610 N.ar  1 <1>  -0.6200 
 20 C        7.2570     5.8070     0.6310 C.ar  1 <1>   0.1670 
 21 C        8.2910     3.8980    -0.2310 C.ar  1 <1>   0.1600 
 22 C        8.3990     5.2450     0.0680 C.ar  1 <1>   0.0860 
 23 C        7.2020     7.2440     1.1230 C.3   1 <1>  -0.0970 
 24 C        9.6330     5.9220    -0.2190 C.2   1 <1>   0.4230 
 25 O       10.7070     5.4270    -0.0010 O.2   1 <1>  -0.5700 
 26 C        9.6380     7.2830    -0.8880 C.3   1 <1>  -0.1790 
 27 H       -2.1810    -1.1560     0.8460 H     1 <1>   0.1500 
 28 H        4.2560     2.1710    -1.7660 H     1 <1>   0.0800 
 29 H        4.0810     0.4960    -1.3540 H     1 <1>   0.0800 
 30 H        1.0580     3.1710    -0.1740 H     1 <1>   0.0800 
 31 H        1.7170     3.3050    -1.7740 H     1 <1>   0.0800 
 32 H        2.3500    -3.1470     0.8070 H     1 <1>   0.1500 
 33 H       -1.8580    -3.5350     1.5030 H     1 <1>   0.1500 
 34 H        5.8060     1.2500     0.0360 H     1 <1>   0.0800 
 35 H        4.4300     1.1400     1.0730 H     1 <1>   0.0800 
 36 H        2.3280     5.0430     0.0140 H     1 <1>   0.0800 
 37 H        3.6020     4.4760    -1.0000 H     1 <1>   0.0800 
 38 H        0.3960    -4.5160     1.4810 H     1 <1>   0.1500 
 39 H        3.1320     3.1000     1.6370 H     1 <1>   0.0800 
 40 H        3.9070     4.6510     1.6250 H     1 <1>   0.0800 
 41 H        9.1520     3.3910    -0.6350 H     1 <1>   0.1500 
 42 H        6.4580     7.3390     1.8940 H     1 <1>   0.0800 
 43 H        6.9350     7.9010     0.3160 H     1 <1>   0.0800 
 44 H        8.1450     7.5440     1.5410 H     1 <1>   0.0800 
 45 H        8.7020     7.4740    -1.3780 H     1 <1>   0.0800 
 46 H       10.4200     7.3120    -1.6250 H     1 <1>   0.0800 
 47 H        9.8320     8.0480    -0.1590 H     1 <1>   0.0800 
@<TRIPOS>BOND
  1   1   2  1   
  2   1   3  1   
  3   2   4  2   
  4   2   5  1   
  5   3   6  ar  
  6   3   7  ar  
  7   4   6  1   
  8   5   8  1   
  9   5   9  1   
 10   6  10  ar  
 11   7  11  ar  
 12   7  27  1   
 13   8  12  1   
 14   8  28  1   
 15   8  29  1   
 16   9  13  1   
 17   9  30  1   
 18   9  31  1   
 19  10  14  ar  
 20  10  32  1   
 21  11  14  ar  
 22  11  33  1   
 23  12  15  1   
 24  12  34  1   
 25  12  35  1   
 26  13  16  1   
 27  13  36  1   
 28  13  37  1   
 29  14  38  1   
 30  15  16  1   
 31  15  17  1   
 32  16  39  1   
 33  16  40  1   
 34  17  18  ar  
 35  17  19  ar  
 36  18  20  ar  
 37  19  21  ar  
 38  20  22  ar  
 39  20  23  1   
 40  21  22  ar  
 41  21  41  1   
 42  22  24  1   
 43  23  42  1   
 44  23  43  1   
 45  23  44  1   
 46  24  25  2   
 47  24  26  1   
 48  26  45  1   
 49  26  46  1   
 50  26  47  1   
@<TRIPOS>SUBSTRUCTURE
  1 ****  12 GROUP 4 **** **** 0

# MOE 2024.06 (io_trps.svl 2023.06)
