@<TRIPOS>MOLECULE
NONAME
53 55 1 0 0 
SMALL
USER_CHARGES


@<TRIPOS>ATOM
  1 O       -0.1380     0.3110     1.3700 O.2   1 <1>  -0.5700 
  2 C       -1.0810     0.9760     0.9820 C.2   1 <1>   0.7150 
  3 N       -2.1750     0.3270     0.4620 N.am  1 <1>  -0.6600 
  4 C       -1.0360     2.4080     1.0470 C.2   1 <1>  -0.2370 
  5 C       -3.2190     0.9750    -0.3680 C.3   1 <1>   0.1400 
  6 C       -2.2260    -1.1480     0.3140 C.3   1 <1>   0.1400 
  7 N        0.0510     3.1560     0.7220 N.pl3 1 <1>   0.3140 
  8 C       -1.9920     3.3070     1.4120 C.2   1 <1>  -0.1500 
  9 C       -3.8410    -0.1630    -1.1760 C.3   1 <1>   0.2000 
 10 C       -3.5610    -1.4350    -0.3790 C.3   1 <1>  -0.0800 
 11 N       -0.1900     4.4730     0.8440 N.2   1 <1>  -0.7070 
 12 C        1.3720     2.6830     0.2470 C.3   1 <1>   0.0960 
 13 C       -1.4160     4.5530     1.2600 C.2   1 <1>   0.1080 
 14 O       -5.2080     0.0060    -1.3320 O.3   1 <1>  -0.6800 
 15 C       -3.5570    -2.6950    -1.2610 C.3   1 <1>  -0.0170 
 16 C        1.3080     2.2060    -1.2110 C.3   1 <1>  -0.2400 
 17 C       -2.1050     5.8770     1.5370 C.3   1 <1>   0.0210 
 18 C       -3.3260    -3.9580    -0.4460 C.ar  1 <1>   0.1670 
 19 C       -3.3070     6.1300     0.6060 C.3   1 <1>  -0.0800 
 20 N       -2.0700    -4.2450    -0.1440 N.ar  1 <1>  -0.6200 
 21 C       -4.4100    -4.7420    -0.0540 C.ar  1 <1>   0.1600 
 22 C       -2.8770     6.1940    -0.8670 C.3   1 <1>  -0.2400 
 23 C       -4.0180     7.4330     0.9930 C.3   1 <1>  -0.2400 
 24 C       -1.9710    -5.3560     0.5670 C.ar  1 <1>   0.1600 
 25 N       -4.3140    -5.8520     0.6590 N.ar  1 <1>  -0.6200 
 26 C       -3.0560    -6.1330     0.9560 C.ar  1 <1>   0.1600 
 27 H       -3.9500     1.4300     0.2760 H     1 <1>   0.0800 
 28 H       -2.7840     1.7150    -1.0190 H     1 <1>   0.0800 
 29 H       -1.3980    -1.4700    -0.2950 H     1 <1>   0.0800 
 30 H       -2.1650    -1.6320     1.2740 H     1 <1>   0.0800 
 31 H       -2.9920     3.1110     1.7530 H     1 <1>   0.1500 
 32 H       -3.3900    -0.2040    -2.1530 H     1 <1>   0.0800 
 33 H       -4.3010    -1.5420     0.3950 H     1 <1>   0.0800 
 34 H        2.0650     3.5010     0.3280 H     1 <1>   0.0800 
 35 H        1.7130     1.8930     0.8900 H     1 <1>   0.0800 
 36 H       -5.6500     0.0470    -0.4620 H     1 <1>   0.4000 
 37 H       -2.7880    -2.6180    -2.0100 H     1 <1>   0.0800 
 38 H       -4.4990    -2.7690    -1.7750 H     1 <1>   0.0800 
 39 H        0.9550     3.0010    -1.8440 H     1 <1>   0.0800 
 40 H        0.6550     1.3560    -1.3010 H     1 <1>   0.0800 
 41 H        2.2900     1.9160    -1.5390 H     1 <1>   0.0800 
 42 H       -2.4320     5.8750     2.5610 H     1 <1>   0.0800 
 43 H       -1.3860     6.6700     1.4260 H     1 <1>   0.0800 
 44 H       -4.0050     5.3190     0.7210 H     1 <1>   0.0800 
 45 H       -5.4010    -4.4390    -0.3420 H     1 <1>   0.1500 
 46 H       -2.1620     6.9830    -1.0180 H     1 <1>   0.0800 
 47 H       -3.7280     6.3740    -1.5000 H     1 <1>   0.0800 
 48 H       -2.4240     5.2660    -1.1700 H     1 <1>   0.0800 
 49 H       -3.3530     8.2730     0.8870 H     1 <1>   0.0800 
 50 H       -4.3550     7.3880     2.0130 H     1 <1>   0.0800 
 51 H       -4.8740     7.5920     0.3610 H     1 <1>   0.0800 
 52 H       -0.9830    -5.6670     0.8580 H     1 <1>   0.1500 
 53 H       -2.8750    -7.0210     1.5350 H     1 <1>   0.1500 
@<TRIPOS>BOND
  1   1   2  2   
  2   2   3  am  
  3   2   4  1   
  4   3   5  1   
  5   3   6  1   
  6   4   7  1   
  7   4   8  2   
  8   5   9  1   
  9   5  27  1   
 10   5  28  1   
 11   6  10  1   
 12   6  29  1   
 13   6  30  1   
 14   7  11  1   
 15   7  12  1   
 16   8  13  1   
 17   8  31  1   
 18   9  10  1   
 19   9  14  1   
 20   9  32  1   
 21  10  15  1   
 22  10  33  1   
 23  11  13  2   
 24  12  16  1   
 25  12  34  1   
 26  12  35  1   
 27  13  17  1   
 28  14  36  1   
 29  15  18  1   
 30  15  37  1   
 31  15  38  1   
 32  16  39  1   
 33  16  40  1   
 34  16  41  1   
 35  17  19  1   
 36  17  42  1   
 37  17  43  1   
 38  18  20  ar  
 39  18  21  ar  
 40  19  22  1   
 41  19  23  1   
 42  19  44  1   
 43  20  24  ar  
 44  21  25  ar  
 45  21  45  1   
 46  22  46  1   
 47  22  47  1   
 48  22  48  1   
 49  23  49  1   
 50  23  50  1   
 51  23  51  1   
 52  24  26  ar  
 53  24  52  1   
 54  25  26  ar  
 55  26  53  1   
@<TRIPOS>SUBSTRUCTURE
  1 ****   3 GROUP 4 **** **** 0

# MOE 2024.06 (io_trps.svl 2023.06)
