@<TRIPOS>MOLECULE
NONAME
55 58 1 0 0 
SMALL
USER_CHARGES


@<TRIPOS>ATOM
  1 O       -0.5950     3.4160     0.6100 O.2   1 <1>  -0.5700 
  2 C        0.6050     3.4700     0.6600 C.2   1 <1>   0.4230 
  3 C        1.5410     3.3250    -0.4100 C.ar  1 <1>   0.0860 
  4 C        1.3570     3.7280     1.9480 C.3   1 <1>  -0.0990 
  5 C        2.8360     3.4720     0.0460 C.ar  1 <1>  -0.1440 
  6 C        1.3100     3.0710    -1.7560 C.ar  1 <1>  -0.1500 
  7 C        2.8460     3.7280     1.5450 C.3   1 <1>  -0.0160 
  8 C        3.9380     3.3830    -0.8020 C.ar  1 <1>   0.0860 
  9 C        2.3820     2.9650    -2.6220 C.ar  1 <1>  -0.1500 
 10 C        5.2970     3.5580    -0.3220 C.2   1 <1>   0.5440 
 11 C        3.6760     3.1150    -2.1480 C.ar  1 <1>  -0.1500 
 12 O        5.6930     2.8830     0.6100 O.2   1 <1>  -0.5700 
 13 N        6.1590     4.4820    -0.8800 N.am  1 <1>  -0.6600 
 14 C        7.6200     4.4130    -0.5720 C.3   1 <1>   0.1400 
 15 C        5.6960     5.6120    -1.7340 C.3   1 <1>   0.1400 
 16 C        7.9490     5.1570     0.7290 C.3   1 <1>   0.1400 
 17 C        6.2750     6.9700    -1.3100 C.3   1 <1>  -0.1600 
 18 N        7.8270     6.6500     0.5910 N.am  1 <1>  -0.6600 
 19 C        6.4690     7.1340     0.2040 C.3   1 <1>   0.1400 
 20 C        8.9200     7.4590     0.7960 C.2   1 <1>   0.5690 
 21 O       10.0190     7.0070     1.0360 O.2   1 <1>  -0.5700 
 22 C        8.8310     9.0050     0.7480 C.3   1 <1>   0.4840 
 23 N        9.9580     9.6800     1.4770 N.4   1 <1>  -0.9590 
 24 C        8.9540     9.5640    -0.6650 C.3   1 <1>  -0.1600 
 25 C       10.2210    11.0020     0.8490 C.3   1 <1>   0.3430 
 26 C        9.7700     9.7210     2.9560 C.3   1 <1>   0.2630 
 27 C        9.4720    10.9890    -0.4810 C.3   1 <1>  -0.1600 
 28 H        1.0610     4.6760     2.3580 H     1 <1>   0.0800 
 29 H        1.1450     2.9450     2.6540 H     1 <1>   0.0800 
 30 H        0.2970     2.9580    -2.1040 H     1 <1>   0.1500 
 31 H        3.3790     2.9420     2.0550 H     1 <1>   0.0800 
 32 H        3.3070     4.6740     1.7670 H     1 <1>   0.0800 
 33 H        2.2100     2.7600    -3.6660 H     1 <1>   0.1500 
 34 H        4.5040     3.0200    -2.8290 H     1 <1>   0.1500 
 35 H        7.9000     3.3790    -0.4530 H     1 <1>   0.0800 
 36 H        8.1980     4.8120    -1.3870 H     1 <1>   0.0800 
 37 H        5.9580     5.4110    -2.7590 H     1 <1>   0.0800 
 38 H        4.6230     5.6800    -1.6800 H     1 <1>   0.0800 
 39 H        8.9500     4.8910     1.0190 H     1 <1>   0.0800 
 40 H        7.2930     4.8110     1.5100 H     1 <1>   0.0800 
 41 H        5.5910     7.7260    -1.6530 H     1 <1>   0.0800 
 42 H        7.2050     7.1380    -1.8230 H     1 <1>   0.0800 
 43 H        5.7160     6.5820     0.7420 H     1 <1>   0.0800 
 44 H        6.3530     8.1700     0.4670 H     1 <1>   0.0800 
 45 H        7.8970     9.3230     1.1760 H     1 <1>   0.0800 
 46 H       10.7580     9.0480     1.2840 H     1 <1>   0.4500 
 47 H        9.6720     8.9810    -1.2180 H     1 <1>   0.0800 
 48 H        8.0140     9.5390    -1.1870 H     1 <1>   0.0800 
 49 H        9.8520    11.8020     1.4700 H     1 <1>   0.0800 
 50 H       11.2790    11.1370     0.6910 H     1 <1>   0.0800 
 51 H        8.9080    10.3170     3.2100 H     1 <1>   0.0800 
 52 H       10.6380    10.1490     3.4300 H     1 <1>   0.0800 
 53 H        9.6300     8.7230     3.3400 H     1 <1>   0.0800 
 54 H        8.6500    11.6830    -0.4240 H     1 <1>   0.0800 
 55 H       10.1130    11.2910    -1.2920 H     1 <1>   0.0800 
@<TRIPOS>BOND
  1   1   2  2   
  2   2   3  1   
  3   2   4  1   
  4   3   5  ar  
  5   3   6  ar  
  6   4   7  1   
  7   4  28  1   
  8   4  29  1   
  9   5   7  1   
 10   5   8  ar  
 11   6   9  ar  
 12   6  30  1   
 13   7  31  1   
 14   7  32  1   
 15   8  10  1   
 16   8  11  ar  
 17   9  11  ar  
 18   9  33  1   
 19  10  12  2   
 20  10  13  am  
 21  11  34  1   
 22  13  14  1   
 23  13  15  1   
 24  14  16  1   
 25  14  35  1   
 26  14  36  1   
 27  15  17  1   
 28  15  37  1   
 29  15  38  1   
 30  16  18  1   
 31  16  39  1   
 32  16  40  1   
 33  17  19  1   
 34  17  41  1   
 35  17  42  1   
 36  18  19  1   
 37  18  20  am  
 38  19  43  1   
 39  19  44  1   
 40  20  21  2   
 41  20  22  1   
 42  22  23  1   
 43  22  24  1   
 44  22  45  1   
 45  23  25  1   
 46  23  26  1   
 47  23  46  1   
 48  24  27  1   
 49  24  47  1   
 50  24  48  1   
 51  25  27  1   
 52  25  49  1   
 53  25  50  1   
 54  26  51  1   
 55  26  52  1   
 56  26  53  1   
 57  27  54  1   
 58  27  55  1   
@<TRIPOS>SUBSTRUCTURE
  1 ****  19 GROUP 4 **** **** 0

# MOE 2024.06 (io_trps.svl 2023.06)
