@<TRIPOS>MOLECULE
NONAME
54 57 1 0 0 
SMALL
USER_CHARGES


@<TRIPOS>ATOM
  1 O       -0.1340    -0.4030    -0.1010 O.3   1 <1>  -0.3630 
  2 C       -0.4300    -1.7050     0.1520 C.ar  1 <1>   0.0820 
  3 C       -0.2890     0.5220     0.9540 C.3   1 <1>   0.1200 
  4 C       -1.4790    -2.1140     0.9860 C.ar  1 <1>   0.0820 
  5 C        0.3830    -2.6520    -0.4440 C.ar  1 <1>  -0.1500 
  6 C       -1.7400     1.0030     1.0210 C.3   1 <1>  -0.1600 
  7 O       -2.3750    -1.2640     1.5550 O.3   1 <1>  -0.3630 
  8 C       -1.6580    -3.4610     1.2470 C.ar  1 <1>  -0.1500 
  9 C        0.1870    -4.0080    -0.1940 C.ar  1 <1>   0.0820 
 10 C       -2.7580    -0.1210     0.8190 C.3   1 <1>   0.1200 
 11 C       -0.8340    -4.4100     0.6620 C.ar  1 <1>  -0.1430 
 12 O        0.9550    -4.9830    -0.7590 O.3   1 <1>  -0.3630 
 13 C       -1.0530    -5.8800     0.9530 C.3   1 <1>   0.4860 
 14 C        2.1540    -4.6520    -1.4340 C.3   1 <1>   0.0400 
 15 N       -1.3780    -6.5630    -0.3250 N.4   1 <1>  -0.9590 
 16 C       -2.6600    -6.0780    -0.9340 C.3   1 <1>   0.3430 
 17 C       -1.4480    -8.0450    -0.2000 C.3   1 <1>   0.3430 
 18 C       -3.5300    -7.3220    -1.1470 C.3   1 <1>   0.2000 
 19 C       -2.9330    -8.3930    -0.2410 C.3   1 <1>  -0.0800 
 20 O       -4.8550    -7.0930    -0.8130 O.3   1 <1>  -0.6800 
 21 C       -3.2040    -9.8270    -0.7220 C.3   1 <1>  -0.0170 
 22 C       -2.3980   -10.8150     0.1050 C.ar  1 <1>  -0.1430 
 23 C       -2.7470   -11.1260     1.4040 C.ar  1 <1>  -0.1500 
 24 C       -1.2750   -11.4440    -0.3940 C.ar  1 <1>  -0.1500 
 25 C       -1.9650   -12.0090     2.1300 C.ar  1 <1>   0.1600 
 26 C       -0.5620   -12.3130     0.4170 C.ar  1 <1>   0.1600 
 27 N       -0.8750   -12.5980     1.6690 N.ar  1 <1>  -0.6200 
 28 H        0.0030     0.0410     1.8740 H     1 <1>   0.0800 
 29 H        0.3750     1.3480     0.7700 H     1 <1>   0.0800 
 30 H        1.1620    -2.2980    -1.0910 H     1 <1>   0.1500 
 31 H       -1.9090     1.4690     1.9750 H     1 <1>   0.0800 
 32 H       -1.8980     1.7540     0.2680 H     1 <1>   0.0800 
 33 H       -2.4560    -3.7420     1.9110 H     1 <1>   0.1500 
 34 H       -2.8320    -0.3940    -0.2200 H     1 <1>   0.0800 
 35 H       -3.7290     0.1860     1.1660 H     1 <1>   0.0800 
 36 H       -1.8530    -6.0060     1.6640 H     1 <1>   0.0800 
 37 H       -0.1480    -6.2920     1.3720 H     1 <1>   0.0800 
 38 H        2.6520    -5.5640    -1.7090 H     1 <1>   0.0800 
 39 H        2.7830    -4.0800    -0.7730 H     1 <1>   0.0800 
 40 H        1.9180    -4.0860    -2.3190 H     1 <1>   0.0800 
 41 H       -0.5910    -6.2900    -0.9420 H     1 <1>   0.4500 
 42 H       -3.1580    -5.3930    -0.2680 H     1 <1>   0.0800 
 43 H       -2.4720    -5.5860    -1.8740 H     1 <1>   0.0800 
 44 H       -0.9540    -8.5000    -1.0430 H     1 <1>   0.0800 
 45 H       -0.9840    -8.4000     0.7070 H     1 <1>   0.0800 
 46 H       -3.4930    -7.6110    -2.1850 H     1 <1>   0.0800 
 47 H       -3.3140    -8.2790     0.7590 H     1 <1>   0.0800 
 48 H       -5.0000    -7.0130     0.1500 H     1 <1>   0.4000 
 49 H       -2.9440    -9.9300    -1.7620 H     1 <1>   0.0800 
 50 H       -4.2540   -10.0510    -0.6300 H     1 <1>   0.0800 
 51 H       -3.6210   -10.6990     1.8620 H     1 <1>   0.1500 
 52 H       -0.9430   -11.2800    -1.4030 H     1 <1>   0.1500 
 53 H       -2.2500   -12.2450     3.1420 H     1 <1>   0.1500 
 54 H        0.3120   -12.7990     0.0150 H     1 <1>   0.1500 
@<TRIPOS>BOND
  1   1   2  1   
  2   1   3  1   
  3   2   4  ar  
  4   2   5  ar  
  5   3   6  1   
  6   3  28  1   
  7   3  29  1   
  8   4   7  1   
  9   4   8  ar  
 10   5   9  ar  
 11   5  30  1   
 12   6  10  1   
 13   6  31  1   
 14   6  32  1   
 15   7  10  1   
 16   8  11  ar  
 17   8  33  1   
 18   9  11  ar  
 19   9  12  1   
 20  10  34  1   
 21  10  35  1   
 22  11  13  1   
 23  12  14  1   
 24  13  15  1   
 25  13  36  1   
 26  13  37  1   
 27  14  38  1   
 28  14  39  1   
 29  14  40  1   
 30  15  16  1   
 31  15  17  1   
 32  15  41  1   
 33  16  18  1   
 34  16  42  1   
 35  16  43  1   
 36  17  19  1   
 37  17  44  1   
 38  17  45  1   
 39  18  19  1   
 40  18  20  1   
 41  18  46  1   
 42  19  21  1   
 43  19  47  1   
 44  20  48  1   
 45  21  22  1   
 46  21  49  1   
 47  21  50  1   
 48  22  23  ar  
 49  22  24  ar  
 50  23  25  ar  
 51  23  51  1   
 52  24  26  ar  
 53  24  52  1   
 54  25  27  ar  
 55  25  53  1   
 56  26  27  ar  
 57  26  54  1   
@<TRIPOS>SUBSTRUCTURE
  1 ****  13 GROUP 4 **** **** 0

# MOE 2024.06 (io_trps.svl 2023.06)
