@<TRIPOS>MOLECULE
NONAME
54 57 1 0 0 
SMALL
USER_CHARGES


@<TRIPOS>ATOM
  1 O       -0.1160     0.7550    -1.1100 O.2   1 <1>  -0.5700 
  2 C       -0.1410     1.8790    -0.6640 C.2   1 <1>   0.5690 
  3 N       -1.2200     2.3900     0.0100 N.am  1 <1>  -0.5090 
  4 C        1.0820     2.7620    -0.9110 C.3   1 <1>   0.1810 
  5 C       -1.2900     3.8380     0.3910 C.3   1 <1>   0.3640 
  6 C       -2.3780     1.5540     0.4140 C.3   1 <1>   0.0490 
  7 O        1.1040     3.9160    -0.1090 O.3   1 <1>  -0.5600 
  8 C       -2.5920     4.4530    -0.1240 C.ar  1 <1>  -0.1440 
  9 C       -0.0930     4.6660    -0.1430 C.3   1 <1>   0.2610 
 10 C       -2.7420     1.4770     1.8650 C.3   1 <1>  -0.2000 
 11 C       -2.1450     0.2900     1.1800 C.3   1 <1>  -0.2000 
 12 C       -3.3490     5.2640     0.7100 C.ar  1 <1>   0.1600 
 13 C       -3.0390     4.2350    -1.4160 C.ar  1 <1>  -0.1500 
 14 C        0.0700     5.9960     0.6180 C.2   1 <1>   0.5690 
 15 N       -4.4840     5.8540     0.3690 N.ar  1 <1>  -0.6200 
 16 C       -4.2190     4.8420    -1.7850 C.ar  1 <1>  -0.1500 
 17 O       -0.4800     6.1120     1.6920 O.2   1 <1>  -0.5700 
 18 N        0.8040     7.0350     0.0860 N.am  1 <1>  -0.6600 
 19 C       -4.8920     5.6290    -0.8680 C.ar  1 <1>   0.1600 
 20 C        0.9330     8.3340     0.8080 C.3   1 <1>   0.1400 
 21 C        1.6450     6.9420    -1.1410 C.3   1 <1>   0.1400 
 22 C        2.3950     8.5660     1.1950 C.3   1 <1>  -0.1600 
 23 C        3.1120     7.1570    -0.7680 C.3   1 <1>  -0.1600 
 24 C        3.3040     8.4850    -0.0370 C.3   1 <1>   0.2000 
 25 O        4.6350     8.5420     0.3580 O.3   1 <1>  -0.5600 
 26 C        5.1470     9.8150     0.5760 C.3   1 <1>   0.1200 
 27 C        6.6140     9.6580     0.9550 C.3   1 <1>  -0.2400 
 28 H        1.1060     3.0620    -1.9430 H     1 <1>   0.0800 
 29 H        1.9720     2.2000    -0.6950 H     1 <1>   0.0800 
 30 H       -1.2820     3.8770     1.4660 H     1 <1>   0.0800 
 31 H       -3.1710     1.5620    -0.3170 H     1 <1>   0.1000 
 32 H       -0.2910     4.9080    -1.1700 H     1 <1>   0.0800 
 33 H       -2.1430     1.9810     2.6010 H     1 <1>   0.1000 
 34 H       -3.7830     1.4380     2.1330 H     1 <1>   0.1000 
 35 H       -2.7740    -0.5570     0.9730 H     1 <1>   0.1000 
 36 H       -1.1310     0.0070     1.4030 H     1 <1>   0.1000 
 37 H       -3.0030     5.4460     1.7150 H     1 <1>   0.1500 
 38 H       -2.5000     3.6110    -2.1090 H     1 <1>   0.1500 
 39 H       -4.6190     4.7070    -2.7740 H     1 <1>   0.1500 
 40 H       -5.8140     6.0980    -1.1660 H     1 <1>   0.1500 
 41 H        0.5910     9.1270     0.1660 H     1 <1>   0.0800 
 42 H        0.3220     8.3440     1.6950 H     1 <1>   0.0800 
 43 H        1.5450     5.9860    -1.6200 H     1 <1>   0.0800 
 44 H        1.3310     7.6990    -1.8390 H     1 <1>   0.0800 
 45 H        2.6860     7.8170     1.9100 H     1 <1>   0.0800 
 46 H        2.4780     9.5320     1.6570 H     1 <1>   0.0800 
 47 H        3.7120     7.1510    -1.6600 H     1 <1>   0.0800 
 48 H        3.4320     6.3460    -0.1370 H     1 <1>   0.0800 
 49 H        3.1010     9.2980    -0.7140 H     1 <1>   0.0800 
 50 H        5.0510    10.3900    -0.3290 H     1 <1>   0.0800 
 51 H        4.6010    10.2860     1.3750 H     1 <1>   0.0800 
 52 H        7.1500     9.1750     0.1580 H     1 <1>   0.0800 
 53 H        6.7000     9.0700     1.8510 H     1 <1>   0.0800 
 54 H        7.0520    10.6230     1.1320 H     1 <1>   0.0800 
@<TRIPOS>BOND
  1   1   2  2   
  2   2   3  am  
  3   2   4  1   
  4   3   5  1   
  5   3   6  1   
  6   4   7  1   
  7   4  28  1   
  8   4  29  1   
  9   5   8  1   
 10   5   9  1   
 11   5  30  1   
 12   6  10  1   
 13   6  11  1   
 14   6  31  1   
 15   7   9  1   
 16   8  12  ar  
 17   8  13  ar  
 18   9  14  1   
 19   9  32  1   
 20  10  11  1   
 21  10  33  1   
 22  10  34  1   
 23  11  35  1   
 24  11  36  1   
 25  12  15  ar  
 26  12  37  1   
 27  13  16  ar  
 28  13  38  1   
 29  14  17  2   
 30  14  18  am  
 31  15  19  ar  
 32  16  19  ar  
 33  16  39  1   
 34  18  20  1   
 35  18  21  1   
 36  19  40  1   
 37  20  22  1   
 38  20  41  1   
 39  20  42  1   
 40  21  23  1   
 41  21  43  1   
 42  21  44  1   
 43  22  24  1   
 44  22  45  1   
 45  22  46  1   
 46  23  24  1   
 47  23  47  1   
 48  23  48  1   
 49  24  25  1   
 50  24  49  1   
 51  25  26  1   
 52  26  27  1   
 53  26  50  1   
 54  26  51  1   
 55  27  52  1   
 56  27  53  1   
 57  27  54  1   
@<TRIPOS>SUBSTRUCTURE
  1 ****   9 GROUP 4 **** **** 0

# MOE 2024.06 (io_trps.svl 2023.06)
