@<TRIPOS>MOLECULE
NONAME
40 41 1 0 0 
SMALL
USER_CHARGES


@<TRIPOS>ATOM
  1 S        0.5810     0.5660    -0.9350 S.o2  1 <1>   1.3330 
  2 O       -0.4040     1.3550    -1.6400 O.2   1 <1>  -0.6500 
  3 O        0.6810    -0.8500    -1.2140 O.2   1 <1>  -0.6500 
  4 N        0.2750     0.7470     0.7250 N.am  1 <1>  -0.8490 
  5 C        2.2050     1.2950    -1.1500 C.3   1 <1>  -0.0550 
  6 C       -0.8080    -0.1280     1.1760 C.3   1 <1>   0.1160 
  7 C       -0.0180     2.1370     1.1200 C.3   1 <1>   0.1160 
  8 C        3.3850     0.3900    -0.7260 C.3   1 <1>  -0.0800 
  9 C        4.7640     1.0400    -0.7520 C.3   1 <1>   0.2200 
 10 C        3.3200    -0.1550     0.7030 C.3   1 <1>   0.1200 
 11 N        4.7330     2.3550    -0.0760 N.am  1 <1>  -0.7300 
 12 C        5.5420     0.0650     0.1230 C.3   1 <1>   0.1200 
 13 O        4.6430    -0.3820     1.0990 O.3   1 <1>  -0.5600 
 14 C        4.4110     3.5430    -0.6850 C.2   1 <1>   0.5440 
 15 O        4.7320     3.6690    -1.8620 O.2   1 <1>  -0.5700 
 16 C        3.6310     4.5230     0.0380 C.ar  1 <1>   0.3960 
 17 N        3.1810     4.1880     1.2760 N.ar  1 <1>  -0.6200 
 18 C        3.3010     5.7560    -0.5480 C.ar  1 <1>  -0.1500 
 19 C        2.4110     5.0580     1.8820 C.ar  1 <1>   0.1600 
 20 C        2.4890     6.6480     0.0940 C.ar  1 <1>  -0.1500 
 21 C        2.0070     6.2920     1.3500 C.ar  1 <1>  -0.1710 
 22 O        1.2370     7.0520     1.9740 O.3   1 <1>  -0.8290 
 23 H        2.3370     1.5430    -2.1860 H     1 <1>   0.0800 
 24 H        2.2250     2.2120    -0.6040 H     1 <1>   0.0800 
 25 H       -0.9620    -0.0150     2.2350 H     1 <1>   0.0800 
 26 H       -0.5560    -1.1570     0.9790 H     1 <1>   0.0800 
 27 H       -1.7220     0.1100     0.6560 H     1 <1>   0.0800 
 28 H       -0.1550     2.1990     2.1860 H     1 <1>   0.0800 
 29 H       -0.9110     2.4910     0.6330 H     1 <1>   0.0800 
 30 H        0.7950     2.7910     0.8580 H     1 <1>   0.0800 
 31 H        3.4010    -0.4600    -1.3860 H     1 <1>   0.0800 
 32 H        5.1780     1.1300    -1.7430 H     1 <1>   0.0800 
 33 H        2.7670    -1.0760     0.7650 H     1 <1>   0.0800 
 34 H        2.9000     0.5690     1.3810 H     1 <1>   0.0800 
 35 H        4.4480     2.3040     0.9100 H     1 <1>   0.3700 
 36 H        6.3930     0.5230     0.5960 H     1 <1>   0.0800 
 37 H        5.8550    -0.7910    -0.4480 H     1 <1>   0.0800 
 38 H        3.6890     5.9880    -1.5210 H     1 <1>   0.1500 
 39 H        2.0390     4.8350     2.8650 H     1 <1>   0.1500 
 40 H        2.2000     7.5990    -0.3140 H     1 <1>   0.1500 
@<TRIPOS>BOND
  1   1   2  2   
  2   1   3  2   
  3   1   4  am  
  4   1   5  1   
  5   4   6  1   
  6   4   7  1   
  7   5   8  1   
  8   5  23  1   
  9   5  24  1   
 10   6  25  1   
 11   6  26  1   
 12   6  27  1   
 13   7  28  1   
 14   7  29  1   
 15   7  30  1   
 16   8   9  1   
 17   8  10  1   
 18   8  31  1   
 19   9  11  1   
 20   9  12  1   
 21   9  32  1   
 22  10  13  1   
 23  10  33  1   
 24  10  34  1   
 25  11  14  am  
 26  11  35  1   
 27  12  13  1   
 28  12  36  1   
 29  12  37  1   
 30  14  15  2   
 31  14  16  1   
 32  16  17  ar  
 33  16  18  ar  
 34  17  19  ar  
 35  18  20  ar  
 36  18  38  1   
 37  19  21  ar  
 38  19  39  1   
 39  20  21  ar  
 40  20  40  1   
 41  21  22  1   
@<TRIPOS>SUBSTRUCTURE
  1 ****   5 GROUP 4 **** **** 0

# MOE 2024.06 (io_trps.svl 2023.06)
