@<TRIPOS>MOLECULE
NONAME
45 49 1 0 0 
SMALL
USER_CHARGES


@<TRIPOS>ATOM
  1 O       -0.2080     0.9670     1.5330 O.2   1 <1>  -0.5700 
  2 C       -0.6610     1.6410     0.6440 C.2   1 <1>   0.4230 
  3 C       -2.0550     1.7110     0.3000 C.ar  1 <1>   0.0860 
  4 C        0.2980     2.4620    -0.1850 C.3   1 <1>  -0.0990 
  5 C       -2.4850     2.6480    -0.6450 C.ar  1 <1>   0.0820 
  6 C       -3.0130     0.8680     0.8650 C.ar  1 <1>  -0.1500 
  7 C       -0.3590     3.7830    -0.5990 C.3   1 <1>   0.2800 
  8 O       -1.6190     3.5240    -1.2030 O.3   1 <1>  -0.3630 
  9 C       -3.8140     2.7150    -1.0300 C.ar  1 <1>  -0.1500 
 10 C       -4.3410     0.9410     0.4880 C.ar  1 <1>  -0.1500 
 11 C        0.4830     4.6020    -1.5920 C.3   1 <1>   0.1100 
 12 C       -0.5780     4.7610     0.5510 C.3   1 <1>  -0.1600 
 13 C       -4.7440     1.8630    -0.4640 C.ar  1 <1>  -0.1500 
 14 N        0.3530     6.0330    -1.2380 N.3   1 <1>  -0.8100 
 15 C       -0.6280     6.1110    -0.1470 C.3   1 <1>   0.1100 
 16 C        1.6530     6.6250    -0.8540 C.3   1 <1>   0.2900 
 17 C        1.5740     8.1370    -0.7200 C.2   1 <1>  -0.0400 
 18 O        2.5580     8.7580    -0.1000 O.3   1 <1>  -0.2800 
 19 C        0.6480     9.0280    -1.1310 C.2   1 <1>  -0.1500 
 20 C        2.3030    10.0620    -0.0840 C.2   1 <1>   0.1410 
 21 C        1.1190    10.2770    -0.7190 C.2   1 <1>  -0.1500 
 22 C        3.2200    10.9900     0.5430 C.2   1 <1>   0.2880 
 23 N        4.3240    10.6610     1.1740 N.2   1 <1>  -0.7070 
 24 C        3.0470    12.3790     0.5610 C.2   1 <1>  -0.1500 
 25 N        4.8570    11.8190     1.5930 N.pl3 1 <1>   0.3000 
 26 C        4.1030    12.8750     1.2360 C.2   1 <1>  -0.3020 
 27 H        0.5720     1.9010    -1.0590 H     1 <1>   0.0800 
 28 H        1.1910     2.6550     0.3820 H     1 <1>   0.0800 
 29 H       -2.7030     0.1470     1.6020 H     1 <1>   0.1500 
 30 H       -4.1130     3.4390    -1.7670 H     1 <1>   0.1500 
 31 H       -5.0650     0.2790     0.9330 H     1 <1>   0.1500 
 32 H        0.1350     4.4400    -2.5980 H     1 <1>   0.0800 
 33 H        1.5140     4.2970    -1.5360 H     1 <1>   0.0800 
 34 H        0.2610     4.7500     1.2230 H     1 <1>   0.0800 
 35 H       -1.4740     4.5640     1.1120 H     1 <1>   0.0800 
 36 H       -5.7780     1.9160    -0.7610 H     1 <1>   0.1500 
 37 H       -0.4300     6.9240     0.5320 H     1 <1>   0.0800 
 38 H       -1.6050     6.2530    -0.5790 H     1 <1>   0.0800 
 39 H        2.3890     6.4000    -1.6070 H     1 <1>   0.0800 
 40 H        1.9860     6.2040     0.0790 H     1 <1>   0.0800 
 41 H       -0.2640     8.8310    -1.6660 H     1 <1>   0.1500 
 42 H        0.6170    11.2120    -0.8870 H     1 <1>   0.1500 
 43 H        2.2260    12.9110     0.1170 H     1 <1>   0.1500 
 44 H        5.7370    11.8530     2.1220 H     1 <1>   0.2700 
 45 H        4.3580    13.8910     1.4760 H     1 <1>   0.1500 
@<TRIPOS>BOND
  1   1   2  2   
  2   2   3  1   
  3   2   4  1   
  4   3   5  ar  
  5   3   6  ar  
  6   4   7  1   
  7   4  27  1   
  8   4  28  1   
  9   5   8  1   
 10   5   9  ar  
 11   6  10  ar  
 12   6  29  1   
 13   7   8  1   
 14   7  11  1   
 15   7  12  1   
 16   9  13  ar  
 17   9  30  1   
 18  10  13  ar  
 19  10  31  1   
 20  11  14  1   
 21  11  32  1   
 22  11  33  1   
 23  12  15  1   
 24  12  34  1   
 25  12  35  1   
 26  13  36  1   
 27  14  15  1   
 28  14  16  1   
 29  15  37  1   
 30  15  38  1   
 31  16  17  1   
 32  16  39  1   
 33  16  40  1   
 34  17  18  1   
 35  17  19  2   
 36  18  20  1   
 37  19  21  1   
 38  19  41  1   
 39  20  21  2   
 40  20  22  1   
 41  21  42  1   
 42  22  23  2   
 43  22  24  1   
 44  23  25  1   
 45  24  26  2   
 46  24  43  1   
 47  25  26  1   
 48  25  44  1   
 49  26  45  1   
@<TRIPOS>SUBSTRUCTURE
  1 ****  15 GROUP 4 **** **** 0

# MOE 2024.06 (io_trps.svl 2023.06)
