@<TRIPOS>MOLECULE
NONAME
55 58 1 0 0 
SMALL
USER_CHARGES


@<TRIPOS>ATOM
  1 O       -2.1040     0.9140    -2.9610 O.2   1 <1>  -0.5700 
  2 C       -1.7710     1.1750    -1.8230 C.2   1 <1>   0.7160 
  3 N       -1.8760     0.1700    -0.8830 N.am  1 <1>  -0.6600 
  4 C       -1.3420     2.5050    -1.4790 C.2   1 <1>  -0.0860 
  5 C       -2.1750     0.4160     0.5610 C.3   1 <1>   0.1400 
  6 C       -1.9650    -1.2660    -1.2830 C.3   1 <1>   0.1400 
  7 C       -0.2990     2.8660    -0.6290 C.2   1 <1>   0.2350 
  8 C       -1.8210     3.7070    -1.8560 C.2   1 <1>  -0.0400 
  9 C       -3.5490    -0.1740     0.9540 C.3   1 <1>   0.4230 
 10 C       -3.3450    -1.8380    -0.9170 C.3   1 <1>   0.3430 
 11 N       -0.2640     4.1510    -0.5210 N.2   1 <1>  -0.4100 
 12 C        0.6070     1.9660     0.0530 C.ar  1 <1>   0.0540 
 13 O       -1.1840     4.6950    -1.2790 O.3   1 <1>  -0.0190 
 14 C       -2.9500     4.0600    -2.8070 C.3   1 <1>  -0.0600 
 15 N       -3.6880    -1.6310     0.5440 N.4   1 <1>  -0.9590 
 16 C       -4.6930     0.6780     0.3570 C.3   1 <1>   0.1200 
 17 C        0.8620     2.1170     1.4150 C.ar  1 <1>  -0.1500 
 18 C        1.2390     0.9170    -0.6130 C.ar  1 <1>  -0.1500 
 19 C       -5.0710    -2.1110     0.9020 C.3   1 <1>   0.4230 
 20 O       -5.9340     0.1470     0.7230 O.3   1 <1>  -0.5600 
 21 C        1.6880     1.2390     2.0930 C.ar  1 <1>  -0.1500 
 22 C        2.0660     0.0360     0.0590 C.ar  1 <1>  -0.1500 
 23 C       -6.1610    -1.1750     0.3230 C.3   1 <1>   0.1200 
 24 C       -5.2600    -3.5790     0.4880 C.3   1 <1>  -0.1600 
 25 C        2.2880     0.1930     1.4160 C.ar  1 <1>  -0.1500 
 26 C       -6.4860    -4.2220     1.1550 C.3   1 <1>  -0.1600 
 27 C       -6.5930    -5.7040     0.7840 C.3   1 <1>  -0.2400 
 28 H       -1.4020    -0.0320     1.1610 H     1 <1>   0.0800 
 29 H       -2.1750     1.4710     0.7750 H     1 <1>   0.0800 
 30 H       -1.8030    -1.3770    -2.3420 H     1 <1>   0.0800 
 31 H       -1.1920    -1.8230    -0.7820 H     1 <1>   0.0800 
 32 H       -3.6370    -0.1020     2.0260 H     1 <1>   0.0800 
 33 H       -3.3550    -2.8900    -1.1530 H     1 <1>   0.0800 
 34 H       -4.0820    -1.3560    -1.5380 H     1 <1>   0.0800 
 35 H       -3.4090     3.1760    -3.2110 H     1 <1>   0.0800 
 36 H       -2.5650     4.6480    -3.6200 H     1 <1>   0.0800 
 37 H       -3.6980     4.6350    -2.2900 H     1 <1>   0.0800 
 38 H       -3.0200    -2.1740     1.1030 H     1 <1>   0.4500 
 39 H       -4.6380     0.7200    -0.7180 H     1 <1>   0.0800 
 40 H       -4.6480     1.6830     0.7380 H     1 <1>   0.0800 
 41 H        0.4110     2.9390     1.9440 H     1 <1>   0.1500 
 42 H        1.0880     0.7940    -1.6710 H     1 <1>   0.1500 
 43 H       -5.1700    -2.0700     1.9750 H     1 <1>   0.0800 
 44 H        1.8730     1.3750     3.1450 H     1 <1>   0.1500 
 45 H        2.5470    -0.7670    -0.4730 H     1 <1>   0.1500 
 46 H       -7.1310    -1.4560     0.6940 H     1 <1>   0.0800 
 47 H       -6.1850    -1.2130    -0.7520 H     1 <1>   0.0800 
 48 H       -5.3750    -3.6550    -0.5800 H     1 <1>   0.0800 
 49 H       -4.3920    -4.1430     0.7820 H     1 <1>   0.0800 
 50 H        2.9370    -0.4890     1.9400 H     1 <1>   0.1500 
 51 H       -6.4120    -4.1380     2.2270 H     1 <1>   0.0800 
 52 H       -7.3910    -3.7280     0.8440 H     1 <1>   0.0800 
 53 H       -5.7230    -6.2460     1.1120 H     1 <1>   0.0800 
 54 H       -6.6970    -5.8260    -0.2810 H     1 <1>   0.0800 
 55 H       -7.4570    -6.1390     1.2570 H     1 <1>   0.0800 
@<TRIPOS>BOND
  1   1   2  2   
  2   2   3  am  
  3   2   4  1   
  4   3   5  1   
  5   3   6  1   
  6   4   7  1   
  7   4   8  2   
  8   5   9  1   
  9   5  28  1   
 10   5  29  1   
 11   6  10  1   
 12   6  30  1   
 13   6  31  1   
 14   7  11  2   
 15   7  12  1   
 16   8  13  1   
 17   8  14  1   
 18   9  15  1   
 19   9  16  1   
 20   9  32  1   
 21  10  15  1   
 22  10  33  1   
 23  10  34  1   
 24  11  13  1   
 25  12  17  ar  
 26  12  18  ar  
 27  14  35  1   
 28  14  36  1   
 29  14  37  1   
 30  15  19  1   
 31  15  38  1   
 32  16  20  1   
 33  16  39  1   
 34  16  40  1   
 35  17  21  ar  
 36  17  41  1   
 37  18  22  ar  
 38  18  42  1   
 39  19  23  1   
 40  19  24  1   
 41  19  43  1   
 42  20  23  1   
 43  21  25  ar  
 44  21  44  1   
 45  22  25  ar  
 46  22  45  1   
 47  23  46  1   
 48  23  47  1   
 49  24  26  1   
 50  24  48  1   
 51  24  49  1   
 52  25  50  1   
 53  26  27  1   
 54  26  51  1   
 55  26  52  1   
 56  27  53  1   
 57  27  54  1   
 58  27  55  1   
@<TRIPOS>SUBSTRUCTURE
  1 ****   5 GROUP 4 **** **** 0

# MOE 2024.06 (io_trps.svl 2023.06)
