@<TRIPOS>MOLECULE
NONAME
53 55 1 0 0 
SMALL
USER_CHARGES


@<TRIPOS>ATOM
  1 O        3.5970     1.2220     2.6070 O.co2 1 <1>  -0.9000 
  2 C        3.4900     2.1830     1.8550 C.2   1 <1>   0.9060 
  3 O        4.3480     3.0740     1.7490 O.co2 1 <1>  -0.9000 
  4 C        2.3040     2.2390     0.9180 C.3   1 <1>  -0.1860 
  5 C        2.9030     2.2620    -0.4650 C.3   1 <1>   0.3430 
  6 C        1.5170     3.5600     1.0040 C.3   1 <1>  -0.1600 
  7 N        3.2540     3.6870    -0.6130 N.4   1 <1>  -0.9590 
  8 C        2.1290     4.4710    -0.0590 C.3   1 <1>   0.3430 
  9 C        3.8180     4.0960    -1.9150 C.3   1 <1>   0.4860 
 10 C        3.9810     5.6060    -1.9750 C.ar  1 <1>  -0.1430 
 11 C        4.9460     6.2460    -1.2120 C.ar  1 <1>  -0.1500 
 12 C        3.1650     6.3580    -2.8070 C.ar  1 <1>  -0.1500 
 13 C        5.1060     7.6220    -1.2820 C.ar  1 <1>   0.0830 
 14 C        3.3130     7.7320    -2.8760 C.ar  1 <1>  -0.1500 
 15 O        6.0860     8.1630    -0.5170 O.3   1 <1>  -0.3630 
 16 C        4.2800     8.3680    -2.1180 C.ar  1 <1>  -0.1500 
 17 C        6.4240     9.5260    -0.6100 C.3   1 <1>   0.1200 
 18 C        7.6340     9.7610     0.3020 C.3   1 <1>   0.3430 
 19 N        8.1510    11.1690     0.2410 N.4   1 <1>  -0.9590 
 20 C        9.4760    11.2520     0.9260 C.3   1 <1>   0.3430 
 21 C        7.1860    12.1580     0.8150 C.3   1 <1>   0.3430 
 22 C       10.0680    12.6500     0.7390 C.3   1 <1>  -0.1600 
 23 C        7.7270    13.5760     0.6250 C.3   1 <1>  -0.1600 
 24 C        9.1190    13.7420     1.2470 C.3   1 <1>  -0.1600 
 25 H        1.6890     1.3740     1.0790 H     1 <1>   0.0800 
 26 H        2.1720     1.9710    -1.2010 H     1 <1>   0.0800 
 27 H        3.7740     1.6270    -0.5230 H     1 <1>   0.0800 
 28 H        1.6040     4.0000     1.9830 H     1 <1>   0.0800 
 29 H        0.4760     3.4020     0.7870 H     1 <1>   0.0800 
 30 H        3.9950     3.7860     0.1300 H     1 <1>   0.4500 
 31 H        2.4860     5.3920     0.3740 H     1 <1>   0.0800 
 32 H        1.4060     4.6870    -0.8280 H     1 <1>   0.0800 
 33 H        3.1610     3.7790    -2.7070 H     1 <1>   0.0800 
 34 H        4.7760     3.6230    -2.0590 H     1 <1>   0.0800 
 35 H        5.5880     5.6840    -0.5540 H     1 <1>   0.1500 
 36 H        2.4090     5.8850    -3.4120 H     1 <1>   0.1500 
 37 H        2.6740     8.3090    -3.5250 H     1 <1>   0.1500 
 38 H        4.3670     9.4340    -2.1970 H     1 <1>   0.1500 
 39 H        5.5740    10.1000    -0.2890 H     1 <1>   0.0800 
 40 H        6.6720     9.7380    -1.6350 H     1 <1>   0.0800 
 41 H        8.4150     9.0840    -0.0050 H     1 <1>   0.0800 
 42 H        7.3590     9.5200     1.3150 H     1 <1>   0.0800 
 43 H        8.3140    11.4270    -0.7410 H     1 <1>   0.4500 
 44 H       10.1530    10.5190     0.5160 H     1 <1>   0.0800 
 45 H        9.3560    11.0510     1.9790 H     1 <1>   0.0800 
 46 H        7.0480    11.9640     1.8670 H     1 <1>   0.0800 
 47 H        6.2290    12.0760     0.3260 H     1 <1>   0.0800 
 48 H       10.2890    12.8090    -0.3030 H     1 <1>   0.0800 
 49 H       11.0000    12.7120     1.2750 H     1 <1>   0.0800 
 50 H        7.0480    14.2750     1.0840 H     1 <1>   0.0800 
 51 H        7.7630    13.8090    -0.4250 H     1 <1>   0.0800 
 52 H        9.5160    14.7150     1.0050 H     1 <1>   0.0800 
 53 H        9.0430    13.6800     2.3210 H     1 <1>   0.0800 
@<TRIPOS>BOND
  1   1   2  ar  
  2   2   3  ar  
  3   2   4  1   
  4   4   5  1   
  5   4   6  1   
  6   4  25  1   
  7   5   7  1   
  8   5  26  1   
  9   5  27  1   
 10   6   8  1   
 11   6  28  1   
 12   6  29  1   
 13   7   8  1   
 14   7   9  1   
 15   7  30  1   
 16   8  31  1   
 17   8  32  1   
 18   9  10  1   
 19   9  33  1   
 20   9  34  1   
 21  10  11  ar  
 22  10  12  ar  
 23  11  13  ar  
 24  11  35  1   
 25  12  14  ar  
 26  12  36  1   
 27  13  15  1   
 28  13  16  ar  
 29  14  16  ar  
 30  14  37  1   
 31  15  17  1   
 32  16  38  1   
 33  17  18  1   
 34  17  39  1   
 35  17  40  1   
 36  18  19  1   
 37  18  41  1   
 38  18  42  1   
 39  19  20  1   
 40  19  21  1   
 41  19  43  1   
 42  20  22  1   
 43  20  44  1   
 44  20  45  1   
 45  21  23  1   
 46  21  46  1   
 47  21  47  1   
 48  22  24  1   
 49  22  48  1   
 50  22  49  1   
 51  23  24  1   
 52  23  50  1   
 53  23  51  1   
 54  24  52  1   
 55  24  53  1   
@<TRIPOS>SUBSTRUCTURE
  1 ****  13 GROUP 4 **** **** 0

# MOE 2024.06 (io_trps.svl 2023.06)
