@<TRIPOS>MOLECULE
NONAME
43 46 1 0 0 
SMALL
USER_CHARGES


@<TRIPOS>ATOM
  1 CL      -1.6750     0.2750    -0.3960 Cl    1 <1>  -0.1230 
  2 C       -1.7170    -1.3880     0.1450 C.2   1 <1>   0.4120 
  3 N       -1.9920    -1.7440     1.3460 N.2   1 <1>  -0.4100 
  4 C       -1.4580    -2.4700    -0.6860 C.2   1 <1>  -0.1500 
  5 O       -1.9170    -3.0470     1.3340 O.3   1 <1>  -0.0190 
  6 C       -1.6060    -3.5120     0.1480 C.2   1 <1>  -0.0400 
  7 C       -1.4760    -5.0070    -0.0740 C.3   1 <1>   0.0200 
  8 C       -2.8030    -5.7220     0.2260 C.3   1 <1>  -0.0990 
  9 C       -2.7610    -7.2190    -0.0480 C.2   1 <1>   0.5690 
 10 O       -1.6950    -7.7240    -0.3110 O.2   1 <1>  -0.5700 
 11 N       -3.9150    -7.9590     0.0050 N.am  1 <1>  -0.6600 
 12 C       -5.2350    -7.3990     0.4300 C.3   1 <1>   0.1400 
 13 C       -3.8850    -9.4050    -0.3730 C.3   1 <1>   0.1400 
 14 C       -6.1340    -8.5110     0.9650 C.3   1 <1>  -0.1600 
 15 C       -5.2060    -9.8230    -1.0210 C.3   1 <1>  -0.1600 
 16 C       -6.4330    -9.5470    -0.1300 C.3   1 <1>   0.4610 
 17 O       -7.4070    -9.0010    -1.0010 O.3   1 <1>  -0.5600 
 18 C       -6.9500   -10.8510     0.4870 C.2   1 <1>  -0.1810 
 19 C       -8.7690    -9.0710    -0.6430 C.3   1 <1>   0.1200 
 20 C       -8.2070   -11.2630     0.2820 C.2   1 <1>  -0.1400 
 21 C       -6.1950   -11.7530     1.3100 C.2   1 <1>  -0.1500 
 22 C       -9.2440   -10.5270    -0.5220 C.3   1 <1>   0.0200 
 23 S       -8.5340   -12.7910     1.0730 S.3   1 <1>  -0.0800 
 24 C       -6.8940   -12.8350     1.7040 C.2   1 <1>  -0.1100 
 25 H       -1.2070    -2.4270    -1.7280 H     1 <1>   0.1500 
 26 H       -0.7020    -5.3940     0.5670 H     1 <1>   0.0800 
 27 H       -1.1880    -5.1930    -1.0940 H     1 <1>   0.0800 
 28 H       -3.5740    -5.2840    -0.3800 H     1 <1>   0.0800 
 29 H       -3.0520    -5.5730     1.2600 H     1 <1>   0.0800 
 30 H       -5.7080    -6.9250    -0.4140 H     1 <1>   0.0800 
 31 H       -5.0940    -6.6630     1.2030 H     1 <1>   0.0800 
 32 H       -3.7000    -9.9930     0.5090 H     1 <1>   0.0800 
 33 H       -3.0800    -9.5880    -1.0660 H     1 <1>   0.0800 
 34 H       -7.0450    -8.0980     1.3520 H     1 <1>   0.0800 
 35 H       -5.6310    -8.9840     1.7890 H     1 <1>   0.0800 
 36 H       -5.1620   -10.8680    -1.2670 H     1 <1>   0.0800 
 37 H       -5.2970    -9.2830    -1.9470 H     1 <1>   0.0800 
 38 H       -9.3340    -8.5600    -1.4020 H     1 <1>   0.0800 
 39 H       -8.9050    -8.5570     0.2910 H     1 <1>   0.0800 
 40 H       -5.1700   -11.5530     1.5670 H     1 <1>   0.1500 
 41 H       -9.3390   -10.9730    -1.4950 H     1 <1>   0.0800 
 42 H      -10.1980   -10.5600    -0.0270 H     1 <1>   0.0800 
 43 H       -6.6240   -13.6810     2.3110 H     1 <1>   0.1500 
@<TRIPOS>BOND
  1   1   2  1   
  2   2   3  2   
  3   2   4  1   
  4   3   5  1   
  5   4   6  2   
  6   4  25  1   
  7   5   6  1   
  8   6   7  1   
  9   7   8  1   
 10   7  26  1   
 11   7  27  1   
 12   8   9  1   
 13   8  28  1   
 14   8  29  1   
 15   9  10  2   
 16   9  11  am  
 17  11  12  1   
 18  11  13  1   
 19  12  14  1   
 20  12  30  1   
 21  12  31  1   
 22  13  15  1   
 23  13  32  1   
 24  13  33  1   
 25  14  16  1   
 26  14  34  1   
 27  14  35  1   
 28  15  16  1   
 29  15  36  1   
 30  15  37  1   
 31  16  17  1   
 32  16  18  1   
 33  17  19  1   
 34  18  20  2   
 35  18  21  1   
 36  19  22  1   
 37  19  38  1   
 38  19  39  1   
 39  20  22  1   
 40  20  23  1   
 41  21  24  2   
 42  21  40  1   
 43  22  41  1   
 44  22  42  1   
 45  23  24  1   
 46  24  43  1   
@<TRIPOS>SUBSTRUCTURE
  1 ****  12 GROUP 4 **** **** 0

# MOE 2024.06 (io_trps.svl 2023.06)
