@<TRIPOS>MOLECULE
NONAME
58 61 1 0 0 
SMALL
USER_CHARGES


@<TRIPOS>ATOM
  1 O        1.6080     1.9750    -1.9400 O.2   1 <1>  -0.5700 
  2 C        1.2040     2.1060    -0.8010 C.2   1 <1>   0.5440 
  3 N        1.3610     1.1600     0.1710 N.am  1 <1>  -0.6600 
  4 C        0.5370     3.2550    -0.2610 C.ar  1 <1>   0.0860 
  5 C        0.8350     1.6680     1.4700 C.3   1 <1>   0.2840 
  6 C        2.2830    -0.0120     0.0960 C.3   1 <1>   0.1400 
  7 C        0.3150     3.0440     1.0870 C.ar  1 <1>  -0.1440 
  8 C        0.1290     4.4470    -0.8460 C.ar  1 <1>  -0.1500 
  9 C        1.5690    -1.3700    -0.1640 C.3   1 <1>   0.0000 
 10 C       -0.2950     4.0020     1.8740 C.ar  1 <1>  -0.1500 
 11 C       -0.4910     5.4110    -0.0680 C.ar  1 <1>  -0.1500 
 12 C        0.5260    -1.6890     0.9380 C.3   1 <1>  -0.1600 
 13 C        2.6280    -2.5030    -0.1500 C.3   1 <1>  -0.1600 
 14 C        0.9250    -1.3170    -1.5810 C.3   1 <1>  -0.0990 
 15 C       -0.7000     5.1910     1.2870 C.ar  1 <1>  -0.1500 
 16 C        1.1480    -1.8830     2.3300 C.3   1 <1>  -0.1600 
 17 C        3.2620    -2.7530     1.2300 C.3   1 <1>  -0.1600 
 18 C       -0.1000    -2.3960    -1.8950 C.2   1 <1>   0.5690 
 19 C        2.1940    -3.0030     2.3010 C.3   1 <1>  -0.1600 
 20 O        0.2790    -3.4620    -2.3090 O.2   1 <1>  -0.5700 
 21 N       -1.4320    -2.1870    -1.7410 N.am  1 <1>  -0.7300 
 22 C       -2.1470    -0.9750    -1.2580 C.3   1 <1>   0.1400 
 23 C       -3.0400    -1.3200    -0.0660 C.3   1 <1>  -0.0170 
 24 C       -3.6540    -0.0510     0.4990 C.ar  1 <1>   0.1670 
 25 N       -2.8150     0.7980     1.0770 N.ar  1 <1>  -0.6200 
 26 C       -5.0190     0.1650     0.3820 C.ar  1 <1>  -0.1500 
 27 C       -3.3590     1.9120     1.5400 C.ar  1 <1>   0.1600 
 28 C       -5.5710     1.3270     0.8770 C.ar  1 <1>  -0.1500 
 29 C       -4.7070     2.2210     1.4690 C.ar  1 <1>  -0.1500 
 30 H        1.6250     1.7390     2.1970 H     1 <1>   0.0800 
 31 H        0.0350     1.0500     1.8330 H     1 <1>   0.0800 
 32 H        2.8480    -0.0510     1.0080 H     1 <1>   0.0800 
 33 H        2.9870     0.1620    -0.7000 H     1 <1>   0.0800 
 34 H        0.3030     4.6030    -1.8970 H     1 <1>   0.1500 
 35 H       -0.4550     3.8310     2.9250 H     1 <1>   0.1500 
 36 H       -0.8090     6.3370    -0.5170 H     1 <1>   0.1500 
 37 H        0.0170    -2.6050     0.6940 H     1 <1>   0.0800 
 38 H       -0.2210    -0.9200     0.9770 H     1 <1>   0.0800 
 39 H        3.4070    -2.2860    -0.8600 H     1 <1>   0.0800 
 40 H        2.1630    -3.4210    -0.4670 H     1 <1>   0.0800 
 41 H        1.7020    -1.3840    -2.3200 H     1 <1>   0.0800 
 42 H        0.4630    -0.3680    -1.7500 H     1 <1>   0.0800 
 43 H       -1.1780     5.9490     1.8830 H     1 <1>   0.1500 
 44 H        0.3730    -2.1400     3.0310 H     1 <1>   0.0800 
 45 H        1.6030    -0.9710     2.6690 H     1 <1>   0.0800 
 46 H        3.8720    -1.9160     1.5170 H     1 <1>   0.0800 
 47 H        3.9090    -3.6120     1.1700 H     1 <1>   0.0800 
 48 H        1.7010    -3.9380     2.0910 H     1 <1>   0.0800 
 49 H        2.6620    -3.0890     3.2670 H     1 <1>   0.0800 
 50 H       -2.0180    -2.9730    -2.0250 H     1 <1>   0.3700 
 51 H       -2.7450    -0.5730    -2.0570 H     1 <1>   0.0800 
 52 H       -1.4490    -0.2150    -0.9560 H     1 <1>   0.0800 
 53 H       -2.4570    -1.7900     0.7050 H     1 <1>   0.0800 
 54 H       -3.8090    -2.0020    -0.3760 H     1 <1>   0.0800 
 55 H       -5.6500    -0.5630    -0.0950 H     1 <1>   0.1500 
 56 H       -2.6960     2.6210     2.0020 H     1 <1>   0.1500 
 57 H       -6.6260     1.5280     0.8020 H     1 <1>   0.1500 
 58 H       -5.0700     3.1490     1.8720 H     1 <1>   0.1500 
@<TRIPOS>BOND
  1   1   2  2   
  2   2   3  am  
  3   2   4  1   
  4   3   5  1   
  5   3   6  1   
  6   4   7  ar  
  7   4   8  ar  
  8   5   7  1   
  9   5  30  1   
 10   5  31  1   
 11   6   9  1   
 12   6  32  1   
 13   6  33  1   
 14   7  10  ar  
 15   8  11  ar  
 16   8  34  1   
 17   9  12  1   
 18   9  13  1   
 19   9  14  1   
 20  10  15  ar  
 21  10  35  1   
 22  11  15  ar  
 23  11  36  1   
 24  12  16  1   
 25  12  37  1   
 26  12  38  1   
 27  13  17  1   
 28  13  39  1   
 29  13  40  1   
 30  14  18  1   
 31  14  41  1   
 32  14  42  1   
 33  15  43  1   
 34  16  19  1   
 35  16  44  1   
 36  16  45  1   
 37  17  19  1   
 38  17  46  1   
 39  17  47  1   
 40  18  20  2   
 41  18  21  am  
 42  19  48  1   
 43  19  49  1   
 44  21  22  1   
 45  21  50  1   
 46  22  23  1   
 47  22  51  1   
 48  22  52  1   
 49  23  24  1   
 50  23  53  1   
 51  23  54  1   
 52  24  25  ar  
 53  24  26  ar  
 54  25  27  ar  
 55  26  28  ar  
 56  26  55  1   
 57  27  29  ar  
 58  27  56  1   
 59  28  29  ar  
 60  28  57  1   
 61  29  58  1   
@<TRIPOS>SUBSTRUCTURE
  1 ****   3 GROUP 4 **** **** 0

# MOE 2024.06 (io_trps.svl 2023.06)
