@<TRIPOS>MOLECULE
NONAME
45 45 1 0 0 
SMALL
USER_CHARGES


@<TRIPOS>ATOM
  1 O        0.7610     0.5240    -2.8680 O.2   1 <1>  -0.5700 
  2 C        0.9230    -0.1270    -1.8630 C.2   1 <1>   0.5690 
  3 N        1.4100     0.4250    -0.7280 N.am  1 <1>  -0.7300 
  4 C        0.5770    -1.6210    -1.8670 C.3   1 <1>   0.1710 
  5 C        1.8510     1.8150    -0.5440 C.3   1 <1>   0.3640 
  6 N        0.2360    -2.1990    -0.5300 N.3   1 <1>  -0.8100 
  7 C        3.1020     1.8390     0.3450 C.ar  1 <1>   0.1670 
  8 C        0.6850     2.6160     0.0590 C.3   1 <1>  -0.1600 
  9 C        0.2270    -3.6750    -0.5940 C.3   1 <1>   0.1100 
 10 C       -1.0540    -1.6710    -0.0540 C.3   1 <1>   0.0300 
 11 N        3.0400     1.2220     1.5240 N.ar  1 <1>  -0.6200 
 12 C        4.2360     2.4950    -0.1170 C.ar  1 <1>  -0.1500 
 13 C        1.0000     4.1110     0.2150 C.3   1 <1>  -0.2400 
 14 C        0.3460    -4.2970     0.8000 C.3   1 <1>   0.1200 
 15 C        4.1410     1.2700     2.2550 C.ar  1 <1>   0.1600 
 16 C        5.3780     2.5350     0.6550 C.ar  1 <1>  -0.1430 
 17 O        0.3780    -5.6830     0.6610 O.3   1 <1>  -0.5600 
 18 C        5.3130     1.9010     1.8770 C.ar  1 <1>  -0.1500 
 19 C        6.6350     3.2430     0.1840 C.3   1 <1>  -0.0970 
 20 C        0.5280    -6.3640     1.8640 C.3   1 <1>   0.0400 
 21 H        1.5350    -0.1700     0.0980 H     1 <1>   0.3700 
 22 H        1.4380    -2.1310    -2.2620 H     1 <1>   0.0800 
 23 H       -0.2380    -1.7810    -2.5500 H     1 <1>   0.0800 
 24 H        2.0890     2.2290    -1.5090 H     1 <1>   0.0800 
 25 H        0.4390     2.2060     1.0230 H     1 <1>   0.0800 
 26 H       -0.1710     2.5100    -0.5840 H     1 <1>   0.0800 
 27 H        1.0740    -4.0120    -1.1670 H     1 <1>   0.0800 
 28 H       -0.6720    -4.0200    -1.0730 H     1 <1>   0.0800 
 29 H       -1.0280    -0.5950    -0.0150 H     1 <1>   0.0800 
 30 H       -1.2620    -2.0290     0.9390 H     1 <1>   0.0800 
 31 H       -1.8520    -1.9750    -0.7100 H     1 <1>   0.0800 
 32 H        4.2250     2.9720    -1.0800 H     1 <1>   0.1500 
 33 H        1.8200     4.2570     0.8980 H     1 <1>   0.0800 
 34 H        0.1410     4.6270     0.6050 H     1 <1>   0.0800 
 35 H        1.2560     4.5450    -0.7360 H     1 <1>   0.0800 
 36 H       -0.5010    -4.0370     1.4090 H     1 <1>   0.0800 
 37 H        1.2600    -3.9740     1.2680 H     1 <1>   0.0800 
 38 H        4.1080     0.7780     3.2120 H     1 <1>   0.1500 
 39 H        6.1610     1.8910     2.5370 H     1 <1>   0.1500 
 40 H        6.7440     3.1410    -0.8810 H     1 <1>   0.0800 
 41 H        7.5040     2.8220     0.6560 H     1 <1>   0.0800 
 42 H        6.5780     4.2890     0.4290 H     1 <1>   0.0800 
 43 H        0.5410    -7.4180     1.6530 H     1 <1>   0.0800 
 44 H       -0.3020    -6.1330     2.5100 H     1 <1>   0.0800 
 45 H        1.4580    -6.0740     2.3220 H     1 <1>   0.0800 
@<TRIPOS>BOND
  1   1   2  2   
  2   2   3  am  
  3   2   4  1   
  4   3   5  1   
  5   3  21  1   
  6   4   6  1   
  7   4  22  1   
  8   4  23  1   
  9   5   7  1   
 10   5   8  1   
 11   5  24  1   
 12   6   9  1   
 13   6  10  1   
 14   7  11  ar  
 15   7  12  ar  
 16   8  13  1   
 17   8  25  1   
 18   8  26  1   
 19   9  14  1   
 20   9  27  1   
 21   9  28  1   
 22  10  29  1   
 23  10  30  1   
 24  10  31  1   
 25  11  15  ar  
 26  12  16  ar  
 27  12  32  1   
 28  13  33  1   
 29  13  34  1   
 30  13  35  1   
 31  14  17  1   
 32  14  36  1   
 33  14  37  1   
 34  15  18  ar  
 35  15  38  1   
 36  16  18  ar  
 37  16  19  1   
 38  17  20  1   
 39  18  39  1   
 40  19  40  1   
 41  19  41  1   
 42  19  42  1   
 43  20  43  1   
 44  20  44  1   
 45  20  45  1   
@<TRIPOS>SUBSTRUCTURE
  1 ****   3 GROUP 4 **** **** 0

# MOE 2024.06 (io_trps.svl 2023.06)
