@<TRIPOS>MOLECULE
NONAME
53 54 1 0 0 
SMALL
USER_CHARGES


@<TRIPOS>ATOM
  1 O       -2.0850     0.1380     2.0130 O.2   1 <1>  -0.5700 
  2 C       -1.9590     0.6400     0.9200 C.2   1 <1>   0.5690 
  3 N       -2.0650    -0.1330    -0.2180 N.am  1 <1>  -0.6600 
  4 C       -1.7050     2.1540     0.9040 C.3   1 <1>  -0.0190 
  5 C       -2.2670    -1.6090    -0.0870 C.3   1 <1>   0.1400 
  6 C       -2.0140     0.3360    -1.6340 C.3   1 <1>   0.0600 
  7 C       -2.8910     2.9650     0.3360 C.3   1 <1>  -0.1600 
  8 C       -0.3350     2.5460     0.2950 C.3   1 <1>  -0.1600 
  9 C       -3.7370    -1.9270     0.1800 C.3   1 <1>   0.1200 
 10 C       -2.6910     4.4870     0.4900 C.3   1 <1>   0.2000 
 11 C       -0.3240     3.9550    -0.3260 C.3   1 <1>  -0.1600 
 12 O       -3.9260    -3.3180     0.0350 O.3   1 <1>  -0.3620 
 13 O       -3.3570     5.1160    -0.5780 O.3   1 <1>  -0.5600 
 14 C       -1.1980     4.9130     0.4860 C.3   1 <1>   0.2000 
 15 C       -5.1560    -3.8850     0.1580 C.ar  1 <1>   0.0820 
 16 C       -4.7250     5.3120    -0.3890 C.3   1 <1>   0.0400 
 17 O       -1.0840     6.1690    -0.0730 O.3   1 <1>  -0.6800 
 18 C       -5.2730    -5.2400    -0.1350 C.ar  1 <1>  -0.1440 
 19 C       -6.2820    -3.1670     0.5580 C.ar  1 <1>  -0.1500 
 20 C       -6.5100    -5.8560    -0.0310 C.ar  1 <1>  -0.1500 
 21 C       -4.0590    -6.0490    -0.5680 C.3   1 <1>  -0.0970 
 22 C       -7.5140    -3.7890     0.6620 C.ar  1 <1>  -0.1440 
 23 C       -7.6230    -5.1360     0.3630 C.ar  1 <1>  -0.1500 
 24 C       -8.7380    -3.0020     1.0970 C.3   1 <1>  -0.0970 
 25 H       -1.6480     2.4400     1.9410 H     1 <1>   0.0800 
 26 H       -1.9520    -2.1010    -0.9900 H     1 <1>   0.0800 
 27 H       -1.6710    -1.9830     0.7290 H     1 <1>   0.0800 
 28 H       -1.2830    -0.2360    -2.1780 H     1 <1>   0.0800 
 29 H       -1.7450     1.3710    -1.7080 H     1 <1>   0.0800 
 30 H       -2.9770     0.1980    -2.0940 H     1 <1>   0.0800 
 31 H       -3.7890     2.6750     0.8520 H     1 <1>   0.0800 
 32 H       -3.0210     2.7380    -0.7040 H     1 <1>   0.0800 
 33 H        0.4000     2.5060     1.0810 H     1 <1>   0.0800 
 34 H       -0.0180     1.8380    -0.4480 H     1 <1>   0.0800 
 35 H       -4.3660    -1.4290    -0.5350 H     1 <1>   0.0800 
 36 H       -4.0010    -1.6470     1.1850 H     1 <1>   0.0800 
 37 H       -3.1220     4.8240     1.4180 H     1 <1>   0.0800 
 38 H       -0.7050     3.9060    -1.3310 H     1 <1>   0.0800 
 39 H        0.6870     4.3240    -0.3630 H     1 <1>   0.0800 
 40 H       -0.8230     4.9660     1.4940 H     1 <1>   0.0800 
 41 H       -5.1170     5.7970    -1.2660 H     1 <1>   0.0800 
 42 H       -4.8780     5.9410     0.4700 H     1 <1>   0.0800 
 43 H       -5.2100     4.3610    -0.2550 H     1 <1>   0.0800 
 44 H       -1.8490     6.2570    -0.6870 H     1 <1>   0.4000 
 45 H       -6.2140    -2.1230     0.7950 H     1 <1>   0.1500 
 46 H       -6.6140    -6.9030    -0.2570 H     1 <1>   0.1500 
 47 H       -4.3180    -7.0770    -0.7440 H     1 <1>   0.0800 
 48 H       -3.3060    -6.0100     0.1990 H     1 <1>   0.0800 
 49 H       -3.6520    -5.6350    -1.4730 H     1 <1>   0.0800 
 50 H       -8.5750    -5.6310     0.4360 H     1 <1>   0.1500 
 51 H       -9.4270    -3.6400     1.6210 H     1 <1>   0.0800 
 52 H       -9.2310    -2.5920     0.2350 H     1 <1>   0.0800 
 53 H       -8.4560    -2.1990     1.7530 H     1 <1>   0.0800 
@<TRIPOS>BOND
  1   1   2  2   
  2   2   3  am  
  3   2   4  1   
  4   3   5  1   
  5   3   6  1   
  6   4   7  1   
  7   4   8  1   
  8   4  25  1   
  9   5   9  1   
 10   5  26  1   
 11   5  27  1   
 12   6  28  1   
 13   6  29  1   
 14   6  30  1   
 15   7  10  1   
 16   7  31  1   
 17   7  32  1   
 18   8  11  1   
 19   8  33  1   
 20   8  34  1   
 21   9  12  1   
 22   9  35  1   
 23   9  36  1   
 24  10  13  1   
 25  10  14  1   
 26  10  37  1   
 27  11  14  1   
 28  11  38  1   
 29  11  39  1   
 30  12  15  1   
 31  13  16  1   
 32  14  17  1   
 33  14  40  1   
 34  15  18  ar  
 35  15  19  ar  
 36  16  41  1   
 37  16  42  1   
 38  16  43  1   
 39  17  44  1   
 40  18  20  ar  
 41  18  21  1   
 42  19  22  ar  
 43  19  45  1   
 44  20  23  ar  
 45  20  46  1   
 46  21  47  1   
 47  21  48  1   
 48  21  49  1   
 49  22  23  ar  
 50  22  24  1   
 51  23  50  1   
 52  24  51  1   
 53  24  52  1   
 54  24  53  1   
@<TRIPOS>SUBSTRUCTURE
  1 ****   3 GROUP 4 **** **** 0

# MOE 2024.06 (io_trps.svl 2023.06)
