@<TRIPOS>MOLECULE
NONAME
43 46 1 0 0 
SMALL
USER_CHARGES


@<TRIPOS>ATOM
  1 N        0.8330     0.4610     1.1160 N.ar  1 <1>  -0.6200 
  2 C       -0.0950     1.3260     1.5110 C.ar  1 <1>   0.4760 
  3 C        1.4470     0.8070     0.0080 C.ar  1 <1>   0.1660 
  4 N       -0.4440     2.4670     0.9320 N.ar  1 <1>  -0.6200 
  5 C       -0.8420     0.9770     2.7750 C.3   1 <1>  -0.0960 
  6 C        1.1780     1.9530    -0.6750 C.ar  1 <1>  -0.1440 
  7 C        2.5380     0.0000    -0.6530 C.3   1 <1>   0.1430 
  8 C        0.2040     2.7780    -0.1720 C.ar  1 <1>   0.1600 
  9 C        2.0490     2.0910    -1.8990 C.3   1 <1>  -0.0160 
 10 C        3.5610    -0.4020     0.4220 C.3   1 <1>   0.3430 
 11 C        1.9430    -1.2570    -1.3230 C.3   1 <1>  -0.1600 
 12 C        3.1180     1.0010    -1.6900 C.3   1 <1>  -0.1600 
 13 N        4.6040    -1.3280    -0.1280 N.4   1 <1>  -0.9590 
 14 C        3.0350    -2.2350    -1.7980 C.3   1 <1>  -0.1600 
 15 C        4.0300    -2.5800    -0.6850 C.3   1 <1>   0.3430 
 16 C        5.7100    -1.5340     0.8400 C.3   1 <1>   0.5230 
 17 C        6.6460    -0.3380     0.7070 C.2   1 <1>   0.0070 
 18 N        6.6020     0.4900    -0.2950 N.2   1 <1>  -0.5650 
 19 N        7.6070    -0.0340     1.6130 N.pl3 1 <1>   0.0330 
 20 C        7.5810     1.3760    -0.0270 C.2   1 <1>   0.0770 
 21 C        8.2010     1.0710     1.1320 C.2   1 <1>  -0.3020 
 22 H       -0.7640    -0.0750     2.9800 H     1 <1>   0.0800 
 23 H       -1.8790     1.2330     2.6660 H     1 <1>   0.0800 
 24 H       -0.4280     1.5300     3.5960 H     1 <1>   0.0800 
 25 H       -0.0500     3.6980    -0.6720 H     1 <1>   0.1500 
 26 H        2.4890     3.0720    -1.9670 H     1 <1>   0.0800 
 27 H        1.4650     1.8920    -2.7820 H     1 <1>   0.0800 
 28 H        3.0350    -0.8830     1.2300 H     1 <1>   0.0800 
 29 H        4.0240     0.4910     0.8100 H     1 <1>   0.0800 
 30 H        1.3160    -0.9710    -2.1520 H     1 <1>   0.0800 
 31 H        1.3130    -1.7640    -0.6110 H     1 <1>   0.0800 
 32 H        3.3840     0.5370    -2.6220 H     1 <1>   0.0800 
 33 H        3.9970     1.4730    -1.2850 H     1 <1>   0.0800 
 34 H        5.0780    -0.7930    -0.8800 H     1 <1>   0.4500 
 35 H        3.5700    -1.8200    -2.6340 H     1 <1>   0.0800 
 36 H        2.5690    -3.1420    -2.1410 H     1 <1>   0.0800 
 37 H        3.5210    -3.1260     0.0930 H     1 <1>   0.0800 
 38 H        4.8140    -3.2030    -1.0860 H     1 <1>   0.0800 
 39 H        6.2550    -2.4310     0.5970 H     1 <1>   0.0800 
 40 H        5.3250    -1.6120     1.8440 H     1 <1>   0.0800 
 41 H        7.8550    -0.5210     2.4830 H     1 <1>   0.2700 
 42 H        7.7950     2.2000    -0.6900 H     1 <1>   0.1500 
 43 H        9.0170     1.5720     1.6240 H     1 <1>   0.1500 
@<TRIPOS>BOND
  1   1   2  ar  
  2   1   3  ar  
  3   2   4  ar  
  4   2   5  1   
  5   3   6  ar  
  6   3   7  1   
  7   4   8  ar  
  8   5  22  1   
  9   5  23  1   
 10   5  24  1   
 11   6   8  ar  
 12   6   9  1   
 13   7  10  1   
 14   7  11  1   
 15   7  12  1   
 16   8  25  1   
 17   9  12  1   
 18   9  26  1   
 19   9  27  1   
 20  10  13  1   
 21  10  28  1   
 22  10  29  1   
 23  11  14  1   
 24  11  30  1   
 25  11  31  1   
 26  12  32  1   
 27  12  33  1   
 28  13  15  1   
 29  13  16  1   
 30  13  34  1   
 31  14  15  1   
 32  14  35  1   
 33  14  36  1   
 34  15  37  1   
 35  15  38  1   
 36  16  17  1   
 37  16  39  1   
 38  16  40  1   
 39  17  18  2   
 40  17  19  1   
 41  18  20  1   
 42  19  21  1   
 43  19  41  1   
 44  20  21  2   
 45  20  42  1   
 46  21  43  1   
@<TRIPOS>SUBSTRUCTURE
  1 ****  10 GROUP 4 **** **** 0

# MOE 2024.06 (io_trps.svl 2023.06)
