@<TRIPOS>MOLECULE
NONAME
50 52 1 0 0 
SMALL
USER_CHARGES


@<TRIPOS>ATOM
  1 F       -0.5760     0.6990    -0.0390 F     1 <1>  -0.1900 
  2 C       -1.8710     0.8850    -0.0640 C.ar  1 <1>   0.1900 
  3 C       -2.5270     1.6710     0.8910 C.ar  1 <1>   0.0830 
  4 C       -2.5610     0.2660    -1.0890 C.ar  1 <1>  -0.1500 
  5 O       -1.9600     2.3290     1.9420 O.3   1 <1>  -0.3630 
  6 C       -3.9010     1.8080     0.7750 C.ar  1 <1>  -0.1500 
  7 C       -3.9320     0.4260    -1.1750 C.ar  1 <1>  -0.1500 
  8 C       -0.5830     2.2630     2.2400 C.3   1 <1>   0.0400 
  9 C       -4.6320     1.1950    -0.2440 C.ar  1 <1>   0.0530 
 10 C       -6.0600     1.3740    -0.3260 C.2   1 <1>   0.0870 
 11 O       -6.5740     2.5510    -0.0710 O.3   1 <1>  -0.0190 
 12 C       -7.0980     0.5490    -0.6400 C.2   1 <1>  -0.0860 
 13 N       -7.8720     2.5830    -0.1980 N.2   1 <1>  -0.4100 
 14 C       -8.2150     1.3910    -0.5400 C.2   1 <1>   0.3720 
 15 C       -7.1250    -0.8430    -0.9770 C.2   1 <1>   0.7160 
 16 N       -9.5520     1.0120    -0.7510 N.pl3 1 <1>  -0.8210 
 17 O       -6.1720    -1.5710    -0.7710 O.2   1 <1>  -0.5700 
 18 N       -8.2450    -1.3870    -1.5260 N.am  1 <1>  -0.7300 
 19 C      -10.2250     0.5720     0.5010 C.3   1 <1>   0.1290 
 20 C      -10.3660     2.0300    -1.4760 C.3   1 <1>   0.1290 
 21 C       -8.5170    -2.8160    -1.7560 C.3   1 <1>   0.1400 
 22 C       -9.5110    -3.2900    -0.7000 C.3   1 <1>  -0.1600 
 23 C       -9.8150    -4.7840    -0.8560 C.3   1 <1>   0.0960 
 24 N      -10.8120    -5.2120     0.1420 N.pl3 1 <1>   0.3140 
 25 N      -12.1330    -5.0710    -0.0700 N.2   1 <1>  -0.7070 
 26 C      -10.5660    -5.7620     1.3480 C.2   1 <1>  -0.3020 
 27 C      -12.6940    -5.5380     1.0030 C.2   1 <1>   0.1390 
 28 C      -11.7630    -5.9860     1.9310 C.2   1 <1>  -0.1500 
 29 H       -2.0310    -0.3320    -1.8080 H     1 <1>   0.1500 
 30 H       -4.4160     2.4100     1.5020 H     1 <1>   0.1500 
 31 H       -4.4670    -0.0540    -1.9750 H     1 <1>   0.1500 
 32 H       -0.4040     2.8460     3.1250 H     1 <1>   0.0800 
 33 H       -0.0260     2.6720     1.4160 H     1 <1>   0.0800 
 34 H       -0.3120     1.2370     2.4180 H     1 <1>   0.0800 
 35 H       -9.0500    -0.7430    -1.5640 H     1 <1>   0.3700 
 36 H       -9.6310    -0.1780     0.9950 H     1 <1>   0.0800 
 37 H      -11.1910     0.1530     0.2750 H     1 <1>   0.0800 
 38 H      -10.3490     1.4090     1.1680 H     1 <1>   0.0800 
 39 H       -9.8260     2.3830    -2.3380 H     1 <1>   0.0800 
 40 H      -10.5740     2.8680    -0.8320 H     1 <1>   0.0800 
 41 H      -11.2940     1.5940    -1.8040 H     1 <1>   0.0800 
 42 H       -7.6000    -3.3800    -1.6870 H     1 <1>   0.0800 
 43 H       -8.9250    -2.9450    -2.7440 H     1 <1>   0.0800 
 44 H      -10.4280    -2.7340    -0.8010 H     1 <1>   0.0800 
 45 H       -9.0970    -3.1150     0.2780 H     1 <1>   0.0800 
 46 H       -8.9220    -5.3670    -0.7230 H     1 <1>   0.0800 
 47 H      -10.2170    -4.9830    -1.8330 H     1 <1>   0.0800 
 48 H       -9.5760    -5.9580     1.7170 H     1 <1>   0.1500 
 49 H      -13.7620    -5.5700     1.1470 H     1 <1>   0.1500 
 50 H      -11.9800    -6.4120     2.8940 H     1 <1>   0.1500 
@<TRIPOS>BOND
  1   1   2  1   
  2   2   3  ar  
  3   2   4  ar  
  4   3   5  1   
  5   3   6  ar  
  6   4   7  ar  
  7   4  29  1   
  8   5   8  1   
  9   6   9  ar  
 10   6  30  1   
 11   7   9  ar  
 12   7  31  1   
 13   8  32  1   
 14   8  33  1   
 15   8  34  1   
 16   9  10  1   
 17  10  11  1   
 18  10  12  2   
 19  11  13  1   
 20  12  14  1   
 21  12  15  1   
 22  13  14  2   
 23  14  16  1   
 24  15  17  2   
 25  15  18  am  
 26  16  19  1   
 27  16  20  1   
 28  18  21  1   
 29  18  35  1   
 30  19  36  1   
 31  19  37  1   
 32  19  38  1   
 33  20  39  1   
 34  20  40  1   
 35  20  41  1   
 36  21  22  1   
 37  21  42  1   
 38  21  43  1   
 39  22  23  1   
 40  22  44  1   
 41  22  45  1   
 42  23  24  1   
 43  23  46  1   
 44  23  47  1   
 45  24  25  1   
 46  24  26  1   
 47  25  27  2   
 48  26  28  2   
 49  26  48  1   
 50  27  28  1   
 51  27  49  1   
 52  28  50  1   
@<TRIPOS>SUBSTRUCTURE
  1 ****  15 GROUP 4 **** **** 0

# MOE 2024.06 (io_trps.svl 2023.06)
