@<TRIPOS>MOLECULE
NONAME
47 49 1 0 0 
SMALL
USER_CHARGES


@<TRIPOS>ATOM
  1 S        1.1480    -0.7320     3.0560 S.3   1 <1>  -0.0800 
  2 C        1.6870    -1.5840     1.6210 C.2   1 <1>  -0.1100 
  3 C        1.3740     0.8180     2.2660 C.2   1 <1>  -0.1100 
  4 C        2.0130    -0.7220     0.6370 C.2   1 <1>  -0.1810 
  5 C        1.8280     0.6510     1.0110 C.2   1 <1>  -0.1500 
  6 C        2.5210    -1.0750    -0.7560 C.3   1 <1>   0.3210 
  7 N        2.9980    -2.4850    -0.8120 N.am  1 <1>  -0.6600 
  8 C        2.3120    -3.4450    -1.5380 C.2   1 <1>   0.7160 
  9 C        4.2640    -2.7510    -0.0670 C.3   1 <1>   0.1400 
 10 O        1.4770    -3.0540    -2.3400 O.2   1 <1>  -0.5700 
 11 C        2.5440    -4.8850    -1.4180 C.2   1 <1>   0.2030 
 12 C        5.4340    -3.0870    -1.0120 C.3   1 <1>  -0.0800 
 13 N        3.0310    -5.5490    -0.3780 N.2   1 <1>  -0.7070 
 14 C        2.2510    -5.7830    -2.4440 C.2   1 <1>  -0.1500 
 15 C        6.6930    -3.3920    -0.1920 C.3   1 <1>  -0.2400 
 16 C        5.7290    -1.9520    -2.0050 C.3   1 <1>  -0.2400 
 17 N        3.0510    -6.8320    -0.7430 N.pl3 1 <1>   0.3140 
 18 C        2.5680    -7.0230    -1.9930 C.2   1 <1>  -0.2370 
 19 C        3.6650    -7.8640     0.1190 C.3   1 <1>   0.0960 
 20 C        2.4330    -8.3090    -2.6110 C.2   1 <1>   0.7150 
 21 C        2.6770    -8.9660     0.5440 C.3   1 <1>   0.2000 
 22 O        2.5230    -8.4640    -3.8080 O.2   1 <1>  -0.5700 
 23 N        2.1590    -9.4040    -1.8590 N.am  1 <1>  -0.7300 
 24 O        3.4140   -10.1180     0.7760 O.3   1 <1>  -0.6800 
 25 C        1.5870    -9.3100    -0.4900 C.3   1 <1>   0.1400 
 26 H        1.7040    -2.6590     1.6610 H     1 <1>   0.1500 
 27 H        1.1380     1.7000     2.8340 H     1 <1>   0.1500 
 28 H        2.0430     1.4490     0.3220 H     1 <1>   0.1500 
 29 H        3.3400    -0.4250    -1.0120 H     1 <1>   0.0800 
 30 H        1.7340    -0.8980    -1.4670 H     1 <1>   0.0800 
 31 H        4.1080    -3.5560     0.6290 H     1 <1>   0.0800 
 32 H        4.5260    -1.8850     0.5180 H     1 <1>   0.0800 
 33 H        5.1860    -3.9760    -1.5670 H     1 <1>   0.0800 
 34 H        1.8390    -5.5180    -3.4030 H     1 <1>   0.1500 
 35 H        6.9910    -2.5330     0.3830 H     1 <1>   0.0800 
 36 H        7.5050    -3.6680    -0.8430 H     1 <1>   0.0800 
 37 H        6.5090    -4.2110     0.4810 H     1 <1>   0.0800 
 38 H        5.9570    -1.0400    -1.4830 H     1 <1>   0.0800 
 39 H        4.8820    -1.7830    -2.6460 H     1 <1>   0.0800 
 40 H        6.5670    -2.2110    -2.6280 H     1 <1>   0.0800 
 41 H        4.0650    -7.3850     0.9940 H     1 <1>   0.0800 
 42 H        4.4780    -8.2950    -0.4350 H     1 <1>   0.0800 
 43 H        2.2140    -8.6950     1.4770 H     1 <1>   0.0800 
 44 H        1.9410   -10.2420    -2.4030 H     1 <1>   0.3700 
 45 H        3.7110   -10.5000    -0.0760 H     1 <1>   0.4000 
 46 H        0.8350    -8.5380    -0.4790 H     1 <1>   0.0800 
 47 H        1.1060   -10.2350    -0.2220 H     1 <1>   0.0800 
@<TRIPOS>BOND
  1   1   2  1   
  2   1   3  1   
  3   2   4  2   
  4   2  26  1   
  5   3   5  2   
  6   3  27  1   
  7   4   5  1   
  8   4   6  1   
  9   5  28  1   
 10   6   7  1   
 11   6  29  1   
 12   6  30  1   
 13   7   8  am  
 14   7   9  1   
 15   8  10  2   
 16   8  11  1   
 17   9  12  1   
 18   9  31  1   
 19   9  32  1   
 20  11  13  2   
 21  11  14  1   
 22  12  15  1   
 23  12  16  1   
 24  12  33  1   
 25  13  17  1   
 26  14  18  2   
 27  14  34  1   
 28  15  35  1   
 29  15  36  1   
 30  15  37  1   
 31  16  38  1   
 32  16  39  1   
 33  16  40  1   
 34  17  18  1   
 35  17  19  1   
 36  18  20  1   
 37  19  21  1   
 38  19  41  1   
 39  19  42  1   
 40  20  22  2   
 41  20  23  am  
 42  21  24  1   
 43  21  25  1   
 44  21  43  1   
 45  23  25  1   
 46  23  44  1   
 47  24  45  1   
 48  25  46  1   
 49  25  47  1   
@<TRIPOS>SUBSTRUCTURE
  1 ****  11 GROUP 4 **** **** 0

# MOE 2024.06 (io_trps.svl 2023.06)
