@<TRIPOS>MOLECULE
NONAME
46 49 1 0 0 
SMALL
USER_CHARGES


@<TRIPOS>ATOM
  1 CL      -1.5810    -0.8100    -2.1470 Cl    1 <1>  -0.1770 
  2 C       -2.2450     0.3520    -1.0220 C.ar  1 <1>   0.1770 
  3 C       -2.8630    -0.0990     0.1460 C.ar  1 <1>  -0.1440 
  4 C       -2.1520     1.6980    -1.3390 C.ar  1 <1>  -0.1500 
  5 C       -3.4070     0.8310     1.0290 C.ar  1 <1>  -0.1500 
  6 C       -2.9460    -1.5810     0.4590 C.3   1 <1>   0.4870 
  7 C       -2.7040     2.5920    -0.4450 C.ar  1 <1>   0.0820 
  8 C       -3.3130     2.1690     0.7020 C.ar  1 <1>   0.0820 
  9 N       -3.8580    -2.2530    -0.5070 N.4   1 <1>  -0.9590 
 10 O       -2.7470     3.9240    -0.5230 O.3   1 <1>  -0.3630 
 11 O       -3.7670     3.2170     1.3940 O.3   1 <1>  -0.3620 
 12 C       -3.9210    -3.7320    -0.2450 C.3   1 <1>   0.5660 
 13 C       -5.2070    -1.6090    -0.6040 C.3   1 <1>   0.3430 
 14 C       -3.4110     4.3860     0.6530 C.3   1 <1>   0.4000 
 15 C       -2.5520    -4.2680    -0.6550 C.ar  1 <1>  -0.1440 
 16 C       -5.0870    -4.4800    -0.9710 C.3   1 <1>   0.2000 
 17 C       -6.1210    -2.4080    -1.5410 C.3   1 <1>   0.1200 
 18 C       -2.1100    -4.2040    -1.9730 C.ar  1 <1>  -0.1500 
 19 C       -1.7160    -4.8150     0.3100 C.ar  1 <1>  -0.1500 
 20 O       -6.2590    -3.7040    -1.0490 O.3   1 <1>  -0.5600 
 21 C       -5.5000    -5.7670    -0.2350 C.3   1 <1>   0.1200 
 22 C       -0.8520    -4.6680    -2.3120 C.ar  1 <1>  -0.1500 
 23 C       -0.4590    -5.2790    -0.0310 C.ar  1 <1>  -0.1500 
 24 O       -4.4000    -6.4290     0.2940 O.3   1 <1>  -0.6800 
 25 C       -0.0250    -5.2030    -1.3420 C.ar  1 <1>  -0.1500 
 26 H       -1.6720     2.0390    -2.2390 H     1 <1>   0.1500 
 27 H       -3.8900     0.5500     1.9500 H     1 <1>   0.1500 
 28 H       -3.3090    -1.7170     1.4650 H     1 <1>   0.0800 
 29 H       -1.9590    -2.0120     0.3940 H     1 <1>   0.0800 
 30 H       -3.3920    -2.1640    -1.4190 H     1 <1>   0.4500 
 31 H       -4.0530    -3.8980     0.8120 H     1 <1>   0.0800 
 32 H       -5.6680    -1.5620     0.3690 H     1 <1>   0.0800 
 33 H       -5.1090    -0.6020    -0.9770 H     1 <1>   0.0800 
 34 H       -2.7370     4.9910     1.2340 H     1 <1>   0.0800 
 35 H       -4.2990     4.9280     0.3800 H     1 <1>   0.0800 
 36 H       -4.7990    -4.7290    -1.9770 H     1 <1>   0.0800 
 37 H       -5.7290    -2.4480    -2.5430 H     1 <1>   0.0800 
 38 H       -7.1010    -1.9640    -1.5700 H     1 <1>   0.0800 
 39 H       -2.7270    -3.7970    -2.7560 H     1 <1>   0.1500 
 40 H       -2.0360    -4.8980     1.3360 H     1 <1>   0.1500 
 41 H       -6.0240    -6.4390    -0.8930 H     1 <1>   0.0800 
 42 H       -6.1410    -5.5190     0.5940 H     1 <1>   0.0800 
 43 H       -0.5100    -4.6150    -3.3320 H     1 <1>   0.1500 
 44 H        0.1840    -5.7050     0.7210 H     1 <1>   0.1500 
 45 H       -4.0680    -7.1210    -0.3170 H     1 <1>   0.4000 
 46 H        0.9550    -5.5640    -1.6070 H     1 <1>   0.1500 
@<TRIPOS>BOND
  1   1   2  1   
  2   2   3  ar  
  3   2   4  ar  
  4   3   5  ar  
  5   3   6  1   
  6   4   7  ar  
  7   4  26  1   
  8   5   8  ar  
  9   5  27  1   
 10   6   9  1   
 11   6  28  1   
 12   6  29  1   
 13   7   8  ar  
 14   7  10  1   
 15   8  11  1   
 16   9  12  1   
 17   9  13  1   
 18   9  30  1   
 19  10  14  1   
 20  11  14  1   
 21  12  15  1   
 22  12  16  1   
 23  12  31  1   
 24  13  17  1   
 25  13  32  1   
 26  13  33  1   
 27  14  34  1   
 28  14  35  1   
 29  15  18  ar  
 30  15  19  ar  
 31  16  20  1   
 32  16  21  1   
 33  16  36  1   
 34  17  20  1   
 35  17  37  1   
 36  17  38  1   
 37  18  22  ar  
 38  18  39  1   
 39  19  23  ar  
 40  19  40  1   
 41  21  24  1   
 42  21  41  1   
 43  21  42  1   
 44  22  25  ar  
 45  22  43  1   
 46  23  25  ar  
 47  23  44  1   
 48  24  45  1   
 49  25  46  1   
@<TRIPOS>SUBSTRUCTURE
  1 ****   9 GROUP 4 **** **** 0

# MOE 2024.06 (io_trps.svl 2023.06)
