@<TRIPOS>MOLECULE
NONAME
50 51 1 0 0 
SMALL
USER_CHARGES


@<TRIPOS>ATOM
  1 S       -0.6910    -0.4880    -1.5630 S.3   1 <1>  -0.0800 
  2 C        0.5980     0.4740    -0.8740 C.2   1 <1>   0.1980 
  3 C       -1.8400     0.4040    -0.6040 C.2   1 <1>  -0.1400 
  4 N        0.2010     1.3440    -0.0330 N.2   1 <1>  -0.5650 
  5 C        2.0070     0.1620    -1.3500 C.3   1 <1>   0.0200 
  6 C       -1.1730     1.3110     0.1270 C.2   1 <1>   0.0460 
  7 C       -3.3010     0.0350    -0.7430 C.3   1 <1>   0.3200 
  8 C        3.0760     1.0400    -0.6850 C.3   1 <1>  -0.2400 
  9 C       -1.7510     2.3030     1.1130 C.3   1 <1>  -0.0590 
 10 N       -3.5090    -1.2880    -0.1320 N.am  1 <1>  -0.7300 
 11 C       -4.6340    -1.6580     0.5180 C.2   1 <1>   0.5690 
 12 O       -5.5950    -0.9330     0.5910 O.2   1 <1>  -0.5700 
 13 C       -4.6900    -3.0270     1.1610 C.3   1 <1>  -0.0990 
 14 C       -5.7610    -3.9160     0.5020 C.3   1 <1>  -0.0990 
 15 C       -5.8520    -5.3170     1.0950 C.2   1 <1>   0.5690 
 16 O       -4.9280    -5.7030     1.7730 O.2   1 <1>  -0.5700 
 17 N       -6.9510    -6.1070     0.8530 N.am  1 <1>  -0.6600 
 18 C       -8.0810    -5.7000    -0.0360 C.3   1 <1>   0.1400 
 19 C       -7.0670    -7.4280     1.5330 C.3   1 <1>   0.1400 
 20 C       -8.7250    -6.8570    -0.8140 C.3   1 <1>  -0.1600 
 21 C       -6.4430    -8.5250     0.6650 C.3   1 <1>  -0.1600 
 22 C       -7.7230    -7.8230    -1.4680 C.3   1 <1>  -0.1600 
 23 C       -7.3050    -8.9640    -0.5290 C.3   1 <1>  -0.1600 
 24 H        2.0460     0.3020    -2.4150 H     1 <1>   0.0800 
 25 H        2.2180    -0.8710    -1.1410 H     1 <1>   0.0800 
 26 H       -3.5740    -0.0010    -1.7840 H     1 <1>   0.0800 
 27 H       -3.9210     0.7650    -0.2530 H     1 <1>   0.0800 
 28 H        2.8860     2.0770    -0.8990 H     1 <1>   0.0800 
 29 H        4.0530     0.7820    -1.0510 H     1 <1>   0.0800 
 30 H        3.0550     0.9020     0.3820 H     1 <1>   0.0800 
 31 H       -2.8160     2.1930     1.1960 H     1 <1>   0.0800 
 32 H       -1.5260     3.3040     0.7910 H     1 <1>   0.0800 
 33 H       -1.3090     2.1450     2.0800 H     1 <1>   0.0800 
 34 H       -2.6890    -1.8960    -0.1520 H     1 <1>   0.3700 
 35 H       -4.9180    -2.9040     2.2040 H     1 <1>   0.0800 
 36 H       -3.7270    -3.5000     1.0860 H     1 <1>   0.0800 
 37 H       -5.5470    -4.0090    -0.5470 H     1 <1>   0.0800 
 38 H       -6.7120    -3.4280     0.6130 H     1 <1>   0.0800 
 39 H       -7.7240    -4.9890    -0.7600 H     1 <1>   0.0800 
 40 H       -8.8320    -5.2110     0.5600 H     1 <1>   0.0800 
 41 H       -8.0970    -7.6500     1.7520 H     1 <1>   0.0800 
 42 H       -6.5420    -7.3880     2.4730 H     1 <1>   0.0800 
 43 H       -9.3280    -6.4180    -1.5900 H     1 <1>   0.0800 
 44 H       -9.4020    -7.3950    -0.1740 H     1 <1>   0.0800 
 45 H       -6.2740    -9.3850     1.2870 H     1 <1>   0.0800 
 46 H       -5.4790    -8.1910     0.3200 H     1 <1>   0.0800 
 47 H       -6.8550    -7.2880    -1.8140 H     1 <1>   0.0800 
 48 H       -8.1950    -8.2650    -2.3290 H     1 <1>   0.0800 
 49 H       -8.1860    -9.4650    -0.1640 H     1 <1>   0.0800 
 50 H       -6.7450    -9.6860    -1.0980 H     1 <1>   0.0800 
@<TRIPOS>BOND
  1   1   2  1   
  2   1   3  1   
  3   2   4  2   
  4   2   5  1   
  5   3   6  2   
  6   3   7  1   
  7   4   6  1   
  8   5   8  1   
  9   5  24  1   
 10   5  25  1   
 11   6   9  1   
 12   7  10  1   
 13   7  26  1   
 14   7  27  1   
 15   8  28  1   
 16   8  29  1   
 17   8  30  1   
 18   9  31  1   
 19   9  32  1   
 20   9  33  1   
 21  10  11  am  
 22  10  34  1   
 23  11  12  2   
 24  11  13  1   
 25  13  14  1   
 26  13  35  1   
 27  13  36  1   
 28  14  15  1   
 29  14  37  1   
 30  14  38  1   
 31  15  16  2   
 32  15  17  am  
 33  17  18  1   
 34  17  19  1   
 35  18  20  1   
 36  18  39  1   
 37  18  40  1   
 38  19  21  1   
 39  19  41  1   
 40  19  42  1   
 41  20  22  1   
 42  20  43  1   
 43  20  44  1   
 44  21  23  1   
 45  21  45  1   
 46  21  46  1   
 47  22  23  1   
 48  22  47  1   
 49  22  48  1   
 50  23  49  1   
 51  23  50  1   
@<TRIPOS>SUBSTRUCTURE
  1 ****  13 GROUP 4 **** **** 0

# MOE 2024.06 (io_trps.svl 2023.06)
