@<TRIPOS>MOLECULE
NONAME
47 49 1 0 0 
SMALL
USER_CHARGES


@<TRIPOS>ATOM
  1 O       -1.0020    -0.2100     0.3170 O.2   1 <1>  -0.5700 
  2 C       -1.6490     0.7300    -0.1190 C.2   1 <1>   0.7160 
  3 N       -2.8190     0.4260    -0.7840 N.am  1 <1>  -0.6600 
  4 C       -1.2320     2.1010     0.0900 C.2   1 <1>  -0.0860 
  5 C       -3.0410    -0.9580    -1.2710 C.3   1 <1>   0.1400 
  6 C       -4.0740     1.1580    -0.4640 C.3   1 <1>   0.1400 
  7 C       -0.5500     2.6850     1.1340 C.2   1 <1>  -0.3320 
  8 C       -1.4700     3.1530    -0.8210 C.2   1 <1>  -0.1500 
  9 C       -3.7440    -1.7640    -0.1560 C.3   1 <1>   0.4230 
 10 C       -4.8120     0.3820     0.6370 C.3   1 <1>  -0.1600 
 11 N       -0.3760     4.0060     0.8950 N.pl3 1 <1>   0.0330 
 12 C       -0.0220     2.0410     2.4050 C.3   1 <1>  -0.0600 
 13 C       -0.9450     4.2890    -0.3040 C.2   1 <1>  -0.3020 
 14 N       -3.8380    -3.2570    -0.4370 N.4   1 <1>  -0.9590 
 15 C       -5.0910    -1.1090     0.2770 C.3   1 <1>   0.0000 
 16 C       -4.8510    -3.9740     0.4040 C.3   1 <1>   0.3430 
 17 C       -4.0040    -3.6360    -1.8780 C.3   1 <1>   0.2630 
 18 C       -5.6300    -1.8350     1.5450 C.3   1 <1>  -0.1600 
 19 C       -6.1270    -1.1980    -0.8810 C.3   1 <1>   0.1200 
 20 C       -5.0660    -3.2570     1.7350 C.3   1 <1>  -0.1600 
 21 O       -7.2640    -0.4560    -0.6120 O.3   1 <1>  -0.6800 
 22 H       -3.6280    -0.9190    -2.1690 H     1 <1>   0.0800 
 23 H       -2.0910    -1.4080    -1.5050 H     1 <1>   0.0800 
 24 H       -3.8570     2.1530    -0.1150 H     1 <1>   0.0800 
 25 H       -4.6840     1.2440    -1.3480 H     1 <1>   0.0800 
 26 H       -1.9800     3.0410    -1.7630 H     1 <1>   0.1500 
 27 H       -3.0970    -1.6640     0.7010 H     1 <1>   0.0800 
 28 H       -4.2030     0.4360     1.5230 H     1 <1>   0.0800 
 29 H       -5.7280     0.8980     0.8670 H     1 <1>   0.0800 
 30 H        0.1040     4.6760     1.5060 H     1 <1>   0.2700 
 31 H       -0.3080     1.0060     2.4620 H     1 <1>   0.0800 
 32 H       -0.4150     2.5470     3.2690 H     1 <1>   0.0800 
 33 H        1.0510     2.0960     2.4270 H     1 <1>   0.0800 
 34 H       -0.9400     5.2790    -0.7230 H     1 <1>   0.1500 
 35 H       -2.9180    -3.6200    -0.1400 H     1 <1>   0.4500 
 36 H       -5.7940    -4.0150    -0.1170 H     1 <1>   0.0800 
 37 H       -4.5270    -4.9880     0.5830 H     1 <1>   0.0800 
 38 H       -4.9280    -3.2430    -2.2690 H     1 <1>   0.0800 
 39 H       -4.0160    -4.7090    -1.9830 H     1 <1>   0.0800 
 40 H       -3.1870    -3.2510    -2.4670 H     1 <1>   0.0800 
 41 H       -5.3890    -1.2760     2.4340 H     1 <1>   0.0800 
 42 H       -6.7040    -1.8890     1.5130 H     1 <1>   0.0800 
 43 H       -6.4400    -2.2120    -1.0510 H     1 <1>   0.0800 
 44 H       -5.7250    -0.8090    -1.7990 H     1 <1>   0.0800 
 45 H       -5.7490    -3.8290     2.3400 H     1 <1>   0.0800 
 46 H       -4.1310    -3.2170     2.2690 H     1 <1>   0.0800 
 47 H       -7.7220    -0.7580     0.1970 H     1 <1>   0.4000 
@<TRIPOS>BOND
  1   1   2  2   
  2   2   3  am  
  3   2   4  1   
  4   3   5  1   
  5   3   6  1   
  6   4   7  2   
  7   4   8  1   
  8   5   9  1   
  9   5  22  1   
 10   5  23  1   
 11   6  10  1   
 12   6  24  1   
 13   6  25  1   
 14   7  11  1   
 15   7  12  1   
 16   8  13  2   
 17   8  26  1   
 18   9  14  1   
 19   9  15  1   
 20   9  27  1   
 21  10  15  1   
 22  10  28  1   
 23  10  29  1   
 24  11  13  1   
 25  11  30  1   
 26  12  31  1   
 27  12  32  1   
 28  12  33  1   
 29  13  34  1   
 30  14  16  1   
 31  14  17  1   
 32  14  35  1   
 33  15  18  1   
 34  15  19  1   
 35  16  20  1   
 36  16  36  1   
 37  16  37  1   
 38  17  38  1   
 39  17  39  1   
 40  17  40  1   
 41  18  20  1   
 42  18  41  1   
 43  18  42  1   
 44  19  21  1   
 45  19  43  1   
 46  19  44  1   
 47  20  45  1   
 48  20  46  1   
 49  21  47  1   
@<TRIPOS>SUBSTRUCTURE
  1 ****   3 GROUP 4 **** **** 0

# MOE 2024.06 (io_trps.svl 2023.06)
