@<TRIPOS>MOLECULE
NONAME
42 43 1 0 0 
SMALL
USER_CHARGES


@<TRIPOS>ATOM
  1 CL       0.1150     0.1100    -0.3680 Cl    1 <1>  -0.1770 
  2 C       -1.3180     1.0860    -0.1350 C.ar  1 <1>   0.1770 
  3 C       -1.2140     2.4640     0.0200 C.ar  1 <1>  -0.1440 
  4 C       -2.5380     0.4360    -0.1080 C.ar  1 <1>  -0.1500 
  5 C       -2.3900     3.1830     0.2090 C.ar  1 <1>  -0.1500 
  6 C        0.1710     3.1160    -0.0210 C.3   1 <1>  -0.0160 
  7 C       -3.6960     1.1680     0.0780 C.ar  1 <1>  -0.1500 
  8 C       -3.6180     2.5410     0.2370 C.ar  1 <1>  -0.1500 
  9 C        0.1800     4.6510     0.0180 C.3   1 <1>  -0.1600 
 10 C        1.6040     5.1960    -0.0730 C.3   1 <1>   0.2090 
 11 N        1.5550     6.6710    -0.0150 N.pl3 1 <1>  -0.8690 
 12 C        2.6980     7.4350     0.0170 C.ar  1 <1>   0.4100 
 13 N        3.8510     6.8090     0.2050 N.ar  1 <1>  -0.6200 
 14 C        2.5970     8.8090    -0.1490 C.ar  1 <1>  -0.1500 
 15 C        4.9260     7.5750     0.2210 C.ar  1 <1>   0.1600 
 16 C        3.7170     9.6200    -0.1250 C.ar  1 <1>   0.0860 
 17 C        4.9180     8.9460     0.0630 C.ar  1 <1>  -0.1500 
 18 C        3.6280    11.0590    -0.2900 C.2   1 <1>   0.5440 
 19 O        2.6990    11.5530    -0.8980 O.2   1 <1>  -0.5700 
 20 N        4.5760    11.8840     0.2490 N.am  1 <1>  -0.7300 
 21 C        4.5930    13.3530     0.1180 C.3   1 <1>   0.1400 
 22 C        6.0400    13.8130    -0.0090 C.3   1 <1>  -0.2400 
 23 H       -2.5760    -0.6310    -0.2330 H     1 <1>   0.1500 
 24 H       -2.3770     4.2500     0.3400 H     1 <1>   0.1500 
 25 H        0.6670     2.7980    -0.9230 H     1 <1>   0.0800 
 26 H        0.7440     2.7440     0.8120 H     1 <1>   0.0800 
 27 H       -4.6520     0.6740     0.1000 H     1 <1>   0.1500 
 28 H       -4.5180     3.1130     0.3840 H     1 <1>   0.1500 
 29 H       -0.2560     4.9870     0.9420 H     1 <1>   0.0800 
 30 H       -0.3950     5.0300    -0.8080 H     1 <1>   0.0800 
 31 H        2.0690     4.8900    -0.9960 H     1 <1>   0.0800 
 32 H        2.1950     4.8270     0.7490 H     1 <1>   0.0800 
 33 H        0.7670     7.0840    -0.5170 H     1 <1>   0.4000 
 34 H        1.6290     9.2490    -0.2940 H     1 <1>   0.1500 
 35 H        5.8690     7.0750     0.3670 H     1 <1>   0.1500 
 36 H        5.8450     9.4870     0.0790 H     1 <1>   0.1500 
 37 H        5.2680    11.4970     0.8890 H     1 <1>   0.3700 
 38 H        4.1330    13.7950     0.9860 H     1 <1>   0.0800 
 39 H        4.0330    13.6520    -0.7540 H     1 <1>   0.0800 
 40 H        6.6010    13.5460     0.8680 H     1 <1>   0.0800 
 41 H        6.0680    14.8820    -0.1180 H     1 <1>   0.0800 
 42 H        6.4940    13.3720    -0.8790 H     1 <1>   0.0800 
@<TRIPOS>BOND
  1   1   2  1   
  2   2   3  ar  
  3   2   4  ar  
  4   3   5  ar  
  5   3   6  1   
  6   4   7  ar  
  7   4  23  1   
  8   5   8  ar  
  9   5  24  1   
 10   6   9  1   
 11   6  25  1   
 12   6  26  1   
 13   7   8  ar  
 14   7  27  1   
 15   8  28  1   
 16   9  10  1   
 17   9  29  1   
 18   9  30  1   
 19  10  11  1   
 20  10  31  1   
 21  10  32  1   
 22  11  12  1   
 23  11  33  1   
 24  12  13  ar  
 25  12  14  ar  
 26  13  15  ar  
 27  14  16  ar  
 28  14  34  1   
 29  15  17  ar  
 30  15  35  1   
 31  16  17  ar  
 32  16  18  1   
 33  17  36  1   
 34  18  19  2   
 35  18  20  am  
 36  20  21  1   
 37  20  37  1   
 38  21  22  1   
 39  21  38  1   
 40  21  39  1   
 41  22  40  1   
 42  22  41  1   
 43  22  42  1   
@<TRIPOS>SUBSTRUCTURE
  1 ****  11 GROUP 4 **** **** 0

# MOE 2024.06 (io_trps.svl 2023.06)
