@<TRIPOS>MOLECULE
NONAME
55 56 1 0 0 
SMALL
USER_CHARGES


@<TRIPOS>ATOM
  1 O       -0.0880     0.5860     0.1820 O.2   1 <1>  -0.5700 
  2 C       -0.1860     1.7910     0.2040 C.2   1 <1>   0.5690 
  3 N       -1.3450     2.4510     0.5340 N.am  1 <1>  -0.6600 
  4 C        1.0620     2.5900    -0.1780 C.3   1 <1>   0.1810 
  5 C       -1.3860     3.9550     0.5500 C.3   1 <1>   0.3640 
  6 C       -2.5410     1.7900     1.1350 C.3   1 <1>   0.2200 
  7 O        1.0550     3.9030     0.3220 O.3   1 <1>  -0.5600 
  8 C       -2.5920     4.4580    -0.2480 C.ar  1 <1>  -0.1440 
  9 C       -0.1090     4.6280    -0.0160 C.3   1 <1>   0.2610 
 10 C       -2.1760     1.1520     2.4750 C.3   1 <1>  -0.2400 
 11 C       -3.1640     0.7790     0.1720 C.3   1 <1>  -0.2400 
 12 C       -2.8820     3.9550    -1.5100 C.ar  1 <1>  -0.1500 
 13 C       -3.4090     5.4450     0.2850 C.ar  1 <1>  -0.1500 
 14 C        0.0060     6.0970     0.4310 C.2   1 <1>   0.5690 
 15 C       -3.9700     4.4270    -2.2240 C.ar  1 <1>  -0.1500 
 16 C       -4.4970     5.9190    -0.4270 C.ar  1 <1>  -0.1500 
 17 O       -0.5510     6.4430     1.4520 O.2   1 <1>  -0.5700 
 18 N        0.7140     7.0060    -0.3270 N.am  1 <1>  -0.6600 
 19 C       -4.7790     5.4090    -1.6820 C.ar  1 <1>  -0.1500 
 20 C        0.7220     8.4510     0.0290 C.3   1 <1>   0.1400 
 21 C        1.5460     6.6430    -1.5090 C.3   1 <1>   0.0600 
 22 C        1.9300     8.7610     0.9210 C.3   1 <1>  -0.1600 
 23 C        1.9430    10.2120     1.4340 C.3   1 <1>  -0.0800 
 24 C        2.0860    11.2280     0.2920 C.3   1 <1>  -0.2400 
 25 C        3.0940    10.3980     2.4290 C.3   1 <1>  -0.2400 
 26 H        1.1490     2.6300    -1.2480 H     1 <1>   0.0800 
 27 H        1.9300     2.0970     0.2210 H     1 <1>   0.0800 
 28 H       -1.5000     4.2510     1.5780 H     1 <1>   0.0800 
 29 H       -3.2890     2.5400     1.3340 H     1 <1>   0.0800 
 30 H       -0.1840     4.6240    -1.0870 H     1 <1>   0.0800 
 31 H       -1.4910     0.3350     2.3390 H     1 <1>   0.0800 
 32 H       -3.0620     0.7700     2.9490 H     1 <1>   0.0800 
 33 H       -1.7320     1.8830     3.1260 H     1 <1>   0.0800 
 34 H       -2.5070    -0.0540     0.0010 H     1 <1>   0.0800 
 35 H       -3.3940     1.2500    -0.7650 H     1 <1>   0.0800 
 36 H       -4.0790     0.4000     0.5900 H     1 <1>   0.0800 
 37 H       -2.2640     3.1860    -1.9420 H     1 <1>   0.1500 
 38 H       -3.1990     5.8580     1.2580 H     1 <1>   0.1500 
 39 H       -4.1880     4.0280    -3.1990 H     1 <1>   0.1500 
 40 H       -5.1230     6.6850    -0.0040 H     1 <1>   0.1500 
 41 H       -5.6250     5.7770    -2.2360 H     1 <1>   0.1500 
 42 H        0.7530     9.0390    -0.8720 H     1 <1>   0.0800 
 43 H       -0.1850     8.7000     0.5540 H     1 <1>   0.0800 
 44 H        2.3800     7.3170    -1.5970 H     1 <1>   0.0800 
 45 H        0.9510     6.7070    -2.4040 H     1 <1>   0.0800 
 46 H        1.9360     5.6460    -1.4080 H     1 <1>   0.0800 
 47 H        1.8920     8.0980     1.7690 H     1 <1>   0.0800 
 48 H        2.8380     8.5620     0.3810 H     1 <1>   0.0800 
 49 H        1.0180    10.4030     1.9530 H     1 <1>   0.0800 
 50 H        2.9760    11.0320    -0.2810 H     1 <1>   0.0800 
 51 H        2.1510    12.2250     0.6900 H     1 <1>   0.0800 
 52 H        1.2360    11.1930    -0.3640 H     1 <1>   0.0800 
 53 H        4.0420    10.2180     1.9530 H     1 <1>   0.0800 
 54 H        2.9890     9.7140     3.2530 H     1 <1>   0.0800 
 55 H        3.0910    11.3990     2.8230 H     1 <1>   0.0800 
@<TRIPOS>BOND
  1   1   2  2   
  2   2   3  am  
  3   2   4  1   
  4   3   5  1   
  5   3   6  1   
  6   4   7  1   
  7   4  26  1   
  8   4  27  1   
  9   5   8  1   
 10   5   9  1   
 11   5  28  1   
 12   6  10  1   
 13   6  11  1   
 14   6  29  1   
 15   7   9  1   
 16   8  12  ar  
 17   8  13  ar  
 18   9  14  1   
 19   9  30  1   
 20  10  31  1   
 21  10  32  1   
 22  10  33  1   
 23  11  34  1   
 24  11  35  1   
 25  11  36  1   
 26  12  15  ar  
 27  12  37  1   
 28  13  16  ar  
 29  13  38  1   
 30  14  17  2   
 31  14  18  am  
 32  15  19  ar  
 33  15  39  1   
 34  16  19  ar  
 35  16  40  1   
 36  18  20  1   
 37  18  21  1   
 38  19  41  1   
 39  20  22  1   
 40  20  42  1   
 41  20  43  1   
 42  21  44  1   
 43  21  45  1   
 44  21  46  1   
 45  22  23  1   
 46  22  47  1   
 47  22  48  1   
 48  23  24  1   
 49  23  25  1   
 50  23  49  1   
 51  24  50  1   
 52  24  51  1   
 53  24  52  1   
 54  25  53  1   
 55  25  54  1   
 56  25  55  1   
@<TRIPOS>SUBSTRUCTURE
  1 ****   9 GROUP 4 **** **** 0

# MOE 2024.06 (io_trps.svl 2023.06)
