@<TRIPOS>MOLECULE
NONAME
51 53 1 0 0 
SMALL
USER_CHARGES


@<TRIPOS>ATOM
  1 O        1.4410     3.8300     0.0140 O.2   1 <1>  -0.5700 
  2 C        0.4080     3.3060     0.4350 C.2   1 <1>   0.6160 
  3 N       -0.7480     3.3060    -0.3360 N.am  1 <1>  -0.4690 
  4 C        0.3650     2.7560     1.7440 C.2   1 <1>  -0.1360 
  5 C       -1.9530     2.9120     0.2440 C.2   1 <1>  -0.0290 
  6 C       -0.6470     3.6350    -1.7940 C.3   1 <1>   0.1400 
  7 C       -0.8020     2.3270     2.2860 C.2   1 <1>  -0.1500 
  8 C       -1.9840     2.4340     1.5180 C.2   1 <1>  -0.1500 
  9 C       -3.2520     3.0210    -0.5440 C.3   1 <1>  -0.1020 
 10 C       -0.5330     5.1510    -2.0160 C.3   1 <1>  -0.1600 
 11 C        0.8430     5.5330    -2.5710 C.3   1 <1>   0.2090 
 12 N        1.1940     6.8990    -2.1240 N.pl3 1 <1>  -0.8690 
 13 C        1.8750     7.3040    -1.0470 C.ar  1 <1>   0.7710 
 14 N        2.1220     8.5950    -0.9640 N.ar  1 <1>  -0.6200 
 15 N        2.2680     6.4220    -0.1130 N.ar  1 <1>  -0.1790 
 16 C        2.7870     9.0320     0.0910 C.ar  1 <1>   0.4100 
 17 C        2.9700     6.8210     0.9700 C.ar  1 <1>   0.2110 
 18 N        3.0160    10.3690     0.1850 N.pl3 1 <1>  -0.8380 
 19 C        3.2460     8.1420     1.0850 C.ar  1 <1>  -0.1500 
 20 C        3.1350    11.1240     1.4750 C.3   1 <1>   0.2090 
 21 C        3.0960    11.2580    -1.0150 C.3   1 <1>   0.2090 
 22 C        4.4700    11.8860     1.5220 C.3   1 <1>   0.2000 
 23 C        4.4270    12.0230    -0.9970 C.3   1 <1>  -0.1600 
 24 O        4.5270    12.6570     2.6700 O.3   1 <1>  -0.6800 
 25 C        4.6360    12.8100     0.3100 C.3   1 <1>  -0.1600 
 26 H        1.2930     2.7000     2.2810 H     1 <1>   0.1500 
 27 H       -1.5020     3.2600    -2.3260 H     1 <1>   0.0800 
 28 H        0.2060     3.1200    -2.2030 H     1 <1>   0.0800 
 29 H       -0.8610     1.9110     3.2780 H     1 <1>   0.1500 
 30 H       -2.9040     2.1190     1.9800 H     1 <1>   0.1500 
 31 H       -3.3710     4.0150    -0.9350 H     1 <1>   0.0800 
 32 H       -4.0980     2.8110     0.0860 H     1 <1>   0.0800 
 33 H       -3.2610     2.3130    -1.3530 H     1 <1>   0.0800 
 34 H       -0.7310     5.6650    -1.0910 H     1 <1>   0.0800 
 35 H       -1.2790     5.4570    -2.7270 H     1 <1>   0.0800 
 36 H        0.8270     5.4980    -3.6480 H     1 <1>   0.0800 
 37 H        1.6000     4.8430    -2.2410 H     1 <1>   0.0800 
 38 H        0.9000     7.6560    -2.7510 H     1 <1>   0.4000 
 39 H        1.9890     5.4420    -0.2470 H     1 <1>   0.4570 
 40 H        3.2840     6.0840     1.6920 H     1 <1>   0.1500 
 41 H        3.8170     8.5200     1.9100 H     1 <1>   0.1500 
 42 H        3.0620    10.4680     2.3220 H     1 <1>   0.0800 
 43 H        2.3230    11.8280     1.5300 H     1 <1>   0.0800 
 44 H        2.2700    11.9500    -0.9980 H     1 <1>   0.0800 
 45 H        3.0330    10.6870    -1.9250 H     1 <1>   0.0800 
 46 H        5.2790    11.1780     1.5680 H     1 <1>   0.0800 
 47 H        4.4550    12.7000    -1.8320 H     1 <1>   0.0800 
 48 H        5.2280    11.3160    -1.1250 H     1 <1>   0.0800 
 49 H        3.9720    13.4540     2.5760 H     1 <1>   0.4000 
 50 H        5.6220    13.2390     0.3160 H     1 <1>   0.0800 
 51 H        3.9100    13.6030     0.3540 H     1 <1>   0.0800 
@<TRIPOS>BOND
  1   1   2  2   
  2   2   3  am  
  3   2   4  1   
  4   3   5  1   
  5   3   6  1   
  6   4   7  2   
  7   4  26  1   
  8   5   8  2   
  9   5   9  1   
 10   6  10  1   
 11   6  27  1   
 12   6  28  1   
 13   7   8  1   
 14   7  29  1   
 15   8  30  1   
 16   9  31  1   
 17   9  32  1   
 18   9  33  1   
 19  10  11  1   
 20  10  34  1   
 21  10  35  1   
 22  11  12  1   
 23  11  36  1   
 24  11  37  1   
 25  12  13  1   
 26  12  38  1   
 27  13  14  ar  
 28  13  15  ar  
 29  14  16  ar  
 30  15  17  ar  
 31  15  39  1   
 32  16  18  1   
 33  16  19  ar  
 34  17  19  ar  
 35  17  40  1   
 36  18  20  1   
 37  18  21  1   
 38  19  41  1   
 39  20  22  1   
 40  20  42  1   
 41  20  43  1   
 42  21  23  1   
 43  21  44  1   
 44  21  45  1   
 45  22  24  1   
 46  22  25  1   
 47  22  46  1   
 48  23  25  1   
 49  23  47  1   
 50  23  48  1   
 51  24  49  1   
 52  25  50  1   
 53  25  51  1   
@<TRIPOS>SUBSTRUCTURE
  1 ****  15 GROUP 4 **** **** 0

# MOE 2024.06 (io_trps.svl 2023.06)
