@<TRIPOS>MOLECULE
NONAME
48 50 1 0 0 
SMALL
USER_CHARGES


@<TRIPOS>ATOM
  1 F        4.6000     4.2820    -3.8120 F     1 <1>  -0.1900 
  2 C        5.3880     3.7910    -2.8910 C.ar  1 <1>   0.1900 
  3 C        5.2090     4.1770    -1.5840 C.ar  1 <1>  -0.1500 
  4 C        6.3800     2.8900    -3.2930 C.ar  1 <1>  -0.1500 
  5 C        6.0660     3.6330    -0.6320 C.ar  1 <1>   0.2270 
  6 C        7.2270     2.3550    -2.3470 C.ar  1 <1>  -0.1500 
  7 N        6.1040     3.8350     0.7140 N.2   1 <1>  -0.5650 
  8 C        7.0560     2.7410    -1.0130 C.ar  1 <1>  -0.1520 
  9 C        7.0690     3.0840     1.1280 C.2   1 <1>   0.0060 
 10 N        7.6990     2.4070     0.1340 N.pl3 1 <1>   0.0330 
 11 C        7.4850     2.9300     2.5860 C.3   1 <1>   0.3000 
 12 O        8.1030     4.1010     3.0240 O.3   1 <1>  -0.5600 
 13 C        7.2220     5.1390     3.4040 C.3   1 <1>   0.1810 
 14 C        7.5610     6.4540     2.7120 C.2   1 <1>   0.5690 
 15 O        7.7420     7.4340     3.3980 O.2   1 <1>  -0.5700 
 16 N        7.6240     6.4710     1.3450 N.am  1 <1>  -0.4940 
 17 C        8.0590     7.5020     0.4750 C.2   1 <1>  -0.0880 
 18 N        7.7340     8.8220     0.5500 N.pl3 1 <1>   0.3140 
 19 C        8.8830     7.3770    -0.5940 C.2   1 <1>  -0.1810 
 20 N        8.3260     9.5360    -0.4310 N.2   1 <1>  -0.7070 
 21 C        6.8180     9.4840     1.4870 C.3   1 <1>   0.0160 
 22 C        9.0160     8.6690    -1.1020 C.2   1 <1>   0.1080 
 23 C        9.5410     6.1100    -1.1110 C.3   1 <1>   0.0210 
 24 C        9.8690     9.0870    -2.2860 C.3   1 <1>   0.0210 
 25 C        8.7960     5.5710    -2.3330 C.3   1 <1>  -0.2400 
 26 C       11.2860     9.4600    -1.8380 C.3   1 <1>  -0.2400 
 27 H        4.4440     4.8700    -1.2910 H     1 <1>   0.1500 
 28 H        6.4620     2.6320    -4.3330 H     1 <1>   0.1500 
 29 H        8.0010     1.6590    -2.6210 H     1 <1>   0.1500 
 30 H        8.4950     1.7700     0.2200 H     1 <1>   0.2700 
 31 H        8.1970     2.1320     2.6900 H     1 <1>   0.0800 
 32 H        6.6350     2.7160     3.2110 H     1 <1>   0.0800 
 33 H        7.3110     5.2660     4.4670 H     1 <1>   0.0800 
 34 H        6.2050     4.8780     3.1710 H     1 <1>   0.0800 
 35 H        7.4280     5.5620     0.9050 H     1 <1>   0.3700 
 36 H        6.0380     8.8020     1.7660 H     1 <1>   0.0800 
 37 H        6.3930    10.3480     1.0120 H     1 <1>   0.0800 
 38 H        7.3710     9.7840     2.3570 H     1 <1>   0.0800 
 39 H        9.5370     5.3660    -0.3350 H     1 <1>   0.0800 
 40 H       10.5670     6.3130    -1.3640 H     1 <1>   0.0800 
 41 H        9.4080     9.9370    -2.7570 H     1 <1>   0.0800 
 42 H        9.9130     8.2950    -3.0080 H     1 <1>   0.0800 
 43 H        7.7590     5.4300    -2.0910 H     1 <1>   0.0800 
 44 H        9.2150     4.6310    -2.6410 H     1 <1>   0.0800 
 45 H        8.8560     6.2620    -3.1530 H     1 <1>   0.0800 
 46 H       11.2390    10.2670    -1.1290 H     1 <1>   0.0800 
 47 H       11.8750     9.7700    -2.6820 H     1 <1>   0.0800 
 48 H       11.7610     8.6180    -1.3680 H     1 <1>   0.0800 
@<TRIPOS>BOND
  1   1   2  1   
  2   2   3  ar  
  3   2   4  ar  
  4   3   5  ar  
  5   3  27  1   
  6   4   6  ar  
  7   4  28  1   
  8   5   7  1   
  9   5   8  ar  
 10   6   8  ar  
 11   6  29  1   
 12   7   9  2   
 13   8  10  1   
 14   9  10  1   
 15   9  11  1   
 16  10  30  1   
 17  11  12  1   
 18  11  31  1   
 19  11  32  1   
 20  12  13  1   
 21  13  14  1   
 22  13  33  1   
 23  13  34  1   
 24  14  15  2   
 25  14  16  am  
 26  16  17  1   
 27  16  35  1   
 28  17  18  1   
 29  17  19  2   
 30  18  20  1   
 31  18  21  1   
 32  19  22  1   
 33  19  23  1   
 34  20  22  2   
 35  21  36  1   
 36  21  37  1   
 37  21  38  1   
 38  22  24  1   
 39  23  25  1   
 40  23  39  1   
 41  23  40  1   
 42  24  26  1   
 43  24  41  1   
 44  24  42  1   
 45  25  43  1   
 46  25  44  1   
 47  25  45  1   
 48  26  46  1   
 49  26  47  1   
 50  26  48  1   
@<TRIPOS>SUBSTRUCTURE
  1 ****  16 GROUP 4 **** **** 0

# MOE 2024.06 (io_trps.svl 2023.06)
