@<TRIPOS>MOLECULE
NONAME
39 40 1 0 0 
SMALL
USER_CHARGES


@<TRIPOS>ATOM
  1 S        0.5210     0.3490    -0.9620 S.o2  1 <1>   1.3330 
  2 O        0.7740    -0.9710    -1.4950 O.2   1 <1>  -0.6500 
  3 O       -0.4680     1.1930    -1.5930 O.2   1 <1>  -0.6500 
  4 N        0.0560     0.1680     0.6620 N.am  1 <1>  -0.8490 
  5 C        2.0870     1.2200    -0.8700 C.3   1 <1>  -0.0550 
  6 C       -0.8880    -0.9390     0.8420 C.3   1 <1>   0.1160 
  7 C       -0.5000     1.3950     1.2470 C.3   1 <1>   0.1160 
  8 C        3.2580     0.3660    -0.3330 C.3   1 <1>  -0.0800 
  9 C        4.6100     1.0620    -0.3310 C.3   1 <1>   0.2200 
 10 C        3.1180    -0.0900     1.1230 C.3   1 <1>   0.1200 
 11 N        4.4820     2.4510     0.1640 N.am  1 <1>  -0.7300 
 12 C        5.3580     0.2280     0.7010 C.3   1 <1>   0.1200 
 13 O        4.4080    -0.1300     1.6610 O.3   1 <1>  -0.5600 
 14 C        4.3830     3.5870    -0.6020 C.2   1 <1>   0.5440 
 15 O        4.5400     3.4530    -1.8090 O.2   1 <1>  -0.5700 
 16 C        4.0680     4.8570     0.0080 C.ar  1 <1>   0.3960 
 17 N        3.7630     4.8900     1.3330 N.ar  1 <1>  -0.6200 
 18 C        4.0630     6.0270    -0.7670 C.ar  1 <1>   0.1600 
 19 C        3.4810     6.0900     1.7620 C.ar  1 <1>   0.1600 
 20 N        3.7800     7.2330    -0.3430 N.ar  1 <1>  -0.6200 
 21 C        3.4770     7.2610     0.9670 C.ar  1 <1>   0.1390 
 22 O        3.1850     8.3560     1.4730 O.3   1 <1>  -0.8290 
 23 H        2.3470     1.5510    -1.8560 H     1 <1>   0.0800 
 24 H        1.9640     2.0960    -0.2650 H     1 <1>   0.0800 
 25 H       -1.1520    -1.0410     1.8800 H     1 <1>   0.0800 
 26 H       -0.4400    -1.8630     0.5160 H     1 <1>   0.0800 
 27 H       -1.7810    -0.7660     0.2630 H     1 <1>   0.0800 
 28 H       -0.7060     1.2450     2.2930 H     1 <1>   0.0800 
 29 H       -1.4130     1.6720     0.7460 H     1 <1>   0.0800 
 30 H        0.2020     2.2060     1.1560 H     1 <1>   0.0800 
 31 H        3.3410    -0.5180    -0.9420 H     1 <1>   0.0800 
 32 H        5.0910     1.0450    -1.2950 H     1 <1>   0.0800 
 33 H        2.6720    -1.0670     1.1990 H     1 <1>   0.0800 
 34 H        2.5500     0.6150     1.7050 H     1 <1>   0.0800 
 35 H        4.3180     2.5590     1.1720 H     1 <1>   0.3700 
 36 H        6.1620     0.7680     1.1680 H     1 <1>   0.0800 
 37 H        5.7310    -0.6780     0.2570 H     1 <1>   0.0800 
 38 H        4.3130     5.9340    -1.8070 H     1 <1>   0.1500 
 39 H        3.2270     6.2400     2.7940 H     1 <1>   0.1500 
@<TRIPOS>BOND
  1   1   2  2   
  2   1   3  2   
  3   1   4  am  
  4   1   5  1   
  5   4   6  1   
  6   4   7  1   
  7   5   8  1   
  8   5  23  1   
  9   5  24  1   
 10   6  25  1   
 11   6  26  1   
 12   6  27  1   
 13   7  28  1   
 14   7  29  1   
 15   7  30  1   
 16   8   9  1   
 17   8  10  1   
 18   8  31  1   
 19   9  11  1   
 20   9  12  1   
 21   9  32  1   
 22  10  13  1   
 23  10  33  1   
 24  10  34  1   
 25  11  14  am  
 26  11  35  1   
 27  12  13  1   
 28  12  36  1   
 29  12  37  1   
 30  14  15  2   
 31  14  16  1   
 32  16  17  ar  
 33  16  18  ar  
 34  17  19  ar  
 35  18  20  ar  
 36  18  38  1   
 37  19  21  ar  
 38  19  39  1   
 39  20  21  ar  
 40  21  22  1   
@<TRIPOS>SUBSTRUCTURE
  1 ****  11 GROUP 4 **** **** 0

# MOE 2024.06 (io_trps.svl 2023.06)
