@<TRIPOS>MOLECULE
NONAME
44 47 1 0 0 
SMALL
USER_CHARGES


@<TRIPOS>ATOM
  1 O       -0.0370     0.8400     1.1430 O.2   1 <1>  -0.5700 
  2 C        0.1180     2.0230     0.8900 C.2   1 <1>   0.5440 
  3 N       -1.0020     2.8240     0.7820 N.am  1 <1>  -0.6600 
  4 C        1.4590     2.5360     0.6790 C.ar  1 <1>   0.0860 
  5 C       -2.3300     2.3870     1.3100 C.3   1 <1>   0.1400 
  6 C       -1.0620     4.0500    -0.0610 C.3   1 <1>   0.1400 
  7 C        2.4010     1.7930    -0.0540 C.ar  1 <1>  -0.1520 
  8 C        1.8940     3.7600     1.1720 C.ar  1 <1>  -0.1500 
  9 C       -3.3100     2.0910     0.1590 C.3   1 <1>   0.0000 
 10 C       -2.0230     3.8300    -1.2340 C.3   1 <1>  -0.1600 
 11 N        2.2750     0.5480    -0.6090 N.pl3 1 <1>   0.0330 
 12 C        3.6810     2.2660    -0.3210 C.ar  1 <1>   0.0000 
 13 C        3.1800     4.2460     0.9200 C.ar  1 <1>  -0.1500 
 14 C       -4.6740     1.6440     0.7210 C.3   1 <1>   0.2000 
 15 C       -3.4050     3.3360    -0.7690 C.3   1 <1>  -0.1600 
 16 C       -2.9030     0.8390    -0.6400 C.3   1 <1>  -0.1600 
 17 C        3.4490     0.2410    -1.2380 C.2   1 <1>  -0.3020 
 18 C        4.0720     3.5110     0.1720 C.ar  1 <1>  -0.1500 
 19 C        4.3220     1.2650    -1.0840 C.2   1 <1>  -0.1500 
 20 O       -5.4880     2.7040     1.0760 O.3   1 <1>  -0.6800 
 21 C       -5.3390     0.8070    -0.3710 C.3   1 <1>  -0.1600 
 22 C       -4.1960     0.3010    -1.2620 C.3   1 <1>  -0.1600 
 23 H       -2.2160     1.5160     1.9320 H     1 <1>   0.0800 
 24 H       -2.7320     3.1720     1.9270 H     1 <1>   0.0800 
 25 H       -1.4050     4.8720     0.5440 H     1 <1>   0.0800 
 26 H       -0.0910     4.2980    -0.4500 H     1 <1>   0.0800 
 27 H        1.2220     4.3530     1.7670 H     1 <1>   0.1500 
 28 H       -2.1380     4.7560    -1.7690 H     1 <1>   0.0800 
 29 H       -1.5820     3.1250    -1.9150 H     1 <1>   0.0800 
 30 H        1.4420    -0.0450    -0.4910 H     1 <1>   0.2700 
 31 H        3.4700     5.2030     1.3180 H     1 <1>   0.1500 
 32 H       -4.5260     1.0330     1.5970 H     1 <1>   0.0800 
 33 H       -4.0170     3.1240    -1.6270 H     1 <1>   0.0800 
 34 H       -3.8650     4.1460    -0.2310 H     1 <1>   0.0800 
 35 H       -2.1470     1.0280    -1.3790 H     1 <1>   0.0800 
 36 H       -2.5160     0.0980     0.0400 H     1 <1>   0.0800 
 37 H        3.5910    -0.6940    -1.7530 H     1 <1>   0.1500 
 38 H        5.0630     3.8710    -0.0330 H     1 <1>   0.1500 
 39 H        5.3300     1.3420    -1.4530 H     1 <1>   0.1500 
 40 H       -5.6910     3.2350     0.2840 H     1 <1>   0.4000 
 41 H       -5.8720    -0.0170     0.0700 H     1 <1>   0.0800 
 42 H       -6.0180     1.4000    -0.9580 H     1 <1>   0.0800 
 43 H       -4.1790    -0.7740    -1.3120 H     1 <1>   0.0800 
 44 H       -4.3120     0.6930    -2.2580 H     1 <1>   0.0800 
@<TRIPOS>BOND
  1   1   2  2   
  2   2   3  am  
  3   2   4  1   
  4   3   5  1   
  5   3   6  1   
  6   4   7  ar  
  7   4   8  ar  
  8   5   9  1   
  9   5  23  1   
 10   5  24  1   
 11   6  10  1   
 12   6  25  1   
 13   6  26  1   
 14   7  11  1   
 15   7  12  ar  
 16   8  13  ar  
 17   8  27  1   
 18   9  14  1   
 19   9  15  1   
 20   9  16  1   
 21  10  15  1   
 22  10  28  1   
 23  10  29  1   
 24  11  17  1   
 25  11  30  1   
 26  12  18  ar  
 27  12  19  1   
 28  13  18  ar  
 29  13  31  1   
 30  14  20  1   
 31  14  21  1   
 32  14  32  1   
 33  15  33  1   
 34  15  34  1   
 35  16  22  1   
 36  16  35  1   
 37  16  36  1   
 38  17  19  2   
 39  17  37  1   
 40  18  38  1   
 41  19  39  1   
 42  20  40  1   
 43  21  22  1   
 44  21  41  1   
 45  21  42  1   
 46  22  43  1   
 47  22  44  1   
@<TRIPOS>SUBSTRUCTURE
  1 ****   2 GROUP 4 **** **** 0

# MOE 2024.06 (io_trps.svl 2023.06)
