@<TRIPOS>MOLECULE
NONAME
38 40 1 0 0 
SMALL
USER_CHARGES


@<TRIPOS>ATOM
  1 O        0.4900     0.4980     0.8380 O.3   1 <1>  -0.0190 
  2 N        1.3630    -0.4450     0.6330 N.2   1 <1>  -0.4100 
  3 C        0.8000     1.5980     0.2060 C.2   1 <1>  -0.0400 
  4 C        2.2500     0.0540    -0.1490 C.2   1 <1>   0.1080 
  5 C        1.9430     1.3750    -0.4640 C.2   1 <1>  -0.1500 
  6 C       -0.1160     2.8030     0.3410 C.3   1 <1>   0.0200 
  7 C        3.4590    -0.7020    -0.6550 C.3   1 <1>  -0.0590 
  8 C        0.5240     4.1000    -0.1870 C.3   1 <1>  -0.0800 
  9 C       -0.3950     5.3230    -0.1870 C.3   1 <1>   0.2000 
 10 C        1.7470     4.5540     0.6200 C.3   1 <1>   0.2090 
 11 O       -1.0510     5.4060     1.0320 O.3   1 <1>  -0.6800 
 12 C        0.5890     6.4860    -0.2780 C.3   1 <1>   0.2090 
 13 N        1.7710     6.0390     0.5200 N.pl3 1 <1>  -0.8380 
 14 C        2.9950     6.6840     0.3750 C.ar  1 <1>   0.4100 
 15 N        3.1580     7.5400    -0.6430 N.ar  1 <1>  -0.3100 
 16 C        4.0160     6.4320     1.2750 C.ar  1 <1>  -0.1500 
 17 N        4.3010     8.1580    -0.8220 N.ar  1 <1>  -0.3100 
 18 C        5.2130     7.0800     1.0920 C.ar  1 <1>  -0.1500 
 19 C        5.3050     7.9390     0.0180 C.ar  1 <1>   0.1670 
 20 C        6.5890     8.6940    -0.2570 C.3   1 <1>  -0.0970 
 21 H        2.5170     2.0200    -1.1020 H     1 <1>   0.1500 
 22 H       -1.0260     2.6040    -0.1980 H     1 <1>   0.0800 
 23 H       -0.3740     2.9190     1.3800 H     1 <1>   0.0800 
 24 H        3.4580    -0.7160    -1.7290 H     1 <1>   0.0800 
 25 H        3.4360    -1.7140    -0.2940 H     1 <1>   0.0800 
 26 H        4.3570    -0.2280    -0.3060 H     1 <1>   0.0800 
 27 H        0.8420     3.9370    -1.2010 H     1 <1>   0.0800 
 28 H       -1.1260     5.3160    -0.9780 H     1 <1>   0.0800 
 29 H        2.6540     4.1250     0.2270 H     1 <1>   0.0800 
 30 H        1.6430     4.2770     1.6550 H     1 <1>   0.0800 
 31 H       -0.3970     5.6960     1.7030 H     1 <1>   0.4000 
 32 H        0.1730     7.3990     0.1100 H     1 <1>   0.0800 
 33 H        0.8750     6.6330    -1.3060 H     1 <1>   0.0800 
 34 H        3.8630     5.7560     2.0920 H     1 <1>   0.1500 
 35 H        6.0390     6.9220     1.7610 H     1 <1>   0.1500 
 36 H        7.3430     8.4560     0.4700 H     1 <1>   0.0800 
 37 H        6.3980     9.7510    -0.2260 H     1 <1>   0.0800 
 38 H        6.9550     8.4370    -1.2350 H     1 <1>   0.0800 
@<TRIPOS>BOND
  1   1   2  1   
  2   1   3  1   
  3   2   4  2   
  4   3   5  2   
  5   3   6  1   
  6   4   5  1   
  7   4   7  1   
  8   5  21  1   
  9   6   8  1   
 10   6  22  1   
 11   6  23  1   
 12   7  24  1   
 13   7  25  1   
 14   7  26  1   
 15   8   9  1   
 16   8  10  1   
 17   8  27  1   
 18   9  11  1   
 19   9  12  1   
 20   9  28  1   
 21  10  13  1   
 22  10  29  1   
 23  10  30  1   
 24  11  31  1   
 25  12  13  1   
 26  12  32  1   
 27  12  33  1   
 28  13  14  1   
 29  14  15  ar  
 30  14  16  ar  
 31  15  17  ar  
 32  16  18  ar  
 33  16  34  1   
 34  17  19  ar  
 35  18  19  ar  
 36  18  35  1   
 37  19  20  1   
 38  20  36  1   
 39  20  37  1   
 40  20  38  1   
@<TRIPOS>SUBSTRUCTURE
  1 ****  10 GROUP 4 **** **** 0

# MOE 2024.06 (io_trps.svl 2023.06)
