@<TRIPOS>MOLECULE
NONAME
42 43 1 0 0 
SMALL
USER_CHARGES


@<TRIPOS>ATOM
  1 CL      -5.3280    -1.9770    -0.9990 Cl    1 <1>  -0.1770 
  2 C       -3.7190    -2.6440    -0.9270 C.ar  1 <1>   0.1770 
  3 C       -3.4140    -3.5620     0.0580 C.ar  1 <1>  -0.1500 
  4 C       -2.7760    -2.2490    -1.8560 C.ar  1 <1>  -0.1500 
  5 C       -2.1430    -4.1200     0.1320 C.ar  1 <1>  -0.0090 
  6 C       -1.5040    -2.7900    -1.7920 C.ar  1 <1>  -0.1500 
  7 S       -1.7480    -5.3420     1.4120 S.o2  1 <1>   1.4470 
  8 C       -1.1970    -3.7150    -0.8060 C.ar  1 <1>  -0.1500 
  9 O       -0.5300    -6.0500     1.0880 O.2   1 <1>  -0.6500 
 10 O       -1.9310    -4.7730     2.7240 O.2   1 <1>  -0.6500 
 11 N       -3.0080    -6.4370     1.2550 N.am  1 <1>  -0.9140 
 12 C       -2.7570    -7.5350     0.3300 C.3   1 <1>   0.2760 
 13 C       -4.0800    -8.1720    -0.0700 C.3   1 <1>  -0.0800 
 14 C       -2.1120    -8.7010     1.0740 C.3   1 <1>   0.1200 
 15 C       -4.3530    -9.1590     1.0750 C.3   1 <1>   0.1200 
 16 C       -5.2260    -7.1760    -0.3390 C.3   1 <1>  -0.0550 
 17 O       -3.1580    -9.2750     1.7930 O.3   1 <1>  -0.5600 
 18 S       -6.7000    -7.9600    -0.9840 S.o2  1 <1>   1.3330 
 19 O       -7.3170    -8.7420     0.0630 O.2   1 <1>  -0.6500 
 20 O       -6.3410    -8.5910    -2.2330 O.2   1 <1>  -0.6500 
 21 N       -7.7120    -6.6410    -1.3230 N.am  1 <1>  -0.8490 
 22 C       -8.4200    -6.1290    -0.1440 C.3   1 <1>   0.1160 
 23 C       -8.6720    -6.9380    -2.3900 C.3   1 <1>   0.1160 
 24 H       -4.1700    -3.8430     0.7700 H     1 <1>   0.1500 
 25 H       -3.0370    -1.5310    -2.6140 H     1 <1>   0.1500 
 26 H       -0.7550    -2.4910    -2.5060 H     1 <1>   0.1500 
 27 H       -0.2030    -4.1300    -0.7650 H     1 <1>   0.1500 
 28 H       -3.0840    -6.8720     2.1790 H     1 <1>   0.4200 
 29 H       -2.1880    -7.2120    -0.5270 H     1 <1>   0.0800 
 30 H       -3.9140    -8.7500    -0.9640 H     1 <1>   0.0800 
 31 H       -1.3280    -8.4030     1.7480 H     1 <1>   0.0800 
 32 H       -1.7370    -9.4370     0.3840 H     1 <1>   0.0800 
 33 H       -4.6370   -10.1300     0.7070 H     1 <1>   0.0800 
 34 H       -5.1070    -8.7950     1.7530 H     1 <1>   0.0800 
 35 H       -4.8880    -6.4500    -1.0530 H     1 <1>   0.0800 
 36 H       -5.4730    -6.6550     0.5650 H     1 <1>   0.0800 
 37 H       -8.9770    -5.2450    -0.4030 H     1 <1>   0.0800 
 38 H       -7.7180    -5.8710     0.6290 H     1 <1>   0.0800 
 39 H       -9.1000    -6.8720     0.2400 H     1 <1>   0.0800 
 40 H       -9.2830    -6.0760    -2.5950 H     1 <1>   0.0800 
 41 H       -9.3050    -7.7630    -2.1060 H     1 <1>   0.0800 
 42 H       -8.1490    -7.2000    -3.2950 H     1 <1>   0.0800 
@<TRIPOS>BOND
  1   1   2  1   
  2   2   3  ar  
  3   2   4  ar  
  4   3   5  ar  
  5   3  24  1   
  6   4   6  ar  
  7   4  25  1   
  8   5   7  1   
  9   5   8  ar  
 10   6   8  ar  
 11   6  26  1   
 12   7   9  2   
 13   7  10  2   
 14   7  11  am  
 15   8  27  1   
 16  11  12  1   
 17  11  28  1   
 18  12  13  1   
 19  12  14  1   
 20  12  29  1   
 21  13  15  1   
 22  13  16  1   
 23  13  30  1   
 24  14  17  1   
 25  14  31  1   
 26  14  32  1   
 27  15  17  1   
 28  15  33  1   
 29  15  34  1   
 30  16  18  1   
 31  16  35  1   
 32  16  36  1   
 33  18  19  2   
 34  18  20  2   
 35  18  21  am  
 36  21  22  1   
 37  21  23  1   
 38  22  37  1   
 39  22  38  1   
 40  22  39  1   
 41  23  40  1   
 42  23  41  1   
 43  23  42  1   
@<TRIPOS>SUBSTRUCTURE
  1 ****  16 GROUP 4 **** **** 0

# MOE 2024.06 (io_trps.svl 2023.06)
