@<TRIPOS>MOLECULE
Untitled Document
45 46 1 0 0 
SMALL
USER_CHARGES


@<TRIPOS>ATOM
  1 O       -5.7690     0.7380     1.3580 O.2   1 <1>  -0.5700 
  2 C       -6.3580     1.7690     1.1150 C.2   1 <1>   0.8050 
  3 O       -5.8070     2.9420     1.4400 O.3   1 <1>  -0.4300 
  4 C       -7.6490     1.7950     0.4860 C.2   1 <1>  -0.2370 
  5 C       -4.5390     3.0170     2.0610 C.3   1 <1>   0.0400 
  6 N       -8.3370     2.9590     0.2480 N.pl3 1 <1>   0.0330 
  7 C       -8.4130     0.7610     0.0250 C.2   1 <1>  -0.1500 
  8 C       -9.5260     2.6550    -0.3540 C.ar  1 <1>  -0.1520 
  9 C       -9.6090     1.2790    -0.5100 C.ar  1 <1>   0.0000 
 10 C      -10.5560     3.4920    -0.7810 C.ar  1 <1>   0.0830 
 11 C      -10.7520     0.7150    -1.1040 C.ar  1 <1>  -0.1430 
 12 O      -10.4280     4.8190    -0.6100 O.3   1 <1>  -0.5320 
 13 C      -11.6730     2.9420    -1.3630 C.ar  1 <1>  -0.1500 
 14 C      -11.7690     1.5530    -1.5190 C.ar  1 <1>  -0.1500 
 15 C      -10.8100    -0.7980    -1.2260 C.3   1 <1>   0.3430 
 16 O      -11.6330    -1.1590    -2.2920 O.3   1 <1>  -0.6800 
 17 C      -11.3690    -1.4130     0.0750 C.3   1 <1>   0.3430 
 18 N      -12.0720    -2.7120    -0.1930 N.4   1 <1>  -0.9060 
 19 C      -13.0590    -3.1710     0.7790 C.3   1 <1>   0.5030 
 20 C      -13.5840    -4.5050     0.2610 C.3   1 <1>  -0.2400 
 21 C      -12.3870    -3.3630     2.1370 C.3   1 <1>  -0.2400 
 22 C      -14.2020    -2.1600     0.8660 C.3   1 <1>  -0.2400 
 23 H       -4.2990     4.0520     2.2260 H     1 <1>   0.0800 
 24 H       -3.8060     2.5660     1.4140 H     1 <1>   0.0800 
 25 H       -4.5780     2.4910     3.0000 H     1 <1>   0.0800 
 26 H       -8.0270     3.9130     0.4710 H     1 <1>   0.2700 
 27 H       -8.1370    -0.2780     0.0610 H     1 <1>   0.1500 
 28 H      -11.1880     5.3220    -0.9540 H     1 <1>   0.4500 
 29 H      -12.4810     3.5650    -1.7010 H     1 <1>   0.1500 
 30 H      -12.6660     1.1640    -1.9720 H     1 <1>   0.1500 
 31 H       -9.8280    -1.1900    -1.4310 H     1 <1>   0.0800 
 32 H      -11.3690    -0.6360    -3.0810 H     1 <1>   0.4000 
 33 H      -12.0660    -0.7030     0.4880 H     1 <1>   0.0800 
 34 H      -10.5760    -1.5420     0.7930 H     1 <1>   0.0800 
 35 H      -11.3900    -3.4570    -0.3550 H     1 <1>   0.4500 
 36 H      -12.5410    -2.5680    -1.1030 H     1 <1>   0.4500 
 37 H      -12.7950    -5.2320     0.1870 H     1 <1>   0.0800 
 38 H      -14.0520    -4.3910    -0.7010 H     1 <1>   0.0800 
 39 H      -14.3240    -4.8960     0.9390 H     1 <1>   0.0800 
 40 H      -11.5590    -4.0460     2.0670 H     1 <1>   0.0800 
 41 H      -13.0940    -3.7760     2.8360 H     1 <1>   0.0800 
 42 H      -12.0440    -2.4290     2.5450 H     1 <1>   0.0800 
 43 H      -14.6300    -1.9760    -0.1030 H     1 <1>   0.0800 
 44 H      -13.8800    -1.2290     1.2960 H     1 <1>   0.0800 
 45 H      -14.9810    -2.5490     1.5000 H     1 <1>   0.0800 
@<TRIPOS>BOND
  1   1   2  2   
  2   2   3  1   
  3   2   4  1   
  4   3   5  1   
  5   4   6  1   
  6   4   7  2   
  7   5  23  1   
  8   5  24  1   
  9   5  25  1   
 10   6   8  1   
 11   6  26  1   
 12   7   9  1   
 13   7  27  1   
 14   8   9  ar  
 15   8  10  ar  
 16   9  11  ar  
 17  10  12  1   
 18  10  13  ar  
 19  11  14  ar  
 20  11  15  1   
 21  12  28  1   
 22  13  14  ar  
 23  13  29  1   
 24  14  30  1   
 25  15  16  1   
 26  15  17  1   
 27  15  31  1   
 28  16  32  1   
 29  17  18  1   
 30  17  33  1   
 31  17  34  1   
 32  18  19  1   
 33  18  35  1   
 34  18  36  1   
 35  19  20  1   
 36  19  21  1   
 37  19  22  1   
 38  20  37  1   
 39  20  38  1   
 40  20  39  1   
 41  21  40  1   
 42  21  41  1   
 43  21  42  1   
 44  22  43  1   
 45  22  44  1   
 46  22  45  1   
@<TRIPOS>SUBSTRUCTURE
  1 ****   9 GROUP 4 **** **** 0

# MOE 2024.06 (io_trps.svl 2023.06)
