@<TRIPOS>MOLECULE
NONAME
49 51 1 0 0 
SMALL
USER_CHARGES


@<TRIPOS>ATOM
  1 S        0.3400    -0.2240    -1.0240 S.o2  1 <1>   1.3330 
  2 O        1.6730    -0.3710    -1.5660 O.2   1 <1>  -0.6500 
  3 O       -0.6340    -1.2720    -1.2230 O.2   1 <1>  -0.6500 
  4 N        0.4800     0.0280     0.6500 N.am  1 <1>  -0.8490 
  5 C       -0.3320     1.3240    -1.6330 C.3   1 <1>  -0.0550 
  6 C        1.5490    -0.7770     1.2480 C.3   1 <1>   0.1160 
  7 C       -0.7740    -0.1880     1.3800 C.3   1 <1>   0.1160 
  8 C        0.6350     2.5250    -1.5290 C.3   1 <1>  -0.0800 
  9 C        0.1320     3.7940    -2.2190 C.3   1 <1>   0.2000 
 10 C        0.9470     2.9750    -0.0950 C.3   1 <1>   0.1400 
 11 O       -1.1990     3.9940    -1.8840 O.3   1 <1>  -0.6800 
 12 C        0.9590     4.9070    -1.5780 C.3   1 <1>   0.1400 
 13 N        1.1890     4.4390    -0.1860 N.am  1 <1>  -0.6600 
 14 C        1.5860     5.2050     0.9000 C.2   1 <1>   0.6300 
 15 O        1.5470     4.6500     1.9880 O.2   1 <1>  -0.5700 
 16 C        2.0270     6.6070     0.8160 C.2   1 <1>   0.4360 
 17 N        2.3570     7.1740    -0.3240 N.2   1 <1>  -0.5760 
 18 C        2.1000     7.3700     2.0350 C.2   1 <1>  -0.1360 
 19 C        2.7590     8.4850    -0.3020 C.2   1 <1>  -0.0260 
 20 C        2.4990     8.6680     2.0540 C.2   1 <1>  -0.1690 
 21 N        2.8410     9.2450     0.8420 N.pl3 1 <1>   0.6010 
 22 C        3.1470     9.3030    -1.3140 C.2   1 <1>  -0.1500 
 23 C        2.5940     9.5170     3.3150 C.3   1 <1>  -0.1020 
 24 N        3.2620    10.5000     0.5770 N.2   1 <1>  -0.7070 
 25 C        3.4400    10.5140    -0.7140 C.2   1 <1>   0.1080 
 26 C        3.9190    11.7530    -1.4340 C.3   1 <1>  -0.0590 
 27 H       -0.5830     1.1930    -2.6680 H     1 <1>   0.0800 
 28 H       -1.2430     1.5450    -1.1130 H     1 <1>   0.0800 
 29 H        1.6200    -0.5780     2.3040 H     1 <1>   0.0800 
 30 H        2.4950    -0.5300     0.7960 H     1 <1>   0.0800 
 31 H        1.3570    -1.8270     1.0960 H     1 <1>   0.0800 
 32 H       -0.6490     0.0780     2.4160 H     1 <1>   0.0800 
 33 H       -1.0730    -1.2220     1.3180 H     1 <1>   0.0800 
 34 H       -1.5570     0.4220     0.9650 H     1 <1>   0.0800 
 35 H        1.5690     2.2530    -1.9910 H     1 <1>   0.0800 
 36 H        0.2180     3.7650    -3.2920 H     1 <1>   0.0800 
 37 H        1.8140     2.4700     0.2970 H     1 <1>   0.0800 
 38 H        0.1100     2.7990     0.5590 H     1 <1>   0.0800 
 39 H       -1.2490     4.2480    -0.9390 H     1 <1>   0.4000 
 40 H        0.4450     5.8520    -1.6100 H     1 <1>   0.0800 
 41 H        1.9080     4.9960    -2.0780 H     1 <1>   0.0800 
 42 H        1.8240     6.8710     2.9470 H     1 <1>   0.1500 
 43 H        3.2120     9.0580    -2.3570 H     1 <1>   0.1500 
 44 H        1.9500    10.3750     3.2290 H     1 <1>   0.0800 
 45 H        3.6040     9.8630     3.4490 H     1 <1>   0.0800 
 46 H        2.3040     8.9520     4.1830 H     1 <1>   0.0800 
 47 H        4.0040    11.5670    -2.4880 H     1 <1>   0.0800 
 48 H        4.8790    12.0430    -1.0480 H     1 <1>   0.0800 
 49 H        3.2220    12.5540    -1.2720 H     1 <1>   0.0800 
@<TRIPOS>BOND
  1   1   2  2   
  2   1   3  2   
  3   1   4  am  
  4   1   5  1   
  5   4   6  1   
  6   4   7  1   
  7   5   8  1   
  8   5  27  1   
  9   5  28  1   
 10   6  29  1   
 11   6  30  1   
 12   6  31  1   
 13   7  32  1   
 14   7  33  1   
 15   7  34  1   
 16   8   9  1   
 17   8  10  1   
 18   8  35  1   
 19   9  11  1   
 20   9  12  1   
 21   9  36  1   
 22  10  13  1   
 23  10  37  1   
 24  10  38  1   
 25  11  39  1   
 26  12  13  1   
 27  12  40  1   
 28  12  41  1   
 29  13  14  am  
 30  14  15  2   
 31  14  16  1   
 32  16  17  2   
 33  16  18  1   
 34  17  19  1   
 35  18  20  2   
 36  18  42  1   
 37  19  21  1   
 38  19  22  2   
 39  20  21  1   
 40  20  23  1   
 41  21  24  1   
 42  22  25  1   
 43  22  43  1   
 44  23  44  1   
 45  23  45  1   
 46  23  46  1   
 47  24  25  2   
 48  25  26  1   
 49  26  47  1   
 50  26  48  1   
 51  26  49  1   
@<TRIPOS>SUBSTRUCTURE
  1 ****  13 GROUP 4 **** **** 0

# MOE 2024.06 (io_trps.svl 2023.06)
