@<TRIPOS>MOLECULE
NONAME
45 48 1 0 0 
SMALL
USER_CHARGES


@<TRIPOS>ATOM
  1 O       -1.3270     0.2670     2.2680 O.2   1 <1>  -0.5700 
  2 C       -1.9600     0.8880     1.4470 C.2   1 <1>   0.5690 
  3 N       -3.1960     0.4650     1.0340 N.am  1 <1>  -0.6600 
  4 C       -1.2830     2.0890     0.8300 C.3   1 <1>   0.1570 
  5 C       -4.0540     1.0970    -0.0130 C.3   1 <1>   0.1400 
  6 C       -3.6220    -0.9440     1.2420 C.3   1 <1>   0.1400 
  7 N       -0.9210     1.7610    -0.5540 N.pl3 1 <1>   0.3140 
  8 C       -5.1350     0.0590    -0.3250 C.3   1 <1>   0.2000 
  9 C       -4.4840    -1.2820     0.0190 C.3   1 <1>  -0.0800 
 10 N       -1.2360     2.5490    -1.5690 N.2   1 <1>  -0.4180 
 11 C       -0.4530     0.6150    -1.0590 C.2   1 <1>   0.2700 
 12 O       -6.2020     0.2560     0.5370 O.3   1 <1>  -0.6800 
 13 C       -3.6350    -1.7940    -1.1670 C.3   1 <1>  -0.0170 
 14 N       -0.9530     1.8910    -2.6320 N.2   1 <1>   0.0000 
 15 N       -0.4740     0.6830    -2.3380 N.2   1 <1>  -0.3380 
 16 N       -0.0480    -0.5130    -0.3580 N.pl3 1 <1>  -0.8840 
 17 C       -2.9140    -3.0950    -0.8490 C.ar  1 <1>   0.1670 
 18 N       -1.6420    -3.0340    -0.5930 N.ar  1 <1>  -0.6200 
 19 C       -3.6510    -4.2890    -0.8440 C.ar  1 <1>  -0.1500 
 20 C       -0.9980    -4.1950    -0.3010 C.ar  1 <1>   0.3100 
 21 C       -3.0330    -5.4670    -0.5540 C.ar  1 <1>  -0.1500 
 22 C       -1.6580    -5.4440    -0.2680 C.ar  1 <1>   0.0000 
 23 C        0.3770    -4.1600    -0.0170 C.ar  1 <1>  -0.1500 
 24 C       -0.9200    -6.6010     0.0470 C.ar  1 <1>  -0.1500 
 25 C        1.0760    -5.2970     0.2880 C.ar  1 <1>  -0.1500 
 26 C        0.4190    -6.5310     0.3200 C.ar  1 <1>  -0.1500 
 27 H       -0.3890     2.3280     1.3730 H     1 <1>   0.0800 
 28 H       -1.9450     2.9330     0.8390 H     1 <1>   0.0800 
 29 H       -4.4810     2.0250     0.3260 H     1 <1>   0.0800 
 30 H       -3.4800     1.2700    -0.9050 H     1 <1>   0.0800 
 31 H       -2.7760    -1.6020     1.3430 H     1 <1>   0.0800 
 32 H       -4.2100    -1.0020     2.1420 H     1 <1>   0.0800 
 33 H       -5.5020     0.1210    -1.3360 H     1 <1>   0.0800 
 34 H       -5.2250    -2.0230     0.2620 H     1 <1>   0.0800 
 35 H       -5.8730     0.3170     1.4550 H     1 <1>   0.4000 
 36 H       -2.9060    -1.0570    -1.4530 H     1 <1>   0.0800 
 37 H       -4.2710    -1.9560    -2.0190 H     1 <1>   0.0800 
 38 H       -0.3170    -0.5800     0.6340 H     1 <1>   0.4000 
 39 H       -0.3060    -1.3980    -0.8260 H     1 <1>   0.4000 
 40 H       -4.7020    -4.2600    -1.0700 H     1 <1>   0.1500 
 41 H       -3.5650    -6.4020    -0.5410 H     1 <1>   0.1500 
 42 H        0.8710    -3.2070    -0.0450 H     1 <1>   0.1500 
 43 H       -1.4300    -7.5480     0.0700 H     1 <1>   0.1500 
 44 H        2.1300    -5.2550     0.5030 H     1 <1>   0.1500 
 45 H        0.9820    -7.4170     0.5610 H     1 <1>   0.1500 
@<TRIPOS>BOND
  1   1   2  2   
  2   2   3  am  
  3   2   4  1   
  4   3   5  1   
  5   3   6  1   
  6   4   7  1   
  7   4  27  1   
  8   4  28  1   
  9   5   8  1   
 10   5  29  1   
 11   5  30  1   
 12   6   9  1   
 13   6  31  1   
 14   6  32  1   
 15   7  10  1   
 16   7  11  1   
 17   8   9  1   
 18   8  12  1   
 19   8  33  1   
 20   9  13  1   
 21   9  34  1   
 22  10  14  2   
 23  11  15  2   
 24  11  16  1   
 25  12  35  1   
 26  13  17  1   
 27  13  36  1   
 28  13  37  1   
 29  14  15  1   
 30  16  38  1   
 31  16  39  1   
 32  17  18  ar  
 33  17  19  ar  
 34  18  20  ar  
 35  19  21  ar  
 36  19  40  1   
 37  20  22  ar  
 38  20  23  ar  
 39  21  22  ar  
 40  21  41  1   
 41  22  24  ar  
 42  23  25  ar  
 43  23  42  1   
 44  24  26  ar  
 45  24  43  1   
 46  25  26  ar  
 47  25  44  1   
 48  26  45  1   
@<TRIPOS>SUBSTRUCTURE
  1 ****  18 GROUP 4 **** **** 0

# MOE 2024.06 (io_trps.svl 2023.06)
