@<TRIPOS>MOLECULE
NONAME
42 43 1 0 0 
SMALL
USER_CHARGES


@<TRIPOS>ATOM
  1 S        0.1600    -0.4490     1.3120 S.o2  1 <1>   1.4470 
  2 O       -0.9410     0.2500     1.9370 O.2   1 <1>  -0.6500 
  3 O        0.8840    -1.3960     2.1350 O.2   1 <1>  -0.6500 
  4 N       -0.4600    -1.3070    -0.0200 N.am  1 <1>  -0.8490 
  5 C        1.3690     0.6920     0.5160 C.ar  1 <1>  -0.0090 
  6 C       -1.1340    -2.5780     0.3080 C.3   1 <1>   0.1960 
  7 C       -1.1660    -0.5190    -1.0370 C.3   1 <1>   0.1960 
  8 C        1.1630     2.0800     0.4300 C.ar  1 <1>  -0.1440 
  9 C        2.5430     0.1860    -0.0660 C.ar  1 <1>  -0.1440 
 10 C       -2.6030    -2.3820     0.6970 C.3   1 <1>  -0.1860 
 11 C       -2.6370    -0.2750    -0.6870 C.3   1 <1>  -0.1600 
 12 C        2.0880     2.9000    -0.1970 C.ar  1 <1>  -0.1500 
 13 C       -0.0630     2.7840     1.0050 C.3   1 <1>  -0.0970 
 14 C        3.4550     1.0260    -0.6870 C.ar  1 <1>  -0.1500 
 15 C        2.8950    -1.3000    -0.0550 C.3   1 <1>  -0.0970 
 16 C       -3.2870    -3.7180     0.8850 C.2   1 <1>   0.9060 
 17 C       -3.3310    -1.5980    -0.3900 C.3   1 <1>   0.2000 
 18 C        3.2350     2.3840    -0.7590 C.ar  1 <1>  -0.1440 
 19 O       -2.6650    -4.7640     0.6740 O.co2 1 <1>  -0.9000 
 20 O       -4.4830    -3.7150     1.2020 O.co2 1 <1>  -0.9000 
 21 O       -4.6130    -1.3300     0.0340 O.3   1 <1>  -0.6800 
 22 C        4.2420     3.2940    -1.4390 C.3   1 <1>  -0.0970 
 23 H       -1.0900    -3.2180    -0.5570 H     1 <1>   0.0800 
 24 H       -0.6140    -3.0890     1.1020 H     1 <1>   0.0800 
 25 H       -0.6670     0.4220    -1.1920 H     1 <1>   0.0800 
 26 H       -1.1230    -1.0610    -1.9660 H     1 <1>   0.0800 
 27 H       -2.6510    -1.8540     1.6300 H     1 <1>   0.0800 
 28 H       -3.1240     0.2000    -1.5180 H     1 <1>   0.0800 
 29 H       -2.7130     0.3750     0.1640 H     1 <1>   0.0800 
 30 H        1.9200     3.9610    -0.2520 H     1 <1>   0.1500 
 31 H       -0.0380     3.8420     0.8150 H     1 <1>   0.0800 
 32 H       -0.1040     2.6460     2.0710 H     1 <1>   0.0800 
 33 H       -0.9620     2.3960     0.5630 H     1 <1>   0.0800 
 34 H        4.3520     0.6200    -1.1200 H     1 <1>   0.1500 
 35 H        3.7450    -1.5060    -0.6800 H     1 <1>   0.0800 
 36 H        2.0780    -1.8950    -0.4190 H     1 <1>   0.0800 
 37 H        3.1380    -1.6140     0.9450 H     1 <1>   0.0800 
 38 H       -3.4010    -2.1970    -1.2830 H     1 <1>   0.0800 
 39 H       -4.9140    -2.1530     0.5220 H     1 <1>   0.4000 
 40 H        3.7490     4.1480    -1.8680 H     1 <1>   0.0800 
 41 H        4.7550     2.7690    -2.2250 H     1 <1>   0.0800 
 42 H        4.9650     3.6360    -0.7200 H     1 <1>   0.0800 
@<TRIPOS>BOND
  1   1   2  2   
  2   1   3  2   
  3   1   4  am  
  4   1   5  1   
  5   4   6  1   
  6   4   7  1   
  7   5   8  ar  
  8   5   9  ar  
  9   6  10  1   
 10   6  23  1   
 11   6  24  1   
 12   7  11  1   
 13   7  25  1   
 14   7  26  1   
 15   8  12  ar  
 16   8  13  1   
 17   9  14  ar  
 18   9  15  1   
 19  10  16  1   
 20  10  17  1   
 21  10  27  1   
 22  11  17  1   
 23  11  28  1   
 24  11  29  1   
 25  12  18  ar  
 26  12  30  1   
 27  13  31  1   
 28  13  32  1   
 29  13  33  1   
 30  14  18  ar  
 31  14  34  1   
 32  15  35  1   
 33  15  36  1   
 34  15  37  1   
 35  16  19  ar  
 36  16  20  ar  
 37  17  21  1   
 38  17  38  1   
 39  18  22  1   
 40  21  39  1   
 41  22  40  1   
 42  22  41  1   
 43  22  42  1   
@<TRIPOS>SUBSTRUCTURE
  1 ****   4 GROUP 4 **** **** 0

# MOE 2024.06 (io_trps.svl 2023.06)
