@<TRIPOS>MOLECULE
NONAME
48 49 1 0 0 
SMALL
USER_CHARGES


@<TRIPOS>ATOM
  1 CL      -5.4610    -0.9640    -2.9140 Cl    1 <1>  -0.1770 
  2 C       -4.4920    -1.7520    -1.6960 C.ar  1 <1>   0.1770 
  3 C       -4.9700    -2.9010    -1.0990 C.ar  1 <1>  -0.1500 
  4 C       -3.2650    -1.2180    -1.3510 C.ar  1 <1>  -0.1500 
  5 C       -4.2060    -3.5400    -0.1360 C.ar  1 <1>   0.0830 
  6 C       -2.5020    -1.8500    -0.3840 C.ar  1 <1>  -0.1500 
  7 O       -4.7250    -4.6710     0.4010 O.3   1 <1>  -0.3630 
  8 C       -2.9680    -3.0060     0.2240 C.ar  1 <1>  -0.1500 
  9 C       -4.0200    -5.4070     1.3900 C.3   1 <1>   0.1810 
 10 C       -4.7870    -6.6670     1.7900 C.2   1 <1>   0.5690 
 11 O       -5.1910    -6.7220     2.9260 O.2   1 <1>  -0.5700 
 12 N       -5.0190    -7.6970     0.9060 N.am  1 <1>  -0.6600 
 13 C       -5.4050    -9.0430     1.4380 C.3   1 <1>   0.3200 
 14 C       -4.7600    -7.6030    -0.5730 C.3   1 <1>   0.1400 
 15 C       -6.7150    -9.4560     0.8060 C.2   1 <1>  -0.3320 
 16 C       -5.8220    -6.8110    -1.3860 C.3   1 <1>   0.3430 
 17 N       -6.8440   -10.3070    -0.2320 N.pl3 1 <1>   0.0330 
 18 C       -7.9630    -9.0610     1.1370 C.2   1 <1>   0.0770 
 19 N       -7.2290    -6.9650    -0.8900 N.4   1 <1>  -0.9590 
 20 C       -8.1650   -10.3210    -0.5090 C.2   1 <1>   0.0060 
 21 N       -8.8610    -9.5610     0.2710 N.2   1 <1>  -0.5650 
 22 C       -8.2340    -7.0570    -1.9860 C.3   1 <1>   0.2630 
 23 C       -7.6080    -5.8890     0.0760 C.3   1 <1>   0.2630 
 24 C       -8.7650   -11.1630    -1.6150 C.3   1 <1>  -0.0600 
 25 H       -5.9300    -3.2840    -1.3840 H     1 <1>   0.1500 
 26 H       -2.9170    -0.3200    -1.8320 H     1 <1>   0.1500 
 27 H       -1.5460    -1.4400    -0.1040 H     1 <1>   0.1500 
 28 H       -2.3500    -3.4650     0.9730 H     1 <1>   0.1500 
 29 H       -3.8950    -4.7760     2.2530 H     1 <1>   0.0800 
 30 H       -3.0570    -5.6800     1.0000 H     1 <1>   0.0800 
 31 H       -5.5260    -9.0150     2.5090 H     1 <1>   0.0800 
 32 H       -4.6320    -9.7590     1.2180 H     1 <1>   0.0800 
 33 H       -4.6980    -8.5960    -0.9810 H     1 <1>   0.0800 
 34 H       -3.7980    -7.1510    -0.7400 H     1 <1>   0.0800 
 35 H       -5.7650    -7.1440    -2.4080 H     1 <1>   0.0800 
 36 H       -5.5600    -5.7670    -1.3890 H     1 <1>   0.0800 
 37 H       -6.1200   -10.8670    -0.6960 H     1 <1>   0.2700 
 38 H       -8.2620    -8.4140     1.9490 H     1 <1>   0.1500 
 39 H       -7.2810    -7.8610    -0.3600 H     1 <1>   0.4500 
 40 H       -8.2690    -6.1370    -2.5460 H     1 <1>   0.0800 
 41 H       -9.2110    -7.2520    -1.5710 H     1 <1>   0.0800 
 42 H       -7.9850    -7.8650    -2.6540 H     1 <1>   0.0800 
 43 H       -7.5430    -4.9210    -0.3910 H     1 <1>   0.0800 
 44 H       -6.9540    -5.9040     0.9310 H     1 <1>   0.0800 
 45 H       -8.6170    -6.0430     0.4230 H     1 <1>   0.0800 
 46 H       -8.3370   -10.9020    -2.5650 H     1 <1>   0.0800 
 47 H       -9.8280   -11.0040    -1.6590 H     1 <1>   0.0800 
 48 H       -8.5880   -12.2050    -1.4200 H     1 <1>   0.0800 
@<TRIPOS>BOND
  1   1   2  1   
  2   2   3  ar  
  3   2   4  ar  
  4   3   5  ar  
  5   3  25  1   
  6   4   6  ar  
  7   4  26  1   
  8   5   7  1   
  9   5   8  ar  
 10   6   8  ar  
 11   6  27  1   
 12   7   9  1   
 13   8  28  1   
 14   9  10  1   
 15   9  29  1   
 16   9  30  1   
 17  10  11  2   
 18  10  12  am  
 19  12  13  1   
 20  12  14  1   
 21  13  15  1   
 22  13  31  1   
 23  13  32  1   
 24  14  16  1   
 25  14  33  1   
 26  14  34  1   
 27  15  17  1   
 28  15  18  2   
 29  16  19  1   
 30  16  35  1   
 31  16  36  1   
 32  17  20  1   
 33  17  37  1   
 34  18  21  1   
 35  18  38  1   
 36  19  22  1   
 37  19  23  1   
 38  19  39  1   
 39  20  21  2   
 40  20  24  1   
 41  22  40  1   
 42  22  41  1   
 43  22  42  1   
 44  23  43  1   
 45  23  44  1   
 46  23  45  1   
 47  24  46  1   
 48  24  47  1   
 49  24  48  1   
@<TRIPOS>SUBSTRUCTURE
  1 ****  16 GROUP 4 **** **** 0

# MOE 2024.06 (io_trps.svl 2023.06)
