@<TRIPOS>MOLECULE
NONAME
47 49 1 0 0 
SMALL
USER_CHARGES


@<TRIPOS>ATOM
  1 O       -0.4510    -2.8370     0.1070 O.3   1 <1>  -0.5600 
  2 C        0.5330    -1.8710    -0.1030 C.3   1 <1>   0.1200 
  3 C       -1.7310    -2.4010    -0.2360 C.3   1 <1>   0.0400 
  4 C        1.8930    -2.4200     0.3390 C.3   1 <1>   0.0960 
  5 N        2.3350    -3.5660    -0.4930 N.pl3 1 <1>   0.0480 
  6 C        1.8910    -4.8290    -0.5790 C.2   1 <1>   0.0060 
  7 C        3.3570    -3.5660    -1.3520 C.2   1 <1>   0.0360 
  8 N        2.5850    -5.5200    -1.4210 N.2   1 <1>  -0.3380 
  9 C        0.7140    -5.4000     0.1960 C.3   1 <1>   0.5230 
 10 N        3.5210    -4.7150    -1.9100 N.2   1 <1>  -0.3380 
 11 N        0.8130    -6.8900     0.2020 N.4   1 <1>  -0.9590 
 12 C       -0.5190    -7.5270     0.4200 C.3   1 <1>   0.3430 
 13 C        1.8770    -7.3570     1.1460 C.3   1 <1>   0.2630 
 14 C       -0.5180    -9.0100     0.0480 C.3   1 <1>   0.0210 
 15 C       -1.8930    -9.6160     0.2450 C.2   1 <1>  -0.1810 
 16 C       -2.1920   -10.9520    -0.1040 C.ar  1 <1>   0.0000 
 17 C       -3.0230    -9.0620     0.7530 C.2   1 <1>  -0.3020 
 18 C       -3.5300   -11.1530     0.2180 C.ar  1 <1>  -0.1520 
 19 C       -1.4540   -12.0030    -0.6610 C.ar  1 <1>  -0.1500 
 20 N       -4.0280    -9.9890     0.7410 N.pl3 1 <1>   0.0330 
 21 C       -4.1480   -12.3860    -0.0040 C.ar  1 <1>  -0.1500 
 22 C       -2.0620   -13.2170    -0.8800 C.ar  1 <1>  -0.1500 
 23 C       -3.4100   -13.4090    -0.5520 C.ar  1 <1>  -0.1500 
 24 H        0.2850    -1.0000     0.4800 H     1 <1>   0.0800 
 25 H        0.5520    -1.6070    -1.1480 H     1 <1>   0.0800 
 26 H       -2.4280    -3.1980    -0.0430 H     1 <1>   0.0800 
 27 H       -1.7550    -2.1470    -1.2820 H     1 <1>   0.0800 
 28 H       -1.9910    -1.5450     0.3640 H     1 <1>   0.0800 
 29 H        1.8460    -2.7210     1.3700 H     1 <1>   0.0800 
 30 H        2.6260    -1.6380     0.2570 H     1 <1>   0.0800 
 31 H        3.9690    -2.7030    -1.5480 H     1 <1>   0.1500 
 32 H       -0.1930    -5.0960    -0.2990 H     1 <1>   0.0800 
 33 H        0.7010    -5.0140     1.2010 H     1 <1>   0.0800 
 34 H        1.1500    -7.0960    -0.7570 H     1 <1>   0.4500 
 35 H       -1.2600    -7.0330    -0.1890 H     1 <1>   0.0800 
 36 H       -0.8140    -7.4220     1.4520 H     1 <1>   0.0800 
 37 H        1.6080    -7.1260     2.1630 H     1 <1>   0.0800 
 38 H        2.8140    -6.8740     0.9140 H     1 <1>   0.0800 
 39 H        2.0170    -8.4220     1.0570 H     1 <1>   0.0800 
 40 H        0.1770    -9.5530     0.6610 H     1 <1>   0.0800 
 41 H       -0.2400    -9.1230    -0.9850 H     1 <1>   0.0800 
 42 H       -3.2010    -8.0710     1.1300 H     1 <1>   0.1500 
 43 H       -0.4210   -11.8520    -0.9120 H     1 <1>   0.1500 
 44 H       -4.9930    -9.8590     1.0640 H     1 <1>   0.2700 
 45 H       -5.1830   -12.5250     0.2500 H     1 <1>   0.1500 
 46 H       -1.5080   -14.0350    -1.3070 H     1 <1>   0.1500 
 47 H       -3.8610   -14.3680    -0.7330 H     1 <1>   0.1500 
@<TRIPOS>BOND
  1   1   2  1   
  2   1   3  1   
  3   2   4  1   
  4   2  24  1   
  5   2  25  1   
  6   3  26  1   
  7   3  27  1   
  8   3  28  1   
  9   4   5  1   
 10   4  29  1   
 11   4  30  1   
 12   5   6  1   
 13   5   7  1   
 14   6   8  2   
 15   6   9  1   
 16   7  10  2   
 17   7  31  1   
 18   8  10  1   
 19   9  11  1   
 20   9  32  1   
 21   9  33  1   
 22  11  12  1   
 23  11  13  1   
 24  11  34  1   
 25  12  14  1   
 26  12  35  1   
 27  12  36  1   
 28  13  37  1   
 29  13  38  1   
 30  13  39  1   
 31  14  15  1   
 32  14  40  1   
 33  14  41  1   
 34  15  16  1   
 35  15  17  2   
 36  16  18  ar  
 37  16  19  ar  
 38  17  20  1   
 39  17  42  1   
 40  18  20  1   
 41  18  21  ar  
 42  19  22  ar  
 43  19  43  1   
 44  20  44  1   
 45  21  23  ar  
 46  21  45  1   
 47  22  23  ar  
 48  22  46  1   
 49  23  47  1   
@<TRIPOS>SUBSTRUCTURE
  1 ****  12 GROUP 4 **** **** 0

# MOE 2024.06 (io_trps.svl 2023.06)
