@<TRIPOS>MOLECULE
NONAME
54 57 1 0 0 
SMALL
USER_CHARGES


@<TRIPOS>ATOM
  1 O       -0.0500    -1.1170     1.1020 O.3   1 <1>  -0.5600 
  2 C        0.5190    -2.2640     0.5480 C.3   1 <1>   0.2000 
  3 C       -1.1570    -1.3370     1.9200 C.3   1 <1>   0.0400 
  4 C        1.8610    -1.9520    -0.1380 C.3   1 <1>   0.0000 
  5 C       -0.3600    -2.8820    -0.5430 C.3   1 <1>  -0.1600 
  6 C        2.9740    -1.8100     0.9200 C.3   1 <1>   0.2090 
  7 C        1.8000    -0.6580    -0.9990 C.3   1 <1>  -0.1600 
  8 C        2.0250    -3.1920    -1.0360 C.3   1 <1>  -0.1600 
  9 C        0.6150    -3.5230    -1.5420 C.3   1 <1>  -0.1600 
 10 N        4.2960    -1.4570     0.2920 N.pl3 1 <1>  -0.8380 
 11 C        3.1750    -0.2620    -1.5620 C.3   1 <1>  -0.1600 
 12 C        5.3880    -2.2840     0.3500 C.ar  1 <1>   0.4610 
 13 C        4.2310    -0.1640    -0.4600 C.3   1 <1>   0.2090 
 14 N        6.6120    -1.7420     0.2590 N.ar  1 <1>  -0.1790 
 15 C        5.3540    -3.6470     0.5140 C.ar  1 <1>  -0.1500 
 16 C        7.7430    -2.4710     0.3100 C.ar  1 <1>   0.7710 
 17 C        6.5430    -4.3540     0.5650 C.ar  1 <1>   0.4100 
 18 N        7.7280    -3.7750     0.4640 N.ar  1 <1>  -0.6200 
 19 N        8.9350    -1.8210     0.2090 N.pl3 1 <1>  -0.8380 
 20 N        6.5760    -5.6850     0.7200 N.pl3 1 <1>  -0.9000 
 21 C        9.1850    -0.4040    -0.1720 C.3   1 <1>   0.2090 
 22 C       10.2280    -2.5460     0.3550 C.3   1 <1>   0.2090 
 23 C       10.6620    -0.3510    -0.5370 C.3   1 <1>  -0.1600 
 24 C       11.3000    -1.4680     0.2790 C.3   1 <1>  -0.1600 
 25 H        0.6770    -2.9840     1.3340 H     1 <1>   0.0800 
 26 H       -1.4690    -0.3890     2.3210 H     1 <1>   0.0800 
 27 H       -0.8830    -1.9970     2.7240 H     1 <1>   0.0800 
 28 H       -1.9570    -1.7590     1.3370 H     1 <1>   0.0800 
 29 H       -1.0270    -3.6160    -0.1280 H     1 <1>   0.0800 
 30 H       -0.9280    -2.1130    -1.0370 H     1 <1>   0.0800 
 31 H        3.0510    -2.7130     1.4990 H     1 <1>   0.0800 
 32 H        2.6970    -1.0220     1.6010 H     1 <1>   0.0800 
 33 H        1.0990    -0.7690    -1.8070 H     1 <1>   0.0800 
 34 H        1.4500     0.1570    -0.3910 H     1 <1>   0.0800 
 35 H        2.7150    -3.0460    -1.8460 H     1 <1>   0.0800 
 36 H        2.3680    -4.0220    -0.4440 H     1 <1>   0.0800 
 37 H        0.4690    -4.5880    -1.6050 H     1 <1>   0.0800 
 38 H        0.4620    -3.0970    -2.5190 H     1 <1>   0.0800 
 39 H        3.0890     0.6930    -2.0520 H     1 <1>   0.0800 
 40 H        3.4970    -0.9710    -2.3030 H     1 <1>   0.0800 
 41 H        3.9640     0.6290     0.2200 H     1 <1>   0.0800 
 42 H        5.1760     0.0790    -0.9100 H     1 <1>   0.0800 
 43 H        6.7060    -0.7430     0.2380 H     1 <1>   0.4570 
 44 H        4.4300    -4.1790     0.5960 H     1 <1>   0.1500 
 45 H        7.4780    -6.1690     0.7480 H     1 <1>   0.4000 
 46 H        5.7590    -6.2920     0.8020 H     1 <1>   0.4000 
 47 H        8.5770    -0.1010    -1.0080 H     1 <1>   0.0800 
 48 H        9.0010     0.2340     0.6770 H     1 <1>   0.0800 
 49 H       10.2730    -3.0810     1.2900 H     1 <1>   0.0800 
 50 H       10.3400    -3.2420    -0.4610 H     1 <1>   0.0800 
 51 H       10.7740    -0.5580    -1.5880 H     1 <1>   0.0800 
 52 H       11.0960     0.6100    -0.3230 H     1 <1>   0.0800 
 53 H       11.5180    -1.1210     1.2740 H     1 <1>   0.0800 
 54 H       12.2060    -1.8380    -0.1680 H     1 <1>   0.0800 
@<TRIPOS>BOND
  1   1   2  1   
  2   1   3  1   
  3   2   4  1   
  4   2   5  1   
  5   2  25  1   
  6   3  26  1   
  7   3  27  1   
  8   3  28  1   
  9   4   6  1   
 10   4   7  1   
 11   4   8  1   
 12   5   9  1   
 13   5  29  1   
 14   5  30  1   
 15   6  10  1   
 16   6  31  1   
 17   6  32  1   
 18   7  11  1   
 19   7  33  1   
 20   7  34  1   
 21   8   9  1   
 22   8  35  1   
 23   8  36  1   
 24   9  37  1   
 25   9  38  1   
 26  10  12  1   
 27  10  13  1   
 28  11  13  1   
 29  11  39  1   
 30  11  40  1   
 31  12  14  ar  
 32  12  15  ar  
 33  13  41  1   
 34  13  42  1   
 35  14  16  ar  
 36  14  43  1   
 37  15  17  ar  
 38  15  44  1   
 39  16  18  ar  
 40  16  19  1   
 41  17  18  ar  
 42  17  20  1   
 43  19  21  1   
 44  19  22  1   
 45  20  45  1   
 46  20  46  1   
 47  21  23  1   
 48  21  47  1   
 49  21  48  1   
 50  22  24  1   
 51  22  49  1   
 52  22  50  1   
 53  23  24  1   
 54  23  51  1   
 55  23  52  1   
 56  24  53  1   
 57  24  54  1   
@<TRIPOS>SUBSTRUCTURE
  1 ****  12 GROUP 4 **** **** 0

# MOE 2024.06 (io_trps.svl 2023.06)
