@<TRIPOS>MOLECULE
NONAME
46 48 1 0 0 
SMALL
USER_CHARGES


@<TRIPOS>ATOM
  1 F        0.7120     1.0060    -0.1650 F     1 <1>  -0.1900 
  2 C       -0.1430     1.8900     0.2860 C.ar  1 <1>   0.1900 
  3 C       -0.5380     1.8370     1.6130 C.ar  1 <1>   0.1900 
  4 C       -0.6330     2.8700    -0.5680 C.ar  1 <1>  -0.1440 
  5 F       -0.0620     0.9120     2.4070 F     1 <1>  -0.1900 
  6 C       -1.4330     2.7560     2.1270 C.ar  1 <1>  -0.1500 
  7 C       -1.5380     3.7890    -0.0480 C.ar  1 <1>  -0.1500 
  8 C       -0.2080     2.9710    -2.0350 C.3   1 <1>   0.0450 
  9 C       -1.9340     3.7350     1.2830 C.ar  1 <1>  -0.1500 
 10 C        0.2740     4.3700    -2.3970 C.2   1 <1>   0.5690 
 11 O       -0.4380     5.0150    -3.1310 O.2   1 <1>  -0.5700 
 12 N        1.4430     4.8880    -1.8870 N.am  1 <1>  -0.6600 
 13 C        2.3630     4.1640    -0.9560 C.3   1 <1>   0.1400 
 14 C        1.7890     6.3180    -2.1150 C.3   1 <1>   0.1400 
 15 C        2.2980     4.7450     0.4630 C.3   1 <1>   0.1400 
 16 C        1.2830     7.1570    -0.9370 C.3   1 <1>  -0.1600 
 17 N        3.0340     6.0430     0.5410 N.am  1 <1>  -0.6600 
 18 C        2.2770     7.2910     0.2260 C.3   1 <1>   0.1400 
 19 C        4.3700     6.0620     0.9110 C.2   1 <1>   0.7150 
 20 O        4.9860     5.0110     0.8120 O.2   1 <1>  -0.5700 
 21 C        5.0560     7.2610     1.3860 C.2   1 <1>   0.1010 
 22 N        4.4970     8.2900     1.9960 N.2   1 <1>  -0.5650 
 23 N        6.4080     7.4430     1.2540 N.pl3 1 <1>   0.0480 
 24 C        5.5050     9.1300     2.2510 C.2   1 <1>   0.0770 
 25 C        6.6760     8.6330     1.8060 C.2   1 <1>  -0.3020 
 26 C        7.4170     6.5570     0.6370 C.3   1 <1>   0.0160 
 27 H       -1.7300     2.7030     3.1590 H     1 <1>   0.1500 
 28 H       -1.9430     4.5610    -0.6830 H     1 <1>   0.1500 
 29 H       -1.0560     2.7330    -2.6510 H     1 <1>   0.0800 
 30 H        0.5630     2.2660    -2.2820 H     1 <1>   0.0800 
 31 H       -2.6350     4.4610     1.6610 H     1 <1>   0.1500 
 32 H        3.3730     4.2290    -1.3210 H     1 <1>   0.0800 
 33 H        2.1140     3.1220    -0.9120 H     1 <1>   0.0800 
 34 H        1.3190     6.6600    -3.0220 H     1 <1>   0.0800 
 35 H        2.8530     6.4290    -2.2380 H     1 <1>   0.0800 
 36 H        2.7500     4.0430     1.1430 H     1 <1>   0.0800 
 37 H        1.2740     4.8730     0.7680 H     1 <1>   0.0800 
 38 H        0.3470     6.7630    -0.5820 H     1 <1>   0.0800 
 39 H        1.0780     8.1500    -1.2950 H     1 <1>   0.0800 
 40 H        1.7600     7.6200     1.1110 H     1 <1>   0.0800 
 41 H        2.9790     8.0610    -0.0430 H     1 <1>   0.0800 
 42 H        5.3410    10.0700     2.7530 H     1 <1>   0.1500 
 43 H        7.6610     9.0610     1.8580 H     1 <1>   0.1500 
 44 H        7.0900     6.2700    -0.3450 H     1 <1>   0.0800 
 45 H        7.5340     5.6770     1.2450 H     1 <1>   0.0800 
 46 H        8.3580     7.0700     0.5660 H     1 <1>   0.0800 
@<TRIPOS>BOND
  1   1   2  1   
  2   2   3  ar  
  3   2   4  ar  
  4   3   5  1   
  5   3   6  ar  
  6   4   7  ar  
  7   4   8  1   
  8   6   9  ar  
  9   6  27  1   
 10   7   9  ar  
 11   7  28  1   
 12   8  10  1   
 13   8  29  1   
 14   8  30  1   
 15   9  31  1   
 16  10  11  2   
 17  10  12  am  
 18  12  13  1   
 19  12  14  1   
 20  13  15  1   
 21  13  32  1   
 22  13  33  1   
 23  14  16  1   
 24  14  34  1   
 25  14  35  1   
 26  15  17  1   
 27  15  36  1   
 28  15  37  1   
 29  16  18  1   
 30  16  38  1   
 31  16  39  1   
 32  17  18  1   
 33  17  19  am  
 34  18  40  1   
 35  18  41  1   
 36  19  20  2   
 37  19  21  1   
 38  21  22  2   
 39  21  23  1   
 40  22  24  1   
 41  23  25  1   
 42  23  26  1   
 43  24  25  2   
 44  24  42  1   
 45  25  43  1   
 46  26  44  1   
 47  26  45  1   
 48  26  46  1   
@<TRIPOS>SUBSTRUCTURE
  1 ****  15 GROUP 4 **** **** 0

# MOE 2024.06 (io_trps.svl 2023.06)
