@<TRIPOS>MOLECULE
NONAME
61 64 1 0 0 
SMALL
USER_CHARGES


@<TRIPOS>ATOM
  1 O        1.7180    -1.6690    -3.0800 O.2   1 <1>  -0.5700 
  2 C        1.7670    -2.0140    -1.9250 C.2   1 <1>   0.5690 
  3 N        2.8510    -1.6870    -1.1540 N.am  1 <1>  -0.6600 
  4 C        0.5830    -2.8190    -1.4210 C.3   1 <1>  -0.0990 
  5 C        3.1780    -2.2570     0.1940 C.3   1 <1>   0.1400 
  6 C        3.7420    -0.5670    -1.6390 C.3   1 <1>   0.3200 
  7 C        0.4910    -3.0030     0.0920 C.3   1 <1>   0.1200 
  8 C        2.7880    -3.7460     0.4310 C.3   1 <1>   0.2800 
  9 C        4.3420     0.2680    -0.5120 C.2   1 <1>   0.2980 
 10 O        1.4130    -3.9520     0.5470 O.3   1 <1>  -0.5600 
 11 C        3.2890    -4.6970    -0.6660 C.3   1 <1>  -0.1600 
 12 C        3.3670    -4.2270     1.7690 C.3   1 <1>  -0.1600 
 13 O        5.5100    -0.0870    -0.0350 O.3   1 <1>  -0.0190 
 14 N        3.8090     1.2780     0.0530 N.2   1 <1>  -0.5650 
 15 C        4.8080    -4.7350    -0.7070 C.3   1 <1>   0.3430 
 16 C        4.8930    -4.3120     1.7420 C.3   1 <1>   0.3430 
 17 N        5.7300     0.7580     0.9240 N.2   1 <1>  -0.4100 
 18 C        4.7370     1.5540     0.9540 C.2   1 <1>   0.3350 
 19 N        5.3510    -5.1770     0.6130 N.4   1 <1>  -0.9590 
 20 C        4.5750     2.7150     1.9060 C.3   1 <1>  -0.0590 
 21 C        6.8470    -5.2400     0.5770 C.3   1 <1>   0.5240 
 22 C        7.4190    -3.8870     0.1980 C.2   1 <1>  -0.1810 
 23 C        7.7640    -3.4530    -1.0810 C.2   1 <1>   0.1080 
 24 C        7.7130    -2.8380     1.0010 C.2   1 <1>  -0.3020 
 25 N        8.1980    -2.2380    -1.0750 N.2   1 <1>  -0.7070 
 26 C        7.6910    -4.2290    -2.3800 C.3   1 <1>  -0.0590 
 27 N        8.1870    -1.8530     0.2120 N.pl3 1 <1>   0.3140 
 28 C        8.6890    -0.5340     0.6320 C.3   1 <1>   0.0960 
 29 C       10.2170    -0.5420     0.6280 C.3   1 <1>   0.1200 
 30 O       10.6770     0.6820     1.0880 O.3   1 <1>  -0.6800 
 31 H        0.5670    -3.7770    -1.9060 H     1 <1>   0.0800 
 32 H       -0.3000    -2.2950    -1.7370 H     1 <1>   0.0800 
 33 H        2.7410    -1.6360     0.9580 H     1 <1>   0.0800 
 34 H        4.2410    -2.1890     0.3180 H     1 <1>   0.0800 
 35 H        3.1750     0.0980    -2.2670 H     1 <1>   0.0800 
 36 H        4.5370    -0.9790    -2.2350 H     1 <1>   0.0800 
 37 H       -0.4860    -3.3840     0.3380 H     1 <1>   0.0800 
 38 H        0.6210    -2.0750     0.6220 H     1 <1>   0.0800 
 39 H        2.9370    -4.3870    -1.6310 H     1 <1>   0.0800 
 40 H        2.9120    -5.6900    -0.4910 H     1 <1>   0.0800 
 41 H        2.9680    -5.1960     2.0110 H     1 <1>   0.0800 
 42 H        3.0700    -3.5500     2.5510 H     1 <1>   0.0800 
 43 H        5.1790    -3.7510    -0.9480 H     1 <1>   0.0800 
 44 H        5.1280    -5.4120    -1.4830 H     1 <1>   0.0800 
 45 H        5.2450    -4.7120     2.6790 H     1 <1>   0.0800 
 46 H        5.3040    -3.3210     1.6300 H     1 <1>   0.0800 
 47 H        4.9990    -6.1260     0.7920 H     1 <1>   0.4500 
 48 H        3.6840     2.5810     2.4900 H     1 <1>   0.0800 
 49 H        4.4950     3.6280     1.3470 H     1 <1>   0.0800 
 50 H        5.4230     2.7770     2.5630 H     1 <1>   0.0800 
 51 H        7.1710    -5.9790    -0.1380 H     1 <1>   0.0800 
 52 H        7.2260    -5.5260     1.5450 H     1 <1>   0.0800 
 53 H        7.6300    -2.7220     2.0670 H     1 <1>   0.1500 
 54 H        7.5530    -5.2790    -2.2100 H     1 <1>   0.0800 
 55 H        8.6100    -4.0920    -2.9220 H     1 <1>   0.0800 
 56 H        6.8870    -3.8510    -2.9850 H     1 <1>   0.0800 
 57 H        8.3210    -0.3180     1.6170 H     1 <1>   0.0800 
 58 H        8.3220     0.2010    -0.0600 H     1 <1>   0.0800 
 59 H       10.6030    -0.7020    -0.3650 H     1 <1>   0.0800 
 60 H       10.5930    -1.3020     1.2910 H     1 <1>   0.0800 
 61 H       10.5350     1.3840     0.4220 H     1 <1>   0.4000 
@<TRIPOS>BOND
  1   1   2  2   
  2   2   3  am  
  3   2   4  1   
  4   3   5  1   
  5   3   6  1   
  6   4   7  1   
  7   4  31  1   
  8   4  32  1   
  9   5   8  1   
 10   5  33  1   
 11   5  34  1   
 12   6   9  1   
 13   6  35  1   
 14   6  36  1   
 15   7  10  1   
 16   7  37  1   
 17   7  38  1   
 18   8  10  1   
 19   8  11  1   
 20   8  12  1   
 21   9  13  1   
 22   9  14  2   
 23  11  15  1   
 24  11  39  1   
 25  11  40  1   
 26  12  16  1   
 27  12  41  1   
 28  12  42  1   
 29  13  17  1   
 30  14  18  1   
 31  15  19  1   
 32  15  43  1   
 33  15  44  1   
 34  16  19  1   
 35  16  45  1   
 36  16  46  1   
 37  17  18  2   
 38  18  20  1   
 39  19  21  1   
 40  19  47  1   
 41  20  48  1   
 42  20  49  1   
 43  20  50  1   
 44  21  22  1   
 45  21  51  1   
 46  21  52  1   
 47  22  23  1   
 48  22  24  2   
 49  23  25  2   
 50  23  26  1   
 51  24  27  1   
 52  24  53  1   
 53  25  27  1   
 54  26  54  1   
 55  26  55  1   
 56  26  56  1   
 57  27  28  1   
 58  28  29  1   
 59  28  57  1   
 60  28  58  1   
 61  29  30  1   
 62  29  59  1   
 63  29  60  1   
 64  30  61  1   
@<TRIPOS>SUBSTRUCTURE
  1 ****   5 GROUP 4 **** **** 0

# MOE 2024.06 (io_trps.svl 2023.06)
