@<TRIPOS>MOLECULE
NONAME
55 58 1 0 0 
SMALL
USER_CHARGES


@<TRIPOS>ATOM
  1 S        0.5960     1.2540    -2.1780 S.3   1 <1>  -0.0800 
  2 C       -0.5550     1.4340    -0.8630 C.2   1 <1>  -0.1400 
  3 C       -0.4360     0.0630    -2.9600 C.2   1 <1>  -0.1100 
  4 C       -1.6210     0.6460    -1.0550 C.2   1 <1>  -0.1810 
  5 C       -0.3240     2.3770     0.3120 C.3   1 <1>   0.4600 
  6 C       -1.5590    -0.1450    -2.2460 C.2   1 <1>  -0.1500 
  7 C       -2.7470     0.6580    -0.0470 C.3   1 <1>   0.0210 
  8 O       -1.3560     2.1780     1.2610 O.3   1 <1>  -0.5600 
  9 C        0.9880     2.0430     1.0310 C.3   1 <1>  -0.1600 
 10 C       -0.3340     3.8460    -0.1340 C.3   1 <1>  -0.1600 
 11 C       -2.6630     1.9530     0.7850 C.3   1 <1>   0.1200 
 12 C        1.2650     3.0130     2.1810 C.3   1 <1>   0.1400 
 13 C       -0.0450     4.7890     1.0350 C.3   1 <1>   0.1400 
 14 N        1.2550     4.4080     1.6560 N.am  1 <1>  -0.6600 
 15 C        2.3660     5.2090     1.7420 C.2   1 <1>   0.5690 
 16 O        3.3920     4.8240     2.2530 O.2   1 <1>  -0.5700 
 17 C        2.3400     6.6130     1.1660 C.3   1 <1>  -0.0990 
 18 C        3.6400     7.3850     1.4270 C.3   1 <1>   0.0960 
 19 N        3.6160     8.6830     0.7210 N.pl3 1 <1>   0.3140 
 20 N        2.7480     9.6320     1.0950 N.2   1 <1>  -0.7070 
 21 C        4.3670     9.0880    -0.3220 C.2   1 <1>  -0.3320 
 22 C        2.9600    10.6200     0.2930 C.2   1 <1>   0.1080 
 23 C        3.9620    10.3560    -0.6540 C.2   1 <1>  -0.0860 
 24 C        5.4660     8.2220    -0.9300 C.3   1 <1>  -0.0600 
 25 C        2.1640    11.9030     0.4090 C.3   1 <1>  -0.0590 
 26 C        4.3720    11.2730    -1.6890 C.2   1 <1>   0.5950 
 27 O        4.3100    12.4720    -1.5880 O.2   1 <1>  -0.5700 
 28 C        4.8850    10.7420    -3.0090 C.3   1 <1>  -0.1790 
 29 H       -0.0860    -0.3620    -3.8840 H     1 <1>   0.1500 
 30 H       -2.3510    -0.8250    -2.5070 H     1 <1>   0.1500 
 31 H       -2.6670    -0.1980     0.5990 H     1 <1>   0.0800 
 32 H       -3.6960     0.6180    -0.5500 H     1 <1>   0.0800 
 33 H        1.8070     2.0970     0.3380 H     1 <1>   0.0800 
 34 H        0.9420     1.0360     1.4030 H     1 <1>   0.0800 
 35 H       -1.2770     4.0890    -0.5830 H     1 <1>   0.0800 
 36 H        0.4220     3.9900    -0.8840 H     1 <1>   0.0800 
 37 H       -3.3150     1.8870     1.6380 H     1 <1>   0.0800 
 38 H       -2.9600     2.7980     0.1900 H     1 <1>   0.0800 
 39 H        2.2150     2.7770     2.6310 H     1 <1>   0.0800 
 40 H        0.5060     2.9140     2.9380 H     1 <1>   0.0800 
 41 H       -0.8240     4.7040     1.7740 H     1 <1>   0.0800 
 42 H       -0.0340     5.8040     0.6820 H     1 <1>   0.0800 
 43 H        1.5260     7.1550     1.6110 H     1 <1>   0.0800 
 44 H        2.1810     6.5390     0.1060 H     1 <1>   0.0800 
 45 H        4.4840     6.8110     1.0940 H     1 <1>   0.0800 
 46 H        3.7510     7.5720     2.4800 H     1 <1>   0.0800 
 47 H        6.1140     7.8490    -0.1560 H     1 <1>   0.0800 
 48 H        6.0780     8.7800    -1.6120 H     1 <1>   0.0800 
 49 H        5.0350     7.3880    -1.4540 H     1 <1>   0.0800 
 50 H        1.3870    11.7900     1.1430 H     1 <1>   0.0800 
 51 H        1.7170    12.1480    -0.5370 H     1 <1>   0.0800 
 52 H        2.8130    12.7040     0.7100 H     1 <1>   0.0800 
 53 H        4.4930     9.7600    -3.1960 H     1 <1>   0.0800 
 54 H        5.9570    10.7140    -2.9940 H     1 <1>   0.0800 
 55 H        4.5680    11.3940    -3.8020 H     1 <1>   0.0800 
@<TRIPOS>BOND
  1   1   2  1   
  2   1   3  1   
  3   2   4  2   
  4   2   5  1   
  5   3   6  2   
  6   3  29  1   
  7   4   6  1   
  8   4   7  1   
  9   5   8  1   
 10   5   9  1   
 11   5  10  1   
 12   6  30  1   
 13   7  11  1   
 14   7  31  1   
 15   7  32  1   
 16   8  11  1   
 17   9  12  1   
 18   9  33  1   
 19   9  34  1   
 20  10  13  1   
 21  10  35  1   
 22  10  36  1   
 23  11  37  1   
 24  11  38  1   
 25  12  14  1   
 26  12  39  1   
 27  12  40  1   
 28  13  14  1   
 29  13  41  1   
 30  13  42  1   
 31  14  15  am  
 32  15  16  2   
 33  15  17  1   
 34  17  18  1   
 35  17  43  1   
 36  17  44  1   
 37  18  19  1   
 38  18  45  1   
 39  18  46  1   
 40  19  20  1   
 41  19  21  1   
 42  20  22  2   
 43  21  23  2   
 44  21  24  1   
 45  22  23  1   
 46  22  25  1   
 47  23  26  1   
 48  24  47  1   
 49  24  48  1   
 50  24  49  1   
 51  25  50  1   
 52  25  51  1   
 53  25  52  1   
 54  26  27  2   
 55  26  28  1   
 56  28  53  1   
 57  28  54  1   
 58  28  55  1   
@<TRIPOS>SUBSTRUCTURE
  1 ****  17 GROUP 4 **** **** 0

# MOE 2024.06 (io_trps.svl 2023.06)
