@<TRIPOS>MOLECULE
NONAME
49 51 1 0 0 
SMALL
USER_CHARGES


@<TRIPOS>ATOM
  1 O       -0.7770     0.2270    -0.4860 O.2   1 <1>  -0.5700 
  2 C       -1.6270     0.9000     0.0650 C.2   1 <1>   0.5440 
  3 N       -2.7610     0.2720     0.5310 N.am  1 <1>  -0.6600 
  4 C       -1.4350     2.3200     0.1930 C.ar  1 <1>   0.0860 
  5 C       -2.8000    -1.2120     0.7230 C.3   1 <1>   0.1400 
  6 C       -4.1280     0.8570     0.3740 C.3   1 <1>   0.1400 
  7 C       -1.9010     3.0480     1.2730 C.ar  1 <1>   0.1600 
  8 C       -0.7610     3.0590    -0.7620 C.ar  1 <1>   0.1600 
  9 C       -3.6610    -1.8840    -0.3600 C.3   1 <1>   0.3440 
 10 C       -4.9350     0.0780    -0.6930 C.3   1 <1>   0.2000 
 11 N       -1.7580     4.3460     1.3860 N.ar  1 <1>  -0.6200 
 12 N       -0.5970     4.3580    -0.6830 N.ar  1 <1>  -0.6200 
 13 O       -4.9340    -1.2910    -0.3930 O.3   1 <1>  -0.5600 
 14 C       -3.7970    -3.3780    -0.0840 C.ar  1 <1>  -0.1430 
 15 C       -6.4060     0.5350    -0.8360 C.3   1 <1>  -0.0800 
 16 C       -1.1090     4.9430     0.3950 C.ar  1 <1>   0.7200 
 17 C       -2.8730    -4.2590    -0.6290 C.ar  1 <1>  -0.1500 
 18 C       -4.8160    -3.8800     0.7140 C.ar  1 <1>  -0.1500 
 19 C       -6.5120     1.9960    -1.3000 C.3   1 <1>  -0.2400 
 20 C       -7.2420     0.3360     0.4400 C.3   1 <1>  -0.2400 
 21 N       -0.9780     6.2770     0.5360 N.pl3 1 <1>  -0.8690 
 22 C       -2.9660    -5.6180    -0.3790 C.ar  1 <1>  -0.1500 
 23 C       -4.9110    -5.2380     0.9640 C.ar  1 <1>  -0.1500 
 24 C       -0.2510     7.2170    -0.3520 C.3   1 <1>   0.1290 
 25 C       -3.9850    -6.1080     0.4180 C.ar  1 <1>  -0.1500 
 26 H       -1.8070    -1.6250     0.6920 H     1 <1>   0.0800 
 27 H       -3.2150    -1.4360     1.6890 H     1 <1>   0.0800 
 28 H       -4.6380     0.8110     1.3190 H     1 <1>   0.0800 
 29 H       -4.0630     1.8880     0.0780 H     1 <1>   0.0800 
 30 H       -2.4090     2.5300     2.0690 H     1 <1>   0.1500 
 31 H       -0.3510     2.5490    -1.6170 H     1 <1>   0.1500 
 32 H       -3.2030    -1.7410    -1.3240 H     1 <1>   0.0800 
 33 H       -4.4530     0.1990    -1.6480 H     1 <1>   0.0800 
 34 H       -6.8410    -0.0760    -1.6100 H     1 <1>   0.0800 
 35 H       -2.0740    -3.8920    -1.2500 H     1 <1>   0.1500 
 36 H       -5.5440    -3.2110     1.1410 H     1 <1>   0.1500 
 37 H       -6.1640     2.6740    -0.5420 H     1 <1>   0.0800 
 38 H       -7.5380     2.2370    -1.5190 H     1 <1>   0.0800 
 39 H       -5.9350     2.1490    -2.1950 H     1 <1>   0.0800 
 40 H       -6.9030     0.9740     1.2360 H     1 <1>   0.0800 
 41 H       -7.1850    -0.6870     0.7690 H     1 <1>   0.0800 
 42 H       -8.2750     0.5630     0.2430 H     1 <1>   0.0800 
 43 H       -1.3670     6.6470     1.4030 H     1 <1>   0.4000 
 44 H       -2.2450    -6.2930    -0.8060 H     1 <1>   0.1500 
 45 H       -5.7060    -5.6150     1.5830 H     1 <1>   0.1500 
 46 H        0.0940     6.7170    -1.2420 H     1 <1>   0.0800 
 47 H        0.6000     7.6220     0.1680 H     1 <1>   0.0800 
 48 H       -0.9050     8.0210    -0.6410 H     1 <1>   0.0800 
 49 H       -4.0580    -7.1640     0.6120 H     1 <1>   0.1500 
@<TRIPOS>BOND
  1   1   2  2   
  2   2   3  am  
  3   2   4  1   
  4   3   5  1   
  5   3   6  1   
  6   4   7  ar  
  7   4   8  ar  
  8   5   9  1   
  9   5  26  1   
 10   5  27  1   
 11   6  10  1   
 12   6  28  1   
 13   6  29  1   
 14   7  11  ar  
 15   7  30  1   
 16   8  12  ar  
 17   8  31  1   
 18   9  13  1   
 19   9  14  1   
 20   9  32  1   
 21  10  13  1   
 22  10  15  1   
 23  10  33  1   
 24  11  16  ar  
 25  12  16  ar  
 26  14  17  ar  
 27  14  18  ar  
 28  15  19  1   
 29  15  20  1   
 30  15  34  1   
 31  16  21  1   
 32  17  22  ar  
 33  17  35  1   
 34  18  23  ar  
 35  18  36  1   
 36  19  37  1   
 37  19  38  1   
 38  19  39  1   
 39  20  40  1   
 40  20  41  1   
 41  20  42  1   
 42  21  24  1   
 43  21  43  1   
 44  22  25  ar  
 45  22  44  1   
 46  23  25  ar  
 47  23  45  1   
 48  24  46  1   
 49  24  47  1   
 50  24  48  1   
 51  25  49  1   
@<TRIPOS>SUBSTRUCTURE
  1 ****   3 GROUP 4 **** **** 0

# MOE 2024.06 (io_trps.svl 2023.06)
