@<TRIPOS>MOLECULE
NONAME
56 59 1 0 0 
SMALL
USER_CHARGES


@<TRIPOS>ATOM
  1 O        0.9380     0.0160     1.6750 O.3   1 <1>  -0.5600 
  2 C        0.7760    -1.3530     1.4100 C.3   1 <1>   0.1200 
  3 C        1.5330     0.7210     0.6290 C.3   1 <1>   0.1200 
  4 C        2.1310    -2.0240     1.0990 C.3   1 <1>   0.3340 
  5 C        2.9370     0.1510     0.3460 C.3   1 <1>   0.1900 
  6 N        2.8530    -1.2940     0.0220 N.3   1 <1>  -0.8100 
  7 C        1.9130    -3.4800     0.6970 C.ar  1 <1>  -0.1440 
  8 C        3.6080     0.9210    -0.8120 C.3   1 <1>   0.3430 
  9 C        4.1890    -1.8650    -0.2440 C.3   1 <1>   0.1100 
 10 C        1.3260    -3.8020    -0.5200 C.ar  1 <1>  -0.1500 
 11 C        2.3070    -4.5040     1.5470 C.ar  1 <1>  -0.1500 
 12 N        4.9590     0.3500    -1.1740 N.4   1 <1>  -0.9590 
 13 C        4.8790    -1.1330    -1.4110 C.3   1 <1>   0.3430 
 14 C        1.1390    -5.1240    -0.8830 C.ar  1 <1>  -0.1500 
 15 C        2.1220    -5.8260     1.1850 C.ar  1 <1>  -0.1500 
 16 C        5.5630     1.0590    -2.3330 C.3   1 <1>   0.4860 
 17 C        1.5380    -6.1370    -0.0310 C.ar  1 <1>  -0.1500 
 18 C        5.7860     2.5080    -1.9480 C.ar  1 <1>  -0.1440 
 19 C        6.8300     2.8520    -1.1020 C.ar  1 <1>  -0.1500 
 20 C        4.9480     3.5020    -2.4330 C.ar  1 <1>  -0.1500 
 21 C        7.0350     4.1700    -0.7300 C.ar  1 <1>   0.0820 
 22 C        5.1460     4.8210    -2.0630 C.ar  1 <1>  -0.1500 
 23 O        8.0820     4.4110     0.0970 O.3   1 <1>  -0.3620 
 24 C        6.1830     5.1590    -1.2120 C.ar  1 <1>  -0.1500 
 25 C        8.4610     5.7310     0.4320 C.3   1 <1>   0.1200 
 26 C        9.7090     5.6740     1.3120 C.3   1 <1>   0.1200 
 27 O       10.1290     6.9660     1.5990 O.3   1 <1>  -0.6800 
 28 H        0.3310    -1.8070     2.2770 H     1 <1>   0.0800 
 29 H        0.0980    -1.4650     0.5820 H     1 <1>   0.0800 
 30 H        0.9000     0.6470    -0.2390 H     1 <1>   0.0800 
 31 H        1.5940     1.7520     0.9300 H     1 <1>   0.0800 
 32 H        2.7210    -1.9960     1.9990 H     1 <1>   0.0800 
 33 H        3.5280     0.2890     1.2350 H     1 <1>   0.0800 
 34 H        3.7140     1.9560    -0.5280 H     1 <1>   0.0800 
 35 H        2.9560     0.8760    -1.6680 H     1 <1>   0.0800 
 36 H        4.8010    -1.8090     0.6400 H     1 <1>   0.0800 
 37 H        4.0940    -2.9040    -0.5120 H     1 <1>   0.0800 
 38 H        1.0150    -3.0200    -1.1910 H     1 <1>   0.1500 
 39 H        2.7600    -4.2820     2.4980 H     1 <1>   0.1500 
 40 H        5.5750     0.5180    -0.3690 H     1 <1>   0.4500 
 41 H        4.3130    -1.3270    -2.3070 H     1 <1>   0.0800 
 42 H        5.8680    -1.5400    -1.5480 H     1 <1>   0.0800 
 43 H        0.6820    -5.3660    -1.8270 H     1 <1>   0.1500 
 44 H        2.4300    -6.6160     1.8490 H     1 <1>   0.1500 
 45 H        6.5090     0.6110    -2.5910 H     1 <1>   0.0800 
 46 H        4.9110     1.0000    -3.1890 H     1 <1>   0.0800 
 47 H        1.3930    -7.1660    -0.3110 H     1 <1>   0.1500 
 48 H        7.5110     2.1120    -0.7190 H     1 <1>   0.1500 
 49 H        4.1380     3.2690    -3.1040 H     1 <1>   0.1500 
 50 H        4.4940     5.5910    -2.4400 H     1 <1>   0.1500 
 51 H        6.3100     6.1900    -0.9400 H     1 <1>   0.1500 
 52 H        8.6670     6.2620    -0.4810 H     1 <1>   0.0800 
 53 H        7.6500     6.1920     0.9690 H     1 <1>   0.0800 
 54 H       10.5130     5.1600     0.8140 H     1 <1>   0.0800 
 55 H        9.4850     5.1870     2.2450 H     1 <1>   0.0800 
 56 H       10.5320     7.3880     0.8150 H     1 <1>   0.4000 
@<TRIPOS>BOND
  1   1   2  1   
  2   1   3  1   
  3   2   4  1   
  4   2  28  1   
  5   2  29  1   
  6   3   5  1   
  7   3  30  1   
  8   3  31  1   
  9   4   6  1   
 10   4   7  1   
 11   4  32  1   
 12   5   6  1   
 13   5   8  1   
 14   5  33  1   
 15   6   9  1   
 16   7  10  ar  
 17   7  11  ar  
 18   8  12  1   
 19   8  34  1   
 20   8  35  1   
 21   9  13  1   
 22   9  36  1   
 23   9  37  1   
 24  10  14  ar  
 25  10  38  1   
 26  11  15  ar  
 27  11  39  1   
 28  12  13  1   
 29  12  16  1   
 30  12  40  1   
 31  13  41  1   
 32  13  42  1   
 33  14  17  ar  
 34  14  43  1   
 35  15  17  ar  
 36  15  44  1   
 37  16  18  1   
 38  16  45  1   
 39  16  46  1   
 40  17  47  1   
 41  18  19  ar  
 42  18  20  ar  
 43  19  21  ar  
 44  19  48  1   
 45  20  22  ar  
 46  20  49  1   
 47  21  23  1   
 48  21  24  ar  
 49  22  24  ar  
 50  22  50  1   
 51  23  25  1   
 52  24  51  1   
 53  25  26  1   
 54  25  52  1   
 55  25  53  1   
 56  26  27  1   
 57  26  54  1   
 58  26  55  1   
 59  27  56  1   
@<TRIPOS>SUBSTRUCTURE
  1 ****   8 GROUP 4 **** **** 0

# MOE 2024.06 (io_trps.svl 2023.06)
