@<TRIPOS>MOLECULE
NONAME
48 50 1 0 0 
SMALL
USER_CHARGES


@<TRIPOS>ATOM
  1 N        1.3350     0.3330    -1.3510 N.ar  1 <1>  -0.6200 
  2 C        1.6860     1.2460    -0.4610 C.ar  1 <1>   0.4100 
  3 C        0.1910     0.6320    -1.9550 C.ar  1 <1>   0.1600 
  4 N        2.8760     1.0020     0.2430 N.pl3 1 <1>  -0.8380 
  5 C        0.9090     2.4220    -0.2000 C.ar  1 <1>   0.4100 
  6 C       -0.5570     1.7660    -1.6980 C.ar  1 <1>   0.1600 
  7 C        2.6900     0.4150     1.5950 C.3   1 <1>   0.1290 
  8 C        4.0040     0.3910    -0.5120 C.3   1 <1>   0.1290 
  9 N       -0.2250     2.7020    -0.8170 N.ar  1 <1>  -0.6200 
 10 N        1.3550     3.3400     0.7420 N.pl3 1 <1>  -0.8690 
 11 C        1.2320     4.7850     0.4960 C.3   1 <1>   0.2890 
 12 C        2.2940     5.2190    -0.5150 C.3   1 <1>  -0.1600 
 13 C        1.4030     5.5190     1.8230 C.3   1 <1>  -0.1600 
 14 C        2.2490     6.7330    -0.7120 C.3   1 <1>   0.2090 
 15 C        1.3660     7.0300     1.6020 C.3   1 <1>   0.2090 
 16 N        2.4000     7.4010     0.6040 N.pl3 1 <1>  -0.8380 
 17 C        2.7680     8.7400     0.5720 C.ar  1 <1>   0.1000 
 18 C        1.9010     9.7240     0.1080 C.ar  1 <1>  -0.1500 
 19 C        4.0290     9.1150     1.0110 C.ar  1 <1>  -0.1500 
 20 C        2.2810    11.0550     0.0820 C.ar  1 <1>  -0.1430 
 21 C        4.4190    10.4410     0.9890 C.ar  1 <1>  -0.1500 
 22 C        3.5460    11.4100     0.5250 C.ar  1 <1>  -0.1500 
 23 C        1.3330    12.1270    -0.4240 C.3   1 <1>  -0.0970 
 24 H       -0.1630    -0.0680    -2.6900 H     1 <1>   0.1500 
 25 H       -1.4740     1.9170    -2.2400 H     1 <1>   0.1500 
 26 H        1.8350     0.8580     2.0780 H     1 <1>   0.0800 
 27 H        3.5620     0.5980     2.1980 H     1 <1>   0.0800 
 28 H        2.5280    -0.6460     1.5140 H     1 <1>   0.0800 
 29 H        4.0640     0.8280    -1.4940 H     1 <1>   0.0800 
 30 H        3.8470    -0.6690    -0.6140 H     1 <1>   0.0800 
 31 H        4.9310     0.5680     0.0050 H     1 <1>   0.0800 
 32 H        2.3070     3.0790     1.0210 H     1 <1>   0.4000 
 33 H        0.2520     5.0030     0.1030 H     1 <1>   0.0800 
 34 H        2.1140     4.7360    -1.4570 H     1 <1>   0.0800 
 35 H        3.2720     4.9450    -0.1660 H     1 <1>   0.0800 
 36 H        2.3440     5.2600     2.2710 H     1 <1>   0.0800 
 37 H        0.6110     5.2380     2.4920 H     1 <1>   0.0800 
 38 H        1.3120     7.0220    -1.1570 H     1 <1>   0.0800 
 39 H        3.0480     7.0420    -1.3650 H     1 <1>   0.0800 
 40 H        1.5630     7.5420     2.5280 H     1 <1>   0.0800 
 41 H        0.3960     7.3310     1.2440 H     1 <1>   0.0800 
 42 H        0.9260     9.4300    -0.2300 H     1 <1>   0.1500 
 43 H        4.6960     8.3520     1.3680 H     1 <1>   0.1500 
 44 H        5.4000    10.7180     1.3330 H     1 <1>   0.1500 
 45 H        3.8540    12.4410     0.5110 H     1 <1>   0.1500 
 46 H        0.4090    11.6930    -0.7620 H     1 <1>   0.0800 
 47 H        1.7840    12.6550    -1.2450 H     1 <1>   0.0800 
 48 H        1.1170    12.8250     0.3640 H     1 <1>   0.0800 
@<TRIPOS>BOND
  1   1   2  ar  
  2   1   3  ar  
  3   2   4  1   
  4   2   5  ar  
  5   3   6  ar  
  6   3  24  1   
  7   4   7  1   
  8   4   8  1   
  9   5   9  ar  
 10   5  10  1   
 11   6   9  ar  
 12   6  25  1   
 13   7  26  1   
 14   7  27  1   
 15   7  28  1   
 16   8  29  1   
 17   8  30  1   
 18   8  31  1   
 19  10  11  1   
 20  10  32  1   
 21  11  12  1   
 22  11  13  1   
 23  11  33  1   
 24  12  14  1   
 25  12  34  1   
 26  12  35  1   
 27  13  15  1   
 28  13  36  1   
 29  13  37  1   
 30  14  16  1   
 31  14  38  1   
 32  14  39  1   
 33  15  16  1   
 34  15  40  1   
 35  15  41  1   
 36  16  17  1   
 37  17  18  ar  
 38  17  19  ar  
 39  18  20  ar  
 40  18  42  1   
 41  19  21  ar  
 42  19  43  1   
 43  20  22  ar  
 44  20  23  1   
 45  21  22  ar  
 46  21  44  1   
 47  22  45  1   
 48  23  46  1   
 49  23  47  1   
 50  23  48  1   
@<TRIPOS>SUBSTRUCTURE
  1 ****  12 GROUP 4 **** **** 0

# MOE 2024.06 (io_trps.svl 2023.06)
