@<TRIPOS>MOLECULE
NONAME
52 53 1 0 0 
SMALL
USER_CHARGES


@<TRIPOS>ATOM
  1 O       -0.2330     0.9070     0.1050 O.2   1 <1>  -0.5700 
  2 C       -0.1740     2.0930     0.3090 C.2   1 <1>   0.5690 
  3 N       -1.2160     2.7520     0.8600 N.am  1 <1>  -0.7300 
  4 C        1.0800     2.8770    -0.0900 C.3   1 <1>   0.1810 
  5 C       -1.2020     4.2040     1.1620 C.3   1 <1>   0.3640 
  6 O        1.1740     4.1320     0.5490 O.3   1 <1>  -0.5600 
  7 C       -2.5230     4.8100     0.6930 C.ar  1 <1>  -0.1440 
  8 C       -0.0040     4.9220     0.4840 C.3   1 <1>   0.2610 
  9 C       -3.0320     4.5380    -0.5690 C.ar  1 <1>  -0.1500 
 10 C       -3.2290     5.6640     1.5250 C.ar  1 <1>  -0.1500 
 11 C        0.2430     6.3200     1.0830 C.2   1 <1>   0.5690 
 12 C       -4.2180     5.1020    -1.0080 C.ar  1 <1>   0.0830 
 13 C       -4.4120     6.2420     1.1020 C.ar  1 <1>  -0.1500 
 14 O       -0.2690     6.5900     2.1490 O.2   1 <1>  -0.5700 
 15 N        1.0270     7.2510     0.4340 N.am  1 <1>  -0.6600 
 16 O       -4.5910     4.7350    -2.2670 O.3   1 <1>  -0.3620 
 17 C       -4.9210     5.9820    -0.1680 C.ar  1 <1>   0.0830 
 18 C        1.1910     8.6230     1.0070 C.3   1 <1>   0.1400 
 19 C        1.7600     6.9970    -0.8400 C.3   1 <1>   0.1400 
 20 C       -5.9520     4.6140    -2.6170 C.3   1 <1>   0.0400 
 21 O       -6.0660     6.5800    -0.6090 O.3   1 <1>  -0.3630 
 22 C        2.0910     8.6010     2.2490 C.3   1 <1>   0.1200 
 23 C        3.2300     6.6820    -0.5530 C.3   1 <1>  -0.1600 
 24 C       -6.6700     7.6460     0.0920 C.3   1 <1>   0.0400 
 25 O        2.4750     9.8970     2.5650 O.3   1 <1>  -0.6800 
 26 C        3.9800     6.3080    -1.8360 C.3   1 <1>  -0.2400 
 27 H       -2.0590     2.2310     1.1060 H     1 <1>   0.3700 
 28 H        1.0790     3.0350    -1.1520 H     1 <1>   0.0800 
 29 H        1.9530     2.3090     0.1760 H     1 <1>   0.0800 
 30 H       -1.1190     4.3120     2.2300 H     1 <1>   0.0800 
 31 H       -0.2500     5.0500    -0.5530 H     1 <1>   0.0800 
 32 H       -2.5120     3.8740    -1.2360 H     1 <1>   0.1500 
 33 H       -2.8540     5.8940     2.5090 H     1 <1>   0.1500 
 34 H       -4.9190     6.8970     1.7840 H     1 <1>   0.1500 
 35 H        1.6140     9.2740     0.2640 H     1 <1>   0.0800 
 36 H        0.2240     9.0060     1.2840 H     1 <1>   0.0800 
 37 H        1.3200     6.1750    -1.3740 H     1 <1>   0.0800 
 38 H        1.6870     7.8640    -1.4750 H     1 <1>   0.0800 
 39 H       -6.0200     3.9820    -3.4830 H     1 <1>   0.0800 
 40 H       -6.3390     5.5900    -2.8480 H     1 <1>   0.0800 
 41 H       -6.4890     4.1740    -1.7950 H     1 <1>   0.0800 
 42 H        2.9790     8.0200     2.0800 H     1 <1>   0.0800 
 43 H        1.5530     8.1990     3.0910 H     1 <1>   0.0800 
 44 H        3.7050     7.5380    -0.1100 H     1 <1>   0.0800 
 45 H        3.2890     5.8590     0.1400 H     1 <1>   0.0800 
 46 H       -7.4880     8.0130    -0.5020 H     1 <1>   0.0800 
 47 H       -5.9440     8.4260     0.2360 H     1 <1>   0.0800 
 48 H       -7.0390     7.2800     1.0330 H     1 <1>   0.0800 
 49 H        3.1070    10.2450     1.9070 H     1 <1>   0.4000 
 50 H        3.9480     7.1190    -2.5430 H     1 <1>   0.0800 
 51 H        3.5430     5.4340    -2.2870 H     1 <1>   0.0800 
 52 H        5.0100     6.0940    -1.6090 H     1 <1>   0.0800 
@<TRIPOS>BOND
  1   1   2  2   
  2   2   3  am  
  3   2   4  1   
  4   3   5  1   
  5   3  27  1   
  6   4   6  1   
  7   4  28  1   
  8   4  29  1   
  9   5   7  1   
 10   5   8  1   
 11   5  30  1   
 12   6   8  1   
 13   7   9  ar  
 14   7  10  ar  
 15   8  11  1   
 16   8  31  1   
 17   9  12  ar  
 18   9  32  1   
 19  10  13  ar  
 20  10  33  1   
 21  11  14  2   
 22  11  15  am  
 23  12  16  1   
 24  12  17  ar  
 25  13  17  ar  
 26  13  34  1   
 27  15  18  1   
 28  15  19  1   
 29  16  20  1   
 30  17  21  1   
 31  18  22  1   
 32  18  35  1   
 33  18  36  1   
 34  19  23  1   
 35  19  37  1   
 36  19  38  1   
 37  20  39  1   
 38  20  40  1   
 39  20  41  1   
 40  21  24  1   
 41  22  25  1   
 42  22  42  1   
 43  22  43  1   
 44  23  26  1   
 45  23  44  1   
 46  23  45  1   
 47  24  46  1   
 48  24  47  1   
 49  24  48  1   
 50  25  49  1   
 51  26  50  1   
 52  26  51  1   
 53  26  52  1   
@<TRIPOS>SUBSTRUCTURE
  1 ****   8 GROUP 4 **** **** 0

# MOE 2024.06 (io_trps.svl 2023.06)
