@<TRIPOS>MOLECULE
NONAME
45 46 1 0 0 
SMALL
USER_CHARGES


@<TRIPOS>ATOM
  1 S        0.1260     0.1260    -0.5810 S.o2  1 <1>   1.3330 
  2 O       -0.1270     0.6320    -1.9120 O.2   1 <1>  -0.6500 
  3 O        0.0860    -1.2980    -0.3410 O.2   1 <1>  -0.6500 
  4 N       -0.9780     0.8600     0.4790 N.am  1 <1>  -0.8490 
  5 C        1.6980     0.8100    -0.0570 C.3   1 <1>  -0.0550 
  6 C       -1.0410     0.2040     1.7900 C.3   1 <1>   0.1160 
  7 C       -2.3230     0.9390    -0.0980 C.3   1 <1>   0.1160 
  8 C        2.9010     0.2910    -0.8830 C.3   1 <1>  -0.0800 
  9 C        4.2000     1.0560    -0.6460 C.3   1 <1>   0.2200 
 10 C        3.3160    -1.0900    -0.3810 C.3   1 <1>   0.1200 
 11 N        4.0060     2.5220    -0.4940 N.am  1 <1>  -0.7300 
 12 C        4.7780     0.3710     0.5980 C.3   1 <1>   0.1200 
 13 O        4.0840    -0.8350     0.7500 O.3   1 <1>  -0.5600 
 14 C        5.0030     3.4080    -0.1920 C.2   1 <1>   0.5440 
 15 O        6.1150     2.9720     0.0280 O.2   1 <1>  -0.5700 
 16 C        4.7410     4.8380    -0.1640 C.ar  1 <1>   0.0860 
 17 C        3.4760     5.3530     0.1270 C.ar  1 <1>  -0.1500 
 18 C        5.7550     5.7570    -0.4300 C.ar  1 <1>  -0.1500 
 19 C        3.2330     6.7150     0.1350 C.ar  1 <1>  -0.1500 
 20 C        5.5180     7.1200    -0.4230 C.ar  1 <1>  -0.1500 
 21 C        4.2530     7.6100    -0.1440 C.ar  1 <1>  -0.1440 
 22 C        3.9970     9.1080    -0.1400 C.3   1 <1>   0.2630 
 23 O        4.6880     9.6530     0.9230 O.3   1 <1>  -0.6800 
 24 H        1.6210     1.8730    -0.1550 H     1 <1>   0.0800 
 25 H        1.8610     0.5950     0.9810 H     1 <1>   0.0800 
 26 H       -1.6910     0.7550     2.4480 H     1 <1>   0.0800 
 27 H       -0.0620     0.1660     2.2360 H     1 <1>   0.0800 
 28 H       -1.4140    -0.8020     1.6920 H     1 <1>   0.0800 
 29 H       -2.9970     1.4200     0.5890 H     1 <1>   0.0800 
 30 H       -2.6920    -0.0480    -0.3250 H     1 <1>   0.0800 
 31 H       -2.3020     1.5170    -1.0070 H     1 <1>   0.0800 
 32 H        2.6580     0.2620    -1.9310 H     1 <1>   0.0800 
 33 H        4.8770     0.8820    -1.4670 H     1 <1>   0.0800 
 34 H        3.9420    -1.5920    -1.0990 H     1 <1>   0.0800 
 35 H        2.4950    -1.7300    -0.1120 H     1 <1>   0.0800 
 36 H        3.1680     2.8940    -0.9410 H     1 <1>   0.3700 
 37 H        4.6210     0.9600     1.4850 H     1 <1>   0.0800 
 38 H        5.8250     0.1570     0.4750 H     1 <1>   0.0800 
 39 H        2.6690     4.6810     0.3590 H     1 <1>   0.1500 
 40 H        6.7450     5.3930    -0.6460 H     1 <1>   0.1500 
 41 H        2.2440     7.0760     0.3620 H     1 <1>   0.1500 
 42 H        6.3240     7.8030    -0.6320 H     1 <1>   0.1500 
 43 H        2.9510     9.3270    -0.0100 H     1 <1>   0.0800 
 44 H        4.3500     9.5690    -1.0460 H     1 <1>   0.0800 
 45 H        4.6710     9.0200     1.6670 H     1 <1>   0.4000 
@<TRIPOS>BOND
  1   1   2  2   
  2   1   3  2   
  3   1   4  am  
  4   1   5  1   
  5   4   6  1   
  6   4   7  1   
  7   5   8  1   
  8   5  24  1   
  9   5  25  1   
 10   6  26  1   
 11   6  27  1   
 12   6  28  1   
 13   7  29  1   
 14   7  30  1   
 15   7  31  1   
 16   8   9  1   
 17   8  10  1   
 18   8  32  1   
 19   9  11  1   
 20   9  12  1   
 21   9  33  1   
 22  10  13  1   
 23  10  34  1   
 24  10  35  1   
 25  11  14  am  
 26  11  36  1   
 27  12  13  1   
 28  12  37  1   
 29  12  38  1   
 30  14  15  2   
 31  14  16  1   
 32  16  17  ar  
 33  16  18  ar  
 34  17  19  ar  
 35  17  39  1   
 36  18  20  ar  
 37  18  40  1   
 38  19  21  ar  
 39  19  41  1   
 40  20  21  ar  
 41  20  42  1   
 42  21  22  1   
 43  22  23  1   
 44  22  43  1   
 45  22  44  1   
 46  23  45  1   
@<TRIPOS>SUBSTRUCTURE
  1 ****  11 GROUP 4 **** **** 0

# MOE 2024.06 (io_trps.svl 2023.06)
