@<TRIPOS>MOLECULE
NONAME
49 52 1 0 0 
SMALL
USER_CHARGES


@<TRIPOS>ATOM
  1 S       -0.2870    -0.0160     0.5070 S.o2  1 <1>   1.0900 
  2 O       -0.3020     0.5260     1.8450 O.2   1 <1>  -0.6500 
  3 O        0.4060     0.6450    -0.5740 O.2   1 <1>  -0.6500 
  4 C        0.2280    -1.7110     0.5410 C.3   1 <1>  -0.0550 
  5 C       -1.9470    -0.3730    -0.0360 C.3   1 <1>  -0.0550 
  6 C       -0.6230    -2.4320    -0.5060 C.3   1 <1>   0.1900 
  7 C       -2.0490    -1.8800    -0.3160 C.3   1 <1>  -0.1600 
  8 N       -0.5640    -3.8900    -0.2990 N.3   1 <1>  -0.8100 
  9 C       -1.5460    -4.6820    -1.1150 C.3   1 <1>   0.2530 
 10 C        0.7950    -4.4470    -0.4470 C.3   1 <1>   0.1100 
 11 C       -1.6770    -6.1590    -0.7180 C.ar  1 <1>   0.4770 
 12 C        1.1980    -5.0920     0.8730 C.3   1 <1>  -0.2400 
 13 N       -2.4030    -6.4080     0.3680 N.ar  1 <1>  -0.6200 
 14 N       -1.0660    -7.0340    -1.5010 N.ar  1 <1>  -0.5670 
 15 C       -2.5170    -7.6650     0.7270 C.ar  1 <1>   0.4100 
 16 C       -1.2220    -8.2780    -1.1010 C.ar  1 <1>   0.2970 
 17 N       -3.2190    -7.8450     1.8720 N.pl3 1 <1>  -0.9000 
 18 C       -1.9360    -8.7010    -0.0050 C.ar  1 <1>   0.0000 
 19 S       -0.4990    -9.6480    -1.9470 S.3   1 <1>  -0.0800 
 20 C       -1.9210   -10.1400     0.1430 C.2   1 <1>  -0.1810 
 21 C       -1.1960   -10.7770    -0.7890 C.2   1 <1>  -0.1400 
 22 C       -2.6500   -10.9120     1.2330 C.3   1 <1>   0.0210 
 23 C       -0.9490   -12.2620    -0.9340 C.3   1 <1>   0.0200 
 24 C       -2.7310   -12.4140     0.8900 C.3   1 <1>  -0.1600 
 25 C       -1.3950   -12.9720     0.3570 C.3   1 <1>  -0.1600 
 26 H        0.0170    -2.1300     1.5060 H     1 <1>   0.0800 
 27 H        1.2760    -1.7910     0.3340 H     1 <1>   0.0800 
 28 H       -2.1520     0.1780    -0.9350 H     1 <1>   0.0800 
 29 H       -2.6630    -0.0860     0.7110 H     1 <1>   0.0800 
 30 H       -0.2680    -2.1820    -1.4940 H     1 <1>   0.0800 
 31 H       -2.6600    -2.0510    -1.1840 H     1 <1>   0.0800 
 32 H       -2.4990    -2.3590     0.5390 H     1 <1>   0.0800 
 33 H       -1.2760    -4.6220    -2.1540 H     1 <1>   0.0800 
 34 H       -2.5290    -4.2660    -1.0110 H     1 <1>   0.0800 
 35 H        1.5080    -3.6830    -0.7080 H     1 <1>   0.0800 
 36 H        0.8310    -5.1860    -1.2310 H     1 <1>   0.0800 
 37 H        1.2020    -4.3630     1.6630 H     1 <1>   0.0800 
 38 H        2.1840    -5.5110     0.7870 H     1 <1>   0.0800 
 39 H        0.5140    -5.8820     1.1250 H     1 <1>   0.0800 
 40 H       -3.0330    -8.6540     2.4610 H     1 <1>   0.4000 
 41 H       -3.4680    -6.9910     2.3730 H     1 <1>   0.4000 
 42 H       -3.6480   -10.5270     1.3460 H     1 <1>   0.0800 
 43 H       -2.1220   -10.7800     2.1610 H     1 <1>   0.0800 
 44 H        0.0950   -12.4490    -1.1140 H     1 <1>   0.0800 
 45 H       -1.5140   -12.6280    -1.7730 H     1 <1>   0.0800 
 46 H       -3.4880   -12.5560     0.1380 H     1 <1>   0.0800 
 47 H       -3.0330   -12.9630     1.7650 H     1 <1>   0.0800 
 48 H       -0.6380   -12.8320     1.1090 H     1 <1>   0.0800 
 49 H       -1.4840   -14.0280     0.1720 H     1 <1>   0.0800 
@<TRIPOS>BOND
  1   1   2  2   
  2   1   3  2   
  3   1   4  1   
  4   1   5  1   
  5   4   6  1   
  6   4  26  1   
  7   4  27  1   
  8   5   7  1   
  9   5  28  1   
 10   5  29  1   
 11   6   7  1   
 12   6   8  1   
 13   6  30  1   
 14   7  31  1   
 15   7  32  1   
 16   8   9  1   
 17   8  10  1   
 18   9  11  1   
 19   9  33  1   
 20   9  34  1   
 21  10  12  1   
 22  10  35  1   
 23  10  36  1   
 24  11  13  ar  
 25  11  14  ar  
 26  12  37  1   
 27  12  38  1   
 28  12  39  1   
 29  13  15  ar  
 30  14  16  ar  
 31  15  17  1   
 32  15  18  ar  
 33  16  18  ar  
 34  16  19  1   
 35  17  40  1   
 36  17  41  1   
 37  18  20  1   
 38  19  21  1   
 39  20  21  2   
 40  20  22  1   
 41  21  23  1   
 42  22  24  1   
 43  22  42  1   
 44  22  43  1   
 45  23  25  1   
 46  23  44  1   
 47  23  45  1   
 48  24  25  1   
 49  24  46  1   
 50  24  47  1   
 51  25  48  1   
 52  25  49  1   
@<TRIPOS>SUBSTRUCTURE
  1 ****  11 GROUP 4 **** **** 0

# MOE 2024.06 (io_trps.svl 2023.06)
