@<TRIPOS>MOLECULE
NONAME
50 53 1 0 0 
SMALL
USER_CHARGES


@<TRIPOS>ATOM
  1 O        0.5380     1.5570    -0.8900 O.2   1 <1>  -0.5700 
  2 C        0.0290     2.6330    -1.1040 C.2   1 <1>   0.5690 
  3 N       -0.8440     3.2460    -0.2450 N.am  1 <1>  -0.5090 
  4 C        0.3870     3.3580    -2.3950 C.3   1 <1>   0.1810 
  5 C       -1.4460     4.5770    -0.5840 C.3   1 <1>   0.3640 
  6 C       -1.0490     2.7640     1.1440 C.3   1 <1>   0.0490 
  7 O        0.4850     4.7410    -2.1730 O.3   1 <1>  -0.5600 
  8 C       -2.9170     4.4070    -0.9680 C.ar  1 <1>  -0.1440 
  9 C       -0.7170     5.3530    -1.7220 C.3   1 <1>   0.2610 
 10 C       -1.5610     1.3730     1.3520 C.3   1 <1>  -0.2000 
 11 C       -2.4290     2.5420     1.6850 C.3   1 <1>  -0.2000 
 12 C       -3.8390     5.3650    -0.5680 C.ar  1 <1>   0.1600 
 13 C       -3.3680     3.3290    -1.7100 C.ar  1 <1>  -0.1500 
 14 C       -0.4450     6.7880    -1.2590 C.2   1 <1>   0.5690 
 15 N       -5.1340     5.3320    -0.8380 N.ar  1 <1>  -0.6200 
 16 C       -4.7150     3.2810    -2.0000 C.ar  1 <1>  -0.1500 
 17 O       -1.3520     7.4350    -0.7890 O.2   1 <1>  -0.5700 
 18 N        0.8110     7.2980    -1.3650 N.am  1 <1>  -0.7300 
 19 C       -5.5420     4.2930    -1.5460 C.ar  1 <1>   0.1600 
 20 C        1.2280     8.6620    -0.9640 C.3   1 <1>   0.1400 
 21 C        1.8570     8.6250     0.4270 C.3   1 <1>  -0.0170 
 22 C        2.3010    10.0190     0.8400 C.ar  1 <1>  -0.1440 
 23 C        1.3870    10.9060     1.3870 C.ar  1 <1>  -0.1500 
 24 C        3.6180    10.4180     0.6700 C.ar  1 <1>  -0.1500 
 25 C        1.7840    12.1780     1.7600 C.ar  1 <1>  -0.1500 
 26 C        4.0160    11.6900     1.0430 C.ar  1 <1>  -0.1500 
 27 C        3.0990    12.5710     1.5890 C.ar  1 <1>  -0.1500 
 28 H       -0.3570     3.1730    -3.1480 H     1 <1>   0.0800 
 29 H        1.3420     3.0120    -2.7470 H     1 <1>   0.0800 
 30 H       -1.4060     5.1730     0.3120 H     1 <1>   0.0800 
 31 H       -0.2840     3.1180     1.8160 H     1 <1>   0.1000 
 32 H       -1.3680     5.4190    -2.5750 H     1 <1>   0.0800 
 33 H       -1.7900     0.7780     0.4860 H     1 <1>   0.1000 
 34 H       -1.1490     0.7900     2.1560 H     1 <1>   0.1000 
 35 H       -2.6190     2.7470     2.7240 H     1 <1>   0.1000 
 36 H       -3.3010     2.6950     1.0740 H     1 <1>   0.1000 
 37 H       -3.4990     6.2130     0.0050 H     1 <1>   0.1500 
 38 H       -2.7120     2.5450    -2.0470 H     1 <1>   0.1500 
 39 H       -5.1240     2.4670    -2.5690 H     1 <1>   0.1500 
 40 H        1.5330     6.6830    -1.7550 H     1 <1>   0.3700 
 41 H       -6.5930     4.2450    -1.7770 H     1 <1>   0.1500 
 42 H        1.9340     9.0470    -1.6800 H     1 <1>   0.0800 
 43 H        0.3700     9.3150    -0.9540 H     1 <1>   0.0800 
 44 H        1.1350     8.2580     1.1350 H     1 <1>   0.0800 
 45 H        2.7010     7.9600     0.4270 H     1 <1>   0.0800 
 46 H        0.3610    10.6100     1.5240 H     1 <1>   0.1500 
 47 H        4.3410     9.7430     0.2470 H     1 <1>   0.1500 
 48 H        1.0700    12.8610     2.1850 H     1 <1>   0.1500 
 49 H        5.0400    11.9940     0.9090 H     1 <1>   0.1500 
 50 H        3.4090    13.5600     1.8790 H     1 <1>   0.1500 
@<TRIPOS>BOND
  1   1   2  2   
  2   2   3  am  
  3   2   4  1   
  4   3   5  1   
  5   3   6  1   
  6   4   7  1   
  7   4  28  1   
  8   4  29  1   
  9   5   8  1   
 10   5   9  1   
 11   5  30  1   
 12   6  10  1   
 13   6  11  1   
 14   6  31  1   
 15   7   9  1   
 16   8  12  ar  
 17   8  13  ar  
 18   9  14  1   
 19   9  32  1   
 20  10  11  1   
 21  10  33  1   
 22  10  34  1   
 23  11  35  1   
 24  11  36  1   
 25  12  15  ar  
 26  12  37  1   
 27  13  16  ar  
 28  13  38  1   
 29  14  17  2   
 30  14  18  am  
 31  15  19  ar  
 32  16  19  ar  
 33  16  39  1   
 34  18  20  1   
 35  18  40  1   
 36  19  41  1   
 37  20  21  1   
 38  20  42  1   
 39  20  43  1   
 40  21  22  1   
 41  21  44  1   
 42  21  45  1   
 43  22  23  ar  
 44  22  24  ar  
 45  23  25  ar  
 46  23  46  1   
 47  24  26  ar  
 48  24  47  1   
 49  25  27  ar  
 50  25  48  1   
 51  26  27  ar  
 52  26  49  1   
 53  27  50  1   
@<TRIPOS>SUBSTRUCTURE
  1 ****  14 GROUP 4 **** **** 0

# MOE 2024.06 (io_trps.svl 2023.06)
