@<TRIPOS>MOLECULE
NONAME
43 45 1 0 0 
SMALL
USER_CHARGES


@<TRIPOS>ATOM
  1 O        1.2510     2.6330     3.9060 O.co2 1 <1>  -0.9000 
  2 C        1.7570     3.6090     3.3230 C.2   1 <1>   1.0330 
  3 O        2.7210     4.1970     3.8490 O.co2 1 <1>  -0.9000 
  4 C        1.2220     4.0280     2.0290 C.2   1 <1>  -0.0060 
  5 N        1.6260     5.1060     1.2800 N.2   1 <1>  -0.5650 
  6 C        0.2400     3.4160     1.3330 C.2   1 <1>  -0.0100 
  7 C        0.8920     5.0470     0.2340 C.2   1 <1>   0.2980 
  8 O        0.0390     4.0550     0.2130 O.3   1 <1>  -0.2800 
  9 C        0.9830     6.0320    -0.9230 C.3   1 <1>   0.5230 
 10 N        2.1780     6.9200    -0.7090 N.4   1 <1>  -0.9590 
 11 C        2.0660     8.2580    -1.3400 C.3   1 <1>   0.3430 
 12 C        3.4520     6.2070    -1.0080 C.3   1 <1>   0.3430 
 13 C        3.2270     9.1300    -0.8700 C.3   1 <1>  -0.1600 
 14 C        4.6290     7.0580    -0.5410 C.3   1 <1>  -0.1600 
 15 C        4.5930     8.4720    -1.1430 C.3   1 <1>   0.1000 
 16 C        5.7490     9.3020    -0.5960 C.2   1 <1>   0.2980 
 17 O        6.9500     9.0700    -1.0620 O.3   1 <1>  -0.0190 
 18 N        5.6710    10.2110     0.2910 N.2   1 <1>  -0.5650 
 19 N        7.7030     9.9020    -0.4130 N.2   1 <1>  -0.4100 
 20 C        6.9480    10.5620     0.3760 C.2   1 <1>   0.3350 
 21 C        7.3970    11.6590     1.3430 C.3   1 <1>   0.1010 
 22 C        7.2930    13.0390     0.6810 C.3   1 <1>  -0.2400 
 23 C        8.8250    11.4300     1.8660 C.3   1 <1>  -0.2400 
 24 H       -0.3320     2.5390     1.5860 H     1 <1>   0.1500 
 25 H        0.0790     6.6170    -0.9360 H     1 <1>   0.0800 
 26 H        1.0680     5.4960    -1.8520 H     1 <1>   0.0800 
 27 H        2.1890     7.0260     0.3260 H     1 <1>   0.4500 
 28 H        1.1340     8.7240    -1.0600 H     1 <1>   0.0800 
 29 H        2.0930     8.1620    -2.4130 H     1 <1>   0.0800 
 30 H        3.5320     6.0190    -2.0670 H     1 <1>   0.0800 
 31 H        3.4750     5.2600    -0.4880 H     1 <1>   0.0800 
 32 H        3.1150     9.3210     0.1840 H     1 <1>   0.0800 
 33 H        3.1830    10.0810    -1.3720 H     1 <1>   0.0800 
 34 H        5.5460     6.5690    -0.8190 H     1 <1>   0.0800 
 35 H        4.6140     7.1160     0.5350 H     1 <1>   0.0800 
 36 H        4.7270     8.3990    -2.2090 H     1 <1>   0.0800 
 37 H        6.7300    11.6370     2.1880 H     1 <1>   0.0800 
 38 H        7.9430    13.0910    -0.1750 H     1 <1>   0.0800 
 39 H        7.5680    13.8130     1.3750 H     1 <1>   0.0800 
 40 H        6.2830    13.2140     0.3550 H     1 <1>   0.0800 
 41 H        9.5320    11.4680     1.0560 H     1 <1>   0.0800 
 42 H        8.8930    10.4640     2.3330 H     1 <1>   0.0800 
 43 H        9.0850    12.1820     2.5890 H     1 <1>   0.0800 
@<TRIPOS>BOND
  1   1   2  ar  
  2   2   3  ar  
  3   2   4  1   
  4   4   5  1   
  5   4   6  2   
  6   5   7  2   
  7   6   8  1   
  8   6  24  1   
  9   7   8  1   
 10   7   9  1   
 11   9  10  1   
 12   9  25  1   
 13   9  26  1   
 14  10  11  1   
 15  10  12  1   
 16  10  27  1   
 17  11  13  1   
 18  11  28  1   
 19  11  29  1   
 20  12  14  1   
 21  12  30  1   
 22  12  31  1   
 23  13  15  1   
 24  13  32  1   
 25  13  33  1   
 26  14  15  1   
 27  14  34  1   
 28  14  35  1   
 29  15  16  1   
 30  15  36  1   
 31  16  17  1   
 32  16  18  2   
 33  17  19  1   
 34  18  20  1   
 35  19  20  2   
 36  20  21  1   
 37  21  22  1   
 38  21  23  1   
 39  21  37  1   
 40  22  38  1   
 41  22  39  1   
 42  22  40  1   
 43  23  41  1   
 44  23  42  1   
 45  23  43  1   
@<TRIPOS>SUBSTRUCTURE
  1 ****  14 GROUP 4 **** **** 0

# MOE 2024.06 (io_trps.svl 2023.06)
