@<TRIPOS>MOLECULE
NONAME
51 54 1 0 0 
SMALL
USER_CHARGES


@<TRIPOS>ATOM
  1 O       -0.6020     0.2900     0.2660 O.2   1 <1>  -0.5700 
  2 C       -1.5900     0.9160    -0.0640 C.2   1 <1>   0.5440 
  3 N       -2.7290     0.2230    -0.4180 N.am  1 <1>  -0.6600 
  4 C       -1.5480     2.3660    -0.0610 C.ar  1 <1>   0.0860 
  5 C       -4.1100     0.7810    -0.2910 C.3   1 <1>   0.1400 
  6 C       -2.7210    -1.2550    -0.6550 C.3   1 <1>   0.1400 
  7 C       -1.0270     3.0660     1.0250 C.ar  1 <1>  -0.1500 
  8 C       -2.0160     3.1180    -1.1380 C.ar  1 <1>  -0.1500 
  9 C       -4.9550    -0.0550     0.6960 C.3   1 <1>   0.2950 
 10 C       -3.6490    -1.9810     0.3420 C.3   1 <1>   0.2000 
 11 C       -0.9950     4.4480     1.0470 C.ar  1 <1>  -0.1500 
 12 C       -1.9860     4.5000    -1.1250 C.ar  1 <1>  -0.1500 
 13 O       -4.9230    -1.4010     0.3200 O.3   1 <1>  -0.5600 
 14 C       -6.4370     0.3530     0.7800 C.3   1 <1>  -0.1950 
 15 C       -3.8370    -3.4690     0.0180 C.3   1 <1>  -0.1600 
 16 C       -1.4800     5.1920    -0.0260 C.ar  1 <1>  -0.0230 
 17 C       -7.2780     0.7010    -0.4090 C.3   1 <1>  -0.2000 
 18 C       -6.9250     1.7590     0.6000 C.3   1 <1>  -0.2000 
 19 C       -2.5380    -4.2820     0.1460 C.3   1 <1>  -0.1600 
 20 N       -1.4530     6.6180     0.0050 N.pl3 1 <1>   0.5930 
 21 C       -2.7990    -5.7740    -0.0930 C.3   1 <1>  -0.1600 
 22 N       -0.5870     7.3490     0.6930 N.2   1 <1>  -0.4180 
 23 C       -2.2570     7.4830    -0.6000 C.2   1 <1>   0.0360 
 24 C       -1.5070    -6.5860     0.0310 C.3   1 <1>  -0.2400 
 25 N       -0.8800     8.5810     0.4840 N.2   1 <1>   0.0000 
 26 N       -1.9260     8.6840    -0.3260 N.2   1 <1>  -0.3380 
 27 H       -4.0750     1.7950     0.0620 H     1 <1>   0.0800 
 28 H       -4.5770     0.7760    -1.2590 H     1 <1>   0.0800 
 29 H       -3.0560    -1.4510    -1.6580 H     1 <1>   0.0800 
 30 H       -1.7220    -1.6430    -0.5640 H     1 <1>   0.0800 
 31 H       -0.6390     2.5070     1.8610 H     1 <1>   0.1500 
 32 H       -2.4020     2.6000    -1.9990 H     1 <1>   0.1500 
 33 H       -4.5240     0.0270     1.6790 H     1 <1>   0.0800 
 34 H       -3.2530    -1.8840     1.3390 H     1 <1>   0.0800 
 35 H       -0.5840     4.9500     1.9080 H     1 <1>   0.1500 
 36 H       -2.3530     5.0340    -1.9850 H     1 <1>   0.1500 
 37 H       -6.9270    -0.2160     1.5520 H     1 <1>   0.1000 
 38 H       -4.5650    -3.8700     0.7020 H     1 <1>   0.0800 
 39 H       -4.2260    -3.5660    -0.9810 H     1 <1>   0.0800 
 40 H       -6.8290     0.7310    -1.3860 H     1 <1>   0.1000 
 41 H       -8.2870     0.3260    -0.4410 H     1 <1>   0.1000 
 42 H       -7.6990     2.1210     1.2550 H     1 <1>   0.1000 
 43 H       -6.2570     2.5440     0.2910 H     1 <1>   0.1000 
 44 H       -1.8130    -3.9350    -0.5700 H     1 <1>   0.0800 
 45 H       -2.1270    -4.1470     1.1320 H     1 <1>   0.0800 
 46 H       -3.5150    -6.1360     0.6250 H     1 <1>   0.0800 
 47 H       -3.2130    -5.9160    -1.0770 H     1 <1>   0.0800 
 48 H       -3.0730     7.1890    -1.2290 H     1 <1>   0.1500 
 49 H       -1.0870    -6.4750     1.0160 H     1 <1>   0.0800 
 50 H       -0.7830    -6.2560    -0.6940 H     1 <1>   0.0800 
 51 H       -1.7100    -7.6280    -0.1380 H     1 <1>   0.0800 
@<TRIPOS>BOND
  1   1   2  2   
  2   2   3  am  
  3   2   4  1   
  4   3   5  1   
  5   3   6  1   
  6   4   7  ar  
  7   4   8  ar  
  8   5   9  1   
  9   5  27  1   
 10   5  28  1   
 11   6  10  1   
 12   6  29  1   
 13   6  30  1   
 14   7  11  ar  
 15   7  31  1   
 16   8  12  ar  
 17   8  32  1   
 18   9  13  1   
 19   9  14  1   
 20   9  33  1   
 21  10  13  1   
 22  10  15  1   
 23  10  34  1   
 24  11  16  ar  
 25  11  35  1   
 26  12  16  ar  
 27  12  36  1   
 28  14  17  1   
 29  14  18  1   
 30  14  37  1   
 31  15  19  1   
 32  15  38  1   
 33  15  39  1   
 34  16  20  1   
 35  17  18  1   
 36  17  40  1   
 37  17  41  1   
 38  18  42  1   
 39  18  43  1   
 40  19  21  1   
 41  19  44  1   
 42  19  45  1   
 43  20  22  1   
 44  20  23  1   
 45  21  24  1   
 46  21  46  1   
 47  21  47  1   
 48  22  25  2   
 49  23  26  2   
 50  23  48  1   
 51  24  49  1   
 52  24  50  1   
 53  24  51  1   
 54  25  26  1   
@<TRIPOS>SUBSTRUCTURE
  1 ****   2 GROUP 4 **** **** 0

# MOE 2024.06 (io_trps.svl 2023.06)
