@<TRIPOS>MOLECULE
NONAME
60 63 1 0 0 
SMALL
USER_CHARGES


@<TRIPOS>ATOM
  1 O       -1.5660    -0.0930     0.8960 O.2   1 <1>  -0.5700 
  2 C       -2.5450    -0.2020     0.1810 C.2   1 <1>   0.8060 
  3 O       -2.9970     0.8940    -0.4370 O.3   1 <1>  -0.4300 
  4 C       -3.2450    -1.4530    -0.0490 C.2   1 <1>  -0.0860 
  5 C       -2.3720     2.1460    -0.2790 C.3   1 <1>   0.1200 
  6 C       -4.5430    -1.6760    -0.4660 C.2   1 <1>  -0.3320 
  7 C       -2.6980    -2.7440     0.1120 C.2   1 <1>  -0.1810 
  8 C       -3.1450     3.1670    -1.1080 C.3   1 <1>  -0.2400 
  9 N       -4.7700    -2.9980    -0.5750 N.pl3 1 <1>   0.0330 
 10 C       -5.6580    -0.6890    -0.7730 C.3   1 <1>  -0.0600 
 11 C       -3.6480    -3.6780    -0.2040 C.2   1 <1>  -0.2370 
 12 C       -1.2770    -3.0490     0.5590 C.3   1 <1>  -0.0590 
 13 C       -3.5950    -5.1170    -0.2060 C.2   1 <1>   0.7150 
 14 O       -2.7390    -5.6990    -0.8460 O.2   1 <1>  -0.5700 
 15 N       -4.5190    -5.8720     0.4810 N.am  1 <1>  -0.6600 
 16 C       -5.5630    -5.3650     1.3940 C.3   1 <1>   0.1400 
 17 C       -4.7970    -7.2840     0.1550 C.3   1 <1>   0.1400 
 18 C       -6.8260    -6.1050     0.9500 C.3   1 <1>  -0.0800 
 19 C       -6.3010    -7.4620     0.4130 C.3   1 <1>  -0.0800 
 20 C       -7.6800    -5.2980    -0.0690 C.3   1 <1>   0.4240 
 21 C       -7.0570    -7.9940    -0.8210 C.3   1 <1>  -0.1600 
 22 O       -6.8590    -4.9940    -1.1430 O.3   1 <1>  -0.6800 
 23 C       -8.2470    -3.9570     0.4440 C.ar  1 <1>  -0.1430 
 24 C       -8.8360    -6.1670    -0.6100 C.3   1 <1>  -0.1600 
 25 C       -8.5520    -7.6810    -0.7120 C.3   1 <1>  -0.1600 
 26 C       -8.3450    -3.6420     1.7980 C.ar  1 <1>  -0.1500 
 27 C       -8.7080    -3.0190    -0.4750 C.ar  1 <1>  -0.1500 
 28 C       -8.8710    -2.4300     2.2120 C.ar  1 <1>  -0.1500 
 29 C       -9.2390    -1.8090    -0.0650 C.ar  1 <1>  -0.1500 
 30 C       -9.3190    -1.5110     1.2820 C.ar  1 <1>  -0.1500 
 31 H       -2.3870     2.4060     0.7660 H     1 <1>   0.0800 
 32 H       -1.3530     2.0630    -0.6180 H     1 <1>   0.0800 
 33 H       -4.1610     3.2320    -0.7630 H     1 <1>   0.0800 
 34 H       -3.1340     2.8850    -2.1460 H     1 <1>   0.0800 
 35 H       -2.6870     4.1350    -1.0110 H     1 <1>   0.0800 
 36 H       -5.6540    -3.4500    -0.8640 H     1 <1>   0.2700 
 37 H       -5.3990     0.3100    -0.4770 H     1 <1>   0.0800 
 38 H       -6.5470    -0.9690    -0.2370 H     1 <1>   0.0800 
 39 H       -5.8720    -0.6920    -1.8260 H     1 <1>   0.0800 
 40 H       -0.5760    -2.5670    -0.0980 H     1 <1>   0.0800 
 41 H       -1.0870    -4.1060     0.5430 H     1 <1>   0.0800 
 42 H       -1.1220    -2.6870     1.5590 H     1 <1>   0.0800 
 43 H       -5.3030    -5.6500     2.3990 H     1 <1>   0.0800 
 44 H       -5.6730    -4.2970     1.3610 H     1 <1>   0.0800 
 45 H       -4.5310    -7.4930    -0.8680 H     1 <1>   0.0800 
 46 H       -4.2180    -7.9190     0.8040 H     1 <1>   0.0800 
 47 H       -7.4440    -6.3010     1.8060 H     1 <1>   0.0800 
 48 H       -6.4070    -8.1900     1.1990 H     1 <1>   0.0800 
 49 H       -6.6760    -7.5580    -1.7290 H     1 <1>   0.0800 
 50 H       -6.9140    -9.0590    -0.8970 H     1 <1>   0.0800 
 51 H       -6.2660    -5.7590    -1.2780 H     1 <1>   0.4000 
 52 H       -9.6840    -6.0430     0.0410 H     1 <1>   0.0800 
 53 H       -9.1330    -5.7880    -1.5720 H     1 <1>   0.0800 
 54 H       -8.9400    -8.1710     0.1650 H     1 <1>   0.0800 
 55 H       -9.0740    -8.0870    -1.5630 H     1 <1>   0.0800 
 56 H       -8.0220    -4.3240     2.5600 H     1 <1>   0.1500 
 57 H       -8.6560    -3.2300    -1.5290 H     1 <1>   0.1500 
 58 H       -8.9350    -2.2010     3.2610 H     1 <1>   0.1500 
 59 H       -9.5900    -1.1000    -0.7950 H     1 <1>   0.1500 
 60 H       -9.7290    -0.5700     1.6050 H     1 <1>   0.1500 
@<TRIPOS>BOND
  1   1   2  2   
  2   2   3  1   
  3   2   4  1   
  4   3   5  1   
  5   4   6  2   
  6   4   7  1   
  7   5   8  1   
  8   5  31  1   
  9   5  32  1   
 10   6   9  1   
 11   6  10  1   
 12   7  11  2   
 13   7  12  1   
 14   8  33  1   
 15   8  34  1   
 16   8  35  1   
 17   9  11  1   
 18   9  36  1   
 19  10  37  1   
 20  10  38  1   
 21  10  39  1   
 22  11  13  1   
 23  12  40  1   
 24  12  41  1   
 25  12  42  1   
 26  13  14  2   
 27  13  15  am  
 28  15  16  1   
 29  15  17  1   
 30  16  18  1   
 31  16  43  1   
 32  16  44  1   
 33  17  19  1   
 34  17  45  1   
 35  17  46  1   
 36  18  19  1   
 37  18  20  1   
 38  18  47  1   
 39  19  21  1   
 40  19  48  1   
 41  20  22  1   
 42  20  23  1   
 43  20  24  1   
 44  21  25  1   
 45  21  49  1   
 46  21  50  1   
 47  22  51  1   
 48  23  26  ar  
 49  23  27  ar  
 50  24  25  1   
 51  24  52  1   
 52  24  53  1   
 53  25  54  1   
 54  25  55  1   
 55  26  28  ar  
 56  26  56  1   
 57  27  29  ar  
 58  27  57  1   
 59  28  30  ar  
 60  28  58  1   
 61  29  30  ar  
 62  29  59  1   
 63  30  60  1   
@<TRIPOS>SUBSTRUCTURE
  1 ****   9 GROUP 4 **** **** 0

# MOE 2024.06 (io_trps.svl 2023.06)
