@<TRIPOS>MOLECULE
NONAME
47 49 1 0 0 
SMALL
USER_CHARGES


@<TRIPOS>ATOM
  1 O        1.5610     0.5930    -1.0050 O.3   1 <1>  -0.6800 
  2 C        1.4910     0.1400     0.2990 C.3   1 <1>   0.2800 
  3 C        2.9070     0.1710     0.9570 C.3   1 <1>  -0.0800 
  4 C        0.9650    -1.3050     0.2310 C.3   1 <1>  -0.1600 
  5 C        0.4730     1.0400     1.0330 C.3   1 <1>  -0.1600 
  6 C        3.6620    -1.1670     0.9370 C.3   1 <1>  -0.0800 
  7 C        3.9020     1.1790     0.3630 C.3   1 <1>   0.2090 
  8 C        1.9000    -2.2690    -0.5310 C.3   1 <1>  -0.1600 
  9 C        0.8270     2.5360     1.0940 C.3   1 <1>  -0.2400 
 10 C        3.3930    -1.9290    -0.3710 C.3   1 <1>  -0.1600 
 11 C        5.1310    -0.7820     1.1070 C.3   1 <1>   0.2090 
 12 N        5.2630     0.5970     0.5620 N.pl3 1 <1>  -0.8380 
 13 C        6.4450     1.1630     0.2080 C.ar  1 <1>   0.4610 
 14 N        6.4300     2.3260    -0.4640 N.ar  1 <1>  -0.1790 
 15 C        7.7030     0.6030     0.4990 C.ar  1 <1>  -0.1500 
 16 C        7.5570     2.9730    -0.8710 C.ar  1 <1>   0.2170 
 17 C        8.8660     1.2190     0.1100 C.ar  1 <1>  -0.1440 
 18 C        8.7810     2.4310    -0.5900 C.ar  1 <1>  -0.1500 
 19 C        7.3990     4.2790    -1.6280 C.3   1 <1>  -0.0970 
 20 C       10.2330     0.6280     0.4170 C.3   1 <1>  -0.0970 
 21 H        0.6990     0.4480    -1.4390 H     1 <1>   0.4000 
 22 H        2.7820     0.4230     1.9950 H     1 <1>   0.0800 
 23 H        0.8610    -1.6670     1.2400 H     1 <1>   0.0800 
 24 H       -0.0170    -1.3310    -0.2080 H     1 <1>   0.0800 
 25 H       -0.4880     0.9360     0.5590 H     1 <1>   0.0800 
 26 H        0.3570     0.6790     2.0400 H     1 <1>   0.0800 
 27 H        3.3590    -1.7890     1.7620 H     1 <1>   0.0800 
 28 H        3.8120     2.1290     0.8600 H     1 <1>   0.0800 
 29 H        3.7490     1.3090    -0.6930 H     1 <1>   0.0800 
 30 H        1.7180    -3.2710    -0.1810 H     1 <1>   0.0800 
 31 H        1.6580    -2.2480    -1.5800 H     1 <1>   0.0800 
 32 H        0.9840     2.9330     0.1070 H     1 <1>   0.0800 
 33 H        1.7080     2.7000     1.6860 H     1 <1>   0.0800 
 34 H        0.0170     3.0800     1.5490 H     1 <1>   0.0800 
 35 H        3.7000    -1.3160    -1.2020 H     1 <1>   0.0800 
 36 H        3.9720    -2.8360    -0.4050 H     1 <1>   0.0800 
 37 H        5.7750    -1.4740     0.5890 H     1 <1>   0.0800 
 38 H        5.3860    -0.7720     2.1540 H     1 <1>   0.0800 
 39 H        5.5100     2.6980    -0.6740 H     1 <1>   0.4570 
 40 H        7.7430    -0.3220     1.0410 H     1 <1>   0.1500 
 41 H        9.6910     2.9180    -0.8980 H     1 <1>   0.1500 
 42 H        8.3620     4.6830    -1.8890 H     1 <1>   0.0800 
 43 H        6.8850     5.0040    -1.0230 H     1 <1>   0.0800 
 44 H        6.8440     4.1210    -2.5360 H     1 <1>   0.0800 
 45 H       10.8060     1.3130     1.0170 H     1 <1>   0.0800 
 46 H       10.7680     0.4380    -0.4960 H     1 <1>   0.0800 
 47 H       10.1410    -0.2990     0.9550 H     1 <1>   0.0800 
@<TRIPOS>BOND
  1   1   2  1   
  2   1  21  1   
  3   2   3  1   
  4   2   4  1   
  5   2   5  1   
  6   3   6  1   
  7   3   7  1   
  8   3  22  1   
  9   4   8  1   
 10   4  23  1   
 11   4  24  1   
 12   5   9  1   
 13   5  25  1   
 14   5  26  1   
 15   6  10  1   
 16   6  11  1   
 17   6  27  1   
 18   7  12  1   
 19   7  28  1   
 20   7  29  1   
 21   8  10  1   
 22   8  30  1   
 23   8  31  1   
 24   9  32  1   
 25   9  33  1   
 26   9  34  1   
 27  10  35  1   
 28  10  36  1   
 29  11  12  1   
 30  11  37  1   
 31  11  38  1   
 32  12  13  1   
 33  13  14  ar  
 34  13  15  ar  
 35  14  16  ar  
 36  14  39  1   
 37  15  17  ar  
 38  15  40  1   
 39  16  18  ar  
 40  16  19  1   
 41  17  18  ar  
 42  17  20  1   
 43  18  41  1   
 44  19  42  1   
 45  19  43  1   
 46  19  44  1   
 47  20  45  1   
 48  20  46  1   
 49  20  47  1   
@<TRIPOS>SUBSTRUCTURE
  1 ****  12 GROUP 4 **** **** 0

# MOE 2024.06 (io_trps.svl 2023.06)
