@<TRIPOS>MOLECULE
NONAME
44 45 1 0 0 
SMALL
USER_CHARGES


@<TRIPOS>ATOM
  1 S       -0.5600    -0.4140    -0.4980 S.o2  1 <1>   1.3330 
  2 O        0.6330     0.3160    -0.8390 O.2   1 <1>  -0.6500 
  3 O       -0.9080    -1.6250    -1.1940 O.2   1 <1>  -0.6500 
  4 N       -0.2920    -0.9270     1.0510 N.am  1 <1>  -0.9780 
  5 C       -1.9630     0.7010    -0.3720 C.3   1 <1>  -0.0550 
  6 C       -3.2400     0.0520     0.1920 C.3   1 <1>  -0.1600 
  7 C       -4.4180     1.0450     0.2350 C.3   1 <1>  -0.0990 
  8 C       -5.7130     0.4590     0.7900 C.2   1 <1>   0.5690 
  9 O       -5.6920    -0.6740     1.2140 O.2   1 <1>  -0.5700 
 10 N       -6.8640     1.2070     0.7950 N.am  1 <1>  -0.6600 
 11 C       -8.1610     0.6180     1.2510 C.3   1 <1>   0.1400 
 12 C       -6.9980     2.6050     0.3040 C.3   1 <1>   0.1400 
 13 C       -9.2000     0.5950     0.1040 C.3   1 <1>   0.0000 
 14 C       -7.9910     2.6390    -0.8610 C.3   1 <1>  -0.1600 
 15 C      -10.5180     0.0080     0.6520 C.3   1 <1>   0.2000 
 16 C       -9.3470     2.0270    -0.4700 C.3   1 <1>  -0.1600 
 17 C       -8.7930    -0.4330    -0.9720 C.3   1 <1>  -0.1600 
 18 O      -11.5680     0.2910    -0.2050 O.3   1 <1>  -0.6800 
 19 C      -10.3210    -1.5070     0.6320 C.3   1 <1>  -0.1600 
 20 C       -9.3070    -1.7940    -0.4850 C.3   1 <1>  -0.1600 
 21 H        0.7230    -0.9800     1.1150 H     1 <1>   0.4200 
 22 H       -0.6210    -1.8900     1.0470 H     1 <1>   0.4200 
 23 H       -1.6890     1.5290     0.2540 H     1 <1>   0.0800 
 24 H       -2.1760     1.0900    -1.3490 H     1 <1>   0.0800 
 25 H       -3.5110    -0.7940    -0.4180 H     1 <1>   0.0800 
 26 H       -3.0460    -0.3110     1.1880 H     1 <1>   0.0800 
 27 H       -4.6110     1.3930    -0.7630 H     1 <1>   0.0800 
 28 H       -4.1470     1.8860     0.8460 H     1 <1>   0.0800 
 29 H       -8.0060    -0.3770     1.6290 H     1 <1>   0.0800 
 30 H       -8.5370     1.2140     2.0640 H     1 <1>   0.0800 
 31 H       -7.3620     3.2210     1.1080 H     1 <1>   0.0800 
 32 H       -6.0530     3.0050    -0.0150 H     1 <1>   0.0800 
 33 H       -8.1380     3.6590    -1.1710 H     1 <1>   0.0800 
 34 H       -7.5730     2.1020    -1.6940 H     1 <1>   0.0800 
 35 H      -10.7760     0.3840     1.6280 H     1 <1>   0.0800 
 36 H       -9.9920     2.0240    -1.3310 H     1 <1>   0.0800 
 37 H       -9.8110     2.6520     0.2740 H     1 <1>   0.0800 
 38 H       -9.2760    -0.1930    -1.9030 H     1 <1>   0.0800 
 39 H       -7.7310    -0.4540    -1.1420 H     1 <1>   0.0800 
 40 H      -11.3660    -0.0910    -1.0790 H     1 <1>   0.4000 
 41 H       -9.8980    -1.8150     1.5720 H     1 <1>   0.0800 
 42 H      -11.2490    -2.0350     0.4940 H     1 <1>   0.0800 
 43 H       -8.4900    -2.3790    -0.0940 H     1 <1>   0.0800 
 44 H       -9.7640    -2.3370    -1.2940 H     1 <1>   0.0800 
@<TRIPOS>BOND
  1   1   2  2   
  2   1   3  2   
  3   1   4  am  
  4   1   5  1   
  5   4  21  1   
  6   4  22  1   
  7   5   6  1   
  8   5  23  1   
  9   5  24  1   
 10   6   7  1   
 11   6  25  1   
 12   6  26  1   
 13   7   8  1   
 14   7  27  1   
 15   7  28  1   
 16   8   9  2   
 17   8  10  am  
 18  10  11  1   
 19  10  12  1   
 20  11  13  1   
 21  11  29  1   
 22  11  30  1   
 23  12  14  1   
 24  12  31  1   
 25  12  32  1   
 26  13  15  1   
 27  13  16  1   
 28  13  17  1   
 29  14  16  1   
 30  14  33  1   
 31  14  34  1   
 32  15  18  1   
 33  15  19  1   
 34  15  35  1   
 35  16  36  1   
 36  16  37  1   
 37  17  20  1   
 38  17  38  1   
 39  17  39  1   
 40  18  40  1   
 41  19  20  1   
 42  19  41  1   
 43  19  42  1   
 44  20  43  1   
 45  20  44  1   
@<TRIPOS>SUBSTRUCTURE
  1 ****   8 GROUP 4 **** **** 0

# MOE 2024.06 (io_trps.svl 2023.06)
