@<TRIPOS>MOLECULE
NONAME
46 48 1 0 0 
SMALL
USER_CHARGES


@<TRIPOS>ATOM
  1 CL       0.6280     3.7840     2.9920 Cl    1 <1>  -0.1770 
  2 C        2.0350     3.5240     1.9950 C.ar  1 <1>   0.1770 
  3 C        1.9040     3.5370     0.6200 C.ar  1 <1>  -0.1500 
  4 C        3.2610     3.3110     2.5930 C.ar  1 <1>  -0.1500 
  5 C        3.0240     3.3340    -0.1690 C.ar  1 <1>  -0.1500 
  6 C        4.3770     3.1090     1.7990 C.ar  1 <1>  -0.1500 
  7 C        4.2680     3.1140     0.4120 C.ar  1 <1>  -0.1080 
  8 C        5.5160     2.9250    -0.4670 C.3   1 <1>   0.1610 
  9 C        6.2110     4.2610    -0.7910 C.2   1 <1>   0.5770 
 10 C        5.2720     2.0180    -1.7140 C.3   1 <1>   0.0000 
 11 C        6.4840     1.8140     0.0500 C.3   1 <1>   0.0000 
 12 O        7.2070     4.2770    -1.4700 O.2   1 <1>  -0.5700 
 13 N        5.6550     5.4040    -0.2820 N.am  1 <1>  -0.4940 
 14 C        6.6060     1.2940    -1.4050 C.3   1 <1>   0.0000 
 15 C        6.0560     6.7160    -0.4090 C.2   1 <1>   0.4420 
 16 S        5.0830     7.9080     0.3930 S.3   1 <1>  -0.0800 
 17 N        7.0480     7.2440    -1.0300 N.2   1 <1>  -0.3380 
 18 C        6.1750     9.1010    -0.2200 C.2   1 <1>   0.1980 
 19 N        7.1100     8.6030    -0.9180 N.2   1 <1>  -0.3380 
 20 C        5.9290    10.5560     0.1140 C.3   1 <1>   0.0200 
 21 C        7.0430    11.4010    -0.5150 C.3   1 <1>   0.3430 
 22 N        6.9300    12.8630    -0.1890 N.4   1 <1>  -0.9590 
 23 C        5.7480    13.5080    -0.8460 C.3   1 <1>   0.2630 
 24 C        8.1870    13.5630    -0.6010 C.3   1 <1>   0.2630 
 25 H        0.9380     3.7040     0.1780 H     1 <1>   0.1500 
 26 H        3.3370     3.3050     3.6660 H     1 <1>   0.1500 
 27 H        2.9130     3.3500    -1.2410 H     1 <1>   0.1500 
 28 H        5.3310     2.9470     2.2750 H     1 <1>   0.1500 
 29 H        5.2720     2.5450    -2.6520 H     1 <1>   0.0000 
 30 H        4.4300     1.3560    -1.6010 H     1 <1>   0.0000 
 31 H        6.0020     1.0920     0.6870 H     1 <1>   0.0000 
 32 H        7.4080     2.1860     0.4560 H     1 <1>   0.0000 
 33 H        4.8150     5.2560     0.2770 H     1 <1>   0.3700 
 34 H        7.4450     1.7110    -1.9330 H     1 <1>   0.0000 
 35 H        6.5430     0.2230    -1.4850 H     1 <1>   0.0000 
 36 H        5.9330    10.6700     1.1830 H     1 <1>   0.0800 
 37 H        4.9690    10.8370    -0.2770 H     1 <1>   0.0800 
 38 H        7.0300    11.2610    -1.5840 H     1 <1>   0.0800 
 39 H        7.9890    11.0270    -0.1550 H     1 <1>   0.0800 
 40 H        6.8380    12.9650     0.8350 H     1 <1>   0.4500 
 41 H        5.8110    13.4040    -1.9180 H     1 <1>   0.0800 
 42 H        5.7140    14.5590    -0.6050 H     1 <1>   0.0800 
 43 H        4.8310    13.0540    -0.5090 H     1 <1>   0.0800 
 44 H        8.3320    13.4800    -1.6660 H     1 <1>   0.0800 
 45 H        9.0400    13.1280    -0.1040 H     1 <1>   0.0800 
 46 H        8.1370    14.6090    -0.3410 H     1 <1>   0.0800 
@<TRIPOS>BOND
  1   1   2  1   
  2   2   3  ar  
  3   2   4  ar  
  4   3   5  ar  
  5   3  25  1   
  6   4   6  ar  
  7   4  26  1   
  8   5   7  ar  
  9   5  27  1   
 10   6   7  ar  
 11   6  28  1   
 12   7   8  1   
 13   8   9  1   
 14   8  10  1   
 15   8  11  1   
 16   9  12  2   
 17   9  13  am  
 18  10  14  1   
 19  10  29  1   
 20  10  30  1   
 21  11  14  1   
 22  11  31  1   
 23  11  32  1   
 24  13  15  1   
 25  13  33  1   
 26  14  34  1   
 27  14  35  1   
 28  15  16  1   
 29  15  17  2   
 30  16  18  1   
 31  17  19  1   
 32  18  19  2   
 33  18  20  1   
 34  20  21  1   
 35  20  36  1   
 36  20  37  1   
 37  21  22  1   
 38  21  38  1   
 39  21  39  1   
 40  22  23  1   
 41  22  24  1   
 42  22  40  1   
 43  23  41  1   
 44  23  42  1   
 45  23  43  1   
 46  24  44  1   
 47  24  45  1   
 48  24  46  1   
@<TRIPOS>SUBSTRUCTURE
  1 ****  13 GROUP 4 **** **** 0

# MOE 2024.06 (io_trps.svl 2023.06)
