@<TRIPOS>MOLECULE
NONAME
45 47 1 0 0 
SMALL
USER_CHARGES


@<TRIPOS>ATOM
  1 O       -1.9510     0.6720     1.4300 O.3   1 <1>  -0.3400 
  2 C       -1.3010     1.7580     0.9400 C.ar  1 <1>   0.0830 
  3 C       -1.7160    -0.6190     0.8960 C.3   1 <1>   0.2580 
  4 C       -0.2610     1.6880     0.0200 C.ar  1 <1>  -0.1500 
  5 C       -1.7220     2.9960     1.4000 C.ar  1 <1>  -0.1500 
  6 C       -2.4070    -0.8400    -0.4670 C.3   1 <1>   0.2450 
  7 C       -2.7100    -1.6570     1.4510 C.3   1 <1>   0.2450 
  8 C        0.3470     2.8440    -0.4400 C.ar  1 <1>   0.0830 
  9 C       -1.1180     4.1550     0.9460 C.ar  1 <1>  -0.1500 
 10 N       -2.8830    -2.1800     0.0420 N.3   1 <1>  -0.5900 
 11 O        1.3510     2.6860    -1.3390 O.3   1 <1>  -0.3630 
 12 C       -0.0860     4.0830     0.0260 C.ar  1 <1>  -0.1500 
 13 C       -4.1260    -2.6370    -0.3630 C.ar  1 <1>   0.4100 
 14 C        2.0450     3.7950    -1.8650 C.3   1 <1>   0.0400 
 15 N       -5.1660    -1.8420    -0.1180 N.ar  1 <1>  -0.6200 
 16 C       -4.2440    -3.8790    -1.0010 C.ar  1 <1>   0.0730 
 17 C       -6.3590    -2.2620    -0.5010 C.ar  1 <1>   0.1670 
 18 C       -3.0950    -4.6960    -1.2440 C.1   1 <1>   0.4840 
 19 C       -5.4980    -4.3030    -1.3950 C.ar  1 <1>  -0.1500 
 20 C       -6.5690    -3.4750    -1.1370 C.ar  1 <1>  -0.1500 
 21 C       -7.5340    -1.3270    -0.2060 C.3   1 <1>   0.0640 
 22 N       -2.2070    -5.3800    -1.4590 N.1   1 <1>  -0.5570 
 23 C       -8.5510    -1.9800     0.7400 C.3   1 <1>  -0.2400 
 24 C       -8.2190    -0.8590    -1.4970 C.3   1 <1>  -0.2400 
 25 H       -0.6820    -0.9120     0.9600 H     1 <1>   0.0000 
 26 H        0.1030     0.7520    -0.3570 H     1 <1>   0.1500 
 27 H       -2.5250     3.0450     2.1130 H     1 <1>   0.1500 
 28 H       -1.7190    -0.9540    -1.2850 H     1 <1>   0.0000 
 29 H       -3.2210    -0.1620    -0.6610 H     1 <1>   0.0000 
 30 H       -3.6140    -1.2280     1.8470 H     1 <1>   0.0000 
 31 H       -2.2530    -2.3930     2.0870 H     1 <1>   0.0000 
 32 H       -1.4520     5.1110     1.3080 H     1 <1>   0.1500 
 33 H        0.3660     4.9960    -0.3120 H     1 <1>   0.1500 
 34 H        2.7910     3.4290    -2.5470 H     1 <1>   0.0800 
 35 H        2.5180     4.3260    -1.0570 H     1 <1>   0.0800 
 36 H        1.3500     4.4260    -2.3880 H     1 <1>   0.0800 
 37 H       -5.6380    -5.2510    -1.8880 H     1 <1>   0.1500 
 38 H       -7.5600    -3.7720    -1.4290 H     1 <1>   0.1500 
 39 H       -7.1450    -0.4530     0.2900 H     1 <1>   0.0800 
 40 H       -9.0130    -2.8360     0.2820 H     1 <1>   0.0800 
 41 H       -9.3180    -1.2750     1.0050 H     1 <1>   0.0800 
 42 H       -8.0560    -2.2970     1.6420 H     1 <1>   0.0800 
 43 H       -8.6710    -1.6840    -2.0170 H     1 <1>   0.0800 
 44 H       -7.4940    -0.3980    -2.1460 H     1 <1>   0.0800 
 45 H       -8.9810    -0.1350    -1.2710 H     1 <1>   0.0800 
@<TRIPOS>BOND
  1   1   2  1   
  2   1   3  1   
  3   2   4  ar  
  4   2   5  ar  
  5   3   6  1   
  6   3   7  1   
  7   3  25  1   
  8   4   8  ar  
  9   4  26  1   
 10   5   9  ar  
 11   5  27  1   
 12   6  10  1   
 13   6  28  1   
 14   6  29  1   
 15   7  10  1   
 16   7  30  1   
 17   7  31  1   
 18   8  11  1   
 19   8  12  ar  
 20   9  12  ar  
 21   9  32  1   
 22  10  13  1   
 23  11  14  1   
 24  12  33  1   
 25  13  15  ar  
 26  13  16  ar  
 27  14  34  1   
 28  14  35  1   
 29  14  36  1   
 30  15  17  ar  
 31  16  18  1   
 32  16  19  ar  
 33  17  20  ar  
 34  17  21  1   
 35  18  22  3   
 36  19  20  ar  
 37  19  37  1   
 38  20  38  1   
 39  21  23  1   
 40  21  24  1   
 41  21  39  1   
 42  23  40  1   
 43  23  41  1   
 44  23  42  1   
 45  24  43  1   
 46  24  44  1   
 47  24  45  1   
@<TRIPOS>SUBSTRUCTURE
  1 ****   6 GROUP 4 **** **** 0

# MOE 2024.06 (io_trps.svl 2023.06)
