@<TRIPOS>MOLECULE
NONAME
46 48 1 0 0 
SMALL
USER_CHARGES


@<TRIPOS>ATOM
  1 CL      -0.9500    -0.8480     2.8000 Cl    1 <1>  -0.1770 
  2 C       -1.7820    -1.3150     1.3350 C.ar  1 <1>   0.1770 
  3 C       -2.0550    -0.3810     0.3500 C.ar  1 <1>   0.1770 
  4 C       -2.1640    -2.6330     1.1780 C.ar  1 <1>  -0.1500 
  5 CL      -1.5810     1.2890     0.5360 Cl    1 <1>  -0.1770 
  6 C       -2.7110    -0.7670    -0.8040 C.ar  1 <1>  -0.1500 
  7 C       -2.8390    -3.0490     0.0280 C.ar  1 <1>   0.0860 
  8 C       -3.0940    -2.0890    -0.9580 C.ar  1 <1>  -0.1500 
  9 C       -3.2500    -4.4330    -0.1300 C.2   1 <1>   0.5440 
 10 O       -2.5830    -5.3320     0.3480 O.2   1 <1>  -0.5700 
 11 N       -4.4150    -4.7850    -0.7770 N.am  1 <1>  -0.6600 
 12 C       -4.5930    -6.1920    -1.2230 C.3   1 <1>   0.1400 
 13 C       -5.6960    -4.0970    -0.4620 C.3   1 <1>   0.1400 
 14 C       -5.2520    -6.9940    -0.0780 C.3   1 <1>   0.4230 
 15 C       -6.3830    -4.8670     0.6750 C.3   1 <1>  -0.1600 
 16 N       -5.2970    -8.4960    -0.3180 N.4   1 <1>  -0.9590 
 17 C       -6.6160    -6.3750     0.3570 C.3   1 <1>   0.0000 
 18 C       -6.2710    -9.2260     0.5570 C.3   1 <1>   0.3430 
 19 C       -5.4720    -8.9190    -1.7460 C.3   1 <1>   0.2630 
 20 C       -7.1140    -7.0860     1.6510 C.3   1 <1>  -0.1600 
 21 C       -7.6630    -6.5310    -0.7830 C.3   1 <1>   0.1200 
 22 C       -6.4940    -8.4790     1.8720 C.3   1 <1>  -0.1600 
 23 O       -8.8120    -5.8030    -0.5260 O.3   1 <1>  -0.6800 
 24 H       -1.9370    -3.3440     1.9530 H     1 <1>   0.1500 
 25 H       -2.9160    -0.0380    -1.5690 H     1 <1>   0.1500 
 26 H       -3.5970    -2.3880    -1.8620 H     1 <1>   0.1500 
 27 H       -5.1910    -6.2010    -2.1150 H     1 <1>   0.0800 
 28 H       -3.6300    -6.6140    -1.4550 H     1 <1>   0.0800 
 29 H       -5.5160    -3.0820    -0.1490 H     1 <1>   0.0800 
 30 H       -6.3220    -4.0670    -1.3380 H     1 <1>   0.0800 
 31 H       -4.5970    -6.8480     0.7670 H     1 <1>   0.0800 
 32 H       -5.7600    -4.7710     1.5480 H     1 <1>   0.0800 
 33 H       -7.3130    -4.3790     0.9110 H     1 <1>   0.0800 
 34 H       -4.3610    -8.8180    -0.0270 H     1 <1>   0.4500 
 35 H       -7.2190    -9.3160     0.0520 H     1 <1>   0.0800 
 36 H       -5.9060   -10.2210     0.7600 H     1 <1>   0.0800 
 37 H       -6.4160    -8.5700    -2.1310 H     1 <1>   0.0800 
 38 H       -5.4480    -9.9950    -1.8210 H     1 <1>   0.0800 
 39 H       -4.6800    -8.5220    -2.3590 H     1 <1>   0.0800 
 40 H       -6.8860    -6.4940     2.5220 H     1 <1>   0.0800 
 41 H       -8.1860    -7.1810     1.6310 H     1 <1>   0.0800 
 42 H       -7.9550    -7.5570    -0.9140 H     1 <1>   0.0800 
 43 H       -7.2820    -6.1660    -1.7200 H     1 <1>   0.0800 
 44 H       -7.1460    -9.0590     2.5020 H     1 <1>   0.0800 
 45 H       -5.5540    -8.3900     2.3900 H     1 <1>   0.0800 
 46 H       -9.2820    -6.1190     0.2720 H     1 <1>   0.4000 
@<TRIPOS>BOND
  1   1   2  1   
  2   2   3  ar  
  3   2   4  ar  
  4   3   5  1   
  5   3   6  ar  
  6   4   7  ar  
  7   4  24  1   
  8   6   8  ar  
  9   6  25  1   
 10   7   8  ar  
 11   7   9  1   
 12   8  26  1   
 13   9  10  2   
 14   9  11  am  
 15  11  12  1   
 16  11  13  1   
 17  12  14  1   
 18  12  27  1   
 19  12  28  1   
 20  13  15  1   
 21  13  29  1   
 22  13  30  1   
 23  14  16  1   
 24  14  17  1   
 25  14  31  1   
 26  15  17  1   
 27  15  32  1   
 28  15  33  1   
 29  16  18  1   
 30  16  19  1   
 31  16  34  1   
 32  17  20  1   
 33  17  21  1   
 34  18  22  1   
 35  18  35  1   
 36  18  36  1   
 37  19  37  1   
 38  19  38  1   
 39  19  39  1   
 40  20  22  1   
 41  20  40  1   
 42  20  41  1   
 43  21  23  1   
 44  21  42  1   
 45  21  43  1   
 46  22  44  1   
 47  22  45  1   
 48  23  46  1   
@<TRIPOS>SUBSTRUCTURE
  1 ****  11 GROUP 4 **** **** 0

# MOE 2024.06 (io_trps.svl 2023.06)
