@<TRIPOS>MOLECULE
NONAME
45 47 1 0 0 
SMALL
USER_CHARGES


@<TRIPOS>ATOM
  1 O       -0.5550     0.1430    -0.5420 O.2   1 <1>  -0.5700 
  2 C       -1.5090     0.7490    -0.0870 C.2   1 <1>   0.5440 
  3 N       -2.5290     0.0400     0.4970 N.am  1 <1>  -0.6600 
  4 C       -1.5320     2.1950    -0.1790 C.ar  1 <1>   0.0860 
  5 C       -3.6950     0.6030     1.2390 C.3   1 <1>   0.2350 
  6 C       -2.8310    -1.3760     0.1440 C.3   1 <1>   0.2350 
  7 C       -0.4830     2.9630     0.3200 C.ar  1 <1>  -0.1500 
  8 C       -2.5840     2.8740    -0.7900 C.ar  1 <1>  -0.1500 
  9 C       -4.8880    -0.1940     0.7490 C.3   1 <1>  -0.2420 
 10 C       -4.3510    -1.4460     0.0960 C.3   1 <1>  -0.2420 
 11 C       -0.4740     4.3430     0.2360 C.ar  1 <1>   0.0820 
 12 C       -2.6050     4.2540    -0.8740 C.ar  1 <1>  -0.1500 
 13 C       -6.0990     0.0830     1.6400 C.2   1 <1>   0.9470 
 14 C       -5.1290    -0.4440    -0.7200 C.3   1 <1>  -0.2000 
 15 C       -4.8360    -2.8970     0.1590 C.2   1 <1>   0.9470 
 16 O        0.6250     4.9510     0.7620 O.3   1 <1>  -0.3630 
 17 C       -1.5590     5.0130    -0.3560 C.ar  1 <1>   0.0820 
 18 O       -7.0980     0.6270     1.1470 O.co2 1 <1>  -0.9000 
 19 O       -5.9920    -0.0660     2.8640 O.co2 1 <1>  -0.9000 
 20 O       -5.5730    -3.3340    -0.7360 O.co2 1 <1>  -0.9000 
 21 O       -4.3600    -3.6500     1.0200 O.co2 1 <1>  -0.9000 
 22 C        1.1790     6.0900     0.1450 C.3   1 <1>   0.1200 
 23 O       -1.5780     6.3730    -0.3980 O.3   1 <1>  -0.3630 
 24 C        2.6470     6.1800     0.5520 C.3   1 <1>  -0.2400 
 25 C       -2.7290     7.1000    -0.7600 C.3   1 <1>   0.1200 
 26 C       -2.4280     8.5830    -0.5640 C.3   1 <1>  -0.2400 
 27 H       -3.5560     0.4320     2.2930 H     1 <1>   0.0800 
 28 H       -3.8410     1.6520     1.0690 H     1 <1>   0.0800 
 29 H       -2.4030    -1.6470    -0.8050 H     1 <1>   0.0800 
 30 H       -2.4490    -2.0240     0.9140 H     1 <1>   0.0800 
 31 H        0.3480     2.4610     0.7810 H     1 <1>   0.1500 
 32 H       -3.4000     2.3000    -1.1970 H     1 <1>   0.1500 
 33 H       -3.4520     4.7130    -1.3480 H     1 <1>   0.1500 
 34 H       -4.6180     0.1400    -1.4600 H     1 <1>   0.1000 
 35 H       -6.1260    -0.7150    -1.0250 H     1 <1>   0.1000 
 36 H        1.0830     5.9870    -0.9220 H     1 <1>   0.0800 
 37 H        0.6380     6.9560     0.4840 H     1 <1>   0.0800 
 38 H        3.1750     5.3040     0.2220 H     1 <1>   0.0800 
 39 H        2.7280     6.2690     1.6210 H     1 <1>   0.0800 
 40 H        3.0970     7.0450     0.1000 H     1 <1>   0.0800 
 41 H       -2.9540     6.8920    -1.7910 H     1 <1>   0.0800 
 42 H       -3.5420     6.7890    -0.1270 H     1 <1>   0.0800 
 43 H       -1.6040     8.8790    -1.1890 H     1 <1>   0.0800 
 44 H       -2.1850     8.7770     0.4660 H     1 <1>   0.0800 
 45 H       -3.2890     9.1690    -0.8300 H     1 <1>   0.0800 
@<TRIPOS>BOND
  1   1   2  2   
  2   2   3  am  
  3   2   4  1   
  4   3   5  1   
  5   3   6  1   
  6   4   7  ar  
  7   4   8  ar  
  8   5   9  1   
  9   5  27  1   
 10   5  28  1   
 11   6  10  1   
 12   6  29  1   
 13   6  30  1   
 14   7  11  ar  
 15   7  31  1   
 16   8  12  ar  
 17   8  32  1   
 18   9  10  1   
 19   9  13  1   
 20   9  14  1   
 21  10  14  1   
 22  10  15  1   
 23  11  16  1   
 24  11  17  ar  
 25  12  17  ar  
 26  12  33  1   
 27  13  18  ar  
 28  13  19  ar  
 29  14  34  1   
 30  14  35  1   
 31  15  20  ar  
 32  15  21  ar  
 33  16  22  1   
 34  17  23  1   
 35  22  24  1   
 36  22  36  1   
 37  22  37  1   
 38  23  25  1   
 39  24  38  1   
 40  24  39  1   
 41  24  40  1   
 42  25  26  1   
 43  25  41  1   
 44  25  42  1   
 45  26  43  1   
 46  26  44  1   
 47  26  45  1   
@<TRIPOS>SUBSTRUCTURE
  1 ****   4 GROUP 4 **** **** 0

# MOE 2024.06 (io_trps.svl 2023.06)
