@<TRIPOS>MOLECULE
NONAME
45 48 1 0 0 
SMALL
USER_CHARGES


@<TRIPOS>ATOM
  1 O        0.6780    -0.0550     2.0260 O.2   1 <1>  -0.5700 
  2 C        1.4920    -0.7000     1.3930 C.2   1 <1>   0.4690 
  3 C        2.5110    -0.0870     0.5870 C.ar  1 <1>   0.0860 
  4 C        1.4590    -2.1160     1.4140 C.2   1 <1>  -0.1360 
  5 C        3.3850    -0.9180    -0.1230 C.ar  1 <1>   0.0830 
  6 C        2.6790     1.2950     0.4700 C.ar  1 <1>  -0.1500 
  7 C        2.3280    -2.8730     0.6960 C.2   1 <1>   0.0910 
  8 O        3.2670    -2.2620    -0.0510 O.3   1 <1>  -0.1590 
  9 C        4.3890    -0.3820    -0.9170 C.ar  1 <1>  -0.1500 
 10 C        3.6780     1.8260    -0.3230 C.ar  1 <1>  -0.1500 
 11 C        2.3460    -4.3190     0.6570 C.2   1 <1>   0.6160 
 12 C        4.5360     0.9870    -1.0180 C.ar  1 <1>  -0.1500 
 13 O        3.3710    -4.9200     0.9160 O.2   1 <1>  -0.5700 
 14 N        1.2200    -5.0470     0.3440 N.am  1 <1>  -0.6600 
 15 C       -0.0150    -4.5080    -0.2860 C.3   1 <1>   0.1400 
 16 C        1.2370    -6.5310     0.2290 C.3   1 <1>   0.1400 
 17 C       -0.9700    -5.6990    -0.3260 C.3   1 <1>   0.2000 
 18 C       -0.0390    -6.8940    -0.5390 C.3   1 <1>  -0.0800 
 19 O       -1.5780    -5.7970     0.9170 O.3   1 <1>  -0.6800 
 20 C       -0.6220    -8.2690    -0.1640 C.3   1 <1>   0.0210 
 21 C        0.3910    -9.3690    -0.4090 C.2   1 <1>   0.1080 
 22 N        0.8830    -9.6230    -1.5820 N.2   1 <1>  -0.7070 
 23 C        0.9100   -10.2070     0.5720 C.2   1 <1>  -0.1500 
 24 N        1.7390   -10.6420    -1.3780 N.pl3 1 <1>   0.3000 
 25 C        1.7740   -11.0130    -0.0810 C.2   1 <1>  -0.3320 
 26 C        2.6450   -12.1300     0.4630 C.3   1 <1>  -0.0600 
 27 H        0.7060    -2.5590     2.0390 H     1 <1>   0.1500 
 28 H        2.0140     1.9480     1.0100 H     1 <1>   0.1500 
 29 H        5.0500    -1.0420    -1.4520 H     1 <1>   0.1500 
 30 H        3.7940     2.8940    -0.4020 H     1 <1>   0.1500 
 31 H        5.3140     1.4050    -1.6340 H     1 <1>   0.1500 
 32 H       -0.4380    -3.6880     0.2670 H     1 <1>   0.0800 
 33 H        0.2140    -4.1900    -1.2890 H     1 <1>   0.0800 
 34 H        2.1150    -6.8690    -0.2970 H     1 <1>   0.0800 
 35 H        1.2320    -6.9600     1.2160 H     1 <1>   0.0800 
 36 H       -1.7350    -5.6090    -1.0790 H     1 <1>   0.0800 
 37 H        0.2210    -6.9220    -1.5830 H     1 <1>   0.0800 
 38 H       -0.8840    -5.7710     1.6060 H     1 <1>   0.4000 
 39 H       -1.4940    -8.4650    -0.7620 H     1 <1>   0.0800 
 40 H       -0.9170    -8.2880     0.8690 H     1 <1>   0.0800 
 41 H        0.6610   -10.1930     1.6170 H     1 <1>   0.1500 
 42 H        2.2830   -11.0600    -2.1420 H     1 <1>   0.2700 
 43 H        2.4950   -12.2330     1.5240 H     1 <1>   0.0800 
 44 H        3.6830   -11.9140     0.2840 H     1 <1>   0.0800 
 45 H        2.3920   -13.0630    -0.0100 H     1 <1>   0.0800 
@<TRIPOS>BOND
  1   1   2  2   
  2   2   3  1   
  3   2   4  1   
  4   3   5  ar  
  5   3   6  ar  
  6   4   7  2   
  7   4  27  1   
  8   5   8  1   
  9   5   9  ar  
 10   6  10  ar  
 11   6  28  1   
 12   7   8  1   
 13   7  11  1   
 14   9  12  ar  
 15   9  29  1   
 16  10  12  ar  
 17  10  30  1   
 18  11  13  2   
 19  11  14  am  
 20  12  31  1   
 21  14  15  1   
 22  14  16  1   
 23  15  17  1   
 24  15  32  1   
 25  15  33  1   
 26  16  18  1   
 27  16  34  1   
 28  16  35  1   
 29  17  18  1   
 30  17  19  1   
 31  17  36  1   
 32  18  20  1   
 33  18  37  1   
 34  19  38  1   
 35  20  21  1   
 36  20  39  1   
 37  20  40  1   
 38  21  22  2   
 39  21  23  1   
 40  22  24  1   
 41  23  25  2   
 42  23  41  1   
 43  24  25  1   
 44  24  42  1   
 45  25  26  1   
 46  26  43  1   
 47  26  44  1   
 48  26  45  1   
@<TRIPOS>SUBSTRUCTURE
  1 ****  14 GROUP 4 **** **** 0

# MOE 2024.06 (io_trps.svl 2023.06)
