@<TRIPOS>MOLECULE
NONAME
57 59 1 0 0 
SMALL
USER_CHARGES


@<TRIPOS>ATOM
  1 O        1.4940     0.1400    -0.9900 O.2   1 <1>  -0.5700 
  2 C        2.2010    -0.8010    -1.2860 C.2   1 <1>   0.5440 
  3 N        3.5250    -0.5710    -1.5360 N.am  1 <1>  -0.7300 
  4 C        1.6440    -2.1390    -1.3760 C.ar  1 <1>   0.0860 
  5 C        4.1650     0.7780    -1.5450 C.3   1 <1>   0.1400 
  6 C        2.3880    -3.2790    -1.0650 C.ar  1 <1>  -0.1500 
  7 C        0.3230    -2.3330    -1.7760 C.ar  1 <1>  -0.1500 
  8 C        4.2340     1.4110    -0.1450 C.3   1 <1>   0.2000 
  9 C        1.8400    -4.5460    -1.1490 C.ar  1 <1>  -0.1500 
 10 C       -0.2330    -3.5960    -1.8640 C.ar  1 <1>  -0.1500 
 11 O        4.9410     2.6300    -0.2740 O.3   1 <1>  -0.3630 
 12 C        4.9780     0.5330     0.8720 C.3   1 <1>  -0.2400 
 13 C        0.5200    -4.7140    -1.5430 C.ar  1 <1>  -0.1430 
 14 C        4.8290     3.6520     0.6170 C.ar  1 <1>   0.0830 
 15 C       -0.0970    -6.0990    -1.6150 C.3   1 <1>   0.4860 
 16 C        5.6490     4.7590     0.4290 C.ar  1 <1>   0.1600 
 17 C        3.9520     3.6570     1.6920 C.ar  1 <1>  -0.1500 
 18 N       -0.3680    -6.5770    -0.2310 N.4   1 <1>  -0.9590 
 19 N        5.6720     5.8390     1.1980 N.ar  1 <1>  -0.6200 
 20 C        3.9630     4.7730     2.5010 C.ar  1 <1>  -0.1500 
 21 C       -0.6710    -8.0350    -0.2290 C.3   1 <1>   0.3430 
 22 C       -1.4050    -5.7320     0.4300 C.3   1 <1>   0.3430 
 23 C        4.8270     5.8180     2.2160 C.ar  1 <1>   0.1600 
 24 C       -0.2280    -8.6530     1.0960 C.3   1 <1>  -0.1600 
 25 C       -1.5370    -6.0340     1.9240 C.3   1 <1>  -0.1600 
 26 C       -1.2660    -8.5820     2.2290 C.3   1 <1>  -0.1600 
 27 C       -2.2180    -7.3790     2.2150 C.3   1 <1>  -0.1600 
 28 H        4.1010    -1.3260    -1.9090 H     1 <1>   0.3700 
 29 H        3.5940     1.4260    -2.1880 H     1 <1>   0.0800 
 30 H        5.1610     0.6890    -1.9430 H     1 <1>   0.0800 
 31 H        3.4100    -3.1680    -0.7450 H     1 <1>   0.1500 
 32 H       -0.2720    -1.4680    -2.0220 H     1 <1>   0.1500 
 33 H        3.2310     1.6260     0.1770 H     1 <1>   0.0800 
 34 H        2.4570    -5.3950    -0.9040 H     1 <1>   0.1500 
 35 H       -1.2580    -3.6880    -2.1860 H     1 <1>   0.1500 
 36 H        5.9670     0.3070     0.5160 H     1 <1>   0.0800 
 37 H        4.4460    -0.3880     1.0210 H     1 <1>   0.0800 
 38 H        5.0490     1.0320     1.8210 H     1 <1>   0.0800 
 39 H        0.5920    -6.7650    -2.1090 H     1 <1>   0.0800 
 40 H       -1.0110    -6.0700    -2.1860 H     1 <1>   0.0800 
 41 H        6.3230     4.7430    -0.4090 H     1 <1>   0.1500 
 42 H        3.2840     2.8440     1.9070 H     1 <1>   0.1500 
 43 H        0.5000    -6.4360     0.2990 H     1 <1>   0.4500 
 44 H        3.3060     4.8370     3.3500 H     1 <1>   0.1500 
 45 H       -0.1160    -8.5140    -1.0210 H     1 <1>   0.0800 
 46 H       -1.7210    -8.2130    -0.3990 H     1 <1>   0.0800 
 47 H       -2.3600    -5.8760    -0.0500 H     1 <1>   0.0800 
 48 H       -1.1370    -4.6930     0.3250 H     1 <1>   0.0800 
 49 H        4.8220     6.6820     2.8590 H     1 <1>   0.1500 
 50 H        0.6950    -8.2020     1.4180 H     1 <1>   0.0800 
 51 H       -0.0140    -9.6930     0.9230 H     1 <1>   0.0800 
 52 H       -2.1600    -5.2620     2.3420 H     1 <1>   0.0800 
 53 H       -0.5840    -5.9630     2.4190 H     1 <1>   0.0800 
 54 H       -0.7390    -8.5980     3.1690 H     1 <1>   0.0800 
 55 H       -1.8690    -9.4750     2.2040 H     1 <1>   0.0800 
 56 H       -3.0120    -7.5470     1.5050 H     1 <1>   0.0800 
 57 H       -2.6840    -7.3240     3.1850 H     1 <1>   0.0800 
@<TRIPOS>BOND
  1   1   2  2   
  2   2   3  am  
  3   2   4  1   
  4   3   5  1   
  5   3  28  1   
  6   4   6  ar  
  7   4   7  ar  
  8   5   8  1   
  9   5  29  1   
 10   5  30  1   
 11   6   9  ar  
 12   6  31  1   
 13   7  10  ar  
 14   7  32  1   
 15   8  11  1   
 16   8  12  1   
 17   8  33  1   
 18   9  13  ar  
 19   9  34  1   
 20  10  13  ar  
 21  10  35  1   
 22  11  14  1   
 23  12  36  1   
 24  12  37  1   
 25  12  38  1   
 26  13  15  1   
 27  14  16  ar  
 28  14  17  ar  
 29  15  18  1   
 30  15  39  1   
 31  15  40  1   
 32  16  19  ar  
 33  16  41  1   
 34  17  20  ar  
 35  17  42  1   
 36  18  21  1   
 37  18  22  1   
 38  18  43  1   
 39  19  23  ar  
 40  20  23  ar  
 41  20  44  1   
 42  21  24  1   
 43  21  45  1   
 44  21  46  1   
 45  22  25  1   
 46  22  47  1   
 47  22  48  1   
 48  23  49  1   
 49  24  26  1   
 50  24  50  1   
 51  24  51  1   
 52  25  27  1   
 53  25  52  1   
 54  25  53  1   
 55  26  27  1   
 56  26  54  1   
 57  26  55  1   
 58  27  56  1   
 59  27  57  1   
@<TRIPOS>SUBSTRUCTURE
  1 ****   4 GROUP 4 **** **** 0

# MOE 2024.06 (io_trps.svl 2023.06)
