@<TRIPOS>MOLECULE
NONAME
49 53 1 0 0 
SMALL
USER_CHARGES


@<TRIPOS>ATOM
  1 O       -0.6920     0.0980     1.0130 O.2   1 <1>  -0.5700 
  2 C       -1.6000     0.7420     0.5200 C.2   1 <1>   0.5440 
  3 N       -2.8180     0.1270     0.3330 N.am  1 <1>  -0.6600 
  4 C       -1.3820     2.1290     0.1610 C.ar  1 <1>   0.0860 
  5 C       -4.0920     0.8400     0.0880 C.3   1 <1>   0.1400 
  6 C       -3.0480    -1.2850     0.7090 C.3   1 <1>   0.1400 
  7 C       -0.8350     3.0210     1.0690 C.ar  1 <1>  -0.1500 
  8 C       -1.7170     2.6090    -1.1260 C.ar  1 <1>  -0.1500 
  9 C       -5.1950    -0.1210     0.5420 C.3   1 <1>  -0.0800 
 10 C       -4.5570    -1.5230     0.6030 C.3   1 <1>  -0.0800 
 11 C       -0.6480     4.3560     0.7180 C.ar  1 <1>   0.2270 
 12 C       -1.5350     3.9240    -1.4830 C.ar  1 <1>  -0.1500 
 13 C       -6.5210    -0.0240    -0.2610 C.3   1 <1>   0.4240 
 14 C       -4.9400    -2.4000    -0.6000 C.3   1 <1>  -0.1600 
 15 N       -0.1500     5.3990     1.4300 N.2   1 <1>  -0.2270 
 16 C       -0.9950     4.7940    -0.5320 C.ar  1 <1>  -0.1520 
 17 O       -6.2380     0.1290    -1.6080 O.3   1 <1>  -0.6800 
 18 C       -7.3660     1.1720     0.2240 C.ar  1 <1>  -0.1440 
 19 C       -7.2750    -1.3630    -0.1730 C.3   1 <1>  -0.1600 
 20 C       -6.4690    -2.5640    -0.7260 C.3   1 <1>  -0.1600 
 21 N       -0.1740     6.4430     0.6890 N.2   1 <1>  -0.4180 
 22 N       -0.6810     6.1050    -0.5060 N.pl3 1 <1>   0.3000 
 23 C       -7.5500     2.3150    -0.5500 C.ar  1 <1>  -0.1500 
 24 C       -7.9640     1.1360     1.4810 C.ar  1 <1>  -0.1500 
 25 C       -8.3050     3.3790    -0.0890 C.ar  1 <1>  -0.1500 
 26 C       -8.7210     2.1980     1.9450 C.ar  1 <1>  -0.1500 
 27 C       -8.8930     3.3220     1.1600 C.ar  1 <1>  -0.1500 
 28 H       -4.1350     1.7590     0.6480 H     1 <1>   0.0800 
 29 H       -4.1570     1.0670    -0.9600 H     1 <1>   0.0800 
 30 H       -2.4890    -1.9360     0.0580 H     1 <1>   0.0800 
 31 H       -2.7140    -1.4360     1.7220 H     1 <1>   0.0800 
 32 H       -0.5500     2.6950     2.0530 H     1 <1>   0.1500 
 33 H       -2.1200     1.9090    -1.8380 H     1 <1>   0.1500 
 34 H       -5.4160     0.1420     1.5610 H     1 <1>   0.0800 
 35 H       -4.8860    -2.0310     1.4940 H     1 <1>   0.0800 
 36 H       -1.7950     4.2790    -2.4650 H     1 <1>   0.1500 
 37 H       -4.5430    -1.9550    -1.4970 H     1 <1>   0.0800 
 38 H       -4.4850    -3.3720    -0.5040 H     1 <1>   0.0800 
 39 H       -5.8870    -0.7210    -1.9280 H     1 <1>   0.4000 
 40 H       -7.4960    -1.5610     0.8600 H     1 <1>   0.0800 
 41 H       -8.2190    -1.2790    -0.6830 H     1 <1>   0.0800 
 42 H       -6.7760    -3.4490    -0.1940 H     1 <1>   0.0800 
 43 H       -6.7180    -2.7190    -1.7620 H     1 <1>   0.0800 
 44 H       -0.7980     6.7760    -1.2710 H     1 <1>   0.2700 
 45 H       -7.1060     2.3920    -1.5280 H     1 <1>   0.1500 
 46 H       -7.8460     0.2790     2.1190 H     1 <1>   0.1500 
 47 H       -8.4360     4.2500    -0.7060 H     1 <1>   0.1500 
 48 H       -9.1760     2.1490     2.9190 H     1 <1>   0.1500 
 49 H       -9.4820     4.1480     1.5190 H     1 <1>   0.1500 
@<TRIPOS>BOND
  1   1   2  2   
  2   2   3  am  
  3   2   4  1   
  4   3   5  1   
  5   3   6  1   
  6   4   7  ar  
  7   4   8  ar  
  8   5   9  1   
  9   5  28  1   
 10   5  29  1   
 11   6  10  1   
 12   6  30  1   
 13   6  31  1   
 14   7  11  ar  
 15   7  32  1   
 16   8  12  ar  
 17   8  33  1   
 18   9  10  1   
 19   9  13  1   
 20   9  34  1   
 21  10  14  1   
 22  10  35  1   
 23  11  15  1   
 24  11  16  ar  
 25  12  16  ar  
 26  12  36  1   
 27  13  17  1   
 28  13  18  1   
 29  13  19  1   
 30  14  20  1   
 31  14  37  1   
 32  14  38  1   
 33  15  21  2   
 34  16  22  1   
 35  17  39  1   
 36  18  23  ar  
 37  18  24  ar  
 38  19  20  1   
 39  19  40  1   
 40  19  41  1   
 41  20  42  1   
 42  20  43  1   
 43  21  22  1   
 44  22  44  1   
 45  23  25  ar  
 46  23  45  1   
 47  24  26  ar  
 48  24  46  1   
 49  25  27  ar  
 50  25  47  1   
 51  26  27  ar  
 52  26  48  1   
 53  27  49  1   
@<TRIPOS>SUBSTRUCTURE
  1 ****   5 GROUP 4 **** **** 0

# MOE 2024.06 (io_trps.svl 2023.06)
