@<TRIPOS>MOLECULE
NONAME
53 55 1 0 0 
SMALL
USER_CHARGES


@<TRIPOS>ATOM
  1 O        1.4900    -0.6020     1.0430 O.co2 1 <1>  -0.9000 
  2 C        1.0960    -0.1780    -0.0510 C.2   1 <1>   0.9060 
  3 O       -0.0460    -0.3890    -0.4730 O.co2 1 <1>  -0.9000 
  4 C        2.0680     0.5880    -0.9270 C.3   1 <1>  -0.1220 
  5 C        2.2580     2.0520    -0.5290 C.ar  1 <1>  -0.1440 
  6 C        2.0650     3.0680    -1.4500 C.ar  1 <1>  -0.1500 
  7 C        2.6260     2.3730     0.7660 C.ar  1 <1>  -0.1500 
  8 C        2.2460     4.3900    -1.0830 C.ar  1 <1>  -0.1500 
  9 C        2.8060     3.6910     1.1400 C.ar  1 <1>  -0.1500 
 10 C        2.6260     4.7070     0.2130 C.ar  1 <1>  -0.1440 
 11 C        2.8550     6.1480     0.6120 C.3   1 <1>   0.4870 
 12 N        4.3210     6.3620     0.7680 N.4   1 <1>  -0.9590 
 13 C        4.6290     7.6980     1.3850 C.3   1 <1>   0.3430 
 14 C        5.0310     6.0720    -0.5240 C.3   1 <1>   0.3430 
 15 C        5.0600     8.7190     0.3270 C.3   1 <1>  -0.0800 
 16 C        6.4190     6.7130    -0.5250 C.3   1 <1>  -0.1600 
 17 C        6.3400     8.2450    -0.3990 C.3   1 <1>  -0.1600 
 18 C        5.2520    10.1050     0.9580 C.3   1 <1>   0.1200 
 19 O        5.5770    11.0100    -0.0680 O.3   1 <1>  -0.3630 
 20 C        5.8390    12.3190     0.1860 C.ar  1 <1>   0.0830 
 21 C        6.1980    13.1250    -0.8910 C.ar  1 <1>  -0.1430 
 22 C        5.7630    12.8720     1.4640 C.ar  1 <1>  -0.1500 
 23 C        6.4750    14.4670    -0.6820 C.ar  1 <1>  -0.1500 
 24 C        6.2900    12.5480    -2.2970 C.3   1 <1>  -0.0970 
 25 C        6.0420    14.2120     1.6600 C.ar  1 <1>  -0.1500 
 26 C        6.3980    15.0100     0.5890 C.ar  1 <1>  -0.1500 
 27 H        1.7120     0.5170    -1.9360 H     1 <1>   0.0800 
 28 H        3.0120     0.0820    -0.8730 H     1 <1>   0.0800 
 29 H        1.7630     2.8220    -2.4540 H     1 <1>   0.1500 
 30 H        2.7580     1.5790     1.4860 H     1 <1>   0.1500 
 31 H        2.0820     5.1550    -1.8220 H     1 <1>   0.1500 
 32 H        3.0780     3.8960     2.1600 H     1 <1>   0.1500 
 33 H        2.3450     6.3420     1.5410 H     1 <1>   0.0800 
 34 H        2.4580     6.8070    -0.1430 H     1 <1>   0.0800 
 35 H        4.6250     5.6290     1.4230 H     1 <1>   0.4500 
 36 H        5.4380     7.5830     2.0880 H     1 <1>   0.0800 
 37 H        3.7710     8.0660     1.9240 H     1 <1>   0.0800 
 38 H        4.4660     6.4770    -1.3480 H     1 <1>   0.0800 
 39 H        5.1110     5.0060    -0.6680 H     1 <1>   0.0800 
 40 H        4.2590     8.8080    -0.3870 H     1 <1>   0.0800 
 41 H        6.9300     6.4570    -1.4370 H     1 <1>   0.0800 
 42 H        6.9940     6.3020     0.2870 H     1 <1>   0.0800 
 43 H        7.2190     8.5920     0.1210 H     1 <1>   0.0800 
 44 H        6.3610     8.6920    -1.3790 H     1 <1>   0.0800 
 45 H        6.0600    10.1000     1.6700 H     1 <1>   0.0800 
 46 H        4.3450    10.4470     1.4260 H     1 <1>   0.0800 
 47 H        5.4890    12.2840     2.3170 H     1 <1>   0.1500 
 48 H        6.7540    15.0980    -1.5070 H     1 <1>   0.1500 
 49 H        7.0200    11.7590    -2.3190 H     1 <1>   0.0800 
 50 H        6.5790    13.3010    -3.0080 H     1 <1>   0.0800 
 51 H        5.3360    12.1480    -2.5890 H     1 <1>   0.0800 
 52 H        5.9820    14.6370     2.6470 H     1 <1>   0.1500 
 53 H        6.6150    16.0530     0.7410 H     1 <1>   0.1500 
@<TRIPOS>BOND
  1   1   2  ar  
  2   2   3  ar  
  3   2   4  1   
  4   4   5  1   
  5   4  27  1   
  6   4  28  1   
  7   5   6  ar  
  8   5   7  ar  
  9   6   8  ar  
 10   6  29  1   
 11   7   9  ar  
 12   7  30  1   
 13   8  10  ar  
 14   8  31  1   
 15   9  10  ar  
 16   9  32  1   
 17  10  11  1   
 18  11  12  1   
 19  11  33  1   
 20  11  34  1   
 21  12  13  1   
 22  12  14  1   
 23  12  35  1   
 24  13  15  1   
 25  13  36  1   
 26  13  37  1   
 27  14  16  1   
 28  14  38  1   
 29  14  39  1   
 30  15  17  1   
 31  15  18  1   
 32  15  40  1   
 33  16  17  1   
 34  16  41  1   
 35  16  42  1   
 36  17  43  1   
 37  17  44  1   
 38  18  19  1   
 39  18  45  1   
 40  18  46  1   
 41  19  20  1   
 42  20  21  ar  
 43  20  22  ar  
 44  21  23  ar  
 45  21  24  1   
 46  22  25  ar  
 47  22  47  1   
 48  23  26  ar  
 49  23  48  1   
 50  24  49  1   
 51  24  50  1   
 52  24  51  1   
 53  25  26  ar  
 54  25  52  1   
 55  26  53  1   
@<TRIPOS>SUBSTRUCTURE
  1 ****  12 GROUP 4 **** **** 0

# MOE 2024.06 (io_trps.svl 2023.06)
