@<TRIPOS>MOLECULE
NONAME
52 54 1 0 0 
SMALL
USER_CHARGES


@<TRIPOS>ATOM
  1 F       -1.8060    -0.5580     2.6700 F     1 <1>  -0.3400 
  2 C       -1.4090    -0.1410     1.4740 C.3   1 <1>   0.8800 
  3 F       -1.3560     1.1810     1.5490 F     1 <1>  -0.3400 
  4 O       -2.3950    -0.4830     0.5270 O.3   1 <1>  -0.3630 
  5 C       -2.5680    -1.7610     0.1090 C.ar  1 <1>   0.0820 
  6 C       -1.9120    -2.8610     0.6550 C.ar  1 <1>  -0.1500 
  7 C       -3.4630    -1.9520    -0.9300 C.ar  1 <1>  -0.1500 
  8 C       -2.1630    -4.1310     0.1640 C.ar  1 <1>  -0.1500 
  9 C       -3.7140    -3.2210    -1.4190 C.ar  1 <1>  -0.1500 
 10 C       -3.0730    -4.3210    -0.8670 C.ar  1 <1>  -0.1440 
 11 C       -3.3760    -5.7160    -1.3770 C.3   1 <1>   0.4870 
 12 N       -4.2530    -6.3920    -0.3760 N.4   1 <1>  -0.9590 
 13 C       -4.3620    -7.8730    -0.6450 C.3   1 <1>   0.3430 
 14 C       -5.5930    -5.7270    -0.3390 C.3   1 <1>   0.3430 
 15 C       -5.3210    -8.6230     0.3350 C.3   1 <1>   0.4230 
 16 C       -6.4800    -6.4050     0.7100 C.3   1 <1>  -0.1600 
 17 N       -5.4240   -10.1350     0.1290 N.4   1 <1>  -0.9590 
 18 C       -6.7050    -7.9220     0.4670 C.3   1 <1>   0.0000 
 19 C       -6.5930   -10.7650     0.8360 C.3   1 <1>   0.3430 
 20 C       -5.4310   -10.5840    -1.3060 C.3   1 <1>   0.2630 
 21 C       -7.4360    -8.5090     1.7080 C.3   1 <1>  -0.1600 
 22 C       -7.6270    -8.1130    -0.7740 C.3   1 <1>   0.1200 
 23 C       -7.0070    -9.9490     2.0620 C.3   1 <1>  -0.1600 
 24 O       -6.9560    -7.8450    -1.9590 O.3   1 <1>  -0.6800 
 25 H       -0.4380    -0.5360     1.2390 H     1 <1>   0.0800 
 26 H       -1.2100    -2.7550     1.4620 H     1 <1>   0.1500 
 27 H       -3.9610    -1.0960    -1.3520 H     1 <1>   0.1500 
 28 H       -1.6350    -4.9620     0.6010 H     1 <1>   0.1500 
 29 H       -4.4120    -3.3300    -2.2330 H     1 <1>   0.1500 
 30 H       -2.4500    -6.2560    -1.4930 H     1 <1>   0.0800 
 31 H       -3.8660    -5.6630    -2.3360 H     1 <1>   0.0800 
 32 H       -3.8080    -6.2100     0.5340 H     1 <1>   0.4500 
 33 H       -4.7190    -8.0120    -1.6510 H     1 <1>   0.0800 
 34 H       -3.3820    -8.3150    -0.5760 H     1 <1>   0.0800 
 35 H       -5.4810    -4.6840    -0.0870 H     1 <1>   0.0800 
 36 H       -6.0630    -5.7860    -1.3080 H     1 <1>   0.0800 
 37 H       -4.8660    -8.4980     1.3040 H     1 <1>   0.0800 
 38 H       -6.0310    -6.2380     1.6740 H     1 <1>   0.0800 
 39 H       -7.4310    -5.8990     0.7250 H     1 <1>   0.0800 
 40 H       -4.5900   -10.5550     0.5690 H     1 <1>   0.4500 
 41 H       -7.4360   -10.8250     0.1670 H     1 <1>   0.0800 
 42 H       -6.3430   -11.7710     1.1360 H     1 <1>   0.0800 
 43 H       -6.2820   -10.1750    -1.8270 H     1 <1>   0.0800 
 44 H       -5.4860   -11.6600    -1.3600 H     1 <1>   0.0800 
 45 H       -4.5340   -10.2690    -1.8120 H     1 <1>   0.0800 
 46 H       -7.2600    -7.9040     2.5830 H     1 <1>   0.0800 
 47 H       -8.5020    -8.4870     1.5480 H     1 <1>   0.0800 
 48 H       -8.4760    -7.4490    -0.7150 H     1 <1>   0.0800 
 49 H       -8.0040    -9.1190    -0.8350 H     1 <1>   0.0800 
 50 H       -7.8240   -10.4470     2.5560 H     1 <1>   0.0800 
 51 H       -6.1880    -9.9310     2.7610 H     1 <1>   0.0800 
 52 H       -7.5960    -7.8130    -2.7090 H     1 <1>   0.4000 
@<TRIPOS>BOND
  1   1   2  1   
  2   2   3  1   
  3   2   4  1   
  4   2  25  1   
  5   4   5  1   
  6   5   6  ar  
  7   5   7  ar  
  8   6   8  ar  
  9   6  26  1   
 10   7   9  ar  
 11   7  27  1   
 12   8  10  ar  
 13   8  28  1   
 14   9  10  ar  
 15   9  29  1   
 16  10  11  1   
 17  11  12  1   
 18  11  30  1   
 19  11  31  1   
 20  12  13  1   
 21  12  14  1   
 22  12  32  1   
 23  13  15  1   
 24  13  33  1   
 25  13  34  1   
 26  14  16  1   
 27  14  35  1   
 28  14  36  1   
 29  15  17  1   
 30  15  18  1   
 31  15  37  1   
 32  16  18  1   
 33  16  38  1   
 34  16  39  1   
 35  17  19  1   
 36  17  20  1   
 37  17  40  1   
 38  18  21  1   
 39  18  22  1   
 40  19  23  1   
 41  19  41  1   
 42  19  42  1   
 43  20  43  1   
 44  20  44  1   
 45  20  45  1   
 46  21  23  1   
 47  21  46  1   
 48  21  47  1   
 49  22  24  1   
 50  22  48  1   
 51  22  49  1   
 52  23  50  1   
 53  23  51  1   
 54  24  52  1   
@<TRIPOS>SUBSTRUCTURE
  1 ****  12 GROUP 4 **** **** 0

# MOE 2024.06 (io_trps.svl 2023.06)
