@<TRIPOS>MOLECULE
NONAME
47 49 1 0 0 
SMALL
USER_CHARGES


@<TRIPOS>ATOM
  1 CL       0.0470    -0.8200     1.9700 Cl    1 <1>  -0.1770 
  2 C        1.5080    -1.1250     1.0640 C.ar  1 <1>   0.1770 
  3 C        1.8470    -2.4280     0.7470 C.ar  1 <1>  -0.1500 
  4 C        2.2980    -0.0590     0.6810 C.ar  1 <1>  -0.1500 
  5 C        3.0060    -2.6920     0.0270 C.ar  1 <1>  -0.1440 
  6 C        3.4590    -0.3100    -0.0280 C.ar  1 <1>  -0.1500 
  7 C        3.8150    -1.6160    -0.3410 C.ar  1 <1>   0.0820 
  8 C        3.3780    -4.1340    -0.3400 C.3   1 <1>   0.0640 
  9 O        4.9670    -1.8230    -1.0140 O.3   1 <1>  -0.3620 
 10 C        2.2830    -4.9050    -1.0750 C.3   1 <1>  -0.1600 
 11 C        3.6990    -5.0070     0.8730 C.3   1 <1>  -0.1600 
 12 C        6.1430    -1.7590    -0.2430 C.3   1 <1>   0.4800 
 13 C        2.6820    -6.3690    -0.9050 C.3   1 <1>  -0.1600 
 14 C        3.4060    -6.4500     0.4430 C.3   1 <1>  -0.1600 
 15 O        6.5720    -0.4210    -0.2970 O.3   1 <1>  -0.5600 
 16 C        7.2200    -2.7090    -0.8200 C.3   1 <1>   0.2000 
 17 C        7.7340    -0.1650     0.4400 C.3   1 <1>   0.2000 
 18 O        6.9130    -4.0520    -0.5940 O.3   1 <1>  -0.6800 
 19 C        8.5990    -2.4210    -0.2010 C.3   1 <1>   0.2000 
 20 C        8.9090    -0.9160    -0.2210 C.3   1 <1>   0.2000 
 21 C        7.9490     1.3530     0.5100 C.3   1 <1>   0.1200 
 22 O        9.5770    -3.1110    -0.9120 O.3   1 <1>  -0.6800 
 23 O        9.0570    -0.5010    -1.5490 O.3   1 <1>  -0.6800 
 24 O        8.9300     1.6410     1.4530 O.3   1 <1>  -0.6800 
 25 H        1.2000    -3.2220     1.0670 H     1 <1>   0.1500 
 26 H        2.0080     0.9440     0.9330 H     1 <1>   0.1500 
 27 H        4.0910     0.5000    -0.3440 H     1 <1>   0.1500 
 28 H        4.2400    -4.1460    -0.9820 H     1 <1>   0.0800 
 29 H        1.3260    -4.7460    -0.6110 H     1 <1>   0.0800 
 30 H        2.2240    -4.6180    -2.1100 H     1 <1>   0.0800 
 31 H        4.7240    -4.8830     1.1740 H     1 <1>   0.0800 
 32 H        3.0600    -4.7470     1.6990 H     1 <1>   0.0800 
 33 H        5.9140    -2.0170     0.7770 H     1 <1>   0.0800 
 34 H        1.8270    -7.0220    -0.9440 H     1 <1>   0.0800 
 35 H        3.3660    -6.6420    -1.6910 H     1 <1>   0.0800 
 36 H        4.3200    -7.0090     0.3390 H     1 <1>   0.0800 
 37 H        2.7850    -6.9340     1.1780 H     1 <1>   0.0800 
 38 H        7.2640    -2.5570    -1.8840 H     1 <1>   0.0800 
 39 H        7.5730    -0.5270     1.4410 H     1 <1>   0.0800 
 40 H        7.6810    -4.5920    -0.8810 H     1 <1>   0.4000 
 41 H        8.6160    -2.7760     0.8150 H     1 <1>   0.0800 
 42 H        9.8280    -0.7150     0.3030 H     1 <1>   0.0800 
 43 H        7.0440     1.8560     0.8030 H     1 <1>   0.0800 
 44 H        8.2820     1.7360    -0.4390 H     1 <1>   0.0800 
 45 H        9.8850    -2.5240    -1.6390 H     1 <1>   0.4000 
 46 H        8.1760    -0.2490    -1.9040 H     1 <1>   0.4000 
 47 H        8.5410     1.7700     2.3410 H     1 <1>   0.4000 
@<TRIPOS>BOND
  1   1   2  1   
  2   2   3  ar  
  3   2   4  ar  
  4   3   5  ar  
  5   3  25  1   
  6   4   6  ar  
  7   4  26  1   
  8   5   7  ar  
  9   5   8  1   
 10   6   7  ar  
 11   6  27  1   
 12   7   9  1   
 13   8  10  1   
 14   8  11  1   
 15   8  28  1   
 16   9  12  1   
 17  10  13  1   
 18  10  29  1   
 19  10  30  1   
 20  11  14  1   
 21  11  31  1   
 22  11  32  1   
 23  12  15  1   
 24  12  16  1   
 25  12  33  1   
 26  13  14  1   
 27  13  34  1   
 28  13  35  1   
 29  14  36  1   
 30  14  37  1   
 31  15  17  1   
 32  16  18  1   
 33  16  19  1   
 34  16  38  1   
 35  17  20  1   
 36  17  21  1   
 37  17  39  1   
 38  18  40  1   
 39  19  20  1   
 40  19  22  1   
 41  19  41  1   
 42  20  23  1   
 43  20  42  1   
 44  21  24  1   
 45  21  43  1   
 46  21  44  1   
 47  22  45  1   
 48  23  46  1   
 49  24  47  1   
@<TRIPOS>SUBSTRUCTURE
  1 ****   9 GROUP 4 **** **** 0

# MOE 2024.06 (io_trps.svl 2023.06)
