@<TRIPOS>MOLECULE
NONAME
48 50 1 0 0 
SMALL
USER_CHARGES


@<TRIPOS>ATOM
  1 S       -0.7120     0.1280    -0.2960 S.3   1 <1>  -0.0800 
  2 C       -2.2320    -0.3870    -0.9400 C.2   1 <1>   0.1980 
  3 C       -1.4720     1.6400     0.0530 C.2   1 <1>   0.1980 
  4 N       -3.1310     0.5130    -0.8700 N.2   1 <1>  -0.3380 
  5 C       -2.3430    -1.7970    -1.5030 C.3   1 <1>   0.2900 
  6 N       -2.6930     1.6770    -0.2970 N.2   1 <1>  -0.3380 
  7 C       -0.6420     2.7170     0.7130 C.3   1 <1>  -0.0600 
  8 N       -2.0870    -2.8570    -0.4980 N.3   1 <1>  -0.8100 
  9 C       -2.0160    -4.1650    -1.1930 C.3   1 <1>   0.1100 
 10 C       -3.1110    -2.8200     0.5650 C.3   1 <1>   0.1100 
 11 C       -1.7170    -5.3610    -0.2760 C.3   1 <1>   0.1400 
 12 C       -2.6270    -3.5600     1.8150 C.3   1 <1>  -0.1600 
 13 N       -2.9200    -5.7100     0.5340 N.am  1 <1>  -0.6600 
 14 C       -3.0250    -5.0410     1.8610 C.3   1 <1>   0.1400 
 15 C       -3.9290    -6.4780    -0.0180 C.2   1 <1>   0.5440 
 16 O       -3.7620    -6.9690    -1.1190 O.2   1 <1>  -0.5700 
 17 C       -5.1560    -6.7500     0.6860 C.ar  1 <1>   0.0860 
 18 C       -6.2220    -5.8430     0.6760 C.ar  1 <1>   0.3930 
 19 C       -5.3180    -7.9290     1.3990 C.ar  1 <1>  -0.1500 
 20 O       -6.0740    -4.7020    -0.0290 O.3   1 <1>  -0.3630 
 21 N       -7.3760    -6.0240     1.3200 N.ar  1 <1>  -0.6200 
 22 C       -6.5090    -8.1280     2.0600 C.ar  1 <1>  -0.1500 
 23 C       -7.1310    -3.7780    -0.1820 C.3   1 <1>   0.1200 
 24 C       -7.4910    -7.1560     1.9900 C.ar  1 <1>   0.1600 
 25 C       -6.6540    -2.6410    -1.0820 C.3   1 <1>  -0.2400 
 26 H       -1.6280    -1.8860    -2.3020 H     1 <1>   0.0800 
 27 H       -3.3260    -1.9280    -1.9200 H     1 <1>   0.0800 
 28 H       -0.2780     2.3660     1.6610 H     1 <1>   0.0800 
 29 H       -1.2430     3.5930     0.8710 H     1 <1>   0.0800 
 30 H        0.1910     2.9720     0.0840 H     1 <1>   0.0800 
 31 H       -1.2270    -4.1180    -1.9230 H     1 <1>   0.0800 
 32 H       -2.9360    -4.3570    -1.7200 H     1 <1>   0.0800 
 33 H       -4.0380    -3.2330     0.2100 H     1 <1>   0.0800 
 34 H       -3.2960    -1.7990     0.8540 H     1 <1>   0.0800 
 35 H       -0.8780    -5.1420     0.3590 H     1 <1>   0.0800 
 36 H       -1.4500    -6.2060    -0.8860 H     1 <1>   0.0800 
 37 H       -3.0620    -3.0870     2.6770 H     1 <1>   0.0800 
 38 H       -1.5610    -3.4530     1.9100 H     1 <1>   0.0800 
 39 H       -4.0350    -5.1030     2.2230 H     1 <1>   0.0800 
 40 H       -2.3950    -5.5580     2.5640 H     1 <1>   0.0800 
 41 H       -4.5290    -8.6610     1.4230 H     1 <1>   0.1500 
 42 H       -6.6790    -9.0280     2.6250 H     1 <1>   0.1500 
 43 H       -7.4090    -3.4110     0.7910 H     1 <1>   0.0800 
 44 H       -7.9660    -4.2930    -0.6280 H     1 <1>   0.0800 
 45 H       -8.4190    -7.3210     2.5120 H     1 <1>   0.1500 
 46 H       -5.8600    -2.0940    -0.6070 H     1 <1>   0.0800 
 47 H       -7.4670    -1.9620    -1.2660 H     1 <1>   0.0800 
 48 H       -6.3130    -3.0320    -2.0240 H     1 <1>   0.0800 
@<TRIPOS>BOND
  1   1   2  1   
  2   1   3  1   
  3   2   4  2   
  4   2   5  1   
  5   3   6  2   
  6   3   7  1   
  7   4   6  1   
  8   5   8  1   
  9   5  26  1   
 10   5  27  1   
 11   7  28  1   
 12   7  29  1   
 13   7  30  1   
 14   8   9  1   
 15   8  10  1   
 16   9  11  1   
 17   9  31  1   
 18   9  32  1   
 19  10  12  1   
 20  10  33  1   
 21  10  34  1   
 22  11  13  1   
 23  11  35  1   
 24  11  36  1   
 25  12  14  1   
 26  12  37  1   
 27  12  38  1   
 28  13  14  1   
 29  13  15  am  
 30  14  39  1   
 31  14  40  1   
 32  15  16  2   
 33  15  17  1   
 34  17  18  ar  
 35  17  19  ar  
 36  18  20  1   
 37  18  21  ar  
 38  19  22  ar  
 39  19  41  1   
 40  20  23  1   
 41  21  24  ar  
 42  22  24  ar  
 43  22  42  1   
 44  23  25  1   
 45  23  43  1   
 46  23  44  1   
 47  24  45  1   
 48  25  46  1   
 49  25  47  1   
 50  25  48  1   
@<TRIPOS>SUBSTRUCTURE
  1 ****  10 GROUP 4 **** **** 0

# MOE 2024.06 (io_trps.svl 2023.06)
