@<TRIPOS>MOLECULE
NONAME
49 51 1 0 0 
SMALL
USER_CHARGES


@<TRIPOS>ATOM
  1 F       -0.9340     2.0040     3.1450 F     1 <1>  -0.1900 
  2 C       -0.1870     2.7910     2.4160 C.ar  1 <1>   0.1900 
  3 C       -0.5950     3.2440     1.1570 C.ar  1 <1>   0.0830 
  4 C        1.0320     3.1570     2.9530 C.ar  1 <1>  -0.1500 
  5 O       -1.7630     2.9570     0.5170 O.3   1 <1>  -0.3630 
  6 C        0.2650     4.0780     0.4620 C.ar  1 <1>  -0.1500 
  7 C        1.8660     3.9950     2.2340 C.ar  1 <1>  -0.1500 
  8 C       -2.7240     2.0630     1.0360 C.3   1 <1>   0.0400 
  9 C        1.5010     4.4820     0.9760 C.ar  1 <1>   0.0860 
 10 C        2.3790     5.3720     0.2330 C.2   1 <1>   0.5440 
 11 O        3.5620     5.4830     0.5100 O.2   1 <1>  -0.5700 
 12 N        1.9180     6.1960    -0.7670 N.am  1 <1>  -0.6600 
 13 C        2.7160     6.3660    -2.0250 C.3   1 <1>   0.1400 
 14 C        0.9530     7.2810    -0.4550 C.3   1 <1>   0.1400 
 15 C        3.6440     7.6000    -1.9940 C.3   1 <1>   0.3430 
 16 C        1.6220     8.3370     0.4400 C.3   1 <1>  -0.1600 
 17 N        3.8870     8.0570    -0.5890 N.4   1 <1>  -0.9590 
 18 C        2.8510     9.0390    -0.1540 C.3   1 <1>   0.3430 
 19 C        5.2970     8.4980    -0.3700 C.3   1 <1>   0.3430 
 20 C        5.6970     8.3890     1.1040 C.3   1 <1>   0.0960 
 21 N        7.0980     8.8130     1.2320 N.pl3 1 <1>   0.0480 
 22 C        7.5690    10.0330     1.5730 C.2   1 <1>   0.0360 
 23 C        8.1950     8.0850     0.9580 C.2   1 <1>  -0.3020 
 24 N        8.8560    10.1270     1.5260 N.2   1 <1>  -0.5650 
 25 C        9.2550     8.9000     1.1440 C.2   1 <1>   0.0770 
 26 H        1.3210     2.7870     3.9220 H     1 <1>   0.1500 
 27 H       -0.0430     4.4140    -0.5120 H     1 <1>   0.1500 
 28 H        2.8170     4.2750     2.6530 H     1 <1>   0.1500 
 29 H       -3.5250     1.9820     0.3230 H     1 <1>   0.0800 
 30 H       -3.1020     2.4540     1.9640 H     1 <1>   0.0800 
 31 H       -2.2670     1.1000     1.1810 H     1 <1>   0.0800 
 32 H        2.0530     6.4280    -2.8710 H     1 <1>   0.0800 
 33 H        3.3240     5.4880    -2.1670 H     1 <1>   0.0800 
 34 H        0.1020     6.8650     0.0600 H     1 <1>   0.0800 
 35 H        0.5950     7.7290    -1.3660 H     1 <1>   0.0800 
 36 H        3.2040     8.3970    -2.5700 H     1 <1>   0.0800 
 37 H        4.5750     7.3330    -2.4670 H     1 <1>   0.0800 
 38 H        1.8880     7.8910     1.3820 H     1 <1>   0.0800 
 39 H        0.8890     9.0920     0.6610 H     1 <1>   0.0800 
 40 H        3.7340     7.1830    -0.0340 H     1 <1>   0.4500 
 41 H        3.2630     9.6930     0.5980 H     1 <1>   0.0800 
 42 H        2.5540     9.6500    -0.9910 H     1 <1>   0.0800 
 43 H        5.4220     9.5130    -0.7100 H     1 <1>   0.0800 
 44 H        5.9590     7.8650    -0.9390 H     1 <1>   0.0800 
 45 H        5.6140     7.3710     1.4420 H     1 <1>   0.0800 
 46 H        5.0870     9.0240     1.7190 H     1 <1>   0.0800 
 47 H        6.9240    10.8480     1.8530 H     1 <1>   0.1500 
 48 H        8.1780     7.0520     0.6580 H     1 <1>   0.1500 
 49 H       10.3020     8.6670     1.0240 H     1 <1>   0.1500 
@<TRIPOS>BOND
  1   1   2  1   
  2   2   3  ar  
  3   2   4  ar  
  4   3   5  1   
  5   3   6  ar  
  6   4   7  ar  
  7   4  26  1   
  8   5   8  1   
  9   6   9  ar  
 10   6  27  1   
 11   7   9  ar  
 12   7  28  1   
 13   8  29  1   
 14   8  30  1   
 15   8  31  1   
 16   9  10  1   
 17  10  11  2   
 18  10  12  am  
 19  12  13  1   
 20  12  14  1   
 21  13  15  1   
 22  13  32  1   
 23  13  33  1   
 24  14  16  1   
 25  14  34  1   
 26  14  35  1   
 27  15  17  1   
 28  15  36  1   
 29  15  37  1   
 30  16  18  1   
 31  16  38  1   
 32  16  39  1   
 33  17  18  1   
 34  17  19  1   
 35  17  40  1   
 36  18  41  1   
 37  18  42  1   
 38  19  20  1   
 39  19  43  1   
 40  19  44  1   
 41  20  21  1   
 42  20  45  1   
 43  20  46  1   
 44  21  22  1   
 45  21  23  1   
 46  22  24  2   
 47  22  47  1   
 48  23  25  2   
 49  23  48  1   
 50  24  25  1   
 51  25  49  1   
@<TRIPOS>SUBSTRUCTURE
  1 ****  11 GROUP 4 **** **** 0

# MOE 2024.06 (io_trps.svl 2023.06)
