@<TRIPOS>MOLECULE
NONAME
29 30 1 0 0 
SMALL
USER_CHARGES


@<TRIPOS>ATOM
  1 CL      -0.1740    -0.4440     1.8250 Cl    1 <1>  -0.1770 
  2 C        1.2510    -1.1120     1.0460 C.ar  1 <1>   0.1770 
  3 C        1.2020    -2.2650     0.2660 C.ar  1 <1>   0.4100 
  4 C        2.4590    -0.4910     1.2070 C.ar  1 <1>   0.1600 
  5 N        2.3040    -2.7290    -0.3000 N.ar  1 <1>  -0.6200 
  6 N        0.0380    -2.9720     0.0230 N.pl3 1 <1>  -0.8380 
  7 N        3.5640    -0.9500     0.6440 N.ar  1 <1>  -0.6200 
  8 C        3.4140    -2.0500    -0.0750 C.ar  1 <1>   0.4770 
  9 C        0.0810    -4.4810    -0.0020 C.3   1 <1>   0.2700 
 10 C       -1.0360    -2.3360    -0.7730 C.3   1 <1>   0.2090 
 11 C        4.6650    -2.5890    -0.7250 C.3   1 <1>  -0.0960 
 12 C       -0.9950    -5.1660     0.8520 C.2   1 <1>   0.5690 
 13 C       -2.4060    -2.5310    -0.1170 C.3   1 <1>  -0.1600 
 14 O       -0.6650    -6.0070     1.6530 O.2   1 <1>  -0.5700 
 15 N       -2.3140    -4.8780     0.7110 N.am  1 <1>  -0.7300 
 16 C       -2.9590    -3.9530    -0.2410 C.3   1 <1>   0.1400 
 17 H        2.5260     0.4000     1.8060 H     1 <1>   0.1500 
 18 H        1.0350    -4.8190     0.3620 H     1 <1>   0.0800 
 19 H       -0.0160    -4.8220    -1.0160 H     1 <1>   0.0800 
 20 H       -1.0360    -2.7450    -1.7690 H     1 <1>   0.0800 
 21 H       -0.8370    -1.2810    -0.8570 H     1 <1>   0.0800 
 22 H        4.5550    -3.6370    -0.9360 H     1 <1>   0.0800 
 23 H        5.5050    -2.4540    -0.0690 H     1 <1>   0.0800 
 24 H        4.8450    -2.0610    -1.6420 H     1 <1>   0.0800 
 25 H       -3.0930    -1.8740    -0.6190 H     1 <1>   0.0800 
 26 H       -2.3730    -2.2280     0.9150 H     1 <1>   0.0800 
 27 H       -2.9330    -5.3710     1.3580 H     1 <1>   0.3700 
 28 H       -2.8280    -4.3210    -1.2450 H     1 <1>   0.0800 
 29 H       -4.0140    -3.9360    -0.0300 H     1 <1>   0.0800 
@<TRIPOS>BOND
  1   1   2  1   
  2   2   3  ar  
  3   2   4  ar  
  4   3   5  ar  
  5   3   6  1   
  6   4   7  ar  
  7   4  17  1   
  8   5   8  ar  
  9   6   9  1   
 10   6  10  1   
 11   7   8  ar  
 12   8  11  1   
 13   9  12  1   
 14   9  18  1   
 15   9  19  1   
 16  10  13  1   
 17  10  20  1   
 18  10  21  1   
 19  11  22  1   
 20  11  23  1   
 21  11  24  1   
 22  12  14  2   
 23  12  15  am  
 24  13  16  1   
 25  13  25  1   
 26  13  26  1   
 27  15  16  1   
 28  15  27  1   
 29  16  28  1   
 30  16  29  1   
@<TRIPOS>SUBSTRUCTURE
  1 ****   6 GROUP 4 **** **** 0

# MOE 2024.06 (io_trps.svl 2023.06)
