@<TRIPOS>MOLECULE
NONAME
50 52 1 0 0 
SMALL
USER_CHARGES


@<TRIPOS>ATOM
  1 O       -1.0210    -0.5080    -2.9630 O.2   1 <1>  -0.5700 
  2 C       -1.6700     0.3730    -2.4470 C.2   1 <1>   0.5690 
  3 N       -2.7460     0.0770    -1.6340 N.am  1 <1>  -0.6600 
  4 C       -1.2660     1.8060    -2.8030 C.3   1 <1>   0.0440 
  5 C       -3.3260     1.0520    -0.6640 C.3   1 <1>   0.2200 
  6 C       -3.3050    -1.3080    -1.6250 C.3   1 <1>   0.0600 
  7 C       -0.7700     2.6720    -1.6460 C.ar  1 <1>  -0.1440 
  8 C       -3.7550     0.4880     0.6880 C.3   1 <1>  -0.1600 
  9 C       -4.5790     1.7470    -1.1730 C.3   1 <1>  -0.1600 
 10 C        0.0660     2.1460    -0.6730 C.ar  1 <1>  -0.1500 
 11 C       -1.1920     3.9900    -1.5400 C.ar  1 <1>  -0.1500 
 12 C       -4.5970     1.6240     1.2860 C.3   1 <1>  -0.0800 
 13 C       -5.1420     2.4250     0.0860 C.3   1 <1>  -0.0800 
 14 C        0.4460     2.9200     0.4090 C.ar  1 <1>  -0.1500 
 15 C       -0.8110     4.7660    -0.4600 C.ar  1 <1>  -0.1500 
 16 C       -3.7590     2.6010     2.1260 C.3   1 <1>  -0.1600 
 17 C       -4.6380     3.8670     0.2570 C.3   1 <1>  -0.1600 
 18 C        0.0040     4.2270     0.5300 C.ar  1 <1>   0.0820 
 19 C       -4.2260     3.9890     1.7160 C.3   1 <1>   0.2000 
 20 O        0.3990     4.9070     1.6340 O.3   1 <1>  -0.3630 
 21 O       -3.1840     4.8820     1.8350 O.3   1 <1>  -0.6800 
 22 C        0.0750     6.2660     1.8210 C.3   1 <1>   0.1200 
 23 C        0.7000     6.7220     3.1350 C.3   1 <1>  -0.2400 
 24 H       -0.4880     1.7620    -3.5430 H     1 <1>   0.0800 
 25 H       -2.1150     2.2700    -3.2680 H     1 <1>   0.0800 
 26 H       -2.6050     1.8070    -0.4360 H     1 <1>   0.0800 
 27 H       -4.3790    -1.2730    -1.6220 H     1 <1>   0.0800 
 28 H       -2.9580    -1.8340    -0.7530 H     1 <1>   0.0800 
 29 H       -2.9880    -1.8510    -2.4990 H     1 <1>   0.0800 
 30 H       -4.3910    -0.3690     0.5670 H     1 <1>   0.0800 
 31 H       -2.9110     0.2290     1.3020 H     1 <1>   0.0800 
 32 H       -4.3620     2.4470    -1.9590 H     1 <1>   0.0800 
 33 H       -5.2800     1.0130    -1.5290 H     1 <1>   0.0800 
 34 H        0.4150     1.1300    -0.7470 H     1 <1>   0.1500 
 35 H       -1.8290     4.4180    -2.2940 H     1 <1>   0.1500 
 36 H       -5.4070     1.2330     1.8790 H     1 <1>   0.0800 
 37 H       -6.2190     2.4090     0.0800 H     1 <1>   0.0800 
 38 H        1.0870     2.5120     1.1700 H     1 <1>   0.1500 
 39 H       -1.1610     5.7800    -0.4050 H     1 <1>   0.1500 
 40 H       -2.7130     2.4880     1.8970 H     1 <1>   0.0800 
 41 H       -3.9110     2.4390     3.1780 H     1 <1>   0.0800 
 42 H       -5.4080     4.5780     0.0160 H     1 <1>   0.0800 
 43 H       -3.7850     4.0430    -0.3730 H     1 <1>   0.0800 
 44 H       -5.0510     4.3210     2.3250 H     1 <1>   0.0800 
 45 H       -2.3750     4.4930     1.4430 H     1 <1>   0.4000 
 46 H        0.4730     6.8280     0.9940 H     1 <1>   0.0800 
 47 H       -0.9960     6.3650     1.8580 H     1 <1>   0.0800 
 48 H        1.7680     6.6050     3.0970 H     1 <1>   0.0800 
 49 H        0.3030     6.1450     3.9510 H     1 <1>   0.0800 
 50 H        0.4720     7.7580     3.3050 H     1 <1>   0.0800 
@<TRIPOS>BOND
  1   1   2  2   
  2   2   3  am  
  3   2   4  1   
  4   3   5  1   
  5   3   6  1   
  6   4   7  1   
  7   4  24  1   
  8   4  25  1   
  9   5   8  1   
 10   5   9  1   
 11   5  26  1   
 12   6  27  1   
 13   6  28  1   
 14   6  29  1   
 15   7  10  ar  
 16   7  11  ar  
 17   8  12  1   
 18   8  30  1   
 19   8  31  1   
 20   9  13  1   
 21   9  32  1   
 22   9  33  1   
 23  10  14  ar  
 24  10  34  1   
 25  11  15  ar  
 26  11  35  1   
 27  12  13  1   
 28  12  16  1   
 29  12  36  1   
 30  13  17  1   
 31  13  37  1   
 32  14  18  ar  
 33  14  38  1   
 34  15  18  ar  
 35  15  39  1   
 36  16  19  1   
 37  16  40  1   
 38  16  41  1   
 39  17  19  1   
 40  17  42  1   
 41  17  43  1   
 42  18  20  1   
 43  19  21  1   
 44  19  44  1   
 45  20  22  1   
 46  21  45  1   
 47  22  23  1   
 48  22  46  1   
 49  22  47  1   
 50  23  48  1   
 51  23  49  1   
 52  23  50  1   
@<TRIPOS>SUBSTRUCTURE
  1 ****   7 GROUP 4 **** **** 0

# MOE 2024.06 (io_trps.svl 2023.06)
