@<TRIPOS>MOLECULE
NONAME
51 53 1 0 0 
SMALL
USER_CHARGES


@<TRIPOS>ATOM
  1 O        0.0510     1.5610     1.2680 O.2   1 <1>  -0.5700 
  2 C        0.1220     2.6940     0.8280 C.2   1 <1>   0.6900 
  3 N       -1.0060     3.4360     0.5920 N.am  1 <1>  -0.6600 
  4 N        1.3410     3.2260     0.5640 N.am  1 <1>  -0.7300 
  5 C       -2.3550     2.9430     1.0110 C.3   1 <1>   0.1400 
  6 C       -1.0570     4.6840    -0.2160 C.3   1 <1>   0.1400 
  7 C        2.6320     2.5440     0.8100 C.3   1 <1>   0.1400 
  8 C       -3.2530     2.6670    -0.2210 C.3   1 <1>   0.0000 
  9 C       -1.9210     4.4570    -1.4620 C.3   1 <1>  -0.1600 
 10 C        3.0280     1.7240    -0.4180 C.3   1 <1>  -0.0170 
 11 C       -4.6550     2.1980     0.2050 C.3   1 <1>   0.2000 
 12 C       -3.3220     3.9350    -1.1010 C.3   1 <1>  -0.1600 
 13 C       -2.7410     1.4410    -0.9970 C.3   1 <1>  -0.1600 
 14 C        4.3760     1.0580    -0.1940 C.ar  1 <1>  -0.1440 
 15 O       -5.1240     2.9190     1.3070 O.3   1 <1>  -0.5600 
 16 C       -4.5140     0.7070     0.5280 C.3   1 <1>  -0.1600 
 17 C       -3.2760     0.2230    -0.2390 C.3   1 <1>  -0.1600 
 18 C        5.5380     1.6300    -0.6900 C.ar  1 <1>  -0.1500 
 19 C        4.4520    -0.1290     0.5160 C.ar  1 <1>  -0.1500 
 20 C       -6.4830     2.7690     1.5720 C.3   1 <1>   0.0400 
 21 C        6.7620     1.0200    -0.4780 C.ar  1 <1>  -0.1500 
 22 C        5.6750    -0.7400     0.7290 C.ar  1 <1>  -0.1500 
 23 C        6.8320    -0.1660     0.2320 C.ar  1 <1>  -0.1500 
 24 H        1.3780     4.2090     0.3140 H     1 <1>   0.3700 
 25 H       -2.2640     2.0560     1.6120 H     1 <1>   0.0800 
 26 H       -2.8100     3.6980     1.6280 H     1 <1>   0.0800 
 27 H       -1.4860     5.4670     0.3850 H     1 <1>   0.0800 
 28 H       -0.0740     4.9940    -0.5180 H     1 <1>   0.0800 
 29 H        3.3910     3.2760     1.0260 H     1 <1>   0.0800 
 30 H        2.5390     1.8920     1.6630 H     1 <1>   0.0800 
 31 H       -2.0130     5.3830    -2.0020 H     1 <1>   0.0800 
 32 H       -1.4230     3.7530    -2.1060 H     1 <1>   0.0800 
 33 H        2.2810     0.9700    -0.5960 H     1 <1>   0.0800 
 34 H        3.0750     2.3630    -1.2810 H     1 <1>   0.0800 
 35 H       -5.3370     2.3320    -0.6190 H     1 <1>   0.0800 
 36 H       -3.8770     3.7340    -2.0010 H     1 <1>   0.0800 
 37 H       -3.8480     4.7010    -0.5570 H     1 <1>   0.0800 
 38 H       -3.1560     1.4410    -1.9900 H     1 <1>   0.0800 
 39 H       -1.6680     1.4140    -1.0770 H     1 <1>   0.0800 
 40 H       -4.3580     0.5680     1.5840 H     1 <1>   0.0800 
 41 H       -5.3920     0.1690     0.2170 H     1 <1>   0.0800 
 42 H       -2.5300    -0.1190     0.4600 H     1 <1>   0.0800 
 43 H       -3.5120    -0.5810    -0.9140 H     1 <1>   0.0800 
 44 H        5.4960     2.5510    -1.2440 H     1 <1>   0.1500 
 45 H        3.5560    -0.5820     0.9060 H     1 <1>   0.1500 
 46 H       -6.7260     3.3850     2.4200 H     1 <1>   0.0800 
 47 H       -6.6930     1.7400     1.8020 H     1 <1>   0.0800 
 48 H       -7.0500     3.0910     0.7160 H     1 <1>   0.0800 
 49 H        7.6610     1.4670    -0.8660 H     1 <1>   0.1500 
 50 H        5.7260    -1.6620     1.2810 H     1 <1>   0.1500 
 51 H        7.7830    -0.6410     0.3970 H     1 <1>   0.1500 
@<TRIPOS>BOND
  1   1   2  2   
  2   2   3  am  
  3   2   4  am  
  4   3   5  1   
  5   3   6  1   
  6   4   7  1   
  7   4  24  1   
  8   5   8  1   
  9   5  25  1   
 10   5  26  1   
 11   6   9  1   
 12   6  27  1   
 13   6  28  1   
 14   7  10  1   
 15   7  29  1   
 16   7  30  1   
 17   8  11  1   
 18   8  12  1   
 19   8  13  1   
 20   9  12  1   
 21   9  31  1   
 22   9  32  1   
 23  10  14  1   
 24  10  33  1   
 25  10  34  1   
 26  11  15  1   
 27  11  16  1   
 28  11  35  1   
 29  12  36  1   
 30  12  37  1   
 31  13  17  1   
 32  13  38  1   
 33  13  39  1   
 34  14  18  ar  
 35  14  19  ar  
 36  15  20  1   
 37  16  17  1   
 38  16  40  1   
 39  16  41  1   
 40  17  42  1   
 41  17  43  1   
 42  18  21  ar  
 43  18  44  1   
 44  19  22  ar  
 45  19  45  1   
 46  20  46  1   
 47  20  47  1   
 48  20  48  1   
 49  21  23  ar  
 50  21  49  1   
 51  22  23  ar  
 52  22  50  1   
 53  23  51  1   
@<TRIPOS>SUBSTRUCTURE
  1 ****   2 GROUP 4 **** **** 0

# MOE 2024.06 (io_trps.svl 2023.06)
