@<TRIPOS>MOLECULE
NONAME
52 53 1 0 0 
SMALL
USER_CHARGES


@<TRIPOS>ATOM
  1 S        0.0130    -0.5470    -1.5600 S.o2  1 <1>   1.4470 
  2 O       -0.9810     0.2130    -2.2820 O.2   1 <1>  -0.6500 
  3 O        0.7190    -1.6030    -2.2500 O.2   1 <1>  -0.6500 
  4 N       -0.8800    -1.2920    -0.3600 N.am  1 <1>  -0.9140 
  5 C        1.1790     0.5130    -0.6350 C.ar  1 <1>  -0.0090 
  6 C       -1.5560    -2.4710    -0.8700 C.3   1 <1>   0.3760 
  7 C        0.8390     1.7450    -0.0620 C.ar  1 <1>  -0.1440 
  8 C        2.4810     0.0500    -0.4770 C.ar  1 <1>  -0.1500 
  9 C       -2.5280    -2.9970     0.1720 C.2   1 <1>  -0.0400 
 10 C        1.8080     2.4820     0.6170 C.ar  1 <1>  -0.1440 
 11 C       -0.5880     2.2840    -0.1900 C.3   1 <1>  -0.0970 
 12 C        3.4590     0.7580     0.2060 C.ar  1 <1>  -0.1430 
 13 O       -3.4260    -3.8820    -0.2000 O.3   1 <1>  -0.2800 
 14 C       -2.6680    -2.7250     1.4880 C.2   1 <1>  -0.1500 
 15 C        3.0930     1.9810     0.7430 C.ar  1 <1>  -0.1500 
 16 C        1.5260     3.8440     1.2400 C.3   1 <1>  -0.0970 
 17 C        4.9080     0.2490     0.3820 C.3   1 <1>   0.1440 
 18 C       -4.1780    -4.2160     0.8450 C.2   1 <1>   0.0550 
 19 C       -3.7340    -3.5110     1.9260 C.2   1 <1>  -0.1500 
 20 C        5.1530    -1.1250    -0.2660 C.3   1 <1>  -0.2400 
 21 C        5.2260     0.1150     1.8790 C.3   1 <1>  -0.2400 
 22 C        5.8840     1.2440    -0.2610 C.3   1 <1>  -0.2400 
 23 C       -5.2530    -5.1780     0.7180 C.2   1 <1>   0.7150 
 24 O       -5.5450    -5.6770    -0.3540 O.2   1 <1>  -0.5700 
 25 N       -5.9720    -5.5470     1.8250 N.am  1 <1>  -0.7300 
 26 C       -7.0970    -6.5180     1.8490 C.3   1 <1>   0.0600 
 27 H       -1.6210    -0.6270    -0.1640 H     1 <1>   0.4200 
 28 H       -0.8400    -3.2410    -1.1070 H     1 <1>   0.0800 
 29 H       -2.1050    -2.2240    -1.7650 H     1 <1>   0.0800 
 30 H        2.7150    -0.9030    -0.9140 H     1 <1>   0.1500 
 31 H       -1.3070     1.5140     0.0150 H     1 <1>   0.0800 
 32 H       -0.7480     2.6530    -1.1880 H     1 <1>   0.0800 
 33 H       -0.7970     3.0820     0.4950 H     1 <1>   0.0800 
 34 H       -2.0870    -2.0530     2.0960 H     1 <1>   0.1500 
 35 H        3.8250     2.5610     1.2740 H     1 <1>   0.1500 
 36 H        1.1010     4.5060     0.5070 H     1 <1>   0.0800 
 37 H        2.4260     4.3000     1.6100 H     1 <1>   0.0800 
 38 H        0.8420     3.7390     2.0630 H     1 <1>   0.0800 
 39 H       -4.1070    -3.5300     2.9340 H     1 <1>   0.1500 
 40 H        4.5100    -1.8690     0.1690 H     1 <1>   0.0800 
 41 H        6.1710    -1.4380    -0.1160 H     1 <1>   0.0800 
 42 H        4.9730    -1.0810    -1.3250 H     1 <1>   0.0800 
 43 H        4.5250    -0.5530     2.3450 H     1 <1>   0.0800 
 44 H        5.1660     1.0660     2.3760 H     1 <1>   0.0800 
 45 H        6.2180    -0.2730     2.0240 H     1 <1>   0.0800 
 46 H        5.6470     1.3700    -1.3030 H     1 <1>   0.0800 
 47 H        6.8960     0.8900    -0.1810 H     1 <1>   0.0800 
 48 H        5.8290     2.2060     0.2140 H     1 <1>   0.0800 
 49 H       -5.7100    -5.1430     2.7240 H     1 <1>   0.3700 
 50 H       -7.3020    -6.8860     0.8580 H     1 <1>   0.0800 
 51 H       -7.9830    -6.0380     2.2280 H     1 <1>   0.0800 
 52 H       -6.8460    -7.3510     2.4820 H     1 <1>   0.0800 
@<TRIPOS>BOND
  1   1   2  2   
  2   1   3  2   
  3   1   4  am  
  4   1   5  1   
  5   4   6  1   
  6   4  27  1   
  7   5   7  ar  
  8   5   8  ar  
  9   6   9  1   
 10   6  28  1   
 11   6  29  1   
 12   7  10  ar  
 13   7  11  1   
 14   8  12  ar  
 15   8  30  1   
 16   9  13  1   
 17   9  14  2   
 18  10  15  ar  
 19  10  16  1   
 20  11  31  1   
 21  11  32  1   
 22  11  33  1   
 23  12  15  ar  
 24  12  17  1   
 25  13  18  1   
 26  14  19  1   
 27  14  34  1   
 28  15  35  1   
 29  16  36  1   
 30  16  37  1   
 31  16  38  1   
 32  17  20  1   
 33  17  21  1   
 34  17  22  1   
 35  18  19  2   
 36  18  23  1   
 37  19  39  1   
 38  20  40  1   
 39  20  41  1   
 40  20  42  1   
 41  21  43  1   
 42  21  44  1   
 43  21  45  1   
 44  22  46  1   
 45  22  47  1   
 46  22  48  1   
 47  23  24  2   
 48  23  25  am  
 49  25  26  1   
 50  25  49  1   
 51  26  50  1   
 52  26  51  1   
 53  26  52  1   
@<TRIPOS>SUBSTRUCTURE
  1 ****   4 GROUP 4 **** **** 0

# MOE 2024.06 (io_trps.svl 2023.06)
