@<TRIPOS>MOLECULE
NONAME
57 60 1 0 0 
SMALL
USER_CHARGES


@<TRIPOS>ATOM
  1 S       -1.9810    -1.6290    -2.1750 S.3   1 <1>  -0.3320 
  2 C       -1.3340    -2.7590    -0.9310 C.ar  1 <1>   0.1020 
  3 C       -0.6160    -0.4640    -2.6110 C.3   1 <1>  -0.0100 
  4 C       -2.1780    -3.7200    -0.4500 C.ar  1 <1>  -0.1500 
  5 C       -0.0190    -2.6680    -0.4660 C.ar  1 <1>  -0.1500 
  6 C       -1.7520    -4.6440     0.5140 C.ar  1 <1>   0.3100 
  7 C        0.4220    -3.5550     0.4800 C.ar  1 <1>  -0.1500 
  8 N       -2.6440    -5.5770     0.9260 N.ar  1 <1>  -0.6200 
  9 C       -0.4220    -4.5630     0.9970 C.ar  1 <1>   0.0000 
 10 C       -2.2340    -6.4170     1.8210 C.ar  1 <1>   0.4100 
 11 C       -0.0220    -5.5040     1.9750 C.ar  1 <1>  -0.1430 
 12 N       -3.1530    -7.3480     2.1890 N.pl3 1 <1>  -0.8690 
 13 C       -0.9430    -6.4220     2.3740 C.ar  1 <1>  -0.1500 
 14 C        1.3800    -5.4970     2.5680 C.3   1 <1>  -0.0970 
 15 C       -3.2480    -8.5350     1.2970 C.3   1 <1>   0.2090 
 16 C       -4.6850    -9.1080     1.1760 C.3   1 <1>   0.5660 
 17 N       -4.8050   -10.1400     0.0820 N.4   1 <1>  -0.9590 
 18 C       -5.7530    -8.0280     1.0000 C.ar  1 <1>  -0.1430 
 19 C       -4.6390    -9.5680    -1.2920 C.3   1 <1>   0.3430 
 20 C       -6.1010   -10.8780     0.1810 C.3   1 <1>   0.3430 
 21 C       -6.9330    -8.1410     1.7230 C.ar  1 <1>   0.1600 
 22 C       -5.6010    -6.9350     0.1620 C.ar  1 <1>  -0.1500 
 23 C       -4.6050   -10.6990    -2.3210 C.3   1 <1>  -0.1600 
 24 C       -6.1080   -12.0440    -0.8090 C.3   1 <1>  -0.1600 
 25 N       -7.9480    -7.3030     1.6530 N.ar  1 <1>  -0.6200 
 26 C       -6.6470    -6.0420     0.0920 C.ar  1 <1>  -0.1500 
 27 C       -5.8660   -11.5680    -2.2460 C.3   1 <1>  -0.1600 
 28 C       -7.7850    -6.2690     0.8450 C.ar  1 <1>   0.1600 
 29 H       -0.9950     0.2160    -3.3530 H     1 <1>   0.0800 
 30 H        0.2010    -1.0410    -3.0050 H     1 <1>   0.0800 
 31 H       -0.3330     0.0660    -1.7190 H     1 <1>   0.0800 
 32 H       -3.1880    -3.7810    -0.8060 H     1 <1>   0.1500 
 33 H        0.6420    -1.9120    -0.8440 H     1 <1>   0.1500 
 34 H        1.4320    -3.4820     0.8370 H     1 <1>   0.1500 
 35 H       -4.0560    -6.8590     2.2470 H     1 <1>   0.4000 
 36 H       -0.7250    -7.1650     3.1170 H     1 <1>   0.1500 
 37 H        2.1100    -5.6490     1.7940 H     1 <1>   0.0800 
 38 H        1.4920    -6.2790     3.2980 H     1 <1>   0.0800 
 39 H        1.5700    -4.5560     3.0530 H     1 <1>   0.0800 
 40 H       -2.5950    -9.2980     1.6830 H     1 <1>   0.0800 
 41 H       -2.8910    -8.2510     0.3230 H     1 <1>   0.0800 
 42 H       -4.8840    -9.5980     2.1140 H     1 <1>   0.0800 
 43 H       -4.0610   -10.8340     0.2130 H     1 <1>   0.4500 
 44 H       -3.7260    -9.0000    -1.3610 H     1 <1>   0.0800 
 45 H       -5.4640    -8.9090    -1.5150 H     1 <1>   0.0800 
 46 H       -6.9200   -10.2130    -0.0450 H     1 <1>   0.0800 
 47 H       -6.2400   -11.2590     1.1810 H     1 <1>   0.0800 
 48 H       -7.0630    -8.9670     2.4020 H     1 <1>   0.1500 
 49 H       -4.7070    -6.7530    -0.4120 H     1 <1>   0.1500 
 50 H       -3.7290   -11.3040    -2.1630 H     1 <1>   0.0800 
 51 H       -4.5270   -10.2740    -3.3070 H     1 <1>   0.0800 
 52 H       -7.0620   -12.5420    -0.7580 H     1 <1>   0.0800 
 53 H       -5.3580   -12.7620    -0.5270 H     1 <1>   0.0800 
 54 H       -6.5840    -5.1700    -0.5350 H     1 <1>   0.1500 
 55 H       -5.7680   -12.4170    -2.9030 H     1 <1>   0.0800 
 56 H       -6.7160   -10.9950    -2.5810 H     1 <1>   0.0800 
 57 H       -8.5990    -5.5650     0.7810 H     1 <1>   0.1500 
@<TRIPOS>BOND
  1   1   2  1   
  2   1   3  1   
  3   2   4  ar  
  4   2   5  ar  
  5   3  29  1   
  6   3  30  1   
  7   3  31  1   
  8   4   6  ar  
  9   4  32  1   
 10   5   7  ar  
 11   5  33  1   
 12   6   8  ar  
 13   6   9  ar  
 14   7   9  ar  
 15   7  34  1   
 16   8  10  ar  
 17   9  11  ar  
 18  10  12  1   
 19  10  13  ar  
 20  11  13  ar  
 21  11  14  1   
 22  12  15  1   
 23  12  35  1   
 24  13  36  1   
 25  14  37  1   
 26  14  38  1   
 27  14  39  1   
 28  15  16  1   
 29  15  40  1   
 30  15  41  1   
 31  16  17  1   
 32  16  18  1   
 33  16  42  1   
 34  17  19  1   
 35  17  20  1   
 36  17  43  1   
 37  18  21  ar  
 38  18  22  ar  
 39  19  23  1   
 40  19  44  1   
 41  19  45  1   
 42  20  24  1   
 43  20  46  1   
 44  20  47  1   
 45  21  25  ar  
 46  21  48  1   
 47  22  26  ar  
 48  22  49  1   
 49  23  27  1   
 50  23  50  1   
 51  23  51  1   
 52  24  27  1   
 53  24  52  1   
 54  24  53  1   
 55  25  28  ar  
 56  26  28  ar  
 57  26  54  1   
 58  27  55  1   
 59  27  56  1   
 60  28  57  1   
@<TRIPOS>SUBSTRUCTURE
  1 ****   8 GROUP 4 **** **** 0

# MOE 2024.06 (io_trps.svl 2023.06)
