@<TRIPOS>MOLECULE
NONAME
57 59 1 0 0 
SMALL
USER_CHARGES


@<TRIPOS>ATOM
  1 O       -1.0070    -1.0770    -0.8070 O.3   1 <1>  -0.6800 
  2 C        0.1850    -1.6710    -1.1880 C.3   1 <1>   0.1200 
  3 C        1.1510    -1.7650     0.0290 C.3   1 <1>   0.0000 
  4 C        2.5150    -2.3980    -0.3590 C.3   1 <1>   0.4230 
  5 C        1.3730    -0.3120     0.5570 C.3   1 <1>  -0.1600 
  6 C        0.5590    -2.6670     1.1490 C.3   1 <1>  -0.1600 
  7 N        2.4050    -3.7810    -0.9810 N.4   1 <1>  -0.9590 
  8 C        3.4260    -1.3840    -1.0750 C.3   1 <1>   0.2090 
  9 C        2.8110    -0.0040     0.9910 C.3   1 <1>   0.2090 
 10 C        0.9440    -4.1600     1.0240 C.3   1 <1>  -0.1600 
 11 C        1.2720    -4.5900    -0.4100 C.3   1 <1>   0.3430 
 12 C        2.3780    -3.8100    -2.4800 C.3   1 <1>   0.2630 
 13 N        3.7620    -0.2580    -0.1410 N.pl3 1 <1>  -0.8380 
 14 C        5.0320     0.2060    -0.0520 C.ar  1 <1>   0.4100 
 15 N        5.9560    -0.7090     0.1630 N.ar  1 <1>  -0.6200 
 16 C        5.3340     1.5890    -0.1620 C.ar  1 <1>  -0.1440 
 17 C        7.2030    -0.3000     0.3460 C.ar  1 <1>   0.7710 
 18 C        6.6260     1.9730     0.0390 C.ar  1 <1>   0.2170 
 19 C        4.2290     2.5890    -0.5250 C.3   1 <1>  -0.0970 
 20 N        7.5310     1.0000     0.2900 N.ar  1 <1>  -0.1790 
 21 N        8.1830    -1.2140     0.5970 N.pl3 1 <1>  -0.8380 
 22 C        7.1560     3.4020     0.0020 C.3   1 <1>  -0.0960 
 23 C        7.9210    -2.6900     0.5450 C.3   1 <1>   0.1290 
 24 C        9.5940    -0.9230     1.0110 C.3   1 <1>   0.1290 
 25 H       -1.6090    -0.9340    -1.5660 H     1 <1>   0.4000 
 26 H       -0.0620    -2.6350    -1.5890 H     1 <1>   0.0800 
 27 H        0.6120    -1.0660    -1.9700 H     1 <1>   0.0800 
 28 H        3.0140    -2.5580     0.5830 H     1 <1>   0.0800 
 29 H        0.7020    -0.1080     1.3730 H     1 <1>   0.0800 
 30 H        1.1300     0.4060    -0.2070 H     1 <1>   0.0800 
 31 H        0.9020    -2.3270     2.1120 H     1 <1>   0.0800 
 32 H       -0.5140    -2.5750     1.1660 H     1 <1>   0.0800 
 33 H        3.2660    -4.2660    -0.6890 H     1 <1>   0.4500 
 34 H        2.9290    -0.9780    -1.9380 H     1 <1>   0.0800 
 35 H        4.3310    -1.8710    -1.3940 H     1 <1>   0.0800 
 36 H        3.0810    -0.6250     1.8290 H     1 <1>   0.0800 
 37 H        2.8790     1.0220     1.3090 H     1 <1>   0.0800 
 38 H        0.1310    -4.7620     1.3940 H     1 <1>   0.0800 
 39 H        1.7940    -4.3700     1.6500 H     1 <1>   0.0800 
 40 H        0.3890    -4.4600    -1.0130 H     1 <1>   0.0800 
 41 H        1.5260    -5.6380    -0.4260 H     1 <1>   0.0800 
 42 H        1.5080    -3.2980    -2.8550 H     1 <1>   0.0800 
 43 H        2.3530    -4.8290    -2.8320 H     1 <1>   0.0800 
 44 H        3.2590    -3.3360    -2.8840 H     1 <1>   0.0800 
 45 H        4.6070     3.3950    -1.1260 H     1 <1>   0.0800 
 46 H        3.7890     2.9990     0.3670 H     1 <1>   0.0800 
 47 H        3.4520     2.1170    -1.1000 H     1 <1>   0.0800 
 48 H        8.5130     1.2010     0.4220 H     1 <1>   0.4570 
 49 H        6.3620     4.1240     0.0570 H     1 <1>   0.0800 
 50 H        7.7040     3.5710    -0.9080 H     1 <1>   0.0800 
 51 H        7.8070     3.5840     0.8390 H     1 <1>   0.0800 
 52 H        8.7490    -3.1960     0.0770 H     1 <1>   0.0800 
 53 H        7.0350    -2.9170    -0.0220 H     1 <1>   0.0800 
 54 H        7.7990    -3.0740     1.5440 H     1 <1>   0.0800 
 55 H        9.9020    -1.6210     1.7730 H     1 <1>   0.0800 
 56 H        9.6990     0.0660     1.4200 H     1 <1>   0.0800 
 57 H       10.2530    -1.0330     0.1660 H     1 <1>   0.0800 
@<TRIPOS>BOND
  1   1   2  1   
  2   1  25  1   
  3   2   3  1   
  4   2  26  1   
  5   2  27  1   
  6   3   4  1   
  7   3   5  1   
  8   3   6  1   
  9   4   7  1   
 10   4   8  1   
 11   4  28  1   
 12   5   9  1   
 13   5  29  1   
 14   5  30  1   
 15   6  10  1   
 16   6  31  1   
 17   6  32  1   
 18   7  11  1   
 19   7  12  1   
 20   7  33  1   
 21   8  13  1   
 22   8  34  1   
 23   8  35  1   
 24   9  13  1   
 25   9  36  1   
 26   9  37  1   
 27  10  11  1   
 28  10  38  1   
 29  10  39  1   
 30  11  40  1   
 31  11  41  1   
 32  12  42  1   
 33  12  43  1   
 34  12  44  1   
 35  13  14  1   
 36  14  15  ar  
 37  14  16  ar  
 38  15  17  ar  
 39  16  18  ar  
 40  16  19  1   
 41  17  20  ar  
 42  17  21  1   
 43  18  20  ar  
 44  18  22  1   
 45  19  45  1   
 46  19  46  1   
 47  19  47  1   
 48  20  48  1   
 49  21  23  1   
 50  21  24  1   
 51  22  49  1   
 52  22  50  1   
 53  22  51  1   
 54  23  52  1   
 55  23  53  1   
 56  23  54  1   
 57  24  55  1   
 58  24  56  1   
 59  24  57  1   
@<TRIPOS>SUBSTRUCTURE
  1 ****  13 GROUP 4 **** **** 0

# MOE 2024.06 (io_trps.svl 2023.06)
