@<TRIPOS>MOLECULE
NONAME
51 53 1 0 0 
SMALL
USER_CHARGES


@<TRIPOS>ATOM
  1 S        0.4450     0.2490     0.5580 S.o2  1 <1>   1.3330 
  2 O       -0.6480    -0.0360     1.4600 O.2   1 <1>  -0.6500 
  3 O        1.7410     0.6100     1.0900 O.2   1 <1>  -0.6500 
  4 N        0.6530    -1.0810    -0.4760 N.am  1 <1>  -0.8490 
  5 C       -0.0910     1.5380    -0.5690 C.3   1 <1>  -0.0550 
  6 C        1.9840    -1.1460    -1.0900 C.3   1 <1>   0.1160 
  7 C        0.3440    -2.3550     0.1810 C.3   1 <1>   0.1160 
  8 C       -0.5390     2.8400     0.1270 C.3   1 <1>  -0.0800 
  9 C       -0.9800     3.8820    -0.9020 C.3   1 <1>   0.2000 
 10 C        0.6010     3.5250     0.9070 C.3   1 <1>   0.1100 
 11 O       -2.0080     4.6190    -0.3500 O.3   1 <1>  -0.6800 
 12 C        0.2330     4.7970    -1.0200 C.3   1 <1>   0.1100 
 13 N        0.7500     4.8810     0.3550 N.3   1 <1>  -0.8100 
 14 C        2.1320     5.3780     0.4560 C.3   1 <1>   0.2480 
 15 C        2.2200     6.9000     0.2950 C.2   1 <1>   0.2030 
 16 N        3.4610     7.4560     0.0570 N.pl3 1 <1>  -0.6450 
 17 C        1.1700     7.7390     0.3840 C.2   1 <1>  -0.1360 
 18 C        3.6840     8.7840    -0.0980 C.cat 1 <1>   0.7390 
 19 C        1.3470     9.1330     0.2290 C.2   1 <1>   0.9370 
 20 N        2.6320     9.6390    -0.0170 N.pl3 1 <1>  -0.5760 
 21 C        4.9840     9.2820    -0.3410 C.2   1 <1>  -0.1680 
 22 O        0.4110     9.8970     0.3030 O.2   1 <1>  -0.5700 
 23 C        2.8390    10.9890    -0.1740 C.2   1 <1>   0.1910 
 24 C        5.1820    10.6300    -0.4950 C.2   1 <1>  -0.1500 
 25 C        6.1900     8.3460    -0.4360 C.3   1 <1>  -0.1020 
 26 C        4.0850    11.4910    -0.4090 C.2   1 <1>  -0.1500 
 27 H        0.7020     1.7530    -1.2580 H     1 <1>   0.0800 
 28 H       -0.9200     1.1600    -1.1360 H     1 <1>   0.0800 
 29 H        2.0230    -1.9520    -1.8030 H     1 <1>   0.0800 
 30 H        2.7390    -1.3070    -0.3380 H     1 <1>   0.0800 
 31 H        2.2000    -0.2260    -1.6060 H     1 <1>   0.0800 
 32 H        0.4710    -3.1730    -0.5080 H     1 <1>   0.0800 
 33 H       -0.6790    -2.3580     0.5180 H     1 <1>   0.0800 
 34 H        0.9890    -2.5040     1.0320 H     1 <1>   0.0800 
 35 H       -1.3510     2.5980     0.7930 H     1 <1>   0.0800 
 36 H       -1.3140     3.4750    -1.8420 H     1 <1>   0.0800 
 37 H        1.5240     2.9850     0.7860 H     1 <1>   0.0800 
 38 H        0.3680     3.5770     1.9580 H     1 <1>   0.0800 
 39 H       -1.6700     5.0270     0.4740 H     1 <1>   0.4000 
 40 H       -0.0400     5.7620    -1.4140 H     1 <1>   0.0800 
 41 H        0.9620     4.3370    -1.6670 H     1 <1>   0.0800 
 42 H        2.5250     5.1230     1.4260 H     1 <1>   0.0800 
 43 H        2.7410     4.8900    -0.2870 H     1 <1>   0.0800 
 44 H        4.2830     6.8480    -0.0040 H     1 <1>   0.4500 
 45 H        0.1680     7.4050     0.5760 H     1 <1>   0.1500 
 46 H        1.9920    11.6590    -0.1070 H     1 <1>   0.1500 
 47 H        6.1590    11.0500    -0.6820 H     1 <1>   0.1500 
 48 H        6.0640     7.6450    -1.2430 H     1 <1>   0.0800 
 49 H        6.3280     7.8090     0.4860 H     1 <1>   0.0800 
 50 H        7.0920     8.9030    -0.6270 H     1 <1>   0.0800 
 51 H        4.2380    12.5510    -0.5310 H     1 <1>   0.1500 
@<TRIPOS>BOND
  1   1   2  2   
  2   1   3  2   
  3   1   4  am  
  4   1   5  1   
  5   4   6  1   
  6   4   7  1   
  7   5   8  1   
  8   5  27  1   
  9   5  28  1   
 10   6  29  1   
 11   6  30  1   
 12   6  31  1   
 13   7  32  1   
 14   7  33  1   
 15   7  34  1   
 16   8   9  1   
 17   8  10  1   
 18   8  35  1   
 19   9  11  1   
 20   9  12  1   
 21   9  36  1   
 22  10  13  1   
 23  10  37  1   
 24  10  38  1   
 25  11  39  1   
 26  12  13  1   
 27  12  40  1   
 28  12  41  1   
 29  13  14  1   
 30  14  15  1   
 31  14  42  1   
 32  14  43  1   
 33  15  16  1   
 34  15  17  2   
 35  16  18  ar  
 36  16  44  1   
 37  17  19  1   
 38  17  45  1   
 39  18  20  ar  
 40  18  21  1   
 41  19  20  1   
 42  19  22  2   
 43  20  23  1   
 44  21  24  2   
 45  21  25  1   
 46  23  26  2   
 47  23  46  1   
 48  24  26  1   
 49  24  47  1   
 50  25  48  1   
 51  25  49  1   
 52  25  50  1   
 53  26  51  1   
@<TRIPOS>SUBSTRUCTURE
  1 ****  14 GROUP 4 **** **** 0

# MOE 2024.06 (io_trps.svl 2023.06)
