@<TRIPOS>MOLECULE
NONAME
55 57 1 0 0 
SMALL
USER_CHARGES


@<TRIPOS>ATOM
  1 O        1.6200    -6.1470     1.3870 O.3   1 <1>  -0.5600 
  2 C        0.4860    -5.6070     2.0180 C.3   1 <1>   0.1200 
  3 C        2.2080    -5.2890     0.4610 C.3   1 <1>   0.1200 
  4 C       -0.5050    -4.9660     1.0100 C.3   1 <1>   0.3430 
  5 C        1.2520    -5.0550    -0.7270 C.3   1 <1>   0.3430 
  6 N       -0.2070    -5.3520    -0.4220 N.4   1 <1>  -0.9590 
  7 C       -1.1800    -4.8290    -1.4620 C.3   1 <1>   0.5030 
  8 C       -2.6480    -5.3990    -1.3250 C.3   1 <1>   0.3430 
  9 C       -1.2660    -3.3000    -1.3270 C.3   1 <1>  -0.2400 
 10 C       -0.6310    -5.1380    -2.8690 C.3   1 <1>  -0.2400 
 11 N       -3.0770    -6.5380    -2.2450 N.4   1 <1>  -0.9590 
 12 C       -4.5640    -6.7070    -2.2220 C.3   1 <1>   0.3430 
 13 C       -2.5970    -7.8690    -1.7930 C.3   1 <1>   0.3430 
 14 C       -4.8690    -7.5180    -0.9560 C.3   1 <1>   0.2000 
 15 C       -3.5910    -8.3590    -0.7240 C.3   1 <1>  -0.0800 
 16 O       -5.0720    -6.6040     0.0740 O.3   1 <1>  -0.6800 
 17 C       -3.0200    -8.3240     0.7150 C.3   1 <1>   0.0210 
 18 C       -1.6000    -8.8370     0.8070 C.2   1 <1>   0.1080 
 19 N       -0.5760    -8.1140     0.4650 N.2   1 <1>  -0.7070 
 20 C       -1.2310   -10.0820     1.2980 C.2   1 <1>  -0.1500 
 21 N        0.4960    -8.8840     0.7830 N.pl3 1 <1>   0.3000 
 22 C        0.1170   -10.0810     1.2700 C.2   1 <1>  -0.3320 
 23 C        1.0860   -11.1650     1.7090 C.3   1 <1>  -0.0600 
 24 H        0.0020    -6.4090     2.5480 H     1 <1>   0.0800 
 25 H        0.8090    -4.8800     2.7430 H     1 <1>   0.0800 
 26 H        2.4470    -4.3610     0.9530 H     1 <1>   0.0800 
 27 H        3.1260    -5.7360     0.1220 H     1 <1>   0.0800 
 28 H       -0.4430    -3.8960     1.1170 H     1 <1>   0.0800 
 29 H       -1.5040    -5.2630     1.2800 H     1 <1>   0.0800 
 30 H        1.5770    -5.6790    -1.5430 H     1 <1>   0.0800 
 31 H        1.3670    -4.0330    -1.0480 H     1 <1>   0.0800 
 32 H       -0.2590    -6.3940    -0.3740 H     1 <1>   0.4500 
 33 H       -3.3110    -4.5750    -1.5260 H     1 <1>   0.0800 
 34 H       -2.8210    -5.6770    -0.3000 H     1 <1>   0.0800 
 35 H       -1.8670    -2.8940    -2.1220 H     1 <1>   0.0800 
 36 H       -0.2990    -2.8350    -1.3950 H     1 <1>   0.0800 
 37 H       -1.7300    -3.0070    -0.4020 H     1 <1>   0.0800 
 38 H       -1.3500    -4.8570    -3.6190 H     1 <1>   0.0800 
 39 H       -0.4140    -6.1860    -2.9800 H     1 <1>   0.0800 
 40 H        0.2590    -4.5750    -3.0860 H     1 <1>   0.0800 
 41 H       -2.7730    -6.3550    -3.2130 H     1 <1>   0.4500 
 42 H       -5.0870    -5.7640    -2.2150 H     1 <1>   0.0800 
 43 H       -4.8740    -7.2760    -3.0840 H     1 <1>   0.0800 
 44 H       -2.6320    -8.5560    -2.6240 H     1 <1>   0.0800 
 45 H       -1.5810    -7.8240    -1.4550 H     1 <1>   0.0800 
 46 H       -5.7610    -8.1130    -1.0690 H     1 <1>   0.0800 
 47 H       -3.8020    -9.3880    -0.9590 H     1 <1>   0.0800 
 48 H       -5.6490    -6.9850     0.7740 H     1 <1>   0.4000 
 49 H       -3.6500    -8.9070     1.3640 H     1 <1>   0.0800 
 50 H       -2.9970    -7.3250     1.1070 H     1 <1>   0.0800 
 51 H       -1.8910   -10.8620     1.6390 H     1 <1>   0.1500 
 52 H        1.4700    -8.5550     0.7050 H     1 <1>   0.2700 
 53 H        0.5450   -12.0220     2.0720 H     1 <1>   0.0800 
 54 H        1.7190   -10.8040     2.5000 H     1 <1>   0.0800 
 55 H        1.7010   -11.4760     0.8830 H     1 <1>   0.0800 
@<TRIPOS>BOND
  1   1   2  1   
  2   1   3  1   
  3   2   4  1   
  4   2  24  1   
  5   2  25  1   
  6   3   5  1   
  7   3  26  1   
  8   3  27  1   
  9   4   6  1   
 10   4  28  1   
 11   4  29  1   
 12   5   6  1   
 13   5  30  1   
 14   5  31  1   
 15   6   7  1   
 16   6  32  1   
 17   7   8  1   
 18   7   9  1   
 19   7  10  1   
 20   8  11  1   
 21   8  33  1   
 22   8  34  1   
 23   9  35  1   
 24   9  36  1   
 25   9  37  1   
 26  10  38  1   
 27  10  39  1   
 28  10  40  1   
 29  11  12  1   
 30  11  13  1   
 31  11  41  1   
 32  12  14  1   
 33  12  42  1   
 34  12  43  1   
 35  13  15  1   
 36  13  44  1   
 37  13  45  1   
 38  14  15  1   
 39  14  16  1   
 40  14  46  1   
 41  15  17  1   
 42  15  47  1   
 43  16  48  1   
 44  17  18  1   
 45  17  49  1   
 46  17  50  1   
 47  18  19  2   
 48  18  20  1   
 49  19  21  1   
 50  20  22  2   
 51  20  51  1   
 52  21  22  1   
 53  21  52  1   
 54  22  23  1   
 55  23  53  1   
 56  23  54  1   
 57  23  55  1   
@<TRIPOS>SUBSTRUCTURE
  1 ****  19 GROUP 4 **** **** 0

# MOE 2024.06 (io_trps.svl 2023.06)
