@<TRIPOS>MOLECULE
NONAME
51 53 1 0 0 
SMALL
USER_CHARGES


@<TRIPOS>ATOM
  1 O        1.2470    -0.1030    -1.0630 O.2   1 <1>  -0.5700 
  2 C        1.7470    -0.8150    -0.2120 C.2   1 <1>   0.5440 
  3 N        2.6210    -0.2450     0.6920 N.am  1 <1>  -0.6600 
  4 C        1.4260    -2.2320    -0.1900 C.ar  1 <1>   0.0860 
  5 C        3.7260    -1.0070     1.3530 C.3   1 <1>   0.1400 
  6 C        2.7030     1.2300     0.8670 C.3   1 <1>   0.1400 
  7 C        1.4190    -2.9820    -1.3650 C.ar  1 <1>  -0.1500 
  8 C        1.1050    -2.8930     0.9970 C.ar  1 <1>  -0.1500 
  9 C        5.0880    -0.5120     0.8480 C.3   1 <1>   0.2000 
 10 C        4.0250     1.7330     0.2860 C.3   1 <1>  -0.1600 
 11 C        1.1240    -4.3330    -1.3580 C.ar  1 <1>  -0.1500 
 12 C        0.8100    -4.2440     1.0130 C.ar  1 <1>  -0.1500 
 13 O        6.0780    -1.1180     1.6120 O.3   1 <1>  -0.6800 
 14 C        5.2160     1.0260     0.9410 C.3   1 <1>   0.2200 
 15 C        0.8210    -4.9680    -0.1660 C.ar  1 <1>  -0.1500 
 16 N        6.4570     1.5110     0.2870 N.am  1 <1>  -0.7300 
 17 C        7.7020     1.4680     0.8270 C.2   1 <1>   0.5770 
 18 O        7.8920     0.9140     1.8830 O.2   1 <1>  -0.5700 
 19 C        8.8870     2.0590     0.0710 C.3   1 <1>   0.0530 
 20 C        9.7040     3.0710     0.9280 C.3   1 <1>   0.0000 
 21 C        8.5330     3.2430    -0.8840 C.3   1 <1>   0.0000 
 22 C        9.7210     0.9170    -0.5460 C.3   1 <1>   0.1200 
 23 C        9.7260     4.0340    -0.2870 C.3   1 <1>   0.0000 
 24 O       10.7550     1.4020    -1.3460 O.3   1 <1>  -0.5600 
 25 C       11.5810     0.4110    -1.8650 C.3   1 <1>   0.0400 
 26 H        3.6610    -0.8610     2.4170 H     1 <1>   0.0800 
 27 H        3.6470    -2.0580     1.1420 H     1 <1>   0.0800 
 28 H        1.8780     1.7160     0.3740 H     1 <1>   0.0800 
 29 H        2.6440     1.4640     1.9160 H     1 <1>   0.0800 
 30 H        1.6460    -2.4890    -2.2950 H     1 <1>   0.1500 
 31 H        1.0860    -2.3340     1.9160 H     1 <1>   0.1500 
 32 H        5.2210    -0.8270    -0.1720 H     1 <1>   0.0800 
 33 H        4.0970     2.7920     0.4530 H     1 <1>   0.0800 
 34 H        4.0180     1.5510    -0.7750 H     1 <1>   0.0800 
 35 H        1.1270    -4.8910    -2.2790 H     1 <1>   0.1500 
 36 H        0.5690    -4.7330     1.9410 H     1 <1>   0.1500 
 37 H        6.8270    -0.4780     1.7440 H     1 <1>   0.4000 
 38 H        5.2390     1.2990     1.9840 H     1 <1>   0.0800 
 39 H        0.5910    -6.0190    -0.1580 H     1 <1>   0.1500 
 40 H        6.3260     1.9400    -0.6310 H     1 <1>   0.3700 
 41 H        9.1380     3.4780     1.7490 H     1 <1>   0.0000 
 42 H       10.6790     2.7210     1.2190 H     1 <1>   0.0000 
 43 H        8.6430     3.0200    -1.9300 H     1 <1>   0.0000 
 44 H        7.5980     3.7230    -0.6520 H     1 <1>   0.0000 
 45 H        9.0900     0.2950    -1.1580 H     1 <1>   0.0800 
 46 H       10.1480     0.3190     0.2430 H     1 <1>   0.0800 
 47 H       10.6240     3.9500    -0.8740 H     1 <1>   0.0000 
 48 H        9.4820     5.0500    -0.0320 H     1 <1>   0.0000 
 49 H       12.3340     0.8870    -2.4680 H     1 <1>   0.0800 
 50 H       10.9970    -0.2570    -2.4750 H     1 <1>   0.0800 
 51 H       12.0490    -0.1230    -1.0560 H     1 <1>   0.0800 
@<TRIPOS>BOND
  1   1   2  2   
  2   2   3  am  
  3   2   4  1   
  4   3   5  1   
  5   3   6  1   
  6   4   7  ar  
  7   4   8  ar  
  8   5   9  1   
  9   5  26  1   
 10   5  27  1   
 11   6  10  1   
 12   6  28  1   
 13   6  29  1   
 14   7  11  ar  
 15   7  30  1   
 16   8  12  ar  
 17   8  31  1   
 18   9  13  1   
 19   9  14  1   
 20   9  32  1   
 21  10  14  1   
 22  10  33  1   
 23  10  34  1   
 24  11  15  ar  
 25  11  35  1   
 26  12  15  ar  
 27  12  36  1   
 28  13  37  1   
 29  14  16  1   
 30  14  38  1   
 31  15  39  1   
 32  16  17  am  
 33  16  40  1   
 34  17  18  2   
 35  17  19  1   
 36  19  20  1   
 37  19  21  1   
 38  19  22  1   
 39  20  23  1   
 40  20  41  1   
 41  20  42  1   
 42  21  23  1   
 43  21  43  1   
 44  21  44  1   
 45  22  24  1   
 46  22  45  1   
 47  22  46  1   
 48  23  47  1   
 49  23  48  1   
 50  24  25  1   
 51  25  49  1   
 52  25  50  1   
 53  25  51  1   
@<TRIPOS>SUBSTRUCTURE
  1 ****   9 GROUP 4 **** **** 0

# MOE 2024.06 (io_trps.svl 2023.06)
