@<TRIPOS>MOLECULE
NONAME
54 57 1 0 0 
SMALL
USER_CHARGES


@<TRIPOS>ATOM
  1 O       -1.8630     1.2370     2.3120 O.2   1 <1>  -0.5700 
  2 C       -1.8810     1.2640     1.0940 C.2   1 <1>   0.7160 
  3 N       -2.0600     0.0780     0.4080 N.am  1 <1>  -0.6600 
  4 C       -1.6870     2.4970     0.4050 C.2   1 <1>  -0.0860 
  5 C       -1.9740    -0.0440    -1.0750 C.3   1 <1>   0.1400 
  6 C       -2.3350    -1.1910     1.1490 C.3   1 <1>   0.1400 
  7 C       -2.6250     3.5180     0.2100 C.2   1 <1>   0.3720 
  8 C       -0.5810     2.9450    -0.2430 C.2   1 <1>   0.0870 
  9 C       -3.2830    -0.6090    -1.6510 C.3   1 <1>  -0.1600 
 10 C       -3.0230    -2.2410     0.2620 C.3   1 <1>  -0.1600 
 11 N       -2.1160     4.4690    -0.4970 N.2   1 <1>  -0.4100 
 12 N       -3.9400     3.5510     0.7050 N.pl3 1 <1>  -0.8210 
 13 O       -0.8890     4.1060    -0.7610 O.3   1 <1>  -0.0190 
 14 C        0.7250     2.3700    -0.4350 C.ar  1 <1>   0.0530 
 15 C       -4.0170    -1.5810    -0.7040 C.3   1 <1>  -0.0800 
 16 C       -4.7900     4.7210     0.3780 C.3   1 <1>   0.2090 
 17 C       -4.7640     2.3160     0.7000 C.3   1 <1>   0.2090 
 18 C        1.3070     1.5320     0.5180 C.ar  1 <1>  -0.1500 
 19 C        1.4560     2.6260    -1.5960 C.ar  1 <1>  -0.1500 
 20 C       -4.8050    -2.6310    -1.4940 C.3   1 <1>  -0.2400 
 21 C       -6.2170     4.2400     0.5970 C.3   1 <1>  -0.1600 
 22 C       -6.1610     2.7520     0.2730 C.3   1 <1>  -0.1600 
 23 C        2.5500     0.9630     0.3190 C.ar  1 <1>  -0.1500 
 24 C        2.7000     2.0620    -1.8010 C.ar  1 <1>  -0.1500 
 25 C        3.2590     1.2240    -0.8500 C.ar  1 <1>   0.0830 
 26 O        4.4780     0.7070    -1.1260 O.3   1 <1>  -0.3630 
 27 C        5.1510    -0.1310    -0.2130 C.3   1 <1>   0.0400 
 28 H       -1.1650    -0.7160    -1.3070 H     1 <1>   0.0800 
 29 H       -1.7550     0.8980    -1.5440 H     1 <1>   0.0800 
 30 H       -2.9790    -0.9680     1.9840 H     1 <1>   0.0800 
 31 H       -1.4130    -1.5840     1.5400 H     1 <1>   0.0800 
 32 H       -3.0390    -1.1040    -2.5750 H     1 <1>   0.0800 
 33 H       -3.9400     0.2050    -1.8990 H     1 <1>   0.0800 
 34 H       -3.5310    -2.9480     0.8950 H     1 <1>   0.0800 
 35 H       -2.2770    -2.7820    -0.2930 H     1 <1>   0.0800 
 36 H       -4.7160    -1.0110    -0.1140 H     1 <1>   0.0800 
 37 H       -4.6490     5.0010    -0.6520 H     1 <1>   0.0800 
 38 H       -4.5480     5.5550     1.0150 H     1 <1>   0.0800 
 39 H       -4.7830     1.9090     1.6970 H     1 <1>   0.0800 
 40 H       -4.3720     1.5820     0.0190 H     1 <1>   0.0800 
 41 H        0.7820     1.3270     1.4350 H     1 <1>   0.1500 
 42 H        1.0420     3.2750    -2.3470 H     1 <1>   0.1500 
 43 H       -4.1420    -3.2450    -2.0780 H     1 <1>   0.0800 
 44 H       -5.5040    -2.1510    -2.1570 H     1 <1>   0.0800 
 45 H       -5.3570    -3.2650    -0.8230 H     1 <1>   0.0800 
 46 H       -6.9180     4.7720    -0.0200 H     1 <1>   0.0800 
 47 H       -6.4750     4.3820     1.6320 H     1 <1>   0.0800 
 48 H       -6.9250     2.1920     0.7810 H     1 <1>   0.0800 
 49 H       -6.2610     2.6050    -0.7870 H     1 <1>   0.0800 
 50 H        2.9530     0.3240     1.0820 H     1 <1>   0.1500 
 51 H        3.2510     2.2670    -2.7010 H     1 <1>   0.1500 
 52 H        6.0970    -0.4040    -0.6440 H     1 <1>   0.0800 
 53 H        4.5580    -1.0130    -0.0460 H     1 <1>   0.0800 
 54 H        5.3090     0.4080     0.7040 H     1 <1>   0.0800 
@<TRIPOS>BOND
  1   1   2  2   
  2   2   3  am  
  3   2   4  1   
  4   3   5  1   
  5   3   6  1   
  6   4   7  1   
  7   4   8  2   
  8   5   9  1   
  9   5  28  1   
 10   5  29  1   
 11   6  10  1   
 12   6  30  1   
 13   6  31  1   
 14   7  11  2   
 15   7  12  1   
 16   8  13  1   
 17   8  14  1   
 18   9  15  1   
 19   9  32  1   
 20   9  33  1   
 21  10  15  1   
 22  10  34  1   
 23  10  35  1   
 24  11  13  1   
 25  12  16  1   
 26  12  17  1   
 27  14  18  ar  
 28  14  19  ar  
 29  15  20  1   
 30  15  36  1   
 31  16  21  1   
 32  16  37  1   
 33  16  38  1   
 34  17  22  1   
 35  17  39  1   
 36  17  40  1   
 37  18  23  ar  
 38  18  41  1   
 39  19  24  ar  
 40  19  42  1   
 41  20  43  1   
 42  20  44  1   
 43  20  45  1   
 44  21  22  1   
 45  21  46  1   
 46  21  47  1   
 47  22  48  1   
 48  22  49  1   
 49  23  25  ar  
 50  23  50  1   
 51  24  25  ar  
 52  24  51  1   
 53  25  26  1   
 54  26  27  1   
 55  27  52  1   
 56  27  53  1   
 57  27  54  1   
@<TRIPOS>SUBSTRUCTURE
  1 ****   4 GROUP 4 **** **** 0

# MOE 2024.06 (io_trps.svl 2023.06)
