@<TRIPOS>MOLECULE
NONAME
47 49 1 0 0 
SMALL
USER_CHARGES


@<TRIPOS>ATOM
  1 F        0.2010     0.9250    -0.1660 F     1 <1>  -0.1900 
  2 C        0.2450     2.2270    -0.1560 C.ar  1 <1>   0.1900 
  3 C        1.4610     2.8540     0.0340 C.ar  1 <1>  -0.1500 
  4 C       -0.9250     2.9390    -0.3310 C.ar  1 <1>  -0.1500 
  5 C        1.5010     4.2370     0.0430 C.ar  1 <1>  -0.1500 
  6 C       -0.8660     4.3220    -0.3200 C.ar  1 <1>  -0.1500 
  7 C        0.3430     5.0030    -0.1400 C.ar  1 <1>   0.0860 
  8 C        0.3790     6.4550    -0.1420 C.2   1 <1>   0.5440 
  9 O       -0.5860     7.1020     0.2120 O.2   1 <1>  -0.5700 
 10 N        1.5000     7.1270    -0.5420 N.am  1 <1>  -0.7300 
 11 C        1.6400     8.6080    -0.5730 C.3   1 <1>   0.1400 
 12 C        1.9340     9.1550     0.8270 C.3   1 <1>   0.2090 
 13 N        2.2650    10.6010     0.7530 N.pl3 1 <1>  -0.8690 
 14 C        3.5350    11.0950     0.5530 C.ar  1 <1>   0.4100 
 15 N        4.4320    10.2290     0.0810 N.ar  1 <1>  -0.6200 
 16 C        3.8240    12.4420     0.8350 C.ar  1 <1>   0.0860 
 17 C        5.6570    10.6850    -0.0920 C.ar  1 <1>   0.1600 
 18 C        2.7920    13.3360     1.2990 C.2   1 <1>   0.5440 
 19 C        5.1270    12.8820     0.6470 C.ar  1 <1>  -0.1500 
 20 C        6.0550    11.9820     0.1750 C.ar  1 <1>  -0.1500 
 21 O        2.1590    13.0680     2.3060 O.2   1 <1>  -0.5700 
 22 N        2.4930    14.4990     0.6220 N.am  1 <1>  -0.6600 
 23 C        1.4180    15.4210     1.0570 C.3   1 <1>   0.1400 
 24 C        2.8650    14.7530    -0.7890 C.3   1 <1>   0.1400 
 25 C        0.9190    16.0700    -0.2280 C.3   1 <1>  -0.1600 
 26 C        2.1160    16.0250    -1.1720 C.3   1 <1>  -0.1600 
 27 H        2.3510     2.2660     0.1730 H     1 <1>   0.1500 
 28 H       -1.8570     2.4200    -0.4720 H     1 <1>   0.1500 
 29 H        2.4440     4.7290     0.2030 H     1 <1>   0.1500 
 30 H       -1.7690     4.8940    -0.4530 H     1 <1>   0.1500 
 31 H        2.3010     6.6080    -0.9030 H     1 <1>   0.3700 
 32 H        0.7290     9.0480    -0.9400 H     1 <1>   0.0800 
 33 H        2.4450     8.8710    -1.2370 H     1 <1>   0.0800 
 34 H        2.7620     8.6200     1.2590 H     1 <1>   0.0800 
 35 H        1.0690     9.0180     1.4520 H     1 <1>   0.0800 
 36 H        1.6810    11.1900     1.3670 H     1 <1>   0.4000 
 37 H        6.3880     9.9880    -0.4660 H     1 <1>   0.1500 
 38 H        5.3960    13.8990     0.8710 H     1 <1>   0.1500 
 39 H        7.0770    12.2780     0.0140 H     1 <1>   0.1500 
 40 H        1.8390    16.1590     1.7170 H     1 <1>   0.0800 
 41 H        0.6280    14.8930     1.5640 H     1 <1>   0.0800 
 42 H        2.5360    13.9260    -1.3960 H     1 <1>   0.0800 
 43 H        3.9280    14.8840    -0.8930 H     1 <1>   0.0800 
 44 H        0.5640    17.0710    -0.0580 H     1 <1>   0.0800 
 45 H        0.1150    15.4750    -0.6270 H     1 <1>   0.0800 
 46 H        1.8220    16.0200    -2.2070 H     1 <1>   0.0800 
 47 H        2.7530    16.8740    -0.9930 H     1 <1>   0.0800 
@<TRIPOS>BOND
  1   1   2  1   
  2   2   3  ar  
  3   2   4  ar  
  4   3   5  ar  
  5   3  27  1   
  6   4   6  ar  
  7   4  28  1   
  8   5   7  ar  
  9   5  29  1   
 10   6   7  ar  
 11   6  30  1   
 12   7   8  1   
 13   8   9  2   
 14   8  10  am  
 15  10  11  1   
 16  10  31  1   
 17  11  12  1   
 18  11  32  1   
 19  11  33  1   
 20  12  13  1   
 21  12  34  1   
 22  12  35  1   
 23  13  14  1   
 24  13  36  1   
 25  14  15  ar  
 26  14  16  ar  
 27  15  17  ar  
 28  16  18  1   
 29  16  19  ar  
 30  17  20  ar  
 31  17  37  1   
 32  18  21  2   
 33  18  22  am  
 34  19  20  ar  
 35  19  38  1   
 36  20  39  1   
 37  22  23  1   
 38  22  24  1   
 39  23  25  1   
 40  23  40  1   
 41  23  41  1   
 42  24  26  1   
 43  24  42  1   
 44  24  43  1   
 45  25  26  1   
 46  25  44  1   
 47  25  45  1   
 48  26  46  1   
 49  26  47  1   
@<TRIPOS>SUBSTRUCTURE
  1 ****  12 GROUP 4 **** **** 0

# MOE 2024.06 (io_trps.svl 2023.06)
