@<TRIPOS>MOLECULE
NONAME
51 53 1 0 0 
SMALL
USER_CHARGES


@<TRIPOS>ATOM
  1 O       -0.1910     0.1130     0.9070 O.2   1 <1>  -0.5700 
  2 C        0.8700    -0.3480     0.5670 C.2   1 <1>   0.5690 
  3 N        1.9430     0.4040     0.1770 N.am  1 <1>  -0.4940 
  4 C        1.0180    -1.8550     0.5770 C.3   1 <1>  -0.0990 
  5 C        2.0300     1.8070     0.0030 C.2   1 <1>  -0.0880 
  6 C        0.1140    -2.5020    -0.4820 C.3   1 <1>  -0.0220 
  7 N        3.0960     2.5630     0.3830 N.pl3 1 <1>   0.3140 
  8 C        1.1420     2.6670    -0.5540 C.2   1 <1>  -0.1810 
  9 C        0.2210    -4.0300    -0.4310 C.2   1 <1>  -0.1240 
 10 N        2.9190     3.8670     0.0810 N.2   1 <1>  -0.7070 
 11 C        4.3070     2.1080     1.0940 C.3   1 <1>   0.0960 
 12 C        1.7480     3.9160    -0.4720 C.2   1 <1>   0.1390 
 13 C       -0.2240     2.3980    -1.1570 C.3   1 <1>  -0.0590 
 14 C        1.1550    -4.7130    -1.2890 C.2   1 <1>   0.3750 
 15 C       -0.5560    -4.7670     0.4220 C.2   1 <1>  -0.1690 
 16 C        5.3540     1.5690     0.1070 C.3   1 <1>  -0.1600 
 17 N        1.3020    -5.9940    -1.3020 N.2   1 <1>  -0.5760 
 18 C        2.0430    -3.9430    -2.2520 C.3   1 <1>  -0.1790 
 19 N       -0.3950    -6.1460     0.3850 N.pl3 1 <1>   0.6010 
 20 C       -1.5880    -4.2410     1.4240 C.3   1 <1>  -0.1020 
 21 C        6.5880     1.0350     0.8440 C.3   1 <1>  -0.1600 
 22 C        0.5130    -6.7180    -0.4520 C.2   1 <1>   0.3120 
 23 N       -0.9980    -7.1080     1.0800 N.2   1 <1>  -0.7070 
 24 C        7.6240     0.4910    -0.1430 C.3   1 <1>  -0.2400 
 25 N        0.5120    -8.0060    -0.3210 N.2   1 <1>  -0.5650 
 26 C       -0.4200    -8.1720     0.6150 C.2   1 <1>   0.3660 
 27 H        2.8060    -0.1080     0.0090 H     1 <1>   0.3700 
 28 H        0.7400    -2.2100     1.5530 H     1 <1>   0.0800 
 29 H        2.0420    -2.1300     0.4070 H     1 <1>   0.0800 
 30 H        0.3630    -2.1210    -1.4560 H     1 <1>   0.0800 
 31 H       -0.9050    -2.2010    -0.3140 H     1 <1>   0.0800 
 32 H        4.0240     1.3500     1.8000 H     1 <1>   0.0800 
 33 H        4.7100     2.9440     1.6360 H     1 <1>   0.0800 
 34 H        1.3030     4.8310    -0.8260 H     1 <1>   0.1500 
 35 H       -0.2820     1.3870    -1.5140 H     1 <1>   0.0800 
 36 H       -0.4070     3.0650    -1.9800 H     1 <1>   0.0800 
 37 H       -0.9830     2.5450    -0.4100 H     1 <1>   0.0800 
 38 H        5.6490     2.3670    -0.5540 H     1 <1>   0.0800 
 39 H        4.9230     0.7810    -0.4840 H     1 <1>   0.0800 
 40 H        2.6060    -3.1920    -1.7310 H     1 <1>   0.0800 
 41 H        1.4450    -3.4860    -3.0180 H     1 <1>   0.0800 
 42 H        2.7390    -4.6100    -2.7280 H     1 <1>   0.0800 
 43 H       -1.3830    -4.6420     2.4020 H     1 <1>   0.0800 
 44 H       -2.5730    -4.5620     1.1330 H     1 <1>   0.0800 
 45 H       -1.5910    -3.1710     1.5090 H     1 <1>   0.0800 
 46 H        6.3010     0.2490     1.5220 H     1 <1>   0.0800 
 47 H        7.0350     1.8270     1.4220 H     1 <1>   0.0800 
 48 H        7.2120    -0.3190    -0.7180 H     1 <1>   0.0800 
 49 H        8.4860     0.1290     0.3890 H     1 <1>   0.0800 
 50 H        7.9440     1.2670    -0.8180 H     1 <1>   0.0800 
 51 H       -0.6700    -9.1630     0.9620 H     1 <1>   0.1500 
@<TRIPOS>BOND
  1   1   2  2   
  2   2   3  am  
  3   2   4  1   
  4   3   5  1   
  5   3  27  1   
  6   4   6  1   
  7   4  28  1   
  8   4  29  1   
  9   5   7  1   
 10   5   8  2   
 11   6   9  1   
 12   6  30  1   
 13   6  31  1   
 14   7  10  1   
 15   7  11  1   
 16   8  12  1   
 17   8  13  1   
 18   9  14  1   
 19   9  15  2   
 20  10  12  2   
 21  11  16  1   
 22  11  32  1   
 23  11  33  1   
 24  12  34  1   
 25  13  35  1   
 26  13  36  1   
 27  13  37  1   
 28  14  17  2   
 29  14  18  1   
 30  15  19  1   
 31  15  20  1   
 32  16  21  1   
 33  16  38  1   
 34  16  39  1   
 35  17  22  1   
 36  18  40  1   
 37  18  41  1   
 38  18  42  1   
 39  19  22  1   
 40  19  23  1   
 41  20  43  1   
 42  20  44  1   
 43  20  45  1   
 44  21  24  1   
 45  21  46  1   
 46  21  47  1   
 47  22  25  2   
 48  23  26  2   
 49  24  48  1   
 50  24  49  1   
 51  24  50  1   
 52  25  26  1   
 53  26  51  1   
@<TRIPOS>SUBSTRUCTURE
  1 ****   4 GROUP 4 **** **** 0

# MOE 2024.06 (io_trps.svl 2023.06)
