@<TRIPOS>MOLECULE
NONAME
55 58 1 0 0 
SMALL
USER_CHARGES


@<TRIPOS>ATOM
  1 O        0.6040     1.0260    -0.4570 O.2   1 <1>  -0.5700 
  2 C       -0.2340     1.5240     0.2540 C.2   1 <1>   0.5690 
  3 N       -1.1030     0.7610     0.9600 N.am  1 <1>  -0.7300 
  4 C       -0.3130     3.0500     0.3700 C.3   1 <1>   0.2510 
  5 C       -2.2710     1.3100     1.7080 C.3   1 <1>   0.1400 
  6 N       -1.6710     3.5470     0.7600 N.3   1 <1>  -0.8100 
  7 C        0.1140     3.6790    -0.9690 C.3   1 <1>   0.3430 
  8 C       -2.1450     2.8310     1.9640 C.3   1 <1>   0.1100 
  9 C       -1.6860     5.0130     0.8960 C.3   1 <1>   0.1100 
 10 N        0.0560     5.1890    -0.9410 N.4   1 <1>  -0.9590 
 11 C       -1.2760     5.6860    -0.4330 C.3   1 <1>   0.3430 
 12 C        0.3900     5.7710    -2.2670 C.3   1 <1>   0.4860 
 13 C        0.5200     7.2710    -2.1020 C.ar  1 <1>  -0.1440 
 14 C        1.6000     7.8040    -1.4160 C.ar  1 <1>  -0.1500 
 15 C       -0.4430     8.1240    -2.6220 C.ar  1 <1>  -0.1500 
 16 C        1.7170     9.1710    -1.2300 C.ar  1 <1>   0.0820 
 17 C       -0.3300     9.4920    -2.4440 C.ar  1 <1>  -0.1500 
 18 O        2.8000     9.5930    -0.5370 O.3   1 <1>  -0.3620 
 19 C        0.7430    10.0190    -1.7480 C.ar  1 <1>  -0.1500 
 20 C        3.0800    10.9650    -0.3770 C.3   1 <1>   0.1200 
 21 C        4.3960    11.0910     0.3900 C.3   1 <1>  -0.1600 
 22 C        4.7690    12.5630     0.6020 C.3   1 <1>   0.0960 
 23 N        6.0410    12.6700     1.3410 N.pl3 1 <1>   0.0480 
 24 C        6.2170    12.8060     2.6750 C.2   1 <1>   0.0360 
 25 C        7.2860    12.6570     0.8330 C.2   1 <1>  -0.3020 
 26 N        7.4570    12.8790     3.0370 N.2   1 <1>  -0.5650 
 27 C        8.1320    12.7850     1.8770 C.2   1 <1>   0.0770 
 28 H       -1.0470    -0.2550     0.8400 H     1 <1>   0.3700 
 29 H        0.3970     3.3350     1.1250 H     1 <1>   0.0800 
 30 H       -2.3680     0.7960     2.6500 H     1 <1>   0.0800 
 31 H       -3.1650     1.1250     1.1370 H     1 <1>   0.0800 
 32 H       -0.5420     3.3010    -1.7350 H     1 <1>   0.0800 
 33 H        1.1140     3.3500    -1.2030 H     1 <1>   0.0800 
 34 H       -1.4640     2.9970     2.7820 H     1 <1>   0.0800 
 35 H       -3.1100     3.2110     2.2570 H     1 <1>   0.0800 
 36 H       -1.0220     5.3230     1.6860 H     1 <1>   0.0800 
 37 H       -2.6810     5.3360     1.1540 H     1 <1>   0.0800 
 38 H        0.7690     5.5310    -0.2860 H     1 <1>   0.4500 
 39 H       -1.2390     6.7540    -0.2910 H     1 <1>   0.0800 
 40 H       -2.0400     5.4770    -1.1630 H     1 <1>   0.0800 
 41 H       -0.3820     5.5400    -2.9830 H     1 <1>   0.0800 
 42 H        1.3230     5.3690    -2.6260 H     1 <1>   0.0800 
 43 H        2.3760     7.1770    -1.0140 H     1 <1>   0.1500 
 44 H       -1.2880     7.7410    -3.1710 H     1 <1>   0.1500 
 45 H       -1.0790    10.1530    -2.8510 H     1 <1>   0.1500 
 46 H        0.8030    11.0840    -1.6240 H     1 <1>   0.1500 
 47 H        2.2710    11.4140     0.1720 H     1 <1>   0.0800 
 48 H        3.1630    11.4090    -1.3550 H     1 <1>   0.0800 
 49 H        5.1760    10.6050    -0.1690 H     1 <1>   0.0800 
 50 H        4.2930    10.6090     1.3470 H     1 <1>   0.0800 
 51 H        4.0020    13.0660     1.1640 H     1 <1>   0.0800 
 52 H        4.8820    13.0600    -0.3450 H     1 <1>   0.0800 
 53 H        5.3880    12.8470     3.3590 H     1 <1>   0.1500 
 54 H        7.5010    12.5590    -0.2160 H     1 <1>   0.1500 
 55 H        9.2090    12.8150     1.8560 H     1 <1>   0.1500 
@<TRIPOS>BOND
  1   1   2  2   
  2   2   3  am  
  3   2   4  1   
  4   3   5  1   
  5   3  28  1   
  6   4   6  1   
  7   4   7  1   
  8   4  29  1   
  9   5   8  1   
 10   5  30  1   
 11   5  31  1   
 12   6   8  1   
 13   6   9  1   
 14   7  10  1   
 15   7  32  1   
 16   7  33  1   
 17   8  34  1   
 18   8  35  1   
 19   9  11  1   
 20   9  36  1   
 21   9  37  1   
 22  10  11  1   
 23  10  12  1   
 24  10  38  1   
 25  11  39  1   
 26  11  40  1   
 27  12  13  1   
 28  12  41  1   
 29  12  42  1   
 30  13  14  ar  
 31  13  15  ar  
 32  14  16  ar  
 33  14  43  1   
 34  15  17  ar  
 35  15  44  1   
 36  16  18  1   
 37  16  19  ar  
 38  17  19  ar  
 39  17  45  1   
 40  18  20  1   
 41  19  46  1   
 42  20  21  1   
 43  20  47  1   
 44  20  48  1   
 45  21  22  1   
 46  21  49  1   
 47  21  50  1   
 48  22  23  1   
 49  22  51  1   
 50  22  52  1   
 51  23  24  1   
 52  23  25  1   
 53  24  26  2   
 54  24  53  1   
 55  25  27  2   
 56  25  54  1   
 57  26  27  1   
 58  27  55  1   
@<TRIPOS>SUBSTRUCTURE
  1 ****  14 GROUP 4 **** **** 0

# MOE 2024.06 (io_trps.svl 2023.06)
