@<TRIPOS>MOLECULE
NONAME
44 46 1 0 0 
SMALL
USER_CHARGES


@<TRIPOS>ATOM
  1 S        1.5120     0.9540    -0.2190 S.o2  1 <1>   1.4470 
  2 O        2.1720     1.8870     0.6600 O.2   1 <1>  -0.6500 
  3 O        1.7830     0.9060    -1.6340 O.2   1 <1>  -0.6500 
  4 N       -0.1150     1.2860    -0.0870 N.am  1 <1>  -0.9780 
  5 C        1.6340    -0.7210     0.4740 C.ar  1 <1>  -0.0090 
  6 C        1.2100    -1.8280    -0.2540 C.ar  1 <1>  -0.1500 
  7 C        2.1360    -0.9340     1.7550 C.ar  1 <1>  -0.1500 
  8 C        1.2610    -3.1350     0.2390 C.ar  1 <1>   0.0860 
  9 C        2.2110    -2.2090     2.2850 C.ar  1 <1>  -0.1500 
 10 C        1.7760    -3.2780     1.5280 C.ar  1 <1>   0.1900 
 11 C        0.7870    -4.2400    -0.5750 C.2   1 <1>   0.5440 
 12 F        1.8570    -4.4600     2.0750 F     1 <1>  -0.1900 
 13 O       -0.0650    -4.0450    -1.4190 O.2   1 <1>  -0.5700 
 14 N        1.2730    -5.5070    -0.4390 N.am  1 <1>  -0.7300 
 15 C        0.8580    -6.6790    -1.2440 C.3   1 <1>   0.2200 
 16 C       -0.1080    -7.5270    -0.4350 C.3   1 <1>  -0.0800 
 17 C        2.0390    -7.6290    -1.4200 C.3   1 <1>   0.1200 
 18 C        0.8480    -8.3730     0.4110 C.3   1 <1>   0.1200 
 19 C       -1.0000    -8.3890    -1.3490 C.3   1 <1>  -0.0170 
 20 O        2.0520    -8.4600    -0.2960 O.3   1 <1>  -0.5600 
 21 C       -1.9750    -9.2360    -0.5460 C.ar  1 <1>  -0.1430 
 22 C       -3.0950    -8.6890     0.0470 C.ar  1 <1>  -0.1500 
 23 C       -1.7950   -10.5930    -0.3690 C.ar  1 <1>  -0.1500 
 24 C       -3.9540    -9.5000     0.7700 C.ar  1 <1>   0.1600 
 25 C       -2.7150   -11.3150     0.3740 C.ar  1 <1>   0.1600 
 26 N       -3.7900   -10.8010     0.9490 N.ar  1 <1>  -0.6200 
 27 H       -0.3740     1.2060     0.8900 H     1 <1>   0.4200 
 28 H       -0.6190     0.6100    -0.6520 H     1 <1>   0.4200 
 29 H        0.8280    -1.6770    -1.2520 H     1 <1>   0.1500 
 30 H        2.4760    -0.0940     2.3420 H     1 <1>   0.1500 
 31 H        2.6020    -2.3730     3.2750 H     1 <1>   0.1500 
 32 H        1.9100    -5.7280     0.3330 H     1 <1>   0.3700 
 33 H        0.4530    -6.3580    -2.1900 H     1 <1>   0.0800 
 34 H       -0.7380    -6.9160     0.1860 H     1 <1>   0.0800 
 35 H        2.9800    -7.1130    -1.4990 H     1 <1>   0.0800 
 36 H        1.8960    -8.2550    -2.2830 H     1 <1>   0.0800 
 37 H        0.4810    -9.3660     0.6040 H     1 <1>   0.0800 
 38 H        1.0580    -7.8840     1.3460 H     1 <1>   0.0800 
 39 H       -0.3940    -9.0280    -1.9670 H     1 <1>   0.0800 
 40 H       -1.5640    -7.7460    -2.0040 H     1 <1>   0.0800 
 41 H       -3.3080    -7.6390    -0.0470 H     1 <1>   0.1500 
 42 H       -0.9490   -11.0970    -0.8000 H     1 <1>   0.1500 
 43 H       -4.8220    -9.0550     1.2250 H     1 <1>   0.1500 
 44 H       -2.5570   -12.3730     0.5010 H     1 <1>   0.1500 
@<TRIPOS>BOND
  1   1   2  2   
  2   1   3  2   
  3   1   4  am  
  4   1   5  1   
  5   4  27  1   
  6   4  28  1   
  7   5   6  ar  
  8   5   7  ar  
  9   6   8  ar  
 10   6  29  1   
 11   7   9  ar  
 12   7  30  1   
 13   8  10  ar  
 14   8  11  1   
 15   9  10  ar  
 16   9  31  1   
 17  10  12  1   
 18  11  13  2   
 19  11  14  am  
 20  14  15  1   
 21  14  32  1   
 22  15  16  1   
 23  15  17  1   
 24  15  33  1   
 25  16  18  1   
 26  16  19  1   
 27  16  34  1   
 28  17  20  1   
 29  17  35  1   
 30  17  36  1   
 31  18  20  1   
 32  18  37  1   
 33  18  38  1   
 34  19  21  1   
 35  19  39  1   
 36  19  40  1   
 37  21  22  ar  
 38  21  23  ar  
 39  22  24  ar  
 40  22  41  1   
 41  23  25  ar  
 42  23  42  1   
 43  24  26  ar  
 44  24  43  1   
 45  25  26  ar  
 46  25  44  1   
@<TRIPOS>SUBSTRUCTURE
  1 ****  11 GROUP 4 **** **** 0

# MOE 2024.06 (io_trps.svl 2023.06)
