@<TRIPOS>MOLECULE
NONAME
39 41 1 0 0 
SMALL
USER_CHARGES


@<TRIPOS>ATOM
  1 F       -2.6970     0.2430    -0.8180 F     1 <1>  -0.1900 
  2 C       -2.9680    -0.8920    -0.2120 C.ar  1 <1>   0.1900 
  3 C       -3.0850    -2.0780    -0.9140 C.ar  1 <1>   0.3920 
  4 C       -3.1440    -0.9150     1.1460 C.ar  1 <1>   0.1600 
  5 O       -2.9170    -2.0780    -2.2560 O.3   1 <1>  -0.3630 
  6 N       -3.3600    -3.2120    -0.2970 N.ar  1 <1>  -0.6200 
  7 N       -3.4210    -2.0360     1.7810 N.ar  1 <1>  -0.6200 
  8 C       -2.9930    -3.2760    -3.0040 C.3   1 <1>   0.0400 
  9 C       -3.5050    -3.1200     1.0200 C.ar  1 <1>   0.7200 
 10 N       -3.7950    -4.2480     1.7030 N.pl3 1 <1>  -0.8690 
 11 C       -4.3310    -5.4840     1.0880 C.3   1 <1>   0.2890 
 12 C       -5.8140    -5.3120     0.7970 C.3   1 <1>  -0.0800 
 13 C       -4.3270    -6.6240     2.1090 C.3   1 <1>   0.1200 
 14 C       -6.4360    -5.6970     2.1380 C.3   1 <1>   0.1200 
 15 C       -6.2710    -6.2360    -0.3470 C.3   1 <1>  -0.0160 
 16 O       -5.5980    -6.6640     2.6950 O.3   1 <1>  -0.5600 
 17 C       -7.7490    -6.0560    -0.6550 C.ar  1 <1>  -0.1430 
 18 C       -8.6950    -6.9850    -0.2730 C.ar  1 <1>  -0.1500 
 19 C       -8.2190    -4.9510    -1.3360 C.ar  1 <1>  -0.1500 
 20 C      -10.0290    -6.7700    -0.5790 C.ar  1 <1>   0.1600 
 21 C       -9.5750    -4.8320    -1.5920 C.ar  1 <1>   0.1600 
 22 N      -10.4920    -5.7150    -1.2300 N.ar  1 <1>  -0.6200 
 23 H       -3.0580    -0.0050     1.7140 H     1 <1>   0.1500 
 24 H       -2.8190    -3.0390    -4.0380 H     1 <1>   0.0800 
 25 H       -3.9740    -3.7010    -2.8820 H     1 <1>   0.0800 
 26 H       -2.2400    -3.9570    -2.6490 H     1 <1>   0.0800 
 27 H       -4.0790    -4.0730     2.6670 H     1 <1>   0.4000 
 28 H       -3.7540    -5.7350     0.2140 H     1 <1>   0.0800 
 29 H       -6.0520    -4.2950     0.5390 H     1 <1>   0.0800 
 30 H       -3.5840    -6.4830     2.8740 H     1 <1>   0.0800 
 31 H       -4.1700    -7.5680     1.6190 H     1 <1>   0.0800 
 32 H       -7.4310    -6.0950     2.0520 H     1 <1>   0.0800 
 33 H       -6.4450    -4.8520     2.8060 H     1 <1>   0.0800 
 34 H       -6.0780    -7.2650    -0.0930 H     1 <1>   0.0800 
 35 H       -5.7060    -6.0090    -1.2340 H     1 <1>   0.0800 
 36 H       -8.4100    -7.8730     0.2620 H     1 <1>   0.1500 
 37 H       -7.5460    -4.1830    -1.6680 H     1 <1>   0.1500 
 38 H      -10.7530    -7.5060    -0.2730 H     1 <1>   0.1500 
 39 H       -9.9240    -3.9630    -2.1240 H     1 <1>   0.1500 
@<TRIPOS>BOND
  1   1   2  1   
  2   2   3  ar  
  3   2   4  ar  
  4   3   5  1   
  5   3   6  ar  
  6   4   7  ar  
  7   4  23  1   
  8   5   8  1   
  9   6   9  ar  
 10   7   9  ar  
 11   8  24  1   
 12   8  25  1   
 13   8  26  1   
 14   9  10  1   
 15  10  11  1   
 16  10  27  1   
 17  11  12  1   
 18  11  13  1   
 19  11  28  1   
 20  12  14  1   
 21  12  15  1   
 22  12  29  1   
 23  13  16  1   
 24  13  30  1   
 25  13  31  1   
 26  14  16  1   
 27  14  32  1   
 28  14  33  1   
 29  15  17  1   
 30  15  34  1   
 31  15  35  1   
 32  17  18  ar  
 33  17  19  ar  
 34  18  20  ar  
 35  18  36  1   
 36  19  21  ar  
 37  19  37  1   
 38  20  22  ar  
 39  20  38  1   
 40  21  22  ar  
 41  21  39  1   
@<TRIPOS>SUBSTRUCTURE
  1 ****  12 GROUP 4 **** **** 0

# MOE 2024.06 (io_trps.svl 2023.06)
