@<TRIPOS>MOLECULE
NONAME
30 30 1 0 0 
SMALL
USER_CHARGES


@<TRIPOS>ATOM
  1 O        7.7690    -0.9400     0.1160 O.2   1 <1>  -0.5700 
  2 C        7.7520     0.2640     0.1870 C.2   1 <1>   0.6590 
  3 O        6.6510     0.9780     0.0410 O.3   1 <1>  -0.4300 
  4 C        9.0170     1.0460     0.4610 C.3   1 <1>  -0.0990 
  5 C        5.3990     0.3770    -0.2030 C.3   1 <1>   0.1200 
  6 C       10.2490     0.3480    -0.1230 C.3   1 <1>   0.4230 
  7 C        4.3580     1.4850    -0.3220 C.3   1 <1>  -0.2400 
  8 N       10.4660    -0.9710     0.5200 N.4   1 <1>  -0.9060 
  9 C       11.5180     1.1920     0.0520 C.3   1 <1>  -0.1600 
 10 C       11.5850    -1.7390    -0.0830 C.3   1 <1>   0.3430 
 11 C       12.7550     0.4760    -0.5120 C.3   1 <1>  -0.1600 
 12 C       12.8810    -0.9400     0.0720 C.3   1 <1>  -0.1600 
 13 H        9.1220     1.1930     1.5190 H     1 <1>   0.0800 
 14 H        8.9130     2.0130     0.0020 H     1 <1>   0.0800 
 15 H        5.1680    -0.2820     0.6170 H     1 <1>   0.0800 
 16 H        5.4620    -0.1910    -1.1170 H     1 <1>   0.0800 
 17 H       10.0820     0.1960    -1.1790 H     1 <1>   0.0800 
 18 H        4.3090     2.0500     0.5910 H     1 <1>   0.0800 
 19 H        3.3910     1.0550    -0.5090 H     1 <1>   0.0800 
 20 H        4.6030     2.1410    -1.1390 H     1 <1>   0.0800 
 21 H        9.5760    -1.4990     0.4290 H     1 <1>   0.4500 
 22 H       10.6390    -0.8450     1.5210 H     1 <1>   0.4500 
 23 H       11.6710     1.4140     1.0950 H     1 <1>   0.0800 
 24 H       11.3970     2.1310    -0.4610 H     1 <1>   0.0800 
 25 H       11.3880    -1.9090    -1.1300 H     1 <1>   0.0800 
 26 H       11.6840    -2.6970     0.4030 H     1 <1>   0.0800 
 27 H       13.6420     1.0440    -0.2850 H     1 <1>   0.0800 
 28 H       12.6750     0.4140    -1.5850 H     1 <1>   0.0800 
 29 H       13.6780    -1.4620    -0.4300 H     1 <1>   0.0800 
 30 H       13.1430    -0.8840     1.1150 H     1 <1>   0.0800 
@<TRIPOS>BOND
  1   1   2  2   
  2   2   3  1   
  3   2   4  1   
  4   3   5  1   
  5   4   6  1   
  6   4  13  1   
  7   4  14  1   
  8   5   7  1   
  9   5  15  1   
 10   5  16  1   
 11   6   8  1   
 12   6   9  1   
 13   6  17  1   
 14   7  18  1   
 15   7  19  1   
 16   7  20  1   
 17   8  10  1   
 18   8  21  1   
 19   8  22  1   
 20   9  11  1   
 21   9  23  1   
 22   9  24  1   
 23  10  12  1   
 24  10  25  1   
 25  10  26  1   
 26  11  12  1   
 27  11  27  1   
 28  11  28  1   
 29  12  29  1   
 30  12  30  1   
@<TRIPOS>SUBSTRUCTURE
  1 ****   4 GROUP 4 **** **** 0

# MOE 2024.06 (io_trps.svl 2023.06)
