@<TRIPOS>MOLECULE
NONAME
55 58 1 0 0 
SMALL
USER_CHARGES


@<TRIPOS>ATOM
  1 F       -3.6950    -3.6000    -1.3940 F     1 <1>  -0.1900 
  2 C       -4.2090    -2.4650    -1.0100 C.ar  1 <1>   0.1900 
  3 C       -4.9150    -1.7080    -1.9250 C.ar  1 <1>  -0.1500 
  4 C       -4.0450    -2.0680     0.3030 C.ar  1 <1>  -0.1500 
  5 C       -5.5010    -0.5310    -1.4940 C.ar  1 <1>  -0.1500 
  6 C       -4.6390    -0.8880     0.7160 C.ar  1 <1>  -0.1500 
  7 C       -5.4020    -0.1170    -0.1640 C.ar  1 <1>   0.0540 
  8 C       -6.1000     1.0690     0.2790 C.2   1 <1>   0.2350 
  9 N       -5.9500     2.2450    -0.2600 N.2   1 <1>  -0.7070 
 10 C       -7.0600     1.1120     1.2970 C.2   1 <1>  -0.1810 
 11 N       -6.7630     3.0680     0.4220 N.pl3 1 <1>   0.3000 
 12 C       -7.4560     2.4010     1.3670 C.2   1 <1>  -0.3020 
 13 C       -7.5270    -0.0850     2.0950 C.3   1 <1>   0.5240 
 14 N       -8.6990    -0.7350     1.4200 N.4   1 <1>  -0.9590 
 15 C       -9.0650    -2.0440     2.0330 C.3   1 <1>   0.3430 
 16 C       -8.5670    -0.8760    -0.0340 C.3   1 <1>   0.3430 
 17 C       -9.5300    -3.1820     1.0590 C.3   1 <1>   0.4230 
 18 C       -9.8400    -1.5200    -0.5890 C.3   1 <1>  -0.1600 
 19 N       -8.4850    -4.1950     0.5790 N.4   1 <1>  -0.9590 
 20 C      -10.6080    -2.8420    -0.0800 C.3   1 <1>   0.0000 
 21 C       -9.1200    -5.1820    -0.3540 C.3   1 <1>   0.3430 
 22 C       -7.2000    -3.7180    -0.0240 C.3   1 <1>   0.2630 
 23 C      -11.3900    -4.1900     0.3470 C.3   1 <1>  -0.1600 
 24 C      -11.7530    -2.5390    -1.1590 C.3   1 <1>   0.1200 
 25 C      -10.5590    -5.4760     0.0870 C.3   1 <1>  -0.1600 
 26 O      -12.8020    -1.9320    -0.4780 O.3   1 <1>  -0.6800 
 27 H       -4.9870    -2.0280    -2.9510 H     1 <1>   0.1500 
 28 H       -3.4500    -2.6650     0.9740 H     1 <1>   0.1500 
 29 H       -6.0340     0.0920    -2.1950 H     1 <1>   0.1500 
 30 H       -4.4910    -0.5480     1.7270 H     1 <1>   0.1500 
 31 H       -6.8230     4.0750     0.2140 H     1 <1>   0.2700 
 32 H       -8.1690     2.8900     2.0090 H     1 <1>   0.1500 
 33 H       -7.8060     0.2380     3.0860 H     1 <1>   0.0800 
 34 H       -6.7140    -0.7860     2.1890 H     1 <1>   0.0800 
 35 H       -9.4840    -0.0770     1.5560 H     1 <1>   0.4500 
 36 H       -8.2390    -2.4200     2.6140 H     1 <1>   0.0800 
 37 H       -9.8750    -1.8650     2.7220 H     1 <1>   0.0800 
 38 H       -8.4420     0.0970    -0.4880 H     1 <1>   0.0800 
 39 H       -7.6980    -1.4560    -0.2800 H     1 <1>   0.0800 
 40 H      -10.0320    -3.7570     1.8140 H     1 <1>   0.0800 
 41 H      -10.5230    -0.6810    -0.5710 H     1 <1>   0.0800 
 42 H       -9.5610    -1.6790    -1.6200 H     1 <1>   0.0800 
 43 H       -8.2280    -4.7600     1.4040 H     1 <1>   0.4500 
 44 H       -9.1470    -4.7680    -1.3500 H     1 <1>   0.0800 
 45 H       -8.5470    -6.0960    -0.3880 H     1 <1>   0.0800 
 46 H       -7.3840    -3.2180    -0.9610 H     1 <1>   0.0800 
 47 H       -6.5460    -4.5550    -0.2170 H     1 <1>   0.0800 
 48 H       -6.6910    -3.0420     0.6420 H     1 <1>   0.0800 
 49 H      -11.6960    -4.1460     1.3830 H     1 <1>   0.0800 
 50 H      -12.3600    -4.4130    -0.0750 H     1 <1>   0.0800 
 51 H      -12.1270    -3.4000    -1.6910 H     1 <1>   0.0800 
 52 H      -11.5250    -1.8750    -1.9800 H     1 <1>   0.0800 
 53 H      -11.0300    -6.0510    -0.6920 H     1 <1>   0.0800 
 54 H      -10.5530    -6.0980     0.9670 H     1 <1>   0.0800 
 55 H      -13.5770    -1.7900    -1.0640 H     1 <1>   0.4000 
@<TRIPOS>BOND
  1   1   2  1   
  2   2   3  ar  
  3   2   4  ar  
  4   3   5  ar  
  5   3  27  1   
  6   4   6  ar  
  7   4  28  1   
  8   5   7  ar  
  9   5  29  1   
 10   6   7  ar  
 11   6  30  1   
 12   7   8  1   
 13   8   9  2   
 14   8  10  1   
 15   9  11  1   
 16  10  12  2   
 17  10  13  1   
 18  11  12  1   
 19  11  31  1   
 20  12  32  1   
 21  13  14  1   
 22  13  33  1   
 23  13  34  1   
 24  14  15  1   
 25  14  16  1   
 26  14  35  1   
 27  15  17  1   
 28  15  36  1   
 29  15  37  1   
 30  16  18  1   
 31  16  38  1   
 32  16  39  1   
 33  17  19  1   
 34  17  20  1   
 35  17  40  1   
 36  18  20  1   
 37  18  41  1   
 38  18  42  1   
 39  19  21  1   
 40  19  22  1   
 41  19  43  1   
 42  20  23  1   
 43  20  24  1   
 44  21  25  1   
 45  21  44  1   
 46  21  45  1   
 47  22  46  1   
 48  22  47  1   
 49  22  48  1   
 50  23  25  1   
 51  23  49  1   
 52  23  50  1   
 53  24  26  1   
 54  24  51  1   
 55  24  52  1   
 56  25  53  1   
 57  25  54  1   
 58  26  55  1   
@<TRIPOS>SUBSTRUCTURE
  1 ****  16 GROUP 4 **** **** 0

# MOE 2024.06 (io_trps.svl 2023.06)
