@<TRIPOS>MOLECULE
NONAME
45 46 1 0 0 
SMALL
USER_CHARGES


@<TRIPOS>ATOM
  1 O       -0.3430     0.1860    -0.0710 O.2   1 <1>  -0.5700 
  2 C       -1.4020     0.7670    -0.0260 C.2   1 <1>   0.5690 
  3 N       -2.5860     0.0880    -0.0870 N.am  1 <1>  -0.6600 
  4 C       -1.4200     2.2830     0.0950 C.3   1 <1>  -0.0990 
  5 C       -3.9450     0.6850    -0.0880 C.3   1 <1>   0.1400 
  6 C       -2.6550    -1.3870    -0.1820 C.3   1 <1>   0.1400 
  7 C       -0.0230     2.9120     0.2690 C.3   1 <1>  -0.0990 
  8 C       -4.8910    -0.4940    -0.3160 C.3   1 <1>   0.2000 
  9 C       -4.1140    -1.7390     0.1140 C.3   1 <1>  -0.0800 
 10 C       -0.0410     4.4300     0.3910 C.2   1 <1>   0.5690 
 11 O       -6.0480    -0.3720     0.4370 O.3   1 <1>  -0.6800 
 12 C       -4.5970    -3.0170    -0.5880 C.3   1 <1>  -0.0160 
 13 O       -1.1130     4.9850     0.4680 O.2   1 <1>  -0.5700 
 14 N        1.1400     5.1340     0.4080 N.am  1 <1>  -0.6600 
 15 C       -3.8020    -4.2290    -0.1300 C.ar  1 <1>  -0.1440 
 16 C        1.1510     6.6230     0.4660 C.3   1 <1>   0.0600 
 17 C        2.5000     4.5250     0.3610 C.3   1 <1>   0.0600 
 18 C       -4.1100    -4.8960     1.0380 C.ar  1 <1>  -0.1500 
 19 C       -2.7340    -4.7250    -0.8510 C.ar  1 <1>  -0.1500 
 20 C       -3.3570    -5.9940     1.4190 C.ar  1 <1>   0.1600 
 21 C       -2.0450    -5.8300    -0.3800 C.ar  1 <1>   0.1600 
 22 N       -2.3300    -6.4770     0.7380 N.ar  1 <1>  -0.6200 
 23 H       -1.8780     2.6890    -0.7880 H     1 <1>   0.0800 
 24 H       -2.0270     2.5490     0.9410 H     1 <1>   0.0800 
 25 H       -4.1300     1.1490     0.8650 H     1 <1>   0.0800 
 26 H       -4.0400     1.4070    -0.8800 H     1 <1>   0.0800 
 27 H       -2.3790    -1.6820    -1.1800 H     1 <1>   0.0800 
 28 H       -1.9850    -1.8510     0.5240 H     1 <1>   0.0800 
 29 H        0.5820     2.6450    -0.5780 H     1 <1>   0.0800 
 30 H        0.4330     2.5070     1.1540 H     1 <1>   0.0800 
 31 H       -5.1660    -0.5430    -1.3560 H     1 <1>   0.0800 
 32 H       -4.1990    -1.8630     1.1790 H     1 <1>   0.0800 
 33 H       -5.8330    -0.3440     1.3890 H     1 <1>   0.4000 
 34 H       -4.5090    -2.9080    -1.6550 H     1 <1>   0.0800 
 35 H       -5.6390    -3.1720    -0.3650 H     1 <1>   0.0800 
 36 H        1.7070     7.0160    -0.3670 H     1 <1>   0.0800 
 37 H        1.6100     6.9470     1.3840 H     1 <1>   0.0800 
 38 H        0.1510     7.0200     0.4250 H     1 <1>   0.0800 
 39 H        3.1340     4.9960     1.0920 H     1 <1>   0.0800 
 40 H        2.9250     4.6700    -0.6170 H     1 <1>   0.0800 
 41 H        2.4710     3.4720     0.5750 H     1 <1>   0.0800 
 42 H       -4.9290    -4.5740     1.6550 H     1 <1>   0.1500 
 43 H       -2.4300    -4.2650    -1.7730 H     1 <1>   0.1500 
 44 H       -3.6120    -6.5020     2.3340 H     1 <1>   0.1500 
 45 H       -1.2130    -6.2020    -0.9550 H     1 <1>   0.1500 
@<TRIPOS>BOND
  1   1   2  2   
  2   2   3  am  
  3   2   4  1   
  4   3   5  1   
  5   3   6  1   
  6   4   7  1   
  7   4  23  1   
  8   4  24  1   
  9   5   8  1   
 10   5  25  1   
 11   5  26  1   
 12   6   9  1   
 13   6  27  1   
 14   6  28  1   
 15   7  10  1   
 16   7  29  1   
 17   7  30  1   
 18   8   9  1   
 19   8  11  1   
 20   8  31  1   
 21   9  12  1   
 22   9  32  1   
 23  10  13  2   
 24  10  14  am  
 25  11  33  1   
 26  12  15  1   
 27  12  34  1   
 28  12  35  1   
 29  14  16  1   
 30  14  17  1   
 31  15  18  ar  
 32  15  19  ar  
 33  16  36  1   
 34  16  37  1   
 35  16  38  1   
 36  17  39  1   
 37  17  40  1   
 38  17  41  1   
 39  18  20  ar  
 40  18  42  1   
 41  19  21  ar  
 42  19  43  1   
 43  20  22  ar  
 44  20  44  1   
 45  21  22  ar  
 46  21  45  1   
@<TRIPOS>SUBSTRUCTURE
  1 ****   3 GROUP 4 **** **** 0

# MOE 2024.06 (io_trps.svl 2023.06)
