@<TRIPOS>MOLECULE
NONAME
53 56 1 0 0 
SMALL
USER_CHARGES


@<TRIPOS>ATOM
  1 O       -1.0030     1.1980     2.1610 O.3   1 <1>  -0.5600 
  2 C       -0.2070     1.3390     1.0210 C.3   1 <1>   0.1200 
  3 C       -2.3480     1.4060     1.8400 C.3   1 <1>   0.1200 
  4 C       -0.9590     2.3070     0.1170 C.3   1 <1>   0.2890 
  5 C       -2.3930     1.8740     0.3810 C.3   1 <1>  -0.0800 
  6 N       -0.7330     3.6850     0.6130 N.pl3 1 <1>  -0.8690 
  7 C       -3.4750     2.9340     0.0900 C.3   1 <1>  -0.0170 
  8 C       -0.0110     4.6530    -0.0310 C.ar  1 <1>   0.4100 
  9 C       -4.8720     2.3840     0.3650 C.ar  1 <1>  -0.1430 
 10 N        0.1700     4.4930    -1.3260 N.ar  1 <1>  -0.6200 
 11 C        0.5070     5.7540     0.6460 C.ar  1 <1>  -0.1430 
 12 C       -5.5360     1.5070    -0.5240 C.ar  1 <1>   0.0000 
 13 C       -5.5250     2.7300     1.5120 C.ar  1 <1>  -0.1500 
 14 C        0.8620     5.4310    -1.9360 C.ar  1 <1>   0.4770 
 15 C        1.2120     6.6550    -0.1130 C.ar  1 <1>   0.1600 
 16 C        0.3480     6.0180     2.1490 C.3   1 <1>   0.0630 
 17 C       -6.8170     1.0330    -0.1470 C.ar  1 <1>   0.3100 
 18 C       -5.0090     1.0740    -1.7630 C.ar  1 <1>  -0.1500 
 19 C       -6.7960     2.2120     1.7850 C.ar  1 <1>   0.1600 
 20 N        1.4020     6.5120    -1.4090 N.ar  1 <1>  -0.6200 
 21 C        1.0710     5.2530    -3.4200 C.3   1 <1>  -0.0970 
 22 C        1.0300     4.9430     3.0060 C.3   1 <1>  -0.2400 
 23 C       -1.1180     6.2120     2.5560 C.3   1 <1>  -0.2400 
 24 N       -7.4310     1.3940     1.0080 N.ar  1 <1>  -0.6200 
 25 C       -7.4930     0.1470    -1.0010 C.ar  1 <1>  -0.1500 
 26 C       -5.6960     0.2120    -2.5750 C.ar  1 <1>  -0.1500 
 27 C       -6.9520    -0.2610    -2.1900 C.ar  1 <1>  -0.1500 
 28 H        0.7670     1.7030     1.2970 H     1 <1>   0.0800 
 29 H       -0.1210     0.3720     0.5560 H     1 <1>   0.0800 
 30 H       -2.8900     0.4870     1.9810 H     1 <1>   0.0800 
 31 H       -2.7280     2.1580     2.5090 H     1 <1>   0.0800 
 32 H       -0.6770     2.2010    -0.9160 H     1 <1>   0.0800 
 33 H       -2.5900     1.0080    -0.2230 H     1 <1>   0.0800 
 34 H       -0.7280     3.7260     1.6340 H     1 <1>   0.4000 
 35 H       -3.4000     3.2680    -0.9300 H     1 <1>   0.0800 
 36 H       -3.3120     3.8000     0.7070 H     1 <1>   0.0800 
 37 H       -5.0870     3.3980     2.2310 H     1 <1>   0.1500 
 38 H        1.6410     7.5300     0.3430 H     1 <1>   0.1500 
 39 H        0.8490     6.9450     2.3730 H     1 <1>   0.0800 
 40 H       -4.0480     1.4310    -2.0810 H     1 <1>   0.1500 
 41 H       -7.2740     2.5120     2.7020 H     1 <1>   0.1500 
 42 H        2.1010     5.0190    -3.6070 H     1 <1>   0.0800 
 43 H        0.8170     6.1630    -3.9300 H     1 <1>   0.0800 
 44 H        0.4540     4.4580    -3.7950 H     1 <1>   0.0800 
 45 H        0.5330     3.9940     2.9300 H     1 <1>   0.0800 
 46 H        1.0290     5.2400     4.0390 H     1 <1>   0.0800 
 47 H        2.0510     4.8180     2.6910 H     1 <1>   0.0800 
 48 H       -1.6830     5.3050     2.4500 H     1 <1>   0.0800 
 49 H       -1.5710     6.9680     1.9380 H     1 <1>   0.0800 
 50 H       -1.1790     6.5310     3.5810 H     1 <1>   0.0800 
 51 H       -8.4590    -0.2000    -0.6860 H     1 <1>   0.1500 
 52 H       -5.2820    -0.1110    -3.5150 H     1 <1>   0.1500 
 53 H       -7.4830    -0.9400    -2.8350 H     1 <1>   0.1500 
@<TRIPOS>BOND
  1   1   2  1   
  2   1   3  1   
  3   2   4  1   
  4   2  28  1   
  5   2  29  1   
  6   3   5  1   
  7   3  30  1   
  8   3  31  1   
  9   4   5  1   
 10   4   6  1   
 11   4  32  1   
 12   5   7  1   
 13   5  33  1   
 14   6   8  1   
 15   6  34  1   
 16   7   9  1   
 17   7  35  1   
 18   7  36  1   
 19   8  10  ar  
 20   8  11  ar  
 21   9  12  ar  
 22   9  13  ar  
 23  10  14  ar  
 24  11  15  ar  
 25  11  16  1   
 26  12  17  ar  
 27  12  18  ar  
 28  13  19  ar  
 29  13  37  1   
 30  14  20  ar  
 31  14  21  1   
 32  15  20  ar  
 33  15  38  1   
 34  16  22  1   
 35  16  23  1   
 36  16  39  1   
 37  17  24  ar  
 38  17  25  ar  
 39  18  26  ar  
 40  18  40  1   
 41  19  24  ar  
 42  19  41  1   
 43  21  42  1   
 44  21  43  1   
 45  21  44  1   
 46  22  45  1   
 47  22  46  1   
 48  22  47  1   
 49  23  48  1   
 50  23  49  1   
 51  23  50  1   
 52  25  27  ar  
 53  25  51  1   
 54  26  27  ar  
 55  26  52  1   
 56  27  53  1   
@<TRIPOS>SUBSTRUCTURE
  1 ****   7 GROUP 4 **** **** 0

# MOE 2024.06 (io_trps.svl 2023.06)
