@<TRIPOS>MOLECULE
NONAME
51 53 1 0 0 
SMALL
USER_CHARGES


@<TRIPOS>ATOM
  1 O       -0.2200     0.4330     0.1800 O.2   1 <1>  -0.5700 
  2 C       -1.2520     1.0050    -0.0830 C.2   1 <1>   0.5690 
  3 N       -2.3370     0.3310    -0.5900 N.am  1 <1>  -0.6600 
  4 C       -1.3180     2.5080     0.1530 C.3   1 <1>  -0.0990 
  5 C       -2.3050    -1.1540    -0.7700 C.3   1 <1>   0.1400 
  6 C       -3.6300     0.9520    -0.9900 C.3   1 <1>   0.1400 
  7 C       -0.0990     3.0790     0.9030 C.3   1 <1>  -0.0990 
  8 C       -3.4490    -1.8100     0.0180 C.3   1 <1>   0.2000 
  9 C       -4.7680     0.3370    -0.1680 C.3   1 <1>  -0.1600 
 10 C       -0.1910     4.5840     1.0480 C.2   1 <1>   0.5690 
 11 O       -3.4740    -3.1690    -0.2580 O.3   1 <1>  -0.6800 
 12 C       -4.8240    -1.2000    -0.3210 C.3   1 <1>  -0.0800 
 13 O       -1.1270     5.0380     1.6580 O.2   1 <1>  -0.5700 
 14 N        0.7940     5.3350     0.4700 N.am  1 <1>  -0.5470 
 15 C       -5.9220    -1.8350     0.5500 C.3   1 <1>   0.1200 
 16 C        0.9950     6.7230     0.3890 C.ar  1 <1>   0.1170 
 17 O       -7.1570    -1.3040     0.2130 O.3   1 <1>  -0.6800 
 18 C        2.2370     7.1790    -0.0470 C.ar  1 <1>  -0.1500 
 19 C        0.0150     7.6640     0.7100 C.ar  1 <1>  -0.1500 
 20 C        2.4780     8.5350    -0.1520 C.ar  1 <1>  -0.1440 
 21 C        0.2630     9.0230     0.6030 C.ar  1 <1>  -0.1500 
 22 C        1.5050     9.4460     0.1690 C.ar  1 <1>  -0.1440 
 23 C        3.7450     9.2230    -0.5970 C.3   1 <1>  -0.0170 
 24 C        1.9900    10.8610    -0.0200 C.3   1 <1>  -0.0170 
 25 C        3.3070    10.6850    -0.7970 C.3   1 <1>  -0.1600 
 26 H       -1.4040     2.9950    -0.8010 H     1 <1>   0.0800 
 27 H       -2.1980     2.7270     0.7280 H     1 <1>   0.0800 
 28 H       -2.4070    -1.3740    -1.8180 H     1 <1>   0.0800 
 29 H       -1.3690    -1.5590    -0.4260 H     1 <1>   0.0800 
 30 H       -3.6190     2.0170    -0.8490 H     1 <1>   0.0800 
 31 H       -3.7970     0.7640    -2.0370 H     1 <1>   0.0800 
 32 H        0.8030     2.8170     0.3810 H     1 <1>   0.0800 
 33 H       -0.0490     2.6450     1.8860 H     1 <1>   0.0800 
 34 H       -3.2460    -1.7030     1.0700 H     1 <1>   0.0800 
 35 H       -4.6320     0.6010     0.8670 H     1 <1>   0.0800 
 36 H       -5.6940     0.7720    -0.5000 H     1 <1>   0.0800 
 37 H       -3.7060    -3.3290    -1.1930 H     1 <1>   0.4000 
 38 H       -5.0420    -1.4240    -1.3510 H     1 <1>   0.0800 
 39 H        1.5370     4.7910     0.0380 H     1 <1>   0.3700 
 40 H       -5.7460    -1.6530     1.5970 H     1 <1>   0.0800 
 41 H       -5.9700    -2.8980     0.3860 H     1 <1>   0.0800 
 42 H       -7.2200    -0.3730     0.4960 H     1 <1>   0.4000 
 43 H        3.0120     6.4820    -0.3000 H     1 <1>   0.1500 
 44 H       -0.9530     7.3430     1.0440 H     1 <1>   0.1500 
 45 H       -0.5000     9.7370     0.8560 H     1 <1>   0.1500 
 46 H        4.4830     9.1510     0.1820 H     1 <1>   0.0800 
 47 H        4.1280     8.7980    -1.5080 H     1 <1>   0.0800 
 48 H        1.2810    11.4520    -0.5710 H     1 <1>   0.0800 
 49 H        2.1720    11.3080     0.9420 H     1 <1>   0.0800 
 50 H        4.0610    11.3770    -0.4670 H     1 <1>   0.0800 
 51 H        3.1140    10.8480    -1.8430 H     1 <1>   0.0800 
@<TRIPOS>BOND
  1   1   2  2   
  2   2   3  am  
  3   2   4  1   
  4   3   5  1   
  5   3   6  1   
  6   4   7  1   
  7   4  26  1   
  8   4  27  1   
  9   5   8  1   
 10   5  28  1   
 11   5  29  1   
 12   6   9  1   
 13   6  30  1   
 14   6  31  1   
 15   7  10  1   
 16   7  32  1   
 17   7  33  1   
 18   8  11  1   
 19   8  12  1   
 20   8  34  1   
 21   9  12  1   
 22   9  35  1   
 23   9  36  1   
 24  10  13  2   
 25  10  14  am  
 26  11  37  1   
 27  12  15  1   
 28  12  38  1   
 29  14  16  1   
 30  14  39  1   
 31  15  17  1   
 32  15  40  1   
 33  15  41  1   
 34  16  18  ar  
 35  16  19  ar  
 36  17  42  1   
 37  18  20  ar  
 38  18  43  1   
 39  19  21  ar  
 40  19  44  1   
 41  20  22  ar  
 42  20  23  1   
 43  21  22  ar  
 44  21  45  1   
 45  22  24  1   
 46  23  25  1   
 47  23  46  1   
 48  23  47  1   
 49  24  25  1   
 50  24  48  1   
 51  24  49  1   
 52  25  50  1   
 53  25  51  1   
@<TRIPOS>SUBSTRUCTURE
  1 ****   4 GROUP 4 **** **** 0

# MOE 2024.06 (io_trps.svl 2023.06)
