@<TRIPOS>MOLECULE
NONAME
50 52 1 0 0 
SMALL
USER_CHARGES


@<TRIPOS>ATOM
  1 O        1.4390     0.1130     1.1100 O.3   1 <1>  -0.6800 
  2 C        1.5760    -0.1180    -0.2570 C.3   1 <1>   0.2000 
  3 C        2.2910    -1.4490    -0.4890 C.3   1 <1>  -0.0800 
  4 C        2.5860     0.8870    -0.8170 C.3   1 <1>   0.3430 
  5 C        3.7710    -1.1280    -0.2490 C.3   1 <1>   0.3430 
  6 C        1.7940    -2.6480     0.3400 C.3   1 <1>  -0.0160 
  7 N        3.9350     0.3430    -0.4590 N.4   1 <1>  -0.9590 
  8 C        2.6880    -3.8540     0.1010 C.ar  1 <1>  -0.1430 
  9 C        4.4580     1.0040     0.7680 C.3   1 <1>   0.4860 
 10 C        3.5800    -4.3020     1.0550 C.ar  1 <1>  -0.1500 
 11 C        2.6590    -4.5580    -1.0870 C.ar  1 <1>  -0.1500 
 12 C        4.7770     2.4460     0.4290 C.ar  1 <1>  -0.1430 
 13 C        4.3910    -5.3900     0.7760 C.ar  1 <1>   0.1600 
 14 C        3.5150    -5.6330    -1.2660 C.ar  1 <1>   0.1600 
 15 C        5.9060     2.8020    -0.3010 C.ar  1 <1>  -0.1430 
 16 C        3.9000     3.4310     0.8590 C.ar  1 <1>  -0.1500 
 17 N        4.3860    -6.0550    -0.3660 N.ar  1 <1>  -0.6200 
 18 C        6.1150     4.1380    -0.6050 C.ar  1 <1>  -0.1500 
 19 C        6.9380     1.7870    -0.7770 C.3   1 <1>  -0.0970 
 20 C        4.1150     4.7640     0.5560 C.ar  1 <1>  -0.1430 
 21 C        5.2310     5.1200    -0.1880 C.ar  1 <1>  -0.1430 
 22 C        3.1230     5.8090     1.0490 C.3   1 <1>  -0.0970 
 23 C        5.5150     6.5710    -0.5520 C.3   1 <1>  -0.0970 
 24 H        0.6210    -0.3010     1.4590 H     1 <1>   0.4000 
 25 H        0.6110    -0.0440    -0.7280 H     1 <1>   0.0800 
 26 H        2.1880    -1.7010    -1.5300 H     1 <1>   0.0800 
 27 H        2.4170     1.8750    -0.4210 H     1 <1>   0.0800 
 28 H        2.4880     0.9220    -1.8890 H     1 <1>   0.0800 
 29 H        4.3960    -1.6960    -0.9200 H     1 <1>   0.0800 
 30 H        4.0280    -1.3850     0.7660 H     1 <1>   0.0800 
 31 H        0.7830    -2.8940     0.0630 H     1 <1>   0.0800 
 32 H        1.7970    -2.4150     1.3910 H     1 <1>   0.0800 
 33 H        4.5990     0.5630    -1.2120 H     1 <1>   0.4500 
 34 H        3.7230     0.9620     1.5550 H     1 <1>   0.0800 
 35 H        5.3530     0.5110     1.1080 H     1 <1>   0.0800 
 36 H        3.6550    -3.8280     2.0170 H     1 <1>   0.1500 
 37 H        1.9810    -4.2910    -1.8760 H     1 <1>   0.1500 
 38 H        5.0800    -5.7320     1.5300 H     1 <1>   0.1500 
 39 H        3.4810    -6.1740    -2.1970 H     1 <1>   0.1500 
 40 H        3.0350     3.1620     1.4410 H     1 <1>   0.1500 
 41 H        6.9830     4.4230    -1.1740 H     1 <1>   0.1500 
 42 H        7.8640     2.2790    -1.0170 H     1 <1>   0.0800 
 43 H        6.5920     1.2850    -1.6620 H     1 <1>   0.0800 
 44 H        7.1510     1.0630    -0.0120 H     1 <1>   0.0800 
 45 H        2.3280     5.3580     1.6140 H     1 <1>   0.0800 
 46 H        2.6900     6.3310     0.2150 H     1 <1>   0.0800 
 47 H        3.6230     6.5190     1.6830 H     1 <1>   0.0800 
 48 H        6.4120     6.6570    -1.1370 H     1 <1>   0.0800 
 49 H        5.6390     7.1570     0.3410 H     1 <1>   0.0800 
 50 H        4.7000     6.9750    -1.1260 H     1 <1>   0.0800 
@<TRIPOS>BOND
  1   1   2  1   
  2   1  24  1   
  3   2   3  1   
  4   2   4  1   
  5   2  25  1   
  6   3   5  1   
  7   3   6  1   
  8   3  26  1   
  9   4   7  1   
 10   4  27  1   
 11   4  28  1   
 12   5   7  1   
 13   5  29  1   
 14   5  30  1   
 15   6   8  1   
 16   6  31  1   
 17   6  32  1   
 18   7   9  1   
 19   7  33  1   
 20   8  10  ar  
 21   8  11  ar  
 22   9  12  1   
 23   9  34  1   
 24   9  35  1   
 25  10  13  ar  
 26  10  36  1   
 27  11  14  ar  
 28  11  37  1   
 29  12  15  ar  
 30  12  16  ar  
 31  13  17  ar  
 32  13  38  1   
 33  14  17  ar  
 34  14  39  1   
 35  15  18  ar  
 36  15  19  1   
 37  16  20  ar  
 38  16  40  1   
 39  18  21  ar  
 40  18  41  1   
 41  19  42  1   
 42  19  43  1   
 43  19  44  1   
 44  20  21  ar  
 45  20  22  1   
 46  21  23  1   
 47  22  45  1   
 48  22  46  1   
 49  22  47  1   
 50  23  48  1   
 51  23  49  1   
 52  23  50  1   
@<TRIPOS>SUBSTRUCTURE
  1 ****   7 GROUP 4 **** **** 0

# MOE 2024.06 (io_trps.svl 2023.06)
