@<TRIPOS>MOLECULE
NONAME
53 55 1 0 0 
SMALL
USER_CHARGES


@<TRIPOS>ATOM
  1 O       -1.2120    -0.0230     1.4690 O.2   1 <1>  -0.5700 
  2 C       -2.0710     0.6960     0.9920 C.2   1 <1>   0.5440 
  3 N       -1.7460     2.0040     0.6990 N.am  1 <1>  -0.6600 
  4 C       -3.3840     0.1410     0.7440 C.ar  1 <1>   0.0860 
  5 C       -2.3290     2.7690    -0.4450 C.3   1 <1>   0.1400 
  6 C       -0.5420     2.6660     1.2910 C.3   1 <1>   0.1400 
  7 C       -3.5220    -1.1930     0.3700 C.ar  1 <1>   0.1600 
  8 C       -4.5610     0.8700     0.8790 C.ar  1 <1>  -0.1500 
  9 C       -1.2300     3.1860    -1.4390 C.3   1 <1>   0.1200 
 10 C        0.4500     3.0740     0.1910 C.3   1 <1>   0.1200 
 11 N       -4.6580    -1.8260     0.1150 N.ar  1 <1>  -0.6200 
 12 C       -5.7510     0.2350     0.6200 C.ar  1 <1>  -0.1500 
 13 O       -0.1890     3.8520    -0.7820 O.3   1 <1>  -0.5600 
 14 C       -5.7750    -1.1100     0.2480 C.ar  1 <1>   0.4100 
 15 N       -6.9710    -1.7670     0.0020 N.pl3 1 <1>  -0.8380 
 16 C       -6.9740    -3.0080    -0.8220 C.3   1 <1>   0.2090 
 17 C       -8.2240    -1.3940     0.7290 C.3   1 <1>   0.2090 
 18 C       -6.6120    -4.2140     0.0760 C.3   1 <1>   0.4230 
 19 C       -9.1570    -2.5750     1.0510 C.3   1 <1>  -0.1600 
 20 N       -5.8950    -5.3240    -0.6420 N.4   1 <1>  -0.9590 
 21 C       -7.8350    -4.7800     0.8110 C.3   1 <1>  -0.1600 
 22 C       -8.4920    -3.7670     1.7660 C.3   1 <1>  -0.1600 
 23 C       -4.5000    -4.8800    -0.9600 C.3   1 <1>   0.2630 
 24 C       -6.6000    -5.8230    -1.8650 C.3   1 <1>   0.2630 
 25 H       -2.8160     3.6520    -0.0700 H     1 <1>   0.0800 
 26 H       -3.0580     2.1760    -0.9660 H     1 <1>   0.0800 
 27 H       -0.0510     2.0120     1.9900 H     1 <1>   0.0800 
 28 H       -0.8520     3.5450     1.8280 H     1 <1>   0.0800 
 29 H       -2.6150    -1.7670     0.2790 H     1 <1>   0.1500 
 30 H       -4.5330     1.9020     1.1840 H     1 <1>   0.1500 
 31 H       -1.6320     3.8560    -2.1790 H     1 <1>   0.0800 
 32 H       -0.8240     2.3230    -1.9390 H     1 <1>   0.0800 
 33 H        0.8700     2.2020    -0.2790 H     1 <1>   0.0800 
 34 H        1.2480     3.6600     0.6100 H     1 <1>   0.0800 
 35 H       -6.6720     0.7790     0.7010 H     1 <1>   0.1500 
 36 H       -6.2440    -2.8910    -1.6020 H     1 <1>   0.0800 
 37 H       -7.9320    -3.1420    -1.2910 H     1 <1>   0.0800 
 38 H       -8.7630    -0.6710     0.1400 H     1 <1>   0.0800 
 39 H       -7.9560    -0.9220     1.6600 H     1 <1>   0.0800 
 40 H       -5.9390    -3.8350     0.8280 H     1 <1>   0.0800 
 41 H       -9.6660    -2.8990     0.1600 H     1 <1>   0.0800 
 42 H       -9.9220    -2.1890     1.7020 H     1 <1>   0.0800 
 43 H       -5.8220    -6.0980     0.0330 H     1 <1>   0.4500 
 44 H       -7.5230    -5.6240     1.4010 H     1 <1>   0.0800 
 45 H       -8.5720    -5.1190     0.1040 H     1 <1>   0.0800 
 46 H       -9.2550    -4.2870     2.3210 H     1 <1>   0.0800 
 47 H       -7.7720    -3.4060     2.4820 H     1 <1>   0.0800 
 48 H       -4.5140    -4.0610    -1.6610 H     1 <1>   0.0800 
 49 H       -3.9310    -5.6910    -1.3840 H     1 <1>   0.0800 
 50 H       -4.0040    -4.5410    -0.0630 H     1 <1>   0.0800 
 51 H       -6.6790    -5.0390    -2.6000 H     1 <1>   0.0800 
 52 H       -7.5910    -6.1650    -1.6140 H     1 <1>   0.0800 
 53 H       -6.0550    -6.6460    -2.2990 H     1 <1>   0.0800 
@<TRIPOS>BOND
  1   1   2  2   
  2   2   3  am  
  3   2   4  1   
  4   3   5  1   
  5   3   6  1   
  6   4   7  ar  
  7   4   8  ar  
  8   5   9  1   
  9   5  25  1   
 10   5  26  1   
 11   6  10  1   
 12   6  27  1   
 13   6  28  1   
 14   7  11  ar  
 15   7  29  1   
 16   8  12  ar  
 17   8  30  1   
 18   9  13  1   
 19   9  31  1   
 20   9  32  1   
 21  10  13  1   
 22  10  33  1   
 23  10  34  1   
 24  11  14  ar  
 25  12  14  ar  
 26  12  35  1   
 27  14  15  1   
 28  15  16  1   
 29  15  17  1   
 30  16  18  1   
 31  16  36  1   
 32  16  37  1   
 33  17  19  1   
 34  17  38  1   
 35  17  39  1   
 36  18  20  1   
 37  18  21  1   
 38  18  40  1   
 39  19  22  1   
 40  19  41  1   
 41  19  42  1   
 42  20  23  1   
 43  20  24  1   
 44  20  43  1   
 45  21  22  1   
 46  21  44  1   
 47  21  45  1   
 48  22  46  1   
 49  22  47  1   
 50  23  48  1   
 51  23  49  1   
 52  23  50  1   
 53  24  51  1   
 54  24  52  1   
 55  24  53  1   
@<TRIPOS>SUBSTRUCTURE
  1 ****  11 GROUP 4 **** **** 0

# MOE 2024.06 (io_trps.svl 2023.06)
