@<TRIPOS>MOLECULE
NONAME
52 56 1 0 0 
SMALL
USER_CHARGES


@<TRIPOS>ATOM
  1 O       -3.8380     1.8510     0.7800 O.2   1 <1>  -0.5700 
  2 C       -3.1090     1.6790    -0.1680 C.2   1 <1>   0.5690 
  3 N       -3.0560     0.4670    -0.8070 N.am  1 <1>  -0.6600 
  4 C       -2.2740     2.8680    -0.6130 C.3   1 <1>   0.1570 
  5 C       -2.2480     0.0980    -2.0040 C.3   1 <1>   0.1400 
  6 C       -3.6330    -0.7570    -0.1920 C.3   1 <1>   0.1400 
  7 N       -0.8390     2.5370    -0.7550 N.pl3 1 <1>   0.0480 
  8 C       -2.6190    -1.3560    -2.2900 C.3   1 <1>   0.2000 
  9 C       -2.9600    -1.9330    -0.9150 C.3   1 <1>  -0.0800 
 10 C       -0.0920     2.7450    -1.8750 C.ar  1 <1>  -0.1520 
 11 C       -0.0250     1.8560     0.1030 C.2   1 <1>   0.1010 
 12 O       -3.7700    -1.3740    -3.0630 O.3   1 <1>  -0.6800 
 13 C       -1.6800    -2.4050    -0.1910 C.3   1 <1>  -0.0160 
 14 C        1.1350     2.1660    -1.6120 C.ar  1 <1>   0.2270 
 15 C       -0.3420     3.3680    -3.1020 C.ar  1 <1>  -0.1500 
 16 N        1.1480     1.6150    -0.3700 N.2   1 <1>  -0.5650 
 17 C       -0.4730     1.4050     1.4860 C.3   1 <1>  -0.0150 
 18 C       -1.9810    -3.0200     1.1660 C.ar  1 <1>   0.1670 
 19 C        2.1450     2.1950    -2.5710 C.ar  1 <1>  -0.1500 
 20 C        0.6610     3.3920    -4.0470 C.ar  1 <1>  -0.1500 
 21 C       -0.7980     2.4170     2.5410 C.3   1 <1>  -0.2000 
 22 C        0.4310     1.5700     2.6680 C.3   1 <1>  -0.2000 
 23 N       -1.8400    -2.2280     2.2180 N.ar  1 <1>  -0.6200 
 24 C       -2.3770    -4.3470     1.2430 C.ar  1 <1>  -0.1500 
 25 C        1.9050     2.8060    -3.7830 C.ar  1 <1>  -0.1500 
 26 C       -2.1080    -2.7780     3.3920 C.ar  1 <1>   0.1600 
 27 C       -2.6530    -4.9070     2.4720 C.ar  1 <1>  -0.1500 
 28 C       -2.5110    -4.0900     3.5720 C.ar  1 <1>  -0.1500 
 29 H       -2.3680     3.6530     0.1130 H     1 <1>   0.0800 
 30 H       -2.6570     3.2230    -1.5490 H     1 <1>   0.0800 
 31 H       -2.4530     0.7380    -2.8450 H     1 <1>   0.0800 
 32 H       -1.2010     0.1440    -1.7610 H     1 <1>   0.0800 
 33 H       -3.4640    -0.7670     0.8710 H     1 <1>   0.0800 
 34 H       -4.6950    -0.7670    -0.3700 H     1 <1>   0.0800 
 35 H       -1.8490    -1.8960    -2.8150 H     1 <1>   0.0800 
 36 H       -3.6330    -2.7680    -1.0010 H     1 <1>   0.0800 
 37 H       -4.4410    -0.7990    -2.6460 H     1 <1>   0.4000 
 38 H       -0.9970    -1.5840    -0.0570 H     1 <1>   0.0800 
 39 H       -1.1800    -3.1400    -0.7950 H     1 <1>   0.0800 
 40 H       -1.2950     3.8220    -3.3060 H     1 <1>   0.1500 
 41 H       -1.0540     0.4980     1.4570 H     1 <1>   0.1000 
 42 H        3.0890     1.7390    -2.3390 H     1 <1>   0.1500 
 43 H        0.4990     3.8650    -5.0000 H     1 <1>   0.1500 
 44 H       -0.6720     3.4620     2.3210 H     1 <1>   0.1000 
 45 H       -1.6430     2.2240     3.1790 H     1 <1>   0.1000 
 46 H        0.4560     0.7790     3.3960 H     1 <1>   0.1000 
 47 H        1.3980     2.0100     2.5000 H     1 <1>   0.1000 
 48 H       -2.4710    -4.9380     0.3510 H     1 <1>   0.1500 
 49 H        2.6740     2.8390    -4.5350 H     1 <1>   0.1500 
 50 H       -1.9990    -2.1470     4.2580 H     1 <1>   0.1500 
 51 H       -2.9630    -5.9330     2.5680 H     1 <1>   0.1500 
 52 H       -2.7090    -4.4620     4.5600 H     1 <1>   0.1500 
@<TRIPOS>BOND
  1   1   2  2   
  2   2   3  am  
  3   2   4  1   
  4   3   5  1   
  5   3   6  1   
  6   4   7  1   
  7   4  29  1   
  8   4  30  1   
  9   5   8  1   
 10   5  31  1   
 11   5  32  1   
 12   6   9  1   
 13   6  33  1   
 14   6  34  1   
 15   7  10  1   
 16   7  11  1   
 17   8   9  1   
 18   8  12  1   
 19   8  35  1   
 20   9  13  1   
 21   9  36  1   
 22  10  14  ar  
 23  10  15  ar  
 24  11  16  2   
 25  11  17  1   
 26  12  37  1   
 27  13  18  1   
 28  13  38  1   
 29  13  39  1   
 30  14  16  1   
 31  14  19  ar  
 32  15  20  ar  
 33  15  40  1   
 34  17  21  1   
 35  17  22  1   
 36  17  41  1   
 37  18  23  ar  
 38  18  24  ar  
 39  19  25  ar  
 40  19  42  1   
 41  20  25  ar  
 42  20  43  1   
 43  21  22  1   
 44  21  44  1   
 45  21  45  1   
 46  22  46  1   
 47  22  47  1   
 48  23  26  ar  
 49  24  27  ar  
 50  24  48  1   
 51  25  49  1   
 52  26  28  ar  
 53  26  50  1   
 54  27  28  ar  
 55  27  51  1   
 56  28  52  1   
@<TRIPOS>SUBSTRUCTURE
  1 ****   3 GROUP 4 **** **** 0

# MOE 2024.06 (io_trps.svl 2023.06)
