@<TRIPOS>MOLECULE
NONAME
55 59 1 0 0 
SMALL
USER_CHARGES


@<TRIPOS>ATOM
  1 O       -0.2810     0.1790     1.2520 O.2   1 <1>  -0.5700 
  2 C       -1.2830     0.6450     0.7630 C.2   1 <1>   0.5690 
  3 N       -2.4370    -0.0940     0.6750 N.am  1 <1>  -0.6600 
  4 C       -1.2620     2.0880     0.2600 C.3   1 <1>  -0.0990 
  5 C       -2.4850    -1.4540     1.2970 C.3   1 <1>   0.1400 
  6 C       -3.6950     0.3930     0.0270 C.3   1 <1>   0.1400 
  7 C        0.0840     2.8360     0.3900 C.3   1 <1>  -0.0800 
  8 C       -3.8980    -1.7870     1.7760 C.3   1 <1>  -0.1600 
  9 C       -4.5010    -0.7910    -0.4990 C.3   1 <1>  -0.1600 
 10 C       -0.1230     4.3410     0.1430 C.3   1 <1>   0.1200 
 11 C        1.1430     2.2900    -0.5870 C.3   1 <1>  -0.1600 
 12 C       -4.9460    -1.7060     0.6520 C.3   1 <1>   0.4600 
 13 O        1.0950     5.0170     0.2330 O.3   1 <1>  -0.5600 
 14 C        2.4000     3.1660    -0.5350 C.3   1 <1>  -0.1600 
 15 O       -6.0900    -1.1380     1.2510 O.3   1 <1>  -0.5600 
 16 C       -5.2800    -3.1030     0.1350 C.2   1 <1>  -0.3320 
 17 C        2.0430     4.6450    -0.7190 C.3   1 <1>   0.1200 
 18 C       -7.3520    -1.3930     0.6790 C.3   1 <1>   0.1200 
 19 N       -4.4030    -3.9980    -0.4160 N.pl3 1 <1>   0.0330 
 20 C       -6.5110    -3.6500     0.1650 C.2   1 <1>  -0.1810 
 21 C       -7.6910    -2.8910     0.7150 C.3   1 <1>   0.0210 
 22 C       -5.1030    -5.1360    -0.7350 C.ar  1 <1>  -0.1520 
 23 C       -6.4360    -4.9500    -0.3780 C.ar  1 <1>   0.0000 
 24 C       -4.6780    -6.3340    -1.3150 C.ar  1 <1>  -0.1500 
 25 C       -7.3620    -5.9740    -0.5990 C.ar  1 <1>  -0.1500 
 26 C       -5.6000    -7.3340    -1.5280 C.ar  1 <1>  -0.1500 
 27 C       -6.9420    -7.1540    -1.1700 C.ar  1 <1>  -0.1500 
 28 H       -2.0050     2.6230     0.8220 H     1 <1>   0.0800 
 29 H       -1.5550     2.0980    -0.7730 H     1 <1>   0.0800 
 30 H       -1.8110    -1.4960     2.1370 H     1 <1>   0.0800 
 31 H       -2.1570    -2.1800     0.5730 H     1 <1>   0.0800 
 32 H       -3.4680     1.0480    -0.7940 H     1 <1>   0.0800 
 33 H       -4.2800     0.9370     0.7510 H     1 <1>   0.0800 
 34 H        0.4420     2.7210     1.4000 H     1 <1>   0.0800 
 35 H       -4.1470    -1.0900     2.5570 H     1 <1>   0.0800 
 36 H       -3.9070    -2.7700     2.2110 H     1 <1>   0.0800 
 37 H       -3.8810    -1.3380    -1.1850 H     1 <1>   0.0800 
 38 H       -5.3520    -0.4440    -1.0520 H     1 <1>   0.0800 
 39 H       -0.7770     4.7580     0.8890 H     1 <1>   0.0800 
 40 H       -0.5410     4.5240    -0.8320 H     1 <1>   0.0800 
 41 H        0.7520     2.2960    -1.5890 H     1 <1>   0.0800 
 42 H        1.4050     1.2770    -0.3340 H     1 <1>   0.0800 
 43 H        3.0900     2.8620    -1.3010 H     1 <1>   0.0800 
 44 H        2.8890     3.0450     0.4160 H     1 <1>   0.0800 
 45 H        2.9120     5.2640    -0.5750 H     1 <1>   0.0800 
 46 H        1.6380     4.8300    -1.6990 H     1 <1>   0.0800 
 47 H       -7.3470    -1.0390    -0.3370 H     1 <1>   0.0800 
 48 H       -8.0830    -0.8340     1.2360 H     1 <1>   0.0800 
 49 H       -3.4000    -3.8650    -0.5680 H     1 <1>   0.2700 
 50 H       -8.5650    -3.0800     0.1180 H     1 <1>   0.0800 
 51 H       -7.8860    -3.2020     1.7250 H     1 <1>   0.0800 
 52 H       -3.6460    -6.4650    -1.5860 H     1 <1>   0.1500 
 53 H       -8.3870    -5.8220    -0.3190 H     1 <1>   0.1500 
 54 H       -5.2980    -8.2660    -1.9730 H     1 <1>   0.1500 
 55 H       -7.6420    -7.9510    -1.3470 H     1 <1>   0.1500 
@<TRIPOS>BOND
  1   1   2  2   
  2   2   3  am  
  3   2   4  1   
  4   3   5  1   
  5   3   6  1   
  6   4   7  1   
  7   4  28  1   
  8   4  29  1   
  9   5   8  1   
 10   5  30  1   
 11   5  31  1   
 12   6   9  1   
 13   6  32  1   
 14   6  33  1   
 15   7  10  1   
 16   7  11  1   
 17   7  34  1   
 18   8  12  1   
 19   8  35  1   
 20   8  36  1   
 21   9  12  1   
 22   9  37  1   
 23   9  38  1   
 24  10  13  1   
 25  10  39  1   
 26  10  40  1   
 27  11  14  1   
 28  11  41  1   
 29  11  42  1   
 30  12  15  1   
 31  12  16  1   
 32  13  17  1   
 33  14  17  1   
 34  14  43  1   
 35  14  44  1   
 36  15  18  1   
 37  16  19  1   
 38  16  20  2   
 39  17  45  1   
 40  17  46  1   
 41  18  21  1   
 42  18  47  1   
 43  18  48  1   
 44  19  22  1   
 45  19  49  1   
 46  20  21  1   
 47  20  23  1   
 48  21  50  1   
 49  21  51  1   
 50  22  23  ar  
 51  22  24  ar  
 52  23  25  ar  
 53  24  26  ar  
 54  24  52  1   
 55  25  27  ar  
 56  25  53  1   
 57  26  27  ar  
 58  26  54  1   
 59  27  55  1   
@<TRIPOS>SUBSTRUCTURE
  1 ****   9 GROUP 4 **** **** 0

# MOE 2024.06 (io_trps.svl 2023.06)
