@<TRIPOS>MOLECULE
NONAME
47 51 1 0 0 
SMALL
USER_CHARGES


@<TRIPOS>ATOM
  1 O        1.8170    -0.5660     1.1800 O.3   1 <1>  -0.5600 
  2 C        2.4690    -1.3140     0.1730 C.3   1 <1>   0.4600 
  3 C        0.4180    -0.4060     1.0950 C.3   1 <1>   0.1200 
  4 C        1.6220    -2.5240    -0.1920 C.2   1 <1>  -0.3320 
  5 C        3.8030    -1.7450     0.7810 C.3   1 <1>  -0.1600 
  6 C        2.7330    -0.4020    -1.0360 C.3   1 <1>  -0.1600 
  7 C       -0.3030    -1.7590     1.2050 C.3   1 <1>   0.0210 
  8 N        1.9720    -3.5640    -1.0140 N.pl3 1 <1>   0.0330 
  9 C        0.3740    -2.7340     0.2740 C.2   1 <1>  -0.1810 
 10 C        4.6090    -0.5480     1.2970 C.3   1 <1>   0.3430 
 11 C        3.9070     0.5640    -0.8340 C.3   1 <1>   0.3430 
 12 C        0.9190    -4.4440    -1.0570 C.ar  1 <1>  -0.1520 
 13 C       -0.1040    -3.9500    -0.2530 C.ar  1 <1>   0.0000 
 14 N        4.2040     0.7140     0.6130 N.4   1 <1>  -0.9590 
 15 C        0.7710    -5.6530    -1.7420 C.ar  1 <1>  -0.1500 
 16 C       -1.2950    -4.6720    -0.1260 C.ar  1 <1>  -0.1500 
 17 C        5.0280     1.9070     0.9410 C.3   1 <1>   0.5230 
 18 C       -0.4060    -6.3520    -1.6100 C.ar  1 <1>  -0.1500 
 19 C       -1.4390    -5.8620    -0.8010 C.ar  1 <1>  -0.1500 
 20 C        4.1600     3.1540     0.7970 C.2   1 <1>   0.0060 
 21 N        2.8690     3.1200     0.6600 N.2   1 <1>  -0.5650 
 22 N        4.6640     4.4120     0.8090 N.pl3 1 <1>   0.0330 
 23 C        2.5140     4.4170     0.5790 C.2   1 <1>   0.0770 
 24 C        3.5980     5.2170     0.6660 C.2   1 <1>  -0.3020 
 25 H        0.1790     0.0650     0.1580 H     1 <1>   0.0800 
 26 H        0.1100     0.2440     1.8950 H     1 <1>   0.0800 
 27 H        4.3810    -2.2680     0.0430 H     1 <1>   0.0800 
 28 H        3.6230    -2.4340     1.5880 H     1 <1>   0.0800 
 29 H        1.8470     0.1520    -1.2810 H     1 <1>   0.0800 
 30 H        2.9560    -1.0070    -1.8940 H     1 <1>   0.0800 
 31 H       -1.3360    -1.6420     0.9340 H     1 <1>   0.0800 
 32 H       -0.2520    -2.1240     2.2150 H     1 <1>   0.0800 
 33 H        2.8540    -3.7020    -1.5150 H     1 <1>   0.2700 
 34 H        5.6610    -0.7360     1.1530 H     1 <1>   0.0800 
 35 H        4.4260    -0.4420     2.3550 H     1 <1>   0.0800 
 36 H        3.6500     1.5220    -1.2600 H     1 <1>   0.0800 
 37 H        4.7790     0.1870    -1.3430 H     1 <1>   0.0800 
 38 H        3.2700     0.9580     1.0100 H     1 <1>   0.4500 
 39 H        1.5680    -6.0250    -2.3610 H     1 <1>   0.1500 
 40 H       -2.0780    -4.2840     0.4980 H     1 <1>   0.1500 
 41 H        5.8800     1.9630     0.2850 H     1 <1>   0.0800 
 42 H        5.3720     1.8440     1.9600 H     1 <1>   0.0800 
 43 H       -0.5450    -7.2850    -2.1270 H     1 <1>   0.1500 
 44 H       -2.3490    -6.4280    -0.7140 H     1 <1>   0.1500 
 45 H        5.6390     4.7170     0.9100 H     1 <1>   0.2700 
 46 H        1.4840     4.7150     0.4600 H     1 <1>   0.1500 
 47 H        3.6600     6.2910     0.6370 H     1 <1>   0.1500 
@<TRIPOS>BOND
  1   1   2  1   
  2   1   3  1   
  3   2   4  1   
  4   2   5  1   
  5   2   6  1   
  6   3   7  1   
  7   3  25  1   
  8   3  26  1   
  9   4   8  1   
 10   4   9  2   
 11   5  10  1   
 12   5  27  1   
 13   5  28  1   
 14   6  11  1   
 15   6  29  1   
 16   6  30  1   
 17   7   9  1   
 18   7  31  1   
 19   7  32  1   
 20   8  12  1   
 21   8  33  1   
 22   9  13  1   
 23  10  14  1   
 24  10  34  1   
 25  10  35  1   
 26  11  14  1   
 27  11  36  1   
 28  11  37  1   
 29  12  13  ar  
 30  12  15  ar  
 31  13  16  ar  
 32  14  17  1   
 33  14  38  1   
 34  15  18  ar  
 35  15  39  1   
 36  16  19  ar  
 37  16  40  1   
 38  17  20  1   
 39  17  41  1   
 40  17  42  1   
 41  18  19  ar  
 42  18  43  1   
 43  19  44  1   
 44  20  21  2   
 45  20  22  1   
 46  21  23  1   
 47  22  24  1   
 48  22  45  1   
 49  23  24  2   
 50  23  46  1   
 51  24  47  1   
@<TRIPOS>SUBSTRUCTURE
  1 ****   2 GROUP 4 **** **** 0

# MOE 2024.06 (io_trps.svl 2023.06)
