@<TRIPOS>MOLECULE
NONAME
50 52 1 0 0 
SMALL
USER_CHARGES


@<TRIPOS>ATOM
  1 O       -2.8280     1.3710    -1.9110 O.2   1 <1>  -0.5700 
  2 C       -2.0740     1.7650    -1.0540 C.2   1 <1>   0.5690 
  3 N       -2.3940     2.0000     0.2370 N.am  1 <1>  -0.6600 
  4 C       -0.6240     2.0700    -1.3070 C.3   1 <1>  -0.0990 
  5 C       -1.2550     2.4730     1.0370 C.3   1 <1>   0.1400 
  6 C       -3.7060     1.7140     0.8630 C.3   1 <1>   0.1400 
  7 C       -0.1620     2.7500    -0.0060 C.3   1 <1>  -0.1600 
  8 C       -4.6820     2.8470     0.5440 C.3   1 <1>  -0.0990 
  9 C       -6.0410     2.6420     1.1910 C.2   1 <1>   0.5690 
 10 O       -6.1270     1.8480     2.1000 O.2   1 <1>  -0.5700 
 11 N       -7.1310     3.3500     0.7510 N.am  1 <1>  -0.6600 
 12 C       -8.5050     3.0360     1.2410 C.3   1 <1>   0.1400 
 13 C       -7.1300     4.3740    -0.3280 C.3   1 <1>   0.1400 
 14 C       -9.3490     2.4350     0.1010 C.3   1 <1>   0.0000 
 15 C       -7.9290     3.8470    -1.5250 C.3   1 <1>  -0.1600 
 16 C      -10.7650     2.1050     0.6040 C.3   1 <1>   0.2000 
 17 C       -9.3480     3.4080    -1.1130 C.3   1 <1>  -0.1600 
 18 C       -8.8490     1.0400    -0.3180 C.3   1 <1>  -0.1600 
 19 O      -11.5850     3.2360     0.6320 O.3   1 <1>  -0.5600 
 20 C      -11.3030     1.0400    -0.3550 C.3   1 <1>  -0.1600 
 21 C      -10.0660     0.3180    -0.9080 C.3   1 <1>  -0.1600 
 22 C      -12.7730     3.0840     1.3410 C.3   1 <1>   0.0400 
 23 H       -0.1000     1.1470    -1.4730 H     1 <1>   0.0800 
 24 H       -0.5170     2.7150    -2.1590 H     1 <1>   0.0800 
 25 H       -1.5150     3.3640     1.5820 H     1 <1>   0.0800 
 26 H       -0.9500     1.6980     1.7200 H     1 <1>   0.0800 
 27 H       -4.0930     0.7870     0.4720 H     1 <1>   0.0800 
 28 H       -3.5870     1.6080     1.9280 H     1 <1>   0.0800 
 29 H       -0.0880     3.8120    -0.1590 H     1 <1>   0.0800 
 30 H        0.7940     2.3820     0.3220 H     1 <1>   0.0800 
 31 H       -4.8050     2.8820    -0.5220 H     1 <1>   0.0800 
 32 H       -4.2790     3.7790     0.8900 H     1 <1>   0.0800 
 33 H       -8.4650     2.3500     2.0700 H     1 <1>   0.0800 
 34 H       -8.9690     3.9420     1.5900 H     1 <1>   0.0800 
 35 H       -7.5950     5.2710     0.0460 H     1 <1>   0.0800 
 36 H       -6.1320     4.6290    -0.6340 H     1 <1>   0.0800 
 37 H       -7.9980     4.6190    -2.2700 H     1 <1>   0.0800 
 38 H       -7.3950     3.0240    -1.9670 H     1 <1>   0.0800 
 39 H      -10.6990     1.6960     1.5990 H     1 <1>   0.0800 
 40 H       -9.8470     2.9630    -1.9560 H     1 <1>   0.0800 
 41 H       -9.8980     4.2950    -0.8510 H     1 <1>   0.0800 
 42 H       -8.0270     1.0730    -1.0110 H     1 <1>   0.0800 
 43 H       -8.5190     0.5040     0.5560 H     1 <1>   0.0800 
 44 H      -11.9520     0.3540     0.1590 H     1 <1>   0.0800 
 45 H      -11.8360     1.5100    -1.1630 H     1 <1>   0.0800 
 46 H      -10.0600    -0.7230    -0.6330 H     1 <1>   0.0800 
 47 H      -10.0530     0.3930    -1.9820 H     1 <1>   0.0800 
 48 H      -13.2990     4.0220     1.3130 H     1 <1>   0.0800 
 49 H      -12.5490     2.8250     2.3610 H     1 <1>   0.0800 
 50 H      -13.3730     2.3210     0.8780 H     1 <1>   0.0800 
@<TRIPOS>BOND
  1   1   2  2   
  2   2   3  am  
  3   2   4  1   
  4   3   5  1   
  5   3   6  1   
  6   4   7  1   
  7   4  23  1   
  8   4  24  1   
  9   5   7  1   
 10   5  25  1   
 11   5  26  1   
 12   6   8  1   
 13   6  27  1   
 14   6  28  1   
 15   7  29  1   
 16   7  30  1   
 17   8   9  1   
 18   8  31  1   
 19   8  32  1   
 20   9  10  2   
 21   9  11  am  
 22  11  12  1   
 23  11  13  1   
 24  12  14  1   
 25  12  33  1   
 26  12  34  1   
 27  13  15  1   
 28  13  35  1   
 29  13  36  1   
 30  14  16  1   
 31  14  17  1   
 32  14  18  1   
 33  15  17  1   
 34  15  37  1   
 35  15  38  1   
 36  16  19  1   
 37  16  20  1   
 38  16  39  1   
 39  17  40  1   
 40  17  41  1   
 41  18  21  1   
 42  18  42  1   
 43  18  43  1   
 44  19  22  1   
 45  20  21  1   
 46  20  44  1   
 47  20  45  1   
 48  21  46  1   
 49  21  47  1   
 50  22  48  1   
 51  22  49  1   
 52  22  50  1   
@<TRIPOS>SUBSTRUCTURE
  1 ****   9 GROUP 4 **** **** 0

# MOE 2024.06 (io_trps.svl 2023.06)
