@<TRIPOS>MOLECULE
NONAME
47 48 1 0 0 
SMALL
USER_CHARGES


@<TRIPOS>ATOM
  1 CL       2.2510     0.2870    -0.7590 Cl    1 <1>  -0.1770 
  2 C        1.0860     1.5440    -0.4030 C.ar  1 <1>   0.1770 
  3 C        1.3850     2.5930     0.4620 C.ar  1 <1>  -0.1440 
  4 C       -0.1460     1.4470    -1.0240 C.ar  1 <1>  -0.1500 
  5 C        0.4060     3.5540     0.6820 C.ar  1 <1>  -0.1500 
  6 C        2.7290     2.7370     1.1740 C.3   1 <1>   0.3640 
  7 C       -1.1100     2.4110    -0.7890 C.ar  1 <1>  -0.1500 
  8 C       -0.8300     3.4640     0.0630 C.ar  1 <1>  -0.1500 
  9 N        2.9350     1.5570     2.0490 N.am  1 <1>  -0.7300 
 10 C        3.9130     2.9910     0.2010 C.3   1 <1>   0.2610 
 11 C        4.0810     0.8430     2.0810 C.2   1 <1>   0.5690 
 12 O        5.1590     2.6060     0.7770 O.3   1 <1>  -0.5600 
 13 C        3.9290     4.4720    -0.1820 C.2   1 <1>   0.5690 
 14 O        4.2000    -0.1010     2.8200 O.2   1 <1>  -0.5700 
 15 C        5.2270     1.2460     1.1510 C.3   1 <1>   0.1810 
 16 O        3.0740     4.9020    -0.9190 O.2   1 <1>  -0.5700 
 17 N        4.9030     5.2710     0.3260 N.am  1 <1>  -0.7300 
 18 C        5.1040     6.7140     0.0500 C.3   1 <1>   0.1400 
 19 C        6.3320     6.9660    -0.8560 C.3   1 <1>   0.0000 
 20 C        7.5990     6.2970    -0.2770 C.3   1 <1>   0.1200 
 21 C        6.0730     6.4100    -2.2690 C.3   1 <1>  -0.2400 
 22 C        6.5560     8.4850    -0.9740 C.3   1 <1>  -0.2400 
 23 O        7.7830     6.6780     1.0540 O.3   1 <1>  -0.5600 
 24 C        8.9230     6.1400     1.6410 C.3   1 <1>   0.0400 
 25 H       -0.3450     0.6240    -1.6860 H     1 <1>   0.1500 
 26 H        0.5960     4.3900     1.3350 H     1 <1>   0.1500 
 27 H        2.6720     3.5940     1.8240 H     1 <1>   0.0800 
 28 H       -2.0710     2.3440    -1.2700 H     1 <1>   0.1500 
 29 H       -1.5760     4.2190     0.2430 H     1 <1>   0.1500 
 30 H        2.1540     1.2540     2.6320 H     1 <1>   0.3700 
 31 H        3.7860     2.4250    -0.7020 H     1 <1>   0.0800 
 32 H        5.1980     0.6430     0.2610 H     1 <1>   0.0800 
 33 H        6.1650     1.0880     1.6510 H     1 <1>   0.0800 
 34 H        5.6330     4.8330     0.8970 H     1 <1>   0.3700 
 35 H        4.2220     7.1180    -0.4170 H     1 <1>   0.0800 
 36 H        5.2410     7.2230     0.9880 H     1 <1>   0.0800 
 37 H        8.4660     6.5920    -0.8420 H     1 <1>   0.0800 
 38 H        7.5050     5.2250    -0.3110 H     1 <1>   0.0800 
 39 H        5.1830     6.8470    -2.6870 H     1 <1>   0.0800 
 40 H        5.9360     5.3440    -2.2390 H     1 <1>   0.0800 
 41 H        6.8990     6.6280    -2.9220 H     1 <1>   0.0800 
 42 H        5.6890     8.9650    -1.3920 H     1 <1>   0.0800 
 43 H        7.4010     8.6960    -1.6050 H     1 <1>   0.0800 
 44 H        6.7470     8.9120    -0.0040 H     1 <1>   0.0800 
 45 H        8.9740     6.4900     2.6560 H     1 <1>   0.0800 
 46 H        9.7920     6.4710     1.0990 H     1 <1>   0.0800 
 47 H        8.8550     5.0650     1.6300 H     1 <1>   0.0800 
@<TRIPOS>BOND
  1   1   2  1   
  2   2   3  ar  
  3   2   4  ar  
  4   3   5  ar  
  5   3   6  1   
  6   4   7  ar  
  7   4  25  1   
  8   5   8  ar  
  9   5  26  1   
 10   6   9  1   
 11   6  10  1   
 12   6  27  1   
 13   7   8  ar  
 14   7  28  1   
 15   8  29  1   
 16   9  11  am  
 17   9  30  1   
 18  10  12  1   
 19  10  13  1   
 20  10  31  1   
 21  11  14  2   
 22  11  15  1   
 23  12  15  1   
 24  13  16  2   
 25  13  17  am  
 26  15  32  1   
 27  15  33  1   
 28  17  18  1   
 29  17  34  1   
 30  18  19  1   
 31  18  35  1   
 32  18  36  1   
 33  19  20  1   
 34  19  21  1   
 35  19  22  1   
 36  20  23  1   
 37  20  37  1   
 38  20  38  1   
 39  21  39  1   
 40  21  40  1   
 41  21  41  1   
 42  22  42  1   
 43  22  43  1   
 44  22  44  1   
 45  23  24  1   
 46  24  45  1   
 47  24  46  1   
 48  24  47  1   
@<TRIPOS>SUBSTRUCTURE
  1 ****  10 GROUP 4 **** **** 0

# MOE 2024.06 (io_trps.svl 2023.06)
