@<TRIPOS>MOLECULE
NONAME
46 48 1 0 0 
SMALL
USER_CHARGES


@<TRIPOS>ATOM
  1 S        0.1400     0.5870    -1.2630 S.3   1 <1>  -0.0800 
  2 C       -1.3350     0.2030    -0.3690 C.2   1 <1>  -0.0450 
  3 C        0.7260     1.6530    -0.0030 C.2   1 <1>  -0.1400 
  4 C       -2.2920    -0.7070    -0.9540 C.2   1 <1>   0.7150 
  5 C       -1.3130     0.8880     0.8040 C.2   1 <1>  -0.1500 
  6 C       -0.1590     1.6970     1.0110 C.2   1 <1>  -0.1500 
  7 C        2.0680     2.3190    -0.2510 C.3   1 <1>   0.0200 
  8 O       -2.3010    -0.9140    -2.1540 O.2   1 <1>  -0.5700 
  9 N       -3.2170    -1.3610    -0.1620 N.am  1 <1>  -0.6600 
 10 C        2.4890     3.2260     0.9090 C.3   1 <1>  -0.2400 
 11 C       -4.4990    -1.8390    -0.7650 C.3   1 <1>   0.2200 
 12 C       -2.7690    -2.0040     1.1100 C.3   1 <1>   0.0600 
 13 C       -5.5090    -2.3760     0.2530 C.3   1 <1>  -0.1600 
 14 C       -5.2680    -0.6980    -1.4300 C.3   1 <1>  -0.1600 
 15 C       -6.8690    -2.2920    -0.4520 C.3   1 <1>  -0.0800 
 16 C       -6.7190    -1.1820    -1.5150 C.3   1 <1>  -0.0800 
 17 C       -8.0400    -2.1020     0.5310 C.3   1 <1>   0.1400 
 18 C       -7.7470    -0.0450    -1.3750 C.3   1 <1>  -0.0990 
 19 N       -9.2410    -1.6110    -0.1900 N.am  1 <1>  -0.6600 
 20 C       -9.1300    -0.6070    -1.1130 C.2   1 <1>   0.5690 
 21 C      -10.5450    -2.2210     0.1800 C.3   1 <1>   0.0600 
 22 O      -10.0720    -0.1510    -1.7150 O.2   1 <1>  -0.5700 
 23 H       -2.0940     0.8520     1.5420 H     1 <1>   0.1500 
 24 H       -0.0470     2.2770     1.9110 H     1 <1>   0.1500 
 25 H        2.8140     1.5560    -0.3960 H     1 <1>   0.0800 
 26 H        2.0060     2.9000    -1.1540 H     1 <1>   0.0800 
 27 H        2.5740     2.6540     1.8160 H     1 <1>   0.0800 
 28 H        1.7620     4.0060     1.0530 H     1 <1>   0.0800 
 29 H        3.4410     3.6770     0.6950 H     1 <1>   0.0800 
 30 H       -4.2880    -2.6010    -1.4980 H     1 <1>   0.0800 
 31 H       -3.3070    -1.5850     1.9420 H     1 <1>   0.0800 
 32 H       -1.7150    -1.8480     1.2660 H     1 <1>   0.0800 
 33 H       -2.9440    -3.0640     1.0670 H     1 <1>   0.0800 
 34 H       -5.2840    -3.3860     0.5460 H     1 <1>   0.0800 
 35 H       -5.5170    -1.7330     1.1160 H     1 <1>   0.0800 
 36 H       -5.2030     0.1790    -0.8090 H     1 <1>   0.0800 
 37 H       -4.8780    -0.4730    -2.4080 H     1 <1>   0.0800 
 38 H       -7.0300    -3.2200    -0.9740 H     1 <1>   0.0800 
 39 H       -6.8680    -1.6420    -2.4790 H     1 <1>   0.0800 
 40 H       -7.7820    -1.3760     1.2830 H     1 <1>   0.0800 
 41 H       -8.2560    -3.0350     1.0220 H     1 <1>   0.0800 
 42 H       -7.7630     0.5490    -2.2700 H     1 <1>   0.0800 
 43 H       -7.4940     0.5950    -0.5500 H     1 <1>   0.0800 
 44 H      -10.5270    -3.2750    -0.0310 H     1 <1>   0.0800 
 45 H      -11.3450    -1.7720    -0.3830 H     1 <1>   0.0800 
 46 H      -10.7340    -2.0690     1.2280 H     1 <1>   0.0800 
@<TRIPOS>BOND
  1   1   2  1   
  2   1   3  1   
  3   2   4  1   
  4   2   5  2   
  5   3   6  2   
  6   3   7  1   
  7   4   8  2   
  8   4   9  am  
  9   5   6  1   
 10   5  23  1   
 11   6  24  1   
 12   7  10  1   
 13   7  25  1   
 14   7  26  1   
 15   9  11  1   
 16   9  12  1   
 17  10  27  1   
 18  10  28  1   
 19  10  29  1   
 20  11  13  1   
 21  11  14  1   
 22  11  30  1   
 23  12  31  1   
 24  12  32  1   
 25  12  33  1   
 26  13  15  1   
 27  13  34  1   
 28  13  35  1   
 29  14  16  1   
 30  14  36  1   
 31  14  37  1   
 32  15  16  1   
 33  15  17  1   
 34  15  38  1   
 35  16  18  1   
 36  16  39  1   
 37  17  19  1   
 38  17  40  1   
 39  17  41  1   
 40  18  20  1   
 41  18  42  1   
 42  18  43  1   
 43  19  20  am  
 44  19  21  1   
 45  20  22  2   
 46  21  44  1   
 47  21  45  1   
 48  21  46  1   
@<TRIPOS>SUBSTRUCTURE
  1 ****   9 GROUP 4 **** **** 0

# MOE 2024.06 (io_trps.svl 2023.06)
