@<TRIPOS>MOLECULE
NONAME
31 32 1 0 0 
SMALL
USER_CHARGES


@<TRIPOS>ATOM
  1 CL       0.0920     0.1290     0.9870 Cl    1 <1>  -0.1770 
  2 C        1.2470    -1.0060     0.3100 C.ar  1 <1>   0.1770 
  3 C        1.1470    -2.3690     0.5630 C.ar  1 <1>   0.4100 
  4 C        2.2700    -0.5660    -0.4840 C.ar  1 <1>   0.1600 
  5 N        2.0220    -3.2090     0.0410 N.ar  1 <1>  -0.6200 
  6 N        0.1450    -2.8950     1.3490 N.pl3 1 <1>  -0.8690 
  7 N        3.1510    -1.4000    -1.0100 N.ar  1 <1>  -0.6200 
  8 C        2.9690    -2.6770    -0.7110 C.ar  1 <1>   0.4770 
  9 C       -0.0550    -4.3430     1.6160 C.3   1 <1>   0.2090 
 10 C        3.9590    -3.6490    -1.3060 C.3   1 <1>  -0.0970 
 11 C       -0.8370    -4.9850     0.4730 C.3   1 <1>   0.0700 
 12 S       -1.1180    -6.7650     0.8850 S.3   1 <1>  -0.2860 
 13 C       -2.1390    -7.3370    -0.4780 C.2   1 <1>   0.2430 
 14 N       -2.5540    -6.5860    -1.4370 N.2   1 <1>  -0.3380 
 15 N       -2.5410    -8.6020    -0.5810 N.pl3 1 <1>   0.0480 
 16 N       -3.2760    -7.3820    -2.2350 N.2   1 <1>  -0.3380 
 17 C       -3.2540    -8.5640    -1.7120 C.2   1 <1>   0.0370 
 18 C       -2.2680    -9.7400     0.3150 C.3   1 <1>   0.0160 
 19 H        2.3720     0.4830    -0.6960 H     1 <1>   0.1500 
 20 H       -0.5930    -2.2620     1.6740 H     1 <1>   0.4000 
 21 H       -0.5940    -4.4610     2.5400 H     1 <1>   0.0800 
 22 H        0.9010    -4.8290     1.7160 H     1 <1>   0.0800 
 23 H        4.1890    -4.4190    -0.5940 H     1 <1>   0.0800 
 24 H        4.8670    -3.1420    -1.5750 H     1 <1>   0.0800 
 25 H        3.5320    -4.0970    -2.1830 H     1 <1>   0.0800 
 26 H       -0.2820    -4.9530    -0.4480 H     1 <1>   0.0800 
 27 H       -1.8030    -4.5300     0.3490 H     1 <1>   0.0800 
 28 H       -3.7470    -9.4240    -2.1260 H     1 <1>   0.1500 
 29 H       -2.6560    -9.5230     1.2930 H     1 <1>   0.0800 
 30 H       -1.2060    -9.8950     0.3780 H     1 <1>   0.0800 
 31 H       -2.7380   -10.6270    -0.0700 H     1 <1>   0.0800 
@<TRIPOS>BOND
  1   1   2  1   
  2   2   3  ar  
  3   2   4  ar  
  4   3   5  ar  
  5   3   6  1   
  6   4   7  ar  
  7   4  19  1   
  8   5   8  ar  
  9   6   9  1   
 10   6  20  1   
 11   7   8  ar  
 12   8  10  1   
 13   9  11  1   
 14   9  21  1   
 15   9  22  1   
 16  10  23  1   
 17  10  24  1   
 18  10  25  1   
 19  11  12  1   
 20  11  26  1   
 21  11  27  1   
 22  12  13  1   
 23  13  14  2   
 24  13  15  1   
 25  14  16  1   
 26  15  17  1   
 27  15  18  1   
 28  16  17  2   
 29  17  28  1   
 30  18  29  1   
 31  18  30  1   
 32  18  31  1   
@<TRIPOS>SUBSTRUCTURE
  1 ****  11 GROUP 4 **** **** 0

# MOE 2024.06 (io_trps.svl 2023.06)
