@<TRIPOS>MOLECULE
NONAME
30 31 1 0 0 
SMALL
USER_CHARGES


@<TRIPOS>ATOM
  1 O       -0.6240    -0.5240     0.8480 O.2   1 <1>  -0.5700 
  2 C       -1.6580     0.0040     0.4890 C.2   1 <1>   0.6900 
  3 N       -1.8930     1.3550     0.6560 N.am  1 <1>  -0.4690 
  4 N       -2.6140    -0.7520    -0.1060 N.am  1 <1>  -0.4900 
  5 C       -3.1290     1.8760     0.3080 C.2   1 <1>  -0.0410 
  6 C       -0.7920     2.1640     1.2310 C.3   1 <1>   0.5000 
  7 C       -3.7970    -0.2590    -0.5650 C.2   1 <1>   0.6160 
  8 C       -4.0830     1.1050    -0.2830 C.2   1 <1>  -0.2360 
  9 O       -1.2610     3.4450     1.5620 O.3   1 <1>  -0.5600 
 10 C        0.3660     2.3580     0.2500 C.3   1 <1>  -0.1600 
 11 O       -4.4760    -1.0230    -1.2190 O.2   1 <1>  -0.5700 
 12 C       -5.3600     1.6310    -0.6350 C.2   1 <1>   1.0500 
 13 C       -0.6380     4.4300     0.7870 C.3   1 <1>   0.2000 
 14 C        0.7080     3.8220     0.4010 C.3   1 <1>   0.2000 
 15 O       -5.4110     2.7050    -1.2600 O.co2 1 <1>  -0.9000 
 16 O       -6.4110     1.1180    -0.2230 O.co2 1 <1>  -0.9000 
 17 C       -1.5210     4.7690    -0.4290 C.3   1 <1>   0.1200 
 18 O        1.5900     3.9520     1.4670 O.3   1 <1>  -0.6800 
 19 O       -0.9100     5.7590    -1.1930 O.3   1 <1>  -0.6800 
 20 H       -2.4250    -1.7300    -0.2770 H     1 <1>   0.3700 
 21 H       -3.3390     2.9120     0.5180 H     1 <1>   0.1500 
 22 H       -0.4420     1.7050     2.1410 H     1 <1>   0.0800 
 23 H        1.1960     1.7110     0.4690 H     1 <1>   0.0800 
 24 H        0.0290     2.1680    -0.7530 H     1 <1>   0.0800 
 25 H       -0.5140     5.3100     1.3940 H     1 <1>   0.0800 
 26 H        1.1540     4.2610    -0.4760 H     1 <1>   0.0800 
 27 H       -2.4850     5.1300    -0.1160 H     1 <1>   0.0800 
 28 H       -1.6530     3.9070    -1.0600 H     1 <1>   0.0800 
 29 H        1.1290     3.7280     2.3000 H     1 <1>   0.4000 
 30 H       -1.0690     6.6420    -0.8050 H     1 <1>   0.4000 
@<TRIPOS>BOND
  1   1   2  2   
  2   2   3  am  
  3   2   4  am  
  4   3   5  1   
  5   3   6  1   
  6   4   7  am  
  7   4  20  1   
  8   5   8  2   
  9   5  21  1   
 10   6   9  1   
 11   6  10  1   
 12   6  22  1   
 13   7   8  1   
 14   7  11  2   
 15   8  12  1   
 16   9  13  1   
 17  10  14  1   
 18  10  23  1   
 19  10  24  1   
 20  12  15  ar  
 21  12  16  ar  
 22  13  14  1   
 23  13  17  1   
 24  13  25  1   
 25  14  18  1   
 26  14  26  1   
 27  17  19  1   
 28  17  27  1   
 29  17  28  1   
 30  18  29  1   
 31  19  30  1   
@<TRIPOS>SUBSTRUCTURE
  1 ****   3 GROUP 4 **** **** 0

# MOE 2024.06 (io_trps.svl 2023.06)
