@<TRIPOS>MOLECULE
NONAME
51 54 1 0 0 
SMALL
USER_CHARGES


@<TRIPOS>ATOM
  1 O        0.0120     0.0250    -0.7130 O.2   1 <1>  -0.5700 
  2 C       -0.9990     0.6820    -0.6680 C.2   1 <1>   0.5690 
  3 N       -2.2350     0.0990    -0.6020 N.am  1 <1>  -0.6600 
  4 C       -0.8580     2.1910    -0.6690 C.3   1 <1>  -0.0990 
  5 C       -3.5430     0.7870    -0.4820 C.3   1 <1>   0.1400 
  6 C       -2.4190    -1.3720    -0.5700 C.3   1 <1>   0.1400 
  7 C       -0.6860     2.7220     0.7570 C.3   1 <1>   0.0200 
  8 C       -4.5730    -0.3270    -0.2830 C.3   1 <1>   0.2000 
  9 C       -3.7820    -1.5790     0.0920 C.3   1 <1>  -0.0800 
 10 C       -0.5940     4.2390     0.7580 C.2   1 <1>  -0.3320 
 11 O       -5.4610    -0.0090     0.7330 O.3   1 <1>  -0.6800 
 12 C       -4.4890    -2.8770    -0.3310 C.3   1 <1>  -0.0170 
 13 N       -1.6390     5.0960     0.6730 N.pl3 1 <1>   0.3140 
 14 C        0.5200     4.9960     0.8450 C.2   1 <1>  -0.1500 
 15 C       -3.6700    -4.1010     0.0380 C.ar  1 <1>   0.1670 
 16 N       -1.2260     6.3730     0.6960 N.2   1 <1>  -0.7070 
 17 C       -3.0680     4.7740     0.5770 C.3   1 <1>   0.0160 
 18 C        0.0650     6.3070     0.8000 C.2   1 <1>   0.1390 
 19 N       -2.7960    -4.5170    -0.8260 N.ar  1 <1>  -0.6200 
 20 C       -3.8840    -4.7130     1.2840 C.ar  1 <1>  -0.1500 
 21 C       -2.0480    -5.6020    -0.4980 C.ar  1 <1>   0.3100 
 22 C       -3.1490    -5.8030     1.6380 C.ar  1 <1>  -0.1500 
 23 C       -2.1900    -6.2820     0.7310 C.ar  1 <1>   0.0000 
 24 C       -1.0900    -6.0680    -1.4130 C.ar  1 <1>  -0.1500 
 25 C       -1.3710    -7.3990     0.9940 C.ar  1 <1>  -0.1500 
 26 C       -0.3040    -7.1550    -1.1380 C.ar  1 <1>  -0.1500 
 27 C       -0.4470    -7.8270     0.0800 C.ar  1 <1>  -0.1500 
 28 H        0.0120     2.4510    -1.2450 H     1 <1>   0.0800 
 29 H       -1.7050     2.6450    -1.1450 H     1 <1>   0.0800 
 30 H       -3.5270     1.4520     0.3630 H     1 <1>   0.0800 
 31 H       -3.7550     1.3330    -1.3840 H     1 <1>   0.0800 
 32 H       -2.4190    -1.7480    -1.5800 H     1 <1>   0.0800 
 33 H       -1.6300    -1.8550    -0.0160 H     1 <1>   0.0800 
 34 H        0.2210     2.3120     1.1690 H     1 <1>   0.0800 
 35 H       -1.4990     2.4000     1.3820 H     1 <1>   0.0800 
 36 H       -5.1330    -0.4690    -1.1920 H     1 <1>   0.0800 
 37 H       -3.6120    -1.5970     1.1540 H     1 <1>   0.0800 
 38 H       -5.0010     0.0060     1.5940 H     1 <1>   0.4000 
 39 H       -4.6520    -2.8760    -1.3950 H     1 <1>   0.0800 
 40 H       -5.4530    -2.9330     0.1430 H     1 <1>   0.0800 
 41 H        1.5470     4.6860     0.9290 H     1 <1>   0.1500 
 42 H       -3.3230     4.0560     1.3320 H     1 <1>   0.0800 
 43 H       -3.2760     4.3820    -0.4000 H     1 <1>   0.0800 
 44 H       -3.6390     5.6720     0.7300 H     1 <1>   0.0800 
 45 H        0.7010     7.1750     0.8450 H     1 <1>   0.1500 
 46 H       -4.6280    -4.3110     1.9470 H     1 <1>   0.1500 
 47 H       -3.2840    -6.2990     2.5820 H     1 <1>   0.1500 
 48 H       -0.9940    -5.5360    -2.3420 H     1 <1>   0.1500 
 49 H       -1.4860    -7.9110     1.9320 H     1 <1>   0.1500 
 50 H        0.4270    -7.5010    -1.8490 H     1 <1>   0.1500 
 51 H        0.1770    -8.6800     0.2830 H     1 <1>   0.1500 
@<TRIPOS>BOND
  1   1   2  2   
  2   2   3  am  
  3   2   4  1   
  4   3   5  1   
  5   3   6  1   
  6   4   7  1   
  7   4  28  1   
  8   4  29  1   
  9   5   8  1   
 10   5  30  1   
 11   5  31  1   
 12   6   9  1   
 13   6  32  1   
 14   6  33  1   
 15   7  10  1   
 16   7  34  1   
 17   7  35  1   
 18   8   9  1   
 19   8  11  1   
 20   8  36  1   
 21   9  12  1   
 22   9  37  1   
 23  10  13  1   
 24  10  14  2   
 25  11  38  1   
 26  12  15  1   
 27  12  39  1   
 28  12  40  1   
 29  13  16  1   
 30  13  17  1   
 31  14  18  1   
 32  14  41  1   
 33  15  19  ar  
 34  15  20  ar  
 35  16  18  2   
 36  17  42  1   
 37  17  43  1   
 38  17  44  1   
 39  18  45  1   
 40  19  21  ar  
 41  20  22  ar  
 42  20  46  1   
 43  21  23  ar  
 44  21  24  ar  
 45  22  23  ar  
 46  22  47  1   
 47  23  25  ar  
 48  24  26  ar  
 49  24  48  1   
 50  25  27  ar  
 51  25  49  1   
 52  26  27  ar  
 53  26  50  1   
 54  27  51  1   
@<TRIPOS>SUBSTRUCTURE
  1 ****   6 GROUP 4 **** **** 0

# MOE 2024.06 (io_trps.svl 2023.06)
