@<TRIPOS>MOLECULE
NONAME
61 64 1 0 0 
SMALL
USER_CHARGES


@<TRIPOS>ATOM
  1 O        1.5950    -0.0200     3.0950 O.2   1 <1>  -0.5700 
  2 C        1.7300    -0.8790     2.2560 C.2   1 <1>   0.5690 
  3 N        2.4340    -0.6250     1.1070 N.am  1 <1>  -0.6600 
  4 C        1.0520    -2.2030     2.5690 C.3   1 <1>  -0.0990 
  5 C        2.5700    -1.5690    -0.0430 C.3   1 <1>   0.1400 
  6 C        3.0230     0.7280     0.8650 C.3   1 <1>   0.2840 
  7 C        1.3080    -3.3950     1.6470 C.3   1 <1>   0.1200 
  8 C        3.2510    -2.9160     0.3180 C.3   1 <1>   0.2800 
  9 C        2.2230     1.4890    -0.1870 C.ar  1 <1>   0.1660 
 10 O        2.6780    -3.5330     1.4440 O.3   1 <1>  -0.5600 
 11 C        4.7280    -2.6810     0.6760 C.3   1 <1>  -0.1600 
 12 C        3.1510    -3.9000    -0.8620 C.3   1 <1>  -0.1600 
 13 N        2.7080     1.5080    -1.4240 N.ar  1 <1>  -0.6200 
 14 C        1.0460     2.1100     0.1920 C.ar  1 <1>  -0.1500 
 15 C        5.4850    -3.9890     0.9190 C.3   1 <1>   0.1400 
 16 C        3.9220    -5.1950    -0.5970 C.3   1 <1>   0.1400 
 17 C        1.9880     2.1790    -2.3100 C.ar  1 <1>   0.1600 
 18 C        0.3070     2.8040    -0.7410 C.ar  1 <1>   0.0820 
 19 N        5.3350    -4.8650    -0.2750 N.am  1 <1>  -0.6600 
 20 C        0.8030     2.8340    -2.0330 C.ar  1 <1>  -0.1500 
 21 O       -0.8370     3.3990    -0.3400 O.3   1 <1>  -0.3620 
 22 C        6.3700    -5.1830    -1.1310 C.2   1 <1>   0.5440 
 23 C       -1.6350     4.1440    -1.2320 C.3   1 <1>   0.0400 
 24 O        6.1060    -5.4890    -2.2790 O.2   1 <1>  -0.5700 
 25 C        7.7580    -5.1490    -0.7080 C.ar  1 <1>   0.0860 
 26 C        8.1760    -5.7410     0.4860 C.ar  1 <1>  -0.1500 
 27 C        8.7310    -4.5270    -1.4910 C.ar  1 <1>  -0.1500 
 28 C        9.4970    -5.6920     0.8880 C.ar  1 <1>  -0.1500 
 29 C       10.0550    -4.4750    -1.0970 C.ar  1 <1>  -0.1500 
 30 C       10.4480    -5.0570     0.1050 C.ar  1 <1>   0.0820 
 31 O       11.7180    -5.0490     0.5680 O.3   1 <1>  -0.3620 
 32 C       12.7700    -4.4590    -0.1630 C.3   1 <1>   0.0400 
 33 H       -0.0060    -2.0260     2.6090 H     1 <1>   0.0800 
 34 H        1.3560    -2.4870     3.5600 H     1 <1>   0.0800 
 35 H        3.1550    -1.1040    -0.8180 H     1 <1>   0.0800 
 36 H        1.5990    -1.7380    -0.4710 H     1 <1>   0.0800 
 37 H        4.0400     0.6190     0.5320 H     1 <1>   0.0800 
 38 H        3.0450     1.3030     1.7730 H     1 <1>   0.0800 
 39 H        0.7920    -3.3060     0.7080 H     1 <1>   0.0800 
 40 H        0.9660    -4.2950     2.1280 H     1 <1>   0.0800 
 41 H        4.7890    -2.0670     1.5560 H     1 <1>   0.0800 
 42 H        5.2140    -2.1520    -0.1230 H     1 <1>   0.0800 
 43 H        3.5630    -3.4450    -1.7460 H     1 <1>   0.0800 
 44 H        2.1240    -4.1300    -1.0700 H     1 <1>   0.0800 
 45 H        0.7010     2.0520     1.2090 H     1 <1>   0.1500 
 46 H        5.0810    -4.4940     1.7800 H     1 <1>   0.0800 
 47 H        6.5190    -3.7670     1.1100 H     1 <1>   0.0800 
 48 H        3.8690    -5.8370    -1.4590 H     1 <1>   0.0800 
 49 H        3.4860    -5.7190     0.2360 H     1 <1>   0.0800 
 50 H        2.3670     2.2080    -3.3180 H     1 <1>   0.1500 
 51 H        0.2920     3.3510    -2.8210 H     1 <1>   0.1500 
 52 H       -2.4800     4.5240    -0.6870 H     1 <1>   0.0800 
 53 H       -1.9710     3.4970    -2.0230 H     1 <1>   0.0800 
 54 H       -1.0540     4.9610    -1.6220 H     1 <1>   0.0800 
 55 H        7.4510    -6.2460     1.0990 H     1 <1>   0.1500 
 56 H        8.4300    -4.0820    -2.4240 H     1 <1>   0.1500 
 57 H        9.8050    -6.1490     1.8110 H     1 <1>   0.1500 
 58 H       10.7650    -3.9820    -1.7340 H     1 <1>   0.1500 
 59 H       13.6780    -4.5860     0.3980 H     1 <1>   0.0800 
 60 H       12.5620    -3.4110    -0.2900 H     1 <1>   0.0800 
 61 H       12.8550    -4.9540    -1.1140 H     1 <1>   0.0800 
@<TRIPOS>BOND
  1   1   2  2   
  2   2   3  am  
  3   2   4  1   
  4   3   5  1   
  5   3   6  1   
  6   4   7  1   
  7   4  33  1   
  8   4  34  1   
  9   5   8  1   
 10   5  35  1   
 11   5  36  1   
 12   6   9  1   
 13   6  37  1   
 14   6  38  1   
 15   7  10  1   
 16   7  39  1   
 17   7  40  1   
 18   8  10  1   
 19   8  11  1   
 20   8  12  1   
 21   9  13  ar  
 22   9  14  ar  
 23  11  15  1   
 24  11  41  1   
 25  11  42  1   
 26  12  16  1   
 27  12  43  1   
 28  12  44  1   
 29  13  17  ar  
 30  14  18  ar  
 31  14  45  1   
 32  15  19  1   
 33  15  46  1   
 34  15  47  1   
 35  16  19  1   
 36  16  48  1   
 37  16  49  1   
 38  17  20  ar  
 39  17  50  1   
 40  18  20  ar  
 41  18  21  1   
 42  19  22  am  
 43  20  51  1   
 44  21  23  1   
 45  22  24  2   
 46  22  25  1   
 47  23  52  1   
 48  23  53  1   
 49  23  54  1   
 50  25  26  ar  
 51  25  27  ar  
 52  26  28  ar  
 53  26  55  1   
 54  27  29  ar  
 55  27  56  1   
 56  28  30  ar  
 57  28  57  1   
 58  29  30  ar  
 59  29  58  1   
 60  30  31  1   
 61  31  32  1   
 62  32  59  1   
 63  32  60  1   
 64  32  61  1   
@<TRIPOS>SUBSTRUCTURE
  1 ****  11 GROUP 4 **** **** 0

# MOE 2024.06 (io_trps.svl 2023.06)
