@<TRIPOS>MOLECULE
NONAME
45 48 1 0 0 
SMALL
USER_CHARGES


@<TRIPOS>ATOM
  1 F       -2.1640    -1.2410     1.6760 F     1 <1>  -0.1900 
  2 C       -2.3990    -0.0450     1.2030 C.ar  1 <1>   0.1900 
  3 C       -2.8210     0.1010    -0.1150 C.ar  1 <1>  -0.1430 
  4 C       -2.2140     1.0290     2.0510 C.ar  1 <1>  -0.1500 
  5 C       -3.0560     1.3850    -0.5950 C.ar  1 <1>  -0.1500 
  6 C       -3.0200    -1.1110    -1.0130 C.3   1 <1>   0.2540 
  7 C       -2.4640     2.2850     1.5380 C.ar  1 <1>   0.1900 
  8 C       -2.8790     2.4840     0.2320 C.ar  1 <1>  -0.1500 
  9 N       -4.2070    -1.8750    -0.5870 N.3   1 <1>  -0.8100 
 10 F       -2.3040     3.3240     2.3110 F     1 <1>  -0.1900 
 11 C       -5.4820    -1.1310    -0.7220 C.3   1 <1>   0.1100 
 12 C       -4.2930    -3.1950    -1.2490 C.3   1 <1>   0.1100 
 13 C       -6.6630    -1.8960    -0.0670 C.3   1 <1>   0.4230 
 14 C       -5.5500    -3.9900    -0.8190 C.3   1 <1>   0.3430 
 15 N       -6.2720    -3.3070     0.3090 N.4   1 <1>  -0.9590 
 16 C       -7.9170    -1.8860    -0.9690 C.3   1 <1>   0.1200 
 17 C       -7.4420    -4.0510     0.8710 C.3   1 <1>   0.5180 
 18 O       -8.9570    -2.6100    -0.3740 O.3   1 <1>  -0.5600 
 19 C       -7.0170    -5.4920     1.2180 C.3   1 <1>  -0.1950 
 20 C       -8.6620    -3.9500    -0.0790 C.3   1 <1>   0.1200 
 21 C       -7.0520    -6.6510     0.2650 C.3   1 <1>  -0.2000 
 22 C       -8.0010    -6.6030     1.4280 C.3   1 <1>  -0.2000 
 23 H       -1.8880     0.8940     3.0660 H     1 <1>   0.1500 
 24 H       -3.3750     1.5390    -1.6120 H     1 <1>   0.1500 
 25 H       -2.1450    -1.7360    -0.9410 H     1 <1>   0.0800 
 26 H       -3.1260    -0.8040    -2.0400 H     1 <1>   0.0800 
 27 H       -3.0570     3.4840    -0.1240 H     1 <1>   0.1500 
 28 H       -5.4030    -0.1710    -0.2410 H     1 <1>   0.0800 
 29 H       -5.6830    -0.9510    -1.7650 H     1 <1>   0.0800 
 30 H       -4.3010    -3.0730    -2.3200 H     1 <1>   0.0800 
 31 H       -3.4180    -3.7710    -0.9960 H     1 <1>   0.0800 
 32 H       -6.9230    -1.3640     0.8330 H     1 <1>   0.0800 
 33 H       -5.2430    -4.9790    -0.5200 H     1 <1>   0.0800 
 34 H       -6.2090    -4.0960    -1.6640 H     1 <1>   0.0800 
 35 H       -5.5540    -3.1870     1.0360 H     1 <1>   0.4500 
 36 H       -7.7100    -2.3130    -1.9350 H     1 <1>   0.0800 
 37 H       -8.2650    -0.8770    -1.1090 H     1 <1>   0.0800 
 38 H       -7.7340    -3.5760     1.7940 H     1 <1>   0.0800 
 39 H       -6.2140    -5.4780     1.9360 H     1 <1>   0.1000 
 40 H       -9.5320    -4.3710     0.3930 H     1 <1>   0.0800 
 41 H       -8.4860    -4.4740    -1.0010 H     1 <1>   0.0800 
 42 H       -7.4810    -6.5660    -0.7190 H     1 <1>   0.1000 
 43 H       -6.2610    -7.3830     0.2960 H     1 <1>   0.1000 
 44 H       -7.8410    -7.2910     2.2430 H     1 <1>   0.1000 
 45 H       -9.0490    -6.4770     1.2150 H     1 <1>   0.1000 
@<TRIPOS>BOND
  1   1   2  1   
  2   2   3  ar  
  3   2   4  ar  
  4   3   5  ar  
  5   3   6  1   
  6   4   7  ar  
  7   4  23  1   
  8   5   8  ar  
  9   5  24  1   
 10   6   9  1   
 11   6  25  1   
 12   6  26  1   
 13   7   8  ar  
 14   7  10  1   
 15   8  27  1   
 16   9  11  1   
 17   9  12  1   
 18  11  13  1   
 19  11  28  1   
 20  11  29  1   
 21  12  14  1   
 22  12  30  1   
 23  12  31  1   
 24  13  15  1   
 25  13  16  1   
 26  13  32  1   
 27  14  15  1   
 28  14  33  1   
 29  14  34  1   
 30  15  17  1   
 31  15  35  1   
 32  16  18  1   
 33  16  36  1   
 34  16  37  1   
 35  17  19  1   
 36  17  20  1   
 37  17  38  1   
 38  18  20  1   
 39  19  21  1   
 40  19  22  1   
 41  19  39  1   
 42  20  40  1   
 43  20  41  1   
 44  21  22  1   
 45  21  42  1   
 46  21  43  1   
 47  22  44  1   
 48  22  45  1   
@<TRIPOS>SUBSTRUCTURE
  1 ****   9 GROUP 4 **** **** 0

# MOE 2024.06 (io_trps.svl 2023.06)
