@<TRIPOS>MOLECULE
NONAME
36 38 1 0 0 
SMALL
USER_CHARGES


@<TRIPOS>ATOM
  1 O        0.4270     1.2100     0.8110 O.3   1 <1>  -0.0190 
  2 N        1.1250     0.2220     1.2930 N.2   1 <1>  -0.4100 
  3 C        0.9950     1.7370    -0.2410 C.2   1 <1>  -0.0400 
  4 C        2.1570     0.1110     0.5360 C.2   1 <1>   0.1080 
  5 C        2.1310     1.0650    -0.4780 C.2   1 <1>  -0.1500 
  6 C        0.3480     2.9130    -0.9480 C.3   1 <1>   0.0200 
  7 C        3.2470    -0.9180     0.7290 C.3   1 <1>  -0.0590 
  8 C        0.2430     4.1290    -0.0160 C.3   1 <1>  -0.0800 
  9 C       -0.2960     5.3650    -0.7230 C.3   1 <1>   0.2000 
 10 C        1.5910     4.5790     0.5510 C.3   1 <1>   0.2090 
 11 O       -1.6850     5.3380    -0.7390 O.3   1 <1>  -0.6800 
 12 C        0.2520     6.5430     0.0770 C.3   1 <1>   0.2090 
 13 N        1.5330     6.0630     0.6680 N.pl3 1 <1>  -0.8380 
 14 C        2.6650     6.7310     0.2540 C.ar  1 <1>   0.4100 
 15 N        2.9450     6.6960    -1.0450 N.ar  1 <1>  -0.6200 
 16 C        3.4480     7.3940     1.1930 C.ar  1 <1>  -0.1500 
 17 C        4.0380     7.3460    -1.4110 C.ar  1 <1>   0.1600 
 18 C        4.5820     8.0640     0.7960 C.ar  1 <1>  -0.1500 
 19 C        4.8770     8.0330    -0.5520 C.ar  1 <1>  -0.1500 
 20 H        2.8670     1.2020    -1.2480 H     1 <1>   0.1500 
 21 H        0.9320     3.1670    -1.8150 H     1 <1>   0.0800 
 22 H       -0.6350     2.6270    -1.2800 H     1 <1>   0.0800 
 23 H        3.3220    -1.5390    -0.1440 H     1 <1>   0.0800 
 24 H        3.0210    -1.5370     1.5790 H     1 <1>   0.0800 
 25 H        4.1880    -0.4260     0.8980 H     1 <1>   0.0800 
 26 H       -0.3870     3.8880     0.8220 H     1 <1>   0.0800 
 27 H        0.0610     5.4270    -1.7370 H     1 <1>   0.0800 
 28 H        2.3930     4.2960    -0.1120 H     1 <1>   0.0800 
 29 H        1.7680     4.1360     1.5160 H     1 <1>   0.0800 
 30 H       -2.0320     5.2470     0.1690 H     1 <1>   0.4000 
 31 H       -0.4180     6.8080     0.8750 H     1 <1>   0.0800 
 32 H        0.4110     7.3950    -0.5620 H     1 <1>   0.0800 
 33 H        3.1460     7.3670     2.2220 H     1 <1>   0.1500 
 34 H        4.2800     7.3300    -2.4600 H     1 <1>   0.1500 
 35 H        5.2060     8.5860     1.5000 H     1 <1>   0.1500 
 36 H        5.7470     8.5370    -0.9310 H     1 <1>   0.1500 
@<TRIPOS>BOND
  1   1   2  1   
  2   1   3  1   
  3   2   4  2   
  4   3   5  2   
  5   3   6  1   
  6   4   5  1   
  7   4   7  1   
  8   5  20  1   
  9   6   8  1   
 10   6  21  1   
 11   6  22  1   
 12   7  23  1   
 13   7  24  1   
 14   7  25  1   
 15   8   9  1   
 16   8  10  1   
 17   8  26  1   
 18   9  11  1   
 19   9  12  1   
 20   9  27  1   
 21  10  13  1   
 22  10  28  1   
 23  10  29  1   
 24  11  30  1   
 25  12  13  1   
 26  12  31  1   
 27  12  32  1   
 28  13  14  1   
 29  14  15  ar  
 30  14  16  ar  
 31  15  17  ar  
 32  16  18  ar  
 33  16  33  1   
 34  17  19  ar  
 35  17  34  1   
 36  18  19  ar  
 37  18  35  1   
 38  19  36  1   
@<TRIPOS>SUBSTRUCTURE
  1 ****  10 GROUP 4 **** **** 0

# MOE 2024.06 (io_trps.svl 2023.06)
