@<TRIPOS>MOLECULE
NONAME
54 57 1 0 0 
SMALL
USER_CHARGES


@<TRIPOS>ATOM
  1 O       -2.3180     1.8730     3.3900 O.3   1 <1>  -0.5600 
  2 C       -0.9410     1.6520     3.3320 C.3   1 <1>   0.1200 
  3 C       -2.8480     2.0550     2.1080 C.3   1 <1>   0.1200 
  4 C       -0.4790     2.2390     2.0030 C.3   1 <1>   0.2890 
  5 C       -1.6810     1.9680     1.1160 C.3   1 <1>  -0.0800 
  6 N       -0.3090     3.7070     2.1450 N.pl3 1 <1>  -0.8690 
  7 C       -1.5870     0.5860     0.4420 C.3   1 <1>  -0.0170 
  8 C        0.5520     4.5000     1.4740 C.ar  1 <1>   0.4100 
  9 C       -2.7720     0.3350    -0.4770 C.ar  1 <1>  -0.1430 
 10 N        1.3020     3.9210     0.5610 N.ar  1 <1>  -0.6200 
 11 C        0.6220     5.8880     1.7560 C.ar  1 <1>  -0.1430 
 12 C       -2.8920     0.9710    -1.6960 C.ar  1 <1>  -0.1500 
 13 C       -3.7870    -0.5390    -0.1440 C.ar  1 <1>  -0.1500 
 14 C        2.1640     4.6750    -0.0990 C.ar  1 <1>   0.7710 
 15 C        1.5380     6.6300     1.0710 C.ar  1 <1>   0.2180 
 16 C       -0.3350     6.4700     2.8050 C.3   1 <1>  -0.0970 
 17 C       -3.9920     0.7130    -2.4980 C.ar  1 <1>   0.1600 
 18 C       -4.8450    -0.7260    -1.0190 C.ar  1 <1>   0.1600 
 19 N        2.2870     5.9880     0.1440 N.ar  1 <1>  -0.1790 
 20 N        2.9460     4.1080    -1.0500 N.pl3 1 <1>  -0.8380 
 21 C        1.8010     8.1210     1.2430 C.3   1 <1>  -0.0970 
 22 N       -4.9720    -0.1190    -2.1880 N.ar  1 <1>  -0.6200 
 23 C        4.0190     4.7380    -1.8690 C.3   1 <1>   0.2090 
 24 C        2.8330     2.6610    -1.3900 C.3   1 <1>   0.2090 
 25 C        4.7490     3.5760    -2.5270 C.3   1 <1>  -0.1600 
 26 C        3.7040     2.4710    -2.6230 C.3   1 <1>  -0.1600 
 27 H       -0.4630     2.1140     4.1780 H     1 <1>   0.0800 
 28 H       -0.7790     0.5890     3.3570 H     1 <1>   0.0800 
 29 H       -3.6050     1.3090     1.9350 H     1 <1>   0.0800 
 30 H       -3.3000     3.0310     2.0790 H     1 <1>   0.0800 
 31 H        0.4290     1.7790     1.6510 H     1 <1>   0.0800 
 32 H       -1.7720     2.7190     0.3510 H     1 <1>   0.0800 
 33 H       -0.9640     4.1010     2.8260 H     1 <1>   0.4000 
 34 H       -1.5370    -0.1900     1.1860 H     1 <1>   0.0800 
 35 H       -0.6850     0.5340    -0.1430 H     1 <1>   0.0800 
 36 H       -2.1430     1.6640    -2.0310 H     1 <1>   0.1500 
 37 H       -3.7690    -1.0770     0.7870 H     1 <1>   0.1500 
 38 H       -0.3390     7.5430     2.8200 H     1 <1>   0.0800 
 39 H       -0.0630     6.1170     3.7850 H     1 <1>   0.0800 
 40 H       -1.3440     6.1580     2.5980 H     1 <1>   0.0800 
 41 H       -4.0690     1.2200    -3.4450 H     1 <1>   0.1500 
 42 H       -5.6280    -1.4110    -0.7420 H     1 <1>   0.1500 
 43 H        2.9750     6.4660    -0.4210 H     1 <1>   0.4570 
 44 H        1.5410     8.4570     2.2290 H     1 <1>   0.0800 
 45 H        1.2270     8.6830     0.5260 H     1 <1>   0.0800 
 46 H        2.8440     8.3440     1.1020 H     1 <1>   0.0800 
 47 H        3.5740     5.3600    -2.6290 H     1 <1>   0.0800 
 48 H        4.6990     5.3150    -1.2640 H     1 <1>   0.0800 
 49 H        3.2130     2.0730    -0.5700 H     1 <1>   0.0800 
 50 H        1.8110     2.3820    -1.5870 H     1 <1>   0.0800 
 51 H        5.1490     3.8440    -3.4890 H     1 <1>   0.0800 
 52 H        5.5570     3.2590    -1.8900 H     1 <1>   0.0800 
 53 H        4.1450     1.4900    -2.6530 H     1 <1>   0.0800 
 54 H        3.1010     2.6080    -3.5040 H     1 <1>   0.0800 
@<TRIPOS>BOND
  1   1   2  1   
  2   1   3  1   
  3   2   4  1   
  4   2  27  1   
  5   2  28  1   
  6   3   5  1   
  7   3  29  1   
  8   3  30  1   
  9   4   5  1   
 10   4   6  1   
 11   4  31  1   
 12   5   7  1   
 13   5  32  1   
 14   6   8  1   
 15   6  33  1   
 16   7   9  1   
 17   7  34  1   
 18   7  35  1   
 19   8  10  ar  
 20   8  11  ar  
 21   9  12  ar  
 22   9  13  ar  
 23  10  14  ar  
 24  11  15  ar  
 25  11  16  1   
 26  12  17  ar  
 27  12  36  1   
 28  13  18  ar  
 29  13  37  1   
 30  14  19  ar  
 31  14  20  1   
 32  15  19  ar  
 33  15  21  1   
 34  16  38  1   
 35  16  39  1   
 36  16  40  1   
 37  17  22  ar  
 38  17  41  1   
 39  18  22  ar  
 40  18  42  1   
 41  19  43  1   
 42  20  23  1   
 43  20  24  1   
 44  21  44  1   
 45  21  45  1   
 46  21  46  1   
 47  23  25  1   
 48  23  47  1   
 49  23  48  1   
 50  24  26  1   
 51  24  49  1   
 52  24  50  1   
 53  25  26  1   
 54  25  51  1   
 55  25  52  1   
 56  26  53  1   
 57  26  54  1   
@<TRIPOS>SUBSTRUCTURE
  1 ****  10 GROUP 4 **** **** 0

# MOE 2024.06 (io_trps.svl 2023.06)
