@<TRIPOS>MOLECULE
NONAME
44 46 1 0 0 
SMALL
USER_CHARGES


@<TRIPOS>ATOM
  1 O        0.0890     0.3400    -0.6910 O.co2 1 <1>  -0.9000 
  2 C       -0.9070    -0.1670    -1.2250 C.2   1 <1>   0.9060 
  3 O       -0.8410    -0.8650    -2.2370 O.co2 1 <1>  -0.9000 
  4 C       -2.3030     0.2190    -0.6780 C.3   1 <1>   0.3170 
  5 N       -2.4230     1.6650    -0.2270 N.4   1 <1>  -0.9590 
  6 C       -2.7090    -0.6920     0.4910 C.3   1 <1>  -0.1600 
  7 C       -3.7650     2.0500     0.2670 C.3   1 <1>   0.3430 
  8 C       -1.8600     2.5930    -1.2410 C.3   1 <1>   0.4860 
  9 C       -4.0940    -0.3410     1.0520 C.3   1 <1>  -0.1600 
 10 C       -4.1580     1.1440     1.4340 C.3   1 <1>  -0.1600 
 11 C       -1.7980     3.9960    -0.6650 C.ar  1 <1>  -0.1430 
 12 C       -1.1510     4.2440     0.5470 C.ar  1 <1>   0.0830 
 13 C       -2.3930     5.0490    -1.3490 C.ar  1 <1>  -0.1500 
 14 O       -0.5890     3.2350     1.2450 O.3   1 <1>  -0.3630 
 15 C       -1.1070     5.5240     1.0790 C.ar  1 <1>  -0.1500 
 16 C       -2.3390     6.3220    -0.8110 C.ar  1 <1>  -0.1430 
 17 C        0.7530     2.9240     0.9310 C.3   1 <1>   0.0400 
 18 C       -1.7060     6.5560     0.3850 C.ar  1 <1>  -0.1430 
 19 C       -2.9130     7.5940    -1.3840 C.3   1 <1>  -0.0170 
 20 C       -1.7770     8.0130     0.7690 C.3   1 <1>  -0.0170 
 21 C       -2.2790     8.6950    -0.5160 C.3   1 <1>  -0.1600 
 22 H       -2.9900     0.0530    -1.4880 H     1 <1>   0.0800 
 23 H       -1.7430     1.7620     0.5490 H     1 <1>   0.4500 
 24 H       -1.9650    -0.6170     1.2650 H     1 <1>   0.0800 
 25 H       -2.7090    -1.7130     0.1470 H     1 <1>   0.0800 
 26 H       -4.4850     1.9520    -0.5290 H     1 <1>   0.0800 
 27 H       -3.7550     3.0770     0.5970 H     1 <1>   0.0800 
 28 H       -2.4660     2.5800    -2.1310 H     1 <1>   0.0800 
 29 H       -0.8600     2.2860    -1.5070 H     1 <1>   0.0800 
 30 H       -4.3000    -0.9500     1.9170 H     1 <1>   0.0800 
 31 H       -4.8450    -0.5560     0.3100 H     1 <1>   0.0800 
 32 H       -5.1560     1.3910     1.7500 H     1 <1>   0.0800 
 33 H       -3.4980     1.3370     2.2630 H     1 <1>   0.0800 
 34 H       -2.8920     4.8930    -2.2890 H     1 <1>   0.1500 
 35 H       -0.6140     5.7000     2.0180 H     1 <1>   0.1500 
 36 H        1.0280     2.0280     1.4590 H     1 <1>   0.0800 
 37 H        1.3820     3.7420     1.2330 H     1 <1>   0.0800 
 38 H        0.8450     2.7540    -0.1270 H     1 <1>   0.0800 
 39 H       -3.9820     7.5910    -1.2690 H     1 <1>   0.0800 
 40 H       -2.6560     7.7140    -2.4210 H     1 <1>   0.0800 
 41 H       -0.8160     8.3920     1.0680 H     1 <1>   0.0800 
 42 H       -2.4860     8.1400     1.5680 H     1 <1>   0.0800 
 43 H       -2.9740     9.4880    -0.3030 H     1 <1>   0.0800 
 44 H       -1.4330     9.1050    -1.0410 H     1 <1>   0.0800 
@<TRIPOS>BOND
  1   1   2  ar  
  2   2   3  ar  
  3   2   4  1   
  4   4   5  1   
  5   4   6  1   
  6   4  22  1   
  7   5   7  1   
  8   5   8  1   
  9   5  23  1   
 10   6   9  1   
 11   6  24  1   
 12   6  25  1   
 13   7  10  1   
 14   7  26  1   
 15   7  27  1   
 16   8  11  1   
 17   8  28  1   
 18   8  29  1   
 19   9  10  1   
 20   9  30  1   
 21   9  31  1   
 22  10  32  1   
 23  10  33  1   
 24  11  12  ar  
 25  11  13  ar  
 26  12  14  1   
 27  12  15  ar  
 28  13  16  ar  
 29  13  34  1   
 30  14  17  1   
 31  15  18  ar  
 32  15  35  1   
 33  16  18  ar  
 34  16  19  1   
 35  17  36  1   
 36  17  37  1   
 37  17  38  1   
 38  18  20  1   
 39  19  21  1   
 40  19  39  1   
 41  19  40  1   
 42  20  21  1   
 43  20  41  1   
 44  20  42  1   
 45  21  43  1   
 46  21  44  1   
@<TRIPOS>SUBSTRUCTURE
  1 ****  11 GROUP 4 **** **** 0

# MOE 2024.06 (io_trps.svl 2023.06)
