@<TRIPOS>MOLECULE
NONAME
38 39 1 0 0 
SMALL
USER_CHARGES


@<TRIPOS>ATOM
  1 O       -0.4240     0.9370     1.4250 O.2   1 <1>  -0.5700 
  2 C       -0.3050     2.1100     1.1830 C.2   1 <1>   0.5690 
  3 N       -1.3520     2.9520     1.3210 N.am  1 <1>  -0.7300 
  4 C        1.0350     2.6560     0.6790 C.3   1 <1>   0.1810 
  5 C       -1.2740     4.4080     1.0520 C.3   1 <1>   0.3640 
  6 O        1.1400     4.0600     0.7840 O.3   1 <1>  -0.5600 
  7 C       -2.5080     4.8310     0.2570 C.ar  1 <1>  -0.1440 
  8 C        0.0220     4.7800     0.2870 C.3   1 <1>   0.2610 
  9 C       -3.1720     6.0030     0.5920 C.ar  1 <1>  -0.1500 
 10 C       -2.9800     4.0720    -0.8080 C.ar  1 <1>  -0.1500 
 11 C        0.2890     6.2940     0.3340 C.2   1 <1>   0.5690 
 12 C       -4.2860     6.4090    -0.1200 C.ar  1 <1>  -0.1500 
 13 C       -4.0960     4.4760    -1.5200 C.ar  1 <1>  -0.1500 
 14 O       -0.1170     6.9340     1.2820 O.2   1 <1>  -0.5700 
 15 N        0.9830     6.9190    -0.6770 N.am  1 <1>  -0.6600 
 16 C       -4.7500     5.6460    -1.1770 C.ar  1 <1>  -0.1500 
 17 C        1.1430     8.4150    -0.6750 C.3   1 <1>   0.2010 
 18 C        1.7990     6.2150    -1.7070 C.3   1 <1>   0.0600 
 19 C        2.2870     8.8940     0.2210 C.2   1 <1>   0.5690 
 20 O        3.2240     9.4800    -0.2600 O.2   1 <1>  -0.5700 
 21 N        2.2370     8.6510     1.5440 N.am  1 <1>  -0.8000 
 22 H       -2.2450     2.5850     1.6540 H     1 <1>   0.3700 
 23 H        1.1650     2.3830    -0.3520 H     1 <1>   0.0800 
 24 H        1.8330     2.2250     1.2550 H     1 <1>   0.0800 
 25 H       -1.2780     4.9120     2.0030 H     1 <1>   0.0800 
 26 H       -0.1080     4.5010    -0.7420 H     1 <1>   0.0800 
 27 H       -2.8220     6.6120     1.4090 H     1 <1>   0.1500 
 28 H       -2.4860     3.1570    -1.0900 H     1 <1>   0.1500 
 29 H       -4.7930     7.3190     0.1480 H     1 <1>   0.1500 
 30 H       -4.4570     3.8810    -2.3410 H     1 <1>   0.1500 
 31 H       -5.6180     5.9600    -1.7300 H     1 <1>   0.1500 
 32 H        1.3190     8.7610    -1.6780 H     1 <1>   0.0800 
 33 H        0.2320     8.8710    -0.3290 H     1 <1>   0.0800 
 34 H        2.7530     6.7060    -1.8140 H     1 <1>   0.0800 
 35 H        1.2880     6.2370    -2.6530 H     1 <1>   0.0800 
 36 H        1.9850     5.1940    -1.4260 H     1 <1>   0.0800 
 37 H        3.0050     8.9200     2.1580 H     1 <1>   0.3700 
 38 H        1.4830     8.0790     1.9440 H     1 <1>   0.3700 
@<TRIPOS>BOND
  1   1   2  2   
  2   2   3  am  
  3   2   4  1   
  4   3   5  1   
  5   3  22  1   
  6   4   6  1   
  7   4  23  1   
  8   4  24  1   
  9   5   7  1   
 10   5   8  1   
 11   5  25  1   
 12   6   8  1   
 13   7   9  ar  
 14   7  10  ar  
 15   8  11  1   
 16   8  26  1   
 17   9  12  ar  
 18   9  27  1   
 19  10  13  ar  
 20  10  28  1   
 21  11  14  2   
 22  11  15  am  
 23  12  16  ar  
 24  12  29  1   
 25  13  16  ar  
 26  13  30  1   
 27  15  17  1   
 28  15  18  1   
 29  16  31  1   
 30  17  19  1   
 31  17  32  1   
 32  17  33  1   
 33  18  34  1   
 34  18  35  1   
 35  18  36  1   
 36  19  20  2   
 37  19  21  am  
 38  21  37  1   
 39  21  38  1   
@<TRIPOS>SUBSTRUCTURE
  1 ****   8 GROUP 4 **** **** 0

# MOE 2024.06 (io_trps.svl 2023.06)
