@<TRIPOS>MOLECULE
NONAME
23 23 1 0 0 
SMALL
USER_CHARGES


@<TRIPOS>ATOM
  1 F        0.4950     0.4050    -1.4490 F     1 <1>  -0.1900 
  2 C        1.4690     0.9410    -0.7600 C.ar  1 <1>   0.1900 
  3 C        2.4700     0.1230    -0.2520 C.ar  1 <1>  -0.1440 
  4 C        1.4470     2.3080    -0.5690 C.ar  1 <1>  -0.1500 
  5 C        3.4840     0.7230     0.4800 C.ar  1 <1>  -0.1500 
  6 C        2.4700    -1.3840    -0.4780 C.3   1 <1>  -0.0160 
  7 C        2.4710     2.8930     0.1680 C.ar  1 <1>   0.0820 
  8 C        3.4800     2.0930     0.6860 C.ar  1 <1>  -0.1500 
  9 C        1.5290    -2.0780     0.5150 C.3   1 <1>   0.0400 
 10 O        2.5530     4.2220     0.4200 O.3   1 <1>  -0.3630 
 11 C        1.5580    -3.5550     0.3370 C.1   1 <1>   0.3570 
 12 C        1.5930     5.1250    -0.0820 C.3   1 <1>   0.0400 
 13 N        1.5930    -4.6830     0.1980 N.1   1 <1>  -0.5570 
 14 H        0.6430     2.8790    -0.9900 H     1 <1>   0.1500 
 15 H        4.2830     0.1320     0.8950 H     1 <1>   0.1500 
 16 H        3.4680    -1.7680    -0.3580 H     1 <1>   0.0800 
 17 H        2.1600    -1.6000    -1.4860 H     1 <1>   0.0800 
 18 H        4.2680     2.5570     1.2530 H     1 <1>   0.1500 
 19 H        0.5220    -1.7330     0.3690 H     1 <1>   0.0800 
 20 H        1.8260    -1.8460     1.5210 H     1 <1>   0.0800 
 21 H        1.8680     6.1150     0.2360 H     1 <1>   0.0800 
 22 H        0.6280     4.8690     0.3190 H     1 <1>   0.0800 
 23 H        1.5920     5.0740    -1.1560 H     1 <1>   0.0800 
@<TRIPOS>BOND
  1   1   2  1   
  2   2   3  ar  
  3   2   4  ar  
  4   3   5  ar  
  5   3   6  1   
  6   4   7  ar  
  7   4  14  1   
  8   5   8  ar  
  9   5  15  1   
 10   6   9  1   
 11   6  16  1   
 12   6  17  1   
 13   7   8  ar  
 14   7  10  1   
 15   8  18  1   
 16   9  11  1   
 17   9  19  1   
 18   9  20  1   
 19  10  12  1   
 20  11  13  3   
 21  12  21  1   
 22  12  22  1   
 23  12  23  1   
@<TRIPOS>SUBSTRUCTURE
  1 ****   3 GROUP 4 **** **** 0

# MOE 2024.06 (io_trps.svl 2023.06)
