@<TRIPOS>MOLECULE
NONAME
46 48 1 0 0 
SMALL
USER_CHARGES


@<TRIPOS>ATOM
  1 F       -0.0370    -3.4680    -2.3550 F     1 <1>  -0.3400 
  2 C        0.7970    -4.0510    -1.4980 C.3   1 <1>   1.1640 
  3 F        1.8390    -3.2280    -1.3950 F     1 <1>  -0.3400 
  4 F        1.2570    -5.1380    -2.1130 F     1 <1>  -0.3400 
  5 C        0.1300    -4.3790    -0.1310 C.ar  1 <1>   0.1660 
  6 N       -0.9850    -5.1190    -0.1310 N.ar  1 <1>  -0.6200 
  7 C        0.7050    -3.9030     1.0450 C.ar  1 <1>  -0.1500 
  8 C       -1.5450    -5.3840     1.0410 C.ar  1 <1>   0.4100 
  9 C        0.1290    -4.1880     2.2660 C.ar  1 <1>  -0.1500 
 10 N       -2.7100    -6.1300     1.0200 N.pl3 1 <1>  -0.8380 
 11 C       -1.0160    -4.9450     2.2500 C.ar  1 <1>  -0.1500 
 12 C       -2.9160    -7.0460    -0.1360 C.3   1 <1>   0.2090 
 13 C       -3.9440    -5.4480     1.4970 C.3   1 <1>   0.2090 
 14 C       -4.0120    -8.0940     0.1650 C.3   1 <1>   0.4230 
 15 C       -4.9970    -6.5050     1.8400 C.3   1 <1>  -0.1600 
 16 N       -4.2010    -9.1310    -0.9420 N.4   1 <1>  -0.9590 
 17 C       -5.3400    -7.4400     0.6460 C.3   1 <1>   0.0000 
 18 C       -5.5030    -9.8700    -0.8750 C.3   1 <1>   0.3430 
 19 C       -3.9720    -8.6250    -2.3370 C.3   1 <1>   0.2630 
 20 C       -6.3100    -8.5500     1.1470 C.3   1 <1>  -0.1600 
 21 C       -5.9890    -6.6260    -0.5100 C.3   1 <1>   0.1200 
 22 C       -6.0170    -9.9450     0.5610 C.3   1 <1>  -0.1600 
 23 O       -7.0470    -5.8540    -0.0590 O.3   1 <1>  -0.6800 
 24 H        1.6040    -3.3110     1.0270 H     1 <1>   0.1500 
 25 H        0.5580    -3.8350     3.1880 H     1 <1>   0.1500 
 26 H       -1.5100    -5.2090     3.1650 H     1 <1>   0.1500 
 27 H       -3.1740    -6.4500    -0.9940 H     1 <1>   0.0800 
 28 H       -1.9890    -7.5540    -0.3370 H     1 <1>   0.0800 
 29 H       -3.7270    -4.8600     2.3730 H     1 <1>   0.0800 
 30 H       -4.3070    -4.7780     0.7350 H     1 <1>   0.0800 
 31 H       -3.6440    -8.6330     1.0220 H     1 <1>   0.0800 
 32 H       -4.6160    -7.0820     2.6650 H     1 <1>   0.0800 
 33 H       -5.8810    -6.0040     2.1950 H     1 <1>   0.0800 
 34 H       -3.4680    -9.8340    -0.7620 H     1 <1>   0.4500 
 35 H       -6.2420    -9.3630    -1.4750 H     1 <1>   0.0800 
 36 H       -5.3810   -10.8650    -1.2720 H     1 <1>   0.0800 
 37 H       -4.6810    -7.8500    -2.5790 H     1 <1>   0.0800 
 38 H       -4.0850    -9.4270    -3.0490 H     1 <1>   0.0800 
 39 H       -2.9760    -8.2250    -2.4370 H     1 <1>   0.0800 
 40 H       -6.2630    -8.6370     2.2200 H     1 <1>   0.0800 
 41 H       -7.3270    -8.2810     0.9170 H     1 <1>   0.0800 
 42 H       -6.3680    -7.2680    -1.2830 H     1 <1>   0.0800 
 43 H       -5.2850    -5.9430    -0.9530 H     1 <1>   0.0800 
 44 H       -6.9180   -10.5330     0.5860 H     1 <1>   0.0800 
 45 H       -5.2900   -10.4570     1.1690 H     1 <1>   0.0800 
 46 H       -7.7720    -6.3960     0.3080 H     1 <1>   0.4000 
@<TRIPOS>BOND
  1   1   2  1   
  2   2   3  1   
  3   2   4  1   
  4   2   5  1   
  5   5   6  ar  
  6   5   7  ar  
  7   6   8  ar  
  8   7   9  ar  
  9   7  24  1   
 10   8  10  1   
 11   8  11  ar  
 12   9  11  ar  
 13   9  25  1   
 14  10  12  1   
 15  10  13  1   
 16  11  26  1   
 17  12  14  1   
 18  12  27  1   
 19  12  28  1   
 20  13  15  1   
 21  13  29  1   
 22  13  30  1   
 23  14  16  1   
 24  14  17  1   
 25  14  31  1   
 26  15  17  1   
 27  15  32  1   
 28  15  33  1   
 29  16  18  1   
 30  16  19  1   
 31  16  34  1   
 32  17  20  1   
 33  17  21  1   
 34  18  22  1   
 35  18  35  1   
 36  18  36  1   
 37  19  37  1   
 38  19  38  1   
 39  19  39  1   
 40  20  22  1   
 41  20  40  1   
 42  20  41  1   
 43  21  23  1   
 44  21  42  1   
 45  21  43  1   
 46  22  44  1   
 47  22  45  1   
 48  23  46  1   
@<TRIPOS>SUBSTRUCTURE
  1 ****  12 GROUP 4 **** **** 0

# MOE 2024.06 (io_trps.svl 2023.06)
