@<TRIPOS>MOLECULE
NONAME
39 40 1 0 0 
SMALL
USER_CHARGES


@<TRIPOS>ATOM
  1 S        0.2210    -0.3380    -0.3470 S.3   1 <1>  -0.0800 
  2 C       -1.3750    -0.9150     0.0150 C.2   1 <1>   0.4420 
  3 C       -0.3730     1.2600    -0.0590 C.2   1 <1>   0.1980 
  4 N       -2.1790     0.0460     0.3030 N.2   1 <1>  -0.3380 
  5 N       -1.5690    -2.2760    -0.0510 N.am  1 <1>  -0.4940 
  6 N       -1.6010     1.2830     0.2590 N.2   1 <1>  -0.3380 
  7 C        0.5770     2.4270    -0.2060 C.3   1 <1>   0.0200 
  8 C       -2.6880    -3.0430     0.1710 C.2   1 <1>   0.5440 
  9 C       -0.1930     3.7250     0.0660 C.3   1 <1>   0.3430 
 10 O       -3.7360    -2.5120     0.4840 O.2   1 <1>  -0.5700 
 11 C       -2.5760    -4.4920     0.0200 C.ar  1 <1>   0.3960 
 12 N        0.6460     4.9580    -0.1170 N.4   1 <1>  -0.9590 
 13 N       -1.3780    -5.0030    -0.3310 N.ar  1 <1>  -0.6200 
 14 C       -3.6800    -5.3120     0.2340 C.ar  1 <1>  -0.1500 
 15 C        1.7080     5.0920     0.9330 C.3   1 <1>   0.2630 
 16 C       -0.2370     6.1670    -0.1050 C.3   1 <1>   0.2630 
 17 C       -1.3030    -6.3160    -0.4610 C.ar  1 <1>   0.1600 
 18 C       -3.5870    -6.6780     0.0950 C.ar  1 <1>   0.0830 
 19 C       -2.3540    -7.1890    -0.2650 C.ar  1 <1>  -0.1500 
 20 O       -4.6920    -7.4200     0.3160 O.3   1 <1>  -0.3630 
 21 C       -4.6800    -8.8250     0.1940 C.3   1 <1>   0.0400 
 22 H       -0.7570    -2.8400    -0.3070 H     1 <1>   0.3700 
 23 H        0.9690     2.4290    -1.2060 H     1 <1>   0.0800 
 24 H        1.3790     2.3040     0.4980 H     1 <1>   0.0800 
 25 H       -0.5890     3.6970     1.0690 H     1 <1>   0.0800 
 26 H       -1.0340     3.7620    -0.6090 H     1 <1>   0.0800 
 27 H        1.0980     4.9130    -1.0440 H     1 <1>   0.4500 
 28 H       -4.6230    -4.8770     0.5130 H     1 <1>   0.1500 
 29 H        1.2620     5.1280     1.9140 H     1 <1>   0.0800 
 30 H        2.2730     5.9970     0.7790 H     1 <1>   0.0800 
 31 H        2.3880     4.2570     0.8930 H     1 <1>   0.0800 
 32 H       -0.7390     6.2560     0.8450 H     1 <1>   0.0800 
 33 H       -0.9820     6.0950    -0.8820 H     1 <1>   0.0800 
 34 H        0.3460     7.0590    -0.2720 H     1 <1>   0.0800 
 35 H       -0.3450    -6.7240    -0.7420 H     1 <1>   0.1500 
 36 H       -2.1950    -8.2420    -0.3950 H     1 <1>   0.1500 
 37 H       -5.6680    -9.1880     0.4170 H     1 <1>   0.0800 
 38 H       -3.9750    -9.2320     0.8970 H     1 <1>   0.0800 
 39 H       -4.4150    -9.0870    -0.8150 H     1 <1>   0.0800 
@<TRIPOS>BOND
  1   1   2  1   
  2   1   3  1   
  3   2   4  2   
  4   2   5  1   
  5   3   6  2   
  6   3   7  1   
  7   4   6  1   
  8   5   8  am  
  9   5  22  1   
 10   7   9  1   
 11   7  23  1   
 12   7  24  1   
 13   8  10  2   
 14   8  11  1   
 15   9  12  1   
 16   9  25  1   
 17   9  26  1   
 18  11  13  ar  
 19  11  14  ar  
 20  12  15  1   
 21  12  16  1   
 22  12  27  1   
 23  13  17  ar  
 24  14  18  ar  
 25  14  28  1   
 26  15  29  1   
 27  15  30  1   
 28  15  31  1   
 29  16  32  1   
 30  16  33  1   
 31  16  34  1   
 32  17  19  ar  
 33  17  35  1   
 34  18  19  ar  
 35  18  20  1   
 36  19  36  1   
 37  20  21  1   
 38  21  37  1   
 39  21  38  1   
 40  21  39  1   
@<TRIPOS>SUBSTRUCTURE
  1 ****   5 GROUP 4 **** **** 0

# MOE 2024.06 (io_trps.svl 2023.06)
