@<TRIPOS>MOLECULE
NONAME
43 45 1 0 0 
SMALL
USER_CHARGES


@<TRIPOS>ATOM
  1 CL       0.5690     2.9730     2.1900 Cl    1 <1>  -0.1770 
  2 C       -0.3220     2.4310     0.7860 C.ar  1 <1>   0.1770 
  3 C        0.3070     2.2950    -0.4440 C.ar  1 <1>  -0.1440 
  4 C       -1.6680     2.1560     0.9430 C.ar  1 <1>  -0.1500 
  5 C       -0.4490     1.8780    -1.5300 C.ar  1 <1>  -0.1500 
  6 C        1.7880     2.5930    -0.6340 C.3   1 <1>   0.2140 
  7 C       -2.4100     1.7380    -0.1480 C.ar  1 <1>  -0.1500 
  8 C       -1.7990     1.6010    -1.3830 C.ar  1 <1>  -0.1500 
  9 S        1.9550     4.1170    -1.6040 S.3   1 <1>  -0.4600 
 10 C        0.9070     5.3180    -0.7040 C.3   1 <1>   0.1310 
 11 C        1.1150     6.7420    -1.2040 C.2   1 <1>   0.5690 
 12 O        0.1440     7.3830    -1.5340 O.2   1 <1>  -0.5700 
 13 N        2.3650     7.2820    -1.2330 N.am  1 <1>  -0.5100 
 14 C        3.5970     6.9660    -0.4440 C.3   1 <1>   0.2250 
 15 C        2.7680     8.7160    -1.3240 C.3   1 <1>   0.2250 
 16 C        3.6510     8.4700    -0.0820 C.3   1 <1>   0.0850 
 17 N        4.9910     9.0790    -0.2070 N.pl3 1 <1>   0.4850 
 18 N        6.1250     8.3470    -0.1860 N.2   1 <1>  -0.7070 
 19 C        5.2750    10.4030    -0.2910 C.2   1 <1>  -0.3320 
 20 C        7.0870     9.2080    -0.2740 C.2   1 <1>   0.1080 
 21 C        6.6190    10.5130    -0.3420 C.2   1 <1>  -0.1500 
 22 C        4.2510    11.5280    -0.3110 C.3   1 <1>  -0.0600 
 23 C        8.5410     8.7980    -0.2920 C.3   1 <1>  -0.0590 
 24 H       -2.1280     2.2700     1.9080 H     1 <1>   0.1500 
 25 H        0.0110     1.7720    -2.4980 H     1 <1>   0.1500 
 26 H        2.2720     1.8110    -1.1920 H     1 <1>   0.0800 
 27 H        2.3110     2.7450     0.2920 H     1 <1>   0.0800 
 28 H       -3.4590     1.5220    -0.0380 H     1 <1>   0.1500 
 29 H       -2.3750     1.2790    -2.2340 H     1 <1>   0.1500 
 30 H        1.1580     5.2490     0.3380 H     1 <1>   0.0800 
 31 H       -0.1150     5.0210    -0.8530 H     1 <1>   0.0800 
 32 H        4.3790     6.6170    -1.0960 H     1 <1>   0.0000 
 33 H        3.3860     6.3230     0.3910 H     1 <1>   0.0000 
 34 H        1.9410     9.3810    -1.1470 H     1 <1>   0.0000 
 35 H        3.3150     8.9060    -2.2310 H     1 <1>   0.0000 
 36 H        3.1680     8.7110     0.8490 H     1 <1>   0.0000 
 37 H        7.2240    11.3990    -0.4140 H     1 <1>   0.1500 
 38 H        3.6080    11.4660     0.5490 H     1 <1>   0.0800 
 39 H        3.6530    11.4780    -1.2030 H     1 <1>   0.0800 
 40 H        4.7500    12.4810    -0.2930 H     1 <1>   0.0800 
 41 H        8.7230     8.1640    -1.1400 H     1 <1>   0.0800 
 42 H        8.7710     8.2530     0.6050 H     1 <1>   0.0800 
 43 H        9.1760     9.6610    -0.3530 H     1 <1>   0.0800 
@<TRIPOS>BOND
  1   1   2  1   
  2   2   3  ar  
  3   2   4  ar  
  4   3   5  ar  
  5   3   6  1   
  6   4   7  ar  
  7   4  24  1   
  8   5   8  ar  
  9   5  25  1   
 10   6   9  1   
 11   6  26  1   
 12   6  27  1   
 13   7   8  ar  
 14   7  28  1   
 15   8  29  1   
 16   9  10  1   
 17  10  11  1   
 18  10  30  1   
 19  10  31  1   
 20  11  12  2   
 21  11  13  am  
 22  13  14  1   
 23  13  15  1   
 24  14  16  1   
 25  14  32  1   
 26  14  33  1   
 27  15  16  1   
 28  15  34  1   
 29  15  35  1   
 30  16  17  1   
 31  16  36  1   
 32  17  18  1   
 33  17  19  1   
 34  18  20  2   
 35  19  21  2   
 36  19  22  1   
 37  20  21  1   
 38  20  23  1   
 39  21  37  1   
 40  22  38  1   
 41  22  39  1   
 42  22  40  1   
 43  23  41  1   
 44  23  42  1   
 45  23  43  1   
@<TRIPOS>SUBSTRUCTURE
  1 ****  13 GROUP 4 **** **** 0

# MOE 2024.06 (io_trps.svl 2023.06)
