@<TRIPOS>MOLECULE
NONAME
40 42 1 0 0 
SMALL
USER_CHARGES


@<TRIPOS>ATOM
  1 O       -0.4780     0.2940    -0.0490 O.2   1 <1>  -0.5700 
  2 C       -1.5290     0.9100     0.0470 C.2   1 <1>   0.7160 
  3 N       -2.6920     0.1590     0.0570 N.am  1 <1>  -0.6600 
  4 C       -1.4880     2.3710     0.1360 C.2   1 <1>   0.1410 
  5 C       -4.0780     0.6880     0.0400 C.3   1 <1>   0.1400 
  6 C       -2.6950    -1.3230     0.0230 C.3   1 <1>   0.1400 
  7 N       -2.5610     3.2050     0.3150 N.2   1 <1>  -0.5650 
  8 C       -0.3650     3.1440     0.0590 C.2   1 <1>  -0.3020 
  9 C       -4.9650    -0.5350    -0.1900 C.3   1 <1>   0.2000 
 10 C       -4.1450    -1.7290     0.2930 C.3   1 <1>  -0.0800 
 11 C       -2.0610     4.3950     0.3370 C.2   1 <1>   0.0360 
 12 N       -0.7220     4.4260     0.1850 N.pl3 1 <1>   0.0480 
 13 O       -6.1520    -0.4520     0.5190 O.3   1 <1>  -0.6800 
 14 C       -4.5520    -3.0490    -0.3780 C.3   1 <1>   0.0210 
 15 C        0.1550     5.6090     0.1660 C.3   1 <1>   0.0160 
 16 C       -3.6490    -4.1860     0.0590 C.2   1 <1>   0.1080 
 17 N       -3.6360    -4.6470     1.2700 N.2   1 <1>  -0.7070 
 18 C       -2.7440    -4.8460    -0.7660 C.2   1 <1>  -0.1500 
 19 N       -2.7130    -5.6270     1.2510 N.pl3 1 <1>   0.3000 
 20 C       -2.1570    -5.7660     0.0280 C.2   1 <1>  -0.3320 
 21 C       -1.0840    -6.7840    -0.3100 C.3   1 <1>  -0.0600 
 22 H       -4.2910     1.1500     0.9890 H     1 <1>   0.0800 
 23 H       -4.2000     1.4030    -0.7550 H     1 <1>   0.0800 
 24 H       -2.3750    -1.6500    -0.9520 H     1 <1>   0.0800 
 25 H       -2.0310    -1.7280     0.7690 H     1 <1>   0.0800 
 26 H        0.6490     2.8140    -0.0780 H     1 <1>   0.1500 
 27 H       -5.2000    -0.6170    -1.2380 H     1 <1>   0.0800 
 28 H       -4.2490    -1.8310     1.3600 H     1 <1>   0.0800 
 29 H       -2.6400     5.2930     0.4640 H     1 <1>   0.1500 
 30 H       -5.9680    -0.4410     1.4780 H     1 <1>   0.4000 
 31 H       -4.5070    -2.9500    -1.4470 H     1 <1>   0.0800 
 32 H       -5.5640    -3.2900    -0.1070 H     1 <1>   0.0800 
 33 H        1.1730     5.2990     0.0160 H     1 <1>   0.0800 
 34 H        0.0730     6.1280     1.1040 H     1 <1>   0.0800 
 35 H       -0.1430     6.2590    -0.6360 H     1 <1>   0.0800 
 36 H       -2.5690    -4.6450    -1.8070 H     1 <1>   0.1500 
 37 H       -2.4860    -6.1810     2.0850 H     1 <1>   0.2700 
 38 H       -0.8050    -6.6970    -1.3450 H     1 <1>   0.0800 
 39 H       -1.4480    -7.7810    -0.1360 H     1 <1>   0.0800 
 40 H       -0.2100    -6.6180     0.2950 H     1 <1>   0.0800 
@<TRIPOS>BOND
  1   1   2  2   
  2   2   3  am  
  3   2   4  1   
  4   3   5  1   
  5   3   6  1   
  6   4   7  1   
  7   4   8  2   
  8   5   9  1   
  9   5  22  1   
 10   5  23  1   
 11   6  10  1   
 12   6  24  1   
 13   6  25  1   
 14   7  11  2   
 15   8  12  1   
 16   8  26  1   
 17   9  10  1   
 18   9  13  1   
 19   9  27  1   
 20  10  14  1   
 21  10  28  1   
 22  11  12  1   
 23  11  29  1   
 24  12  15  1   
 25  13  30  1   
 26  14  16  1   
 27  14  31  1   
 28  14  32  1   
 29  15  33  1   
 30  15  34  1   
 31  15  35  1   
 32  16  17  2   
 33  16  18  1   
 34  17  19  1   
 35  18  20  2   
 36  18  36  1   
 37  19  20  1   
 38  19  37  1   
 39  20  21  1   
 40  21  38  1   
 41  21  39  1   
 42  21  40  1   
@<TRIPOS>SUBSTRUCTURE
  1 ****   6 GROUP 4 **** **** 0

# MOE 2024.06 (io_trps.svl 2023.06)
