@<TRIPOS>MOLECULE
NONAME
62 66 1 0 0 
SMALL
USER_CHARGES


@<TRIPOS>ATOM
  1 O       -0.4420     0.5980    -1.5520 O.2   1 <1>  -0.5700 
  2 C       -1.5370     1.0260    -1.2720 C.2   1 <1>   0.5690 
  3 N       -2.6770     0.3060    -1.5320 N.am  1 <1>  -0.6600 
  4 C       -1.6200     2.3890    -0.6010 C.3   1 <1>  -0.0990 
  5 C       -4.0560     0.6700    -1.1020 C.3   1 <1>   0.1400 
  6 C       -2.6230    -0.9800    -2.2850 C.3   1 <1>   0.1400 
  7 C       -0.2820     3.1380    -0.6520 C.3   1 <1>   0.1100 
  8 C       -4.6020    -0.4340    -0.1940 C.3   1 <1>  -0.1600 
  9 C       -3.1510    -2.1060    -1.3960 C.3   1 <1>  -0.1600 
 10 N       -0.3940     4.4880    -0.0640 N.3   1 <1>  -0.8100 
 11 C       -4.5630    -1.8020    -0.8810 C.3   1 <1>   0.4600 
 12 C       -0.3980     4.4530     1.4220 C.3   1 <1>   0.1100 
 13 C        0.7170     5.3460    -0.5460 C.3   1 <1>   0.1100 
 14 O       -5.4490    -1.7150    -1.9770 O.3   1 <1>  -0.5600 
 15 C       -5.0470    -2.8870     0.0740 C.2   1 <1>  -0.3320 
 16 C       -0.4020     5.8670     2.0570 C.3   1 <1>   0.3430 
 17 C        0.6590     6.7810     0.0320 C.3   1 <1>   0.3430 
 18 C       -5.9680    -2.9110    -2.5100 C.3   1 <1>   0.1200 
 19 N       -4.5250    -3.1800     1.3040 N.pl3 1 <1>   0.0330 
 20 C       -6.0770    -3.7190    -0.1810 C.2   1 <1>  -0.1810 
 21 N       -0.4740     6.9320     1.0040 N.4   1 <1>  -0.9590 
 22 C       -6.8420    -3.6440    -1.4780 C.3   1 <1>   0.0210 
 23 C       -5.2520    -4.2160     1.8380 C.ar  1 <1>  -0.1520 
 24 C       -6.2420    -4.5770     0.9260 C.ar  1 <1>   0.0000 
 25 C       -0.6060     8.3110     1.5540 C.3   1 <1>   0.2630 
 26 C       -5.1290    -4.8810     3.0600 C.ar  1 <1>  -0.1500 
 27 C       -7.1250    -5.6150     1.2380 C.ar  1 <1>  -0.1500 
 28 C       -6.0040    -5.9020     3.3540 C.ar  1 <1>  -0.1500 
 29 C       -7.0020    -6.2680     2.4420 C.ar  1 <1>  -0.1500 
 30 H       -1.9230     2.2370     0.4150 H     1 <1>   0.0800 
 31 H       -2.3560     2.9790    -1.1130 H     1 <1>   0.0800 
 32 H       -4.6820     0.7680    -1.9740 H     1 <1>   0.0800 
 33 H       -4.0730     1.6060    -0.5750 H     1 <1>   0.0800 
 34 H       -1.6170    -1.2040    -2.5950 H     1 <1>   0.0800 
 35 H       -3.2310    -0.8950    -3.1700 H     1 <1>   0.0800 
 36 H        0.0040     3.2200    -1.6880 H     1 <1>   0.0800 
 37 H        0.4820     2.5690    -0.1470 H     1 <1>   0.0800 
 38 H       -5.6160    -0.2120     0.0850 H     1 <1>   0.0800 
 39 H       -4.0140    -0.4610     0.7040 H     1 <1>   0.0800 
 40 H       -2.4830    -2.2180    -0.5630 H     1 <1>   0.0800 
 41 H       -3.1440    -3.0350    -1.9330 H     1 <1>   0.0800 
 42 H        0.4640     3.9140     1.7790 H     1 <1>   0.0800 
 43 H       -1.2700     3.9250     1.7670 H     1 <1>   0.0800 
 44 H        0.6800     5.4070    -1.6210 H     1 <1>   0.0800 
 45 H        1.6620     4.8990    -0.2830 H     1 <1>   0.0800 
 46 H        0.4910     5.9920     2.6450 H     1 <1>   0.0800 
 47 H       -1.2470     5.9490     2.7210 H     1 <1>   0.0800 
 48 H        0.5370     7.4770    -0.7820 H     1 <1>   0.0800 
 49 H        1.5950     7.0050     0.5160 H     1 <1>   0.0800 
 50 H       -5.1460    -3.5350    -2.8130 H     1 <1>   0.0800 
 51 H       -6.5500    -2.6590    -3.3780 H     1 <1>   0.0800 
 52 H       -3.7330    -2.7200     1.7600 H     1 <1>   0.2700 
 53 H       -1.3060     6.6730     0.4480 H     1 <1>   0.4500 
 54 H       -7.0680    -4.6330    -1.8320 H     1 <1>   0.0800 
 55 H       -7.7620    -3.1100    -1.3280 H     1 <1>   0.0800 
 56 H        0.2680     8.5700     2.1300 H     1 <1>   0.0800 
 57 H       -1.4730     8.3760     2.1920 H     1 <1>   0.0800 
 58 H       -0.7170     9.0240     0.7530 H     1 <1>   0.0800 
 59 H       -4.3600    -4.5930     3.7540 H     1 <1>   0.1500 
 60 H       -7.8860    -5.8850     0.5290 H     1 <1>   0.1500 
 61 H       -5.9300    -6.4290     4.2880 H     1 <1>   0.1500 
 62 H       -7.6740    -7.0690     2.6960 H     1 <1>   0.1500 
@<TRIPOS>BOND
  1   1   2  2   
  2   2   3  am  
  3   2   4  1   
  4   3   5  1   
  5   3   6  1   
  6   4   7  1   
  7   4  30  1   
  8   4  31  1   
  9   5   8  1   
 10   5  32  1   
 11   5  33  1   
 12   6   9  1   
 13   6  34  1   
 14   6  35  1   
 15   7  10  1   
 16   7  36  1   
 17   7  37  1   
 18   8  11  1   
 19   8  38  1   
 20   8  39  1   
 21   9  11  1   
 22   9  40  1   
 23   9  41  1   
 24  10  12  1   
 25  10  13  1   
 26  11  14  1   
 27  11  15  1   
 28  12  16  1   
 29  12  42  1   
 30  12  43  1   
 31  13  17  1   
 32  13  44  1   
 33  13  45  1   
 34  14  18  1   
 35  15  19  1   
 36  15  20  2   
 37  16  21  1   
 38  16  46  1   
 39  16  47  1   
 40  17  21  1   
 41  17  48  1   
 42  17  49  1   
 43  18  22  1   
 44  18  50  1   
 45  18  51  1   
 46  19  23  1   
 47  19  52  1   
 48  20  22  1   
 49  20  24  1   
 50  21  25  1   
 51  21  53  1   
 52  22  54  1   
 53  22  55  1   
 54  23  24  ar  
 55  23  26  ar  
 56  24  27  ar  
 57  25  56  1   
 58  25  57  1   
 59  25  58  1   
 60  26  28  ar  
 61  26  59  1   
 62  27  29  ar  
 63  27  60  1   
 64  28  29  ar  
 65  28  61  1   
 66  29  62  1   
@<TRIPOS>SUBSTRUCTURE
  1 ****   8 GROUP 4 **** **** 0

# MOE 2024.06 (io_trps.svl 2023.06)
