@<TRIPOS>MOLECULE
NONAME
55 58 1 0 0 
SMALL
USER_CHARGES


@<TRIPOS>ATOM
  1 F        1.4970     0.4430    -0.5850 F     1 <1>  -0.1900 
  2 C        2.5840     1.1700    -0.5850 C.ar  1 <1>   0.1900 
  3 C        2.7190     2.1980    -1.5010 C.ar  1 <1>  -0.1440 
  4 C        3.5660     0.8730     0.3370 C.ar  1 <1>  -0.1500 
  5 C        3.8860     2.9460    -1.4650 C.ar  1 <1>  -0.1500 
  6 C        1.6280     2.4970    -2.5190 C.3   1 <1>  -0.0960 
  7 C        4.7220     1.6330     0.3530 C.ar  1 <1>  -0.1500 
  8 C        4.8950     2.6930    -0.5360 C.ar  1 <1>  -0.1440 
  9 C        6.1400     3.5990    -0.5910 C.3   1 <1>   0.0640 
 10 C        7.3750     3.1510     0.2410 C.3   1 <1>  -0.1600 
 11 C        5.7660     5.0870    -0.3450 C.3   1 <1>  -0.1600 
 12 C        7.5870     3.8920     1.5790 C.3   1 <1>   0.4230 
 13 C        6.1200     5.6150     1.0530 C.3   1 <1>   0.4230 
 14 N        7.5350     5.3330     1.3320 N.4   1 <1>  -0.9590 
 15 C        6.4300     3.7380     2.5640 C.3   1 <1>  -0.1600 
 16 C        5.4150     4.8150     2.1500 C.3   1 <1>  -0.1600 
 17 C        8.5410     5.9370     0.4190 C.3   1 <1>   0.5230 
 18 C        8.6550     7.4110     0.7760 C.2   1 <1>   0.0060 
 19 N        8.3110     7.8790     1.9390 N.2   1 <1>  -0.5650 
 20 N        9.1290     8.3550    -0.0770 N.pl3 1 <1>   0.0480 
 21 C        8.5760     9.1950     1.8460 C.2   1 <1>   0.0770 
 22 C        9.0710     9.5000     0.6280 C.2   1 <1>  -0.3020 
 23 C        9.5790     8.2520    -1.4880 C.3   1 <1>   0.0960 
 24 C       10.9200     7.5240    -1.6200 C.3   1 <1>   0.1200 
 25 O       10.7590     6.1790    -1.2830 O.3   1 <1>  -0.5600 
 26 C       11.9340     5.4370    -1.4040 C.3   1 <1>   0.0400 
 27 H        3.4230     0.0570     1.0220 H     1 <1>   0.1500 
 28 H        4.0060     3.7400    -2.1810 H     1 <1>   0.1500 
 29 H        1.8880     3.3380    -3.1350 H     1 <1>   0.0800 
 30 H        0.7040     2.7150    -2.0130 H     1 <1>   0.0800 
 31 H        1.4780     1.6410    -3.1540 H     1 <1>   0.0800 
 32 H        5.4680     1.3570     1.0690 H     1 <1>   0.1500 
 33 H        6.4530     3.5360    -1.6210 H     1 <1>   0.0800 
 34 H        8.2520     3.3190    -0.3570 H     1 <1>   0.0800 
 35 H        7.3620     2.0920     0.4090 H     1 <1>   0.0800 
 36 H        4.7120     5.2400    -0.4930 H     1 <1>   0.0800 
 37 H        6.2500     5.7020    -1.0800 H     1 <1>   0.0800 
 38 H        8.5230     3.6020     2.0320 H     1 <1>   0.0800 
 39 H        5.9060     6.6700     1.1350 H     1 <1>   0.0800 
 40 H        7.7260     5.8380     2.2130 H     1 <1>   0.4500 
 41 H        6.0140     2.7510     2.5750 H     1 <1>   0.0800 
 42 H        6.7910     3.9460     3.5570 H     1 <1>   0.0800 
 43 H        5.1900     5.4590     2.9830 H     1 <1>   0.0800 
 44 H        4.4930     4.3850     1.7980 H     1 <1>   0.0800 
 45 H        9.5020     5.4750     0.5740 H     1 <1>   0.0800 
 46 H        8.2630     5.8110    -0.6120 H     1 <1>   0.0800 
 47 H        8.3950     9.8670     2.6700 H     1 <1>   0.1500 
 48 H        9.3760    10.4560     0.2420 H     1 <1>   0.1500 
 49 H        8.8290     7.7480    -2.0690 H     1 <1>   0.0800 
 50 H        9.6860     9.2470    -1.8790 H     1 <1>   0.0800 
 51 H       11.6570     7.9680    -0.9710 H     1 <1>   0.0800 
 52 H       11.2640     7.5780    -2.6400 H     1 <1>   0.0800 
 53 H       11.7250     4.4180    -1.1310 H     1 <1>   0.0800 
 54 H       12.6830     5.8410    -0.7440 H     1 <1>   0.0800 
 55 H       12.2760     5.4720    -2.4250 H     1 <1>   0.0800 
@<TRIPOS>BOND
  1   1   2  1   
  2   2   3  ar  
  3   2   4  ar  
  4   3   5  ar  
  5   3   6  1   
  6   4   7  ar  
  7   4  27  1   
  8   5   8  ar  
  9   5  28  1   
 10   6  29  1   
 11   6  30  1   
 12   6  31  1   
 13   7   8  ar  
 14   7  32  1   
 15   8   9  1   
 16   9  10  1   
 17   9  11  1   
 18   9  33  1   
 19  10  12  1   
 20  10  34  1   
 21  10  35  1   
 22  11  13  1   
 23  11  36  1   
 24  11  37  1   
 25  12  14  1   
 26  12  15  1   
 27  12  38  1   
 28  13  14  1   
 29  13  16  1   
 30  13  39  1   
 31  14  17  1   
 32  14  40  1   
 33  15  16  1   
 34  15  41  1   
 35  15  42  1   
 36  16  43  1   
 37  16  44  1   
 38  17  18  1   
 39  17  45  1   
 40  17  46  1   
 41  18  19  2   
 42  18  20  1   
 43  19  21  1   
 44  20  22  1   
 45  20  23  1   
 46  21  22  2   
 47  21  47  1   
 48  22  48  1   
 49  23  24  1   
 50  23  49  1   
 51  23  50  1   
 52  24  25  1   
 53  24  51  1   
 54  24  52  1   
 55  25  26  1   
 56  26  53  1   
 57  26  54  1   
 58  26  55  1   
@<TRIPOS>SUBSTRUCTURE
  1 ****  11 GROUP 4 **** **** 0

# MOE 2024.06 (io_trps.svl 2023.06)
