@<TRIPOS>MOLECULE
NONAME
54 58 1 0 0 
SMALL
USER_CHARGES


@<TRIPOS>ATOM
  1 O       -2.2870     0.2460     1.6510 O.2   1 <1>  -0.5700 
  2 C       -2.4160     1.3460     1.1750 C.2   1 <1>   0.5950 
  3 C       -2.9230     1.6160    -0.1370 C.2   1 <1>  -0.0860 
  4 C       -2.0210     2.5670     2.0010 C.3   1 <1>  -0.0990 
  5 C       -3.2580     0.7550    -1.2100 C.2   1 <1>  -0.0860 
  6 C       -3.1540     2.8640    -0.6020 C.2   1 <1>  -0.0400 
  7 C       -2.8800     3.8180     1.6860 C.3   1 <1>  -0.1600 
  8 C       -3.6340     1.5900    -2.2160 C.2   1 <1>  -0.0400 
  9 C       -3.1770    -0.6830    -1.1840 C.2   1 <1>   0.7160 
 10 O       -3.5740     2.8460    -1.8380 O.3   1 <1>  -0.2800 
 11 C       -2.9510     4.1440     0.1790 C.3   1 <1>   0.0200 
 12 C       -4.0790     1.2780    -3.6290 C.3   1 <1>  -0.0600 
 13 O       -2.3560    -1.2550    -1.8750 O.2   1 <1>  -0.5700 
 14 N       -4.0160    -1.4260    -0.3910 N.am  1 <1>  -0.6600 
 15 C       -5.1810    -0.9100     0.3670 C.3   1 <1>   0.1400 
 16 C       -3.6300    -2.7690     0.1040 C.3   1 <1>   0.1400 
 17 C       -5.2290    -1.7590     1.6350 C.3   1 <1>   0.2000 
 18 C       -4.6140    -3.1040     1.2370 C.3   1 <1>  -0.0800 
 19 O       -4.4330    -1.1760     2.6070 O.3   1 <1>  -0.6800 
 20 C       -5.7070    -4.0870     0.7760 C.3   1 <1>  -0.0170 
 21 C       -5.1410    -5.4630     0.4680 C.ar  1 <1>   0.1670 
 22 N       -5.0000    -5.7910    -0.7790 N.ar  1 <1>  -0.6200 
 23 C       -4.8000    -6.3080     1.5360 C.ar  1 <1>  -0.1500 
 24 C       -4.4860    -7.0160    -1.0580 C.ar  1 <1>   0.3100 
 25 C       -4.2850    -7.5440     1.2860 C.ar  1 <1>  -0.1500 
 26 C       -4.1130    -7.9330    -0.0520 C.ar  1 <1>   0.0000 
 27 C       -4.3150    -7.3910    -2.4000 C.ar  1 <1>  -0.1500 
 28 C       -3.5880    -9.1860    -0.4270 C.ar  1 <1>  -0.1500 
 29 C       -3.8030    -8.6140    -2.7450 C.ar  1 <1>  -0.1500 
 30 C       -3.4360    -9.5210    -1.7460 C.ar  1 <1>  -0.1500 
 31 H       -2.1110     2.3230     3.0440 H     1 <1>   0.0800 
 32 H       -0.9870     2.7800     1.8010 H     1 <1>   0.0800 
 33 H       -3.8810     3.6340     2.0380 H     1 <1>   0.0800 
 34 H       -2.4990     4.6690     2.2230 H     1 <1>   0.0800 
 35 H       -2.0380     4.6090    -0.1490 H     1 <1>   0.0800 
 36 H       -3.7650     4.8210    -0.0120 H     1 <1>   0.0800 
 37 H       -4.0690     0.2160    -3.8000 H     1 <1>   0.0800 
 38 H       -3.4130     1.7480    -4.3290 H     1 <1>   0.0800 
 39 H       -5.0740     1.6500    -3.7890 H     1 <1>   0.0800 
 40 H       -5.1000     0.1380     0.5960 H     1 <1>   0.0800 
 41 H       -6.0680    -1.0790    -0.2170 H     1 <1>   0.0800 
 42 H       -3.6630    -3.4840    -0.7000 H     1 <1>   0.0800 
 43 H       -2.6240    -2.7230     0.4870 H     1 <1>   0.0800 
 44 H       -6.2240    -1.8450     2.0380 H     1 <1>   0.0800 
 45 H       -4.0910    -3.5420     2.0700 H     1 <1>   0.0800 
 46 H       -3.5740    -0.8750     2.2090 H     1 <1>   0.4000 
 47 H       -6.2000    -3.7020    -0.1010 H     1 <1>   0.0800 
 48 H       -6.4490    -4.1910     1.5460 H     1 <1>   0.0800 
 49 H       -4.9490    -5.9660     2.5450 H     1 <1>   0.1500 
 50 H       -4.0120    -8.2170     2.0780 H     1 <1>   0.1500 
 51 H       -4.6020    -6.6780    -3.1520 H     1 <1>   0.1500 
 52 H       -3.3070    -9.8780     0.3460 H     1 <1>   0.1500 
 53 H       -3.6770    -8.8880    -3.7780 H     1 <1>   0.1500 
 54 H       -3.0340   -10.4790    -2.0300 H     1 <1>   0.1500 
@<TRIPOS>BOND
  1   1   2  2   
  2   2   3  1   
  3   2   4  1   
  4   3   5  1   
  5   3   6  2   
  6   4   7  1   
  7   4  31  1   
  8   4  32  1   
  9   5   8  2   
 10   5   9  1   
 11   6  10  1   
 12   6  11  1   
 13   7  11  1   
 14   7  33  1   
 15   7  34  1   
 16   8  10  1   
 17   8  12  1   
 18   9  13  2   
 19   9  14  am  
 20  11  35  1   
 21  11  36  1   
 22  12  37  1   
 23  12  38  1   
 24  12  39  1   
 25  14  15  1   
 26  14  16  1   
 27  15  17  1   
 28  15  40  1   
 29  15  41  1   
 30  16  18  1   
 31  16  42  1   
 32  16  43  1   
 33  17  18  1   
 34  17  19  1   
 35  17  44  1   
 36  18  20  1   
 37  18  45  1   
 38  19  46  1   
 39  20  21  1   
 40  20  47  1   
 41  20  48  1   
 42  21  22  ar  
 43  21  23  ar  
 44  22  24  ar  
 45  23  25  ar  
 46  23  49  1   
 47  24  26  ar  
 48  24  27  ar  
 49  25  26  ar  
 50  25  50  1   
 51  26  28  ar  
 52  27  29  ar  
 53  27  51  1   
 54  28  30  ar  
 55  28  52  1   
 56  29  30  ar  
 57  29  53  1   
 58  30  54  1   
@<TRIPOS>SUBSTRUCTURE
  1 ****  16 GROUP 4 **** **** 0

# MOE 2024.06 (io_trps.svl 2023.06)
