@<TRIPOS>MOLECULE
NONAME
44 46 1 0 0 
SMALL
USER_CHARGES


@<TRIPOS>ATOM
  1 CL       3.1460     0.4010     2.3510 Cl    1 <1>  -0.1770 
  2 C        2.9800     1.4830     0.9910 C.ar  1 <1>   0.1770 
  3 C        3.4020     2.7910     1.1110 C.ar  1 <1>  -0.1500 
  4 C        2.4280     1.0090    -0.1850 C.ar  1 <1>  -0.1500 
  5 C        3.2750     3.6510     0.0320 C.ar  1 <1>   0.0830 
  6 C        2.2950     1.8680    -1.2630 C.ar  1 <1>  -0.1500 
  7 O        3.7190     4.9180     0.2110 O.3   1 <1>  -0.3630 
  8 C        2.7150     3.1850    -1.1570 C.ar  1 <1>  -0.1500 
  9 C        3.7530     5.8470    -0.8610 C.3   1 <1>   0.1810 
 10 C        4.3820     7.1750    -0.4330 C.2   1 <1>   0.5690 
 11 O        3.8730     8.1890    -0.8510 O.2   1 <1>  -0.5700 
 12 N        5.5130     7.2490     0.3480 N.am  1 <1>  -0.6600 
 13 C        5.7990     8.4910     1.1410 C.3   1 <1>   0.1400 
 14 C        6.5020     6.1440     0.5180 C.3   1 <1>   0.1400 
 15 C        7.1130     9.2330     0.7720 C.3   1 <1>   0.4230 
 16 C        7.8800     6.5340    -0.0610 C.3   1 <1>  -0.0800 
 17 N        7.5960     9.0460    -0.6550 N.4   1 <1>  -0.9590 
 18 C        8.2370     8.9480     1.7920 C.3   1 <1>   0.1200 
 19 C        8.9400     6.8160     1.0150 C.3   1 <1>   0.1200 
 20 C        7.7850     7.6300    -1.1360 C.3   1 <1>   0.3430 
 21 C        6.6720     9.7590    -1.5940 C.3   1 <1>   0.2630 
 22 O        8.4140     7.5890     2.0410 O.3   1 <1>  -0.5600 
 23 H        3.8240     3.1390     2.0350 H     1 <1>   0.1500 
 24 H        2.1070    -0.0150    -0.2500 H     1 <1>   0.1500 
 25 H        1.8620     1.5100    -2.1820 H     1 <1>   0.1500 
 26 H        2.5920     3.8260    -2.0100 H     1 <1>   0.1500 
 27 H        4.3230     5.4210    -1.6650 H     1 <1>   0.0800 
 28 H        2.7420     6.0220    -1.1810 H     1 <1>   0.0800 
 29 H        4.9850     9.1850     1.0250 H     1 <1>   0.0800 
 30 H        5.8170     8.2330     2.1860 H     1 <1>   0.0800 
 31 H        6.5800     5.8880     1.5620 H     1 <1>   0.0800 
 32 H        6.1570     5.2640     0.0050 H     1 <1>   0.0800 
 33 H        6.8990    10.2820     0.8930 H     1 <1>   0.0800 
 34 H        8.2340     5.6590    -0.5770 H     1 <1>   0.0800 
 35 H        8.5130     9.5050    -0.7110 H     1 <1>   0.4500 
 36 H        7.9670     9.3920     2.7350 H     1 <1>   0.0800 
 37 H        9.1730     9.3770     1.4830 H     1 <1>   0.0800 
 38 H        9.8170     7.2960     0.6130 H     1 <1>   0.0800 
 39 H        9.2460     5.8860     1.4640 H     1 <1>   0.0800 
 40 H        6.9590     7.3720    -1.7800 H     1 <1>   0.0800 
 41 H        8.6760     7.5920    -1.7420 H     1 <1>   0.0800 
 42 H        5.6940     9.3090    -1.5710 H     1 <1>   0.0800 
 43 H        7.0470     9.7080    -2.6030 H     1 <1>   0.0800 
 44 H        6.5760    10.7960    -1.3160 H     1 <1>   0.0800 
@<TRIPOS>BOND
  1   1   2  1   
  2   2   3  ar  
  3   2   4  ar  
  4   3   5  ar  
  5   3  23  1   
  6   4   6  ar  
  7   4  24  1   
  8   5   7  1   
  9   5   8  ar  
 10   6   8  ar  
 11   6  25  1   
 12   7   9  1   
 13   8  26  1   
 14   9  10  1   
 15   9  27  1   
 16   9  28  1   
 17  10  11  2   
 18  10  12  am  
 19  12  13  1   
 20  12  14  1   
 21  13  15  1   
 22  13  29  1   
 23  13  30  1   
 24  14  16  1   
 25  14  31  1   
 26  14  32  1   
 27  15  17  1   
 28  15  18  1   
 29  15  33  1   
 30  16  19  1   
 31  16  20  1   
 32  16  34  1   
 33  17  20  1   
 34  17  21  1   
 35  17  35  1   
 36  18  22  1   
 37  18  36  1   
 38  18  37  1   
 39  19  22  1   
 40  19  38  1   
 41  19  39  1   
 42  20  40  1   
 43  20  41  1   
 44  21  42  1   
 45  21  43  1   
 46  21  44  1   
@<TRIPOS>SUBSTRUCTURE
  1 ****  14 GROUP 4 **** **** 0

# MOE 2024.06 (io_trps.svl 2023.06)
