@<TRIPOS>MOLECULE
NONAME
51 52 1 0 0 
SMALL
USER_CHARGES


@<TRIPOS>ATOM
  1 F        1.0810    -0.9500     1.3010 F     1 <1>  -0.1900 
  2 C        0.5410    -1.9000     0.5810 C.ar  1 <1>   0.1900 
  3 C        1.0560    -3.1840     0.6810 C.ar  1 <1>  -0.1440 
  4 C       -0.5230    -1.5810    -0.2500 C.ar  1 <1>  -0.1440 
  5 C        0.4710    -4.1820    -0.0800 C.ar  1 <1>  -0.1500 
  6 C        2.2320    -3.4910     1.5990 C.3   1 <1>  -0.0960 
  7 C       -1.0910    -2.5970    -1.0010 C.ar  1 <1>  -0.1500 
  8 C       -1.0520    -0.1560    -0.3380 C.3   1 <1>  -0.0960 
  9 C       -0.6040    -3.8950    -0.9140 C.ar  1 <1>  -0.1430 
 10 C       -1.2540    -5.0030    -1.7190 C.3   1 <1>   0.4860 
 11 N       -2.0140    -5.8750    -0.7880 N.4   1 <1>  -0.9590 
 12 C       -2.5270    -7.1170    -1.4300 C.3   1 <1>   0.3430 
 13 C       -3.0970    -5.1610    -0.0590 C.3   1 <1>   0.3430 
 14 C       -2.9730    -8.1020    -0.3300 C.3   1 <1>   0.2000 
 15 C       -3.6600    -6.0630     1.0430 C.3   1 <1>  -0.1600 
 16 O       -1.8150    -8.3780     0.4030 O.3   1 <1>  -0.6800 
 17 C       -4.0680    -7.5020     0.6080 C.3   1 <1>   0.0000 
 18 C       -4.1720    -8.3840     1.8870 C.3   1 <1>   0.1200 
 19 C       -5.4830    -7.5240    -0.0570 C.3   1 <1>  -0.1600 
 20 O       -5.1490    -7.9150     2.7540 O.3   1 <1>  -0.6800 
 21 C       -5.6800    -6.9690    -1.4790 C.3   1 <1>  -0.1600 
 22 C       -7.1660    -6.9620    -1.8490 C.3   1 <1>  -0.2400 
 23 H        0.8620    -5.1830    -0.0190 H     1 <1>   0.1500 
 24 H        2.5050    -4.5290     1.5520 H     1 <1>   0.0800 
 25 H        1.9770    -3.2480     2.6150 H     1 <1>   0.0800 
 26 H        3.0840    -2.9010     1.3090 H     1 <1>   0.0800 
 27 H       -1.9150    -2.3660    -1.6540 H     1 <1>   0.1500 
 28 H       -1.8650    -0.0820    -1.0370 H     1 <1>   0.0800 
 29 H       -0.2660     0.5060    -0.6580 H     1 <1>   0.0800 
 30 H       -1.3990     0.1680     0.6270 H     1 <1>   0.0800 
 31 H       -0.4890    -5.5730    -2.2210 H     1 <1>   0.0800 
 32 H       -1.9130    -4.5830    -2.4610 H     1 <1>   0.0800 
 33 H       -1.3520    -6.2120    -0.0690 H     1 <1>   0.4500 
 34 H       -3.3360    -6.8810    -2.0940 H     1 <1>   0.0800 
 35 H       -1.7470    -7.5860    -2.0080 H     1 <1>   0.0800 
 36 H       -2.7070    -4.2620     0.3930 H     1 <1>   0.0800 
 37 H       -3.8770    -4.8750    -0.7430 H     1 <1>   0.0800 
 38 H       -3.3130    -9.0230    -0.7740 H     1 <1>   0.0800 
 39 H       -2.9030    -6.1290     1.8060 H     1 <1>   0.0800 
 40 H       -4.5020    -5.5650     1.4910 H     1 <1>   0.0800 
 41 H       -1.9160    -9.2020     0.9270 H     1 <1>   0.4000 
 42 H       -3.2470    -8.4090     2.4380 H     1 <1>   0.0800 
 43 H       -4.4410    -9.3930     1.6250 H     1 <1>   0.0800 
 44 H       -5.8270    -8.5450    -0.0740 H     1 <1>   0.0800 
 45 H       -6.1670    -6.9990     0.5900 H     1 <1>   0.0800 
 46 H       -4.8460    -7.1300     3.2510 H     1 <1>   0.4000 
 47 H       -5.3180    -5.9620    -1.5570 H     1 <1>   0.0800 
 48 H       -5.1740    -7.5910    -2.1950 H     1 <1>   0.0800 
 49 H       -7.7230    -6.3320    -1.1780 H     1 <1>   0.0800 
 50 H       -7.5740    -7.9580    -1.8020 H     1 <1>   0.0800 
 51 H       -7.2990    -6.5900    -2.8500 H     1 <1>   0.0800 
@<TRIPOS>BOND
  1   1   2  1   
  2   2   3  ar  
  3   2   4  ar  
  4   3   5  ar  
  5   3   6  1   
  6   4   7  ar  
  7   4   8  1   
  8   5   9  ar  
  9   5  23  1   
 10   6  24  1   
 11   6  25  1   
 12   6  26  1   
 13   7   9  ar  
 14   7  27  1   
 15   8  28  1   
 16   8  29  1   
 17   8  30  1   
 18   9  10  1   
 19  10  11  1   
 20  10  31  1   
 21  10  32  1   
 22  11  12  1   
 23  11  13  1   
 24  11  33  1   
 25  12  14  1   
 26  12  34  1   
 27  12  35  1   
 28  13  15  1   
 29  13  36  1   
 30  13  37  1   
 31  14  16  1   
 32  14  17  1   
 33  14  38  1   
 34  15  17  1   
 35  15  39  1   
 36  15  40  1   
 37  16  41  1   
 38  17  18  1   
 39  17  19  1   
 40  18  20  1   
 41  18  42  1   
 42  18  43  1   
 43  19  21  1   
 44  19  44  1   
 45  19  45  1   
 46  20  46  1   
 47  21  22  1   
 48  21  47  1   
 49  21  48  1   
 50  22  49  1   
 51  22  50  1   
 52  22  51  1   
@<TRIPOS>SUBSTRUCTURE
  1 ****  13 GROUP 4 **** **** 0

# MOE 2024.06 (io_trps.svl 2023.06)
