@<TRIPOS>MOLECULE
NONAME
55 58 1 0 0 
SMALL
USER_CHARGES


@<TRIPOS>ATOM
  1 O        3.5230    -0.7450     1.6000 O.2   1 <1>  -0.5700 
  2 C        2.6150    -1.1230     0.8750 C.2   1 <1>   0.5440 
  3 N        1.9760    -0.1580     0.1150 N.am  1 <1>  -0.6600 
  4 C        2.2930    -2.5520     0.8330 C.ar  1 <1>   0.3960 
  5 C        2.3960     1.2610     0.1020 C.3   1 <1>   0.1400 
  6 C        0.9370    -0.4070    -0.9120 C.3   1 <1>   0.1400 
  7 N        1.0460    -2.9770     0.5830 N.ar  1 <1>  -0.6200 
  8 C        3.3320    -3.4580     1.0650 C.ar  1 <1>   0.1600 
  9 C        1.8660     1.8070    -1.2170 C.3   1 <1>  -0.1600 
 10 C        0.6320     0.9610    -1.5150 C.3   1 <1>  -0.1600 
 11 C        0.9040    -4.2940     0.5600 C.ar  1 <1>   0.4100 
 12 N        3.2280    -4.7780     1.0470 N.ar  1 <1>  -0.6200 
 13 N       -0.3760    -4.7740     0.2930 N.pl3 1 <1>  -0.8380 
 14 C        1.9910    -5.1580     0.7860 C.ar  1 <1>   0.1600 
 15 C       -0.5370    -5.8670    -0.7260 C.3   1 <1>   0.2090 
 16 C       -1.5480    -3.8520     0.3580 C.3   1 <1>   0.2090 
 17 C       -1.7810    -6.7290    -0.4480 C.3   1 <1>  -0.1060 
 18 C       -2.8380    -4.6290     0.6130 C.3   1 <1>  -0.1600 
 19 C       -2.0160    -7.6470    -1.6420 C.2   1 <1>   0.9060 
 20 C       -2.9930    -5.7750    -0.3880 C.3   1 <1>   0.2000 
 21 C       -1.6310    -7.5760     0.8520 C.3   1 <1>  -0.0160 
 22 O       -1.1920    -7.7000    -2.5610 O.co2 1 <1>  -0.9000 
 23 O       -3.0660    -8.3060    -1.6780 O.co2 1 <1>  -0.9000 
 24 O       -4.1330    -6.4820    -0.0600 O.3   1 <1>  -0.6800 
 25 C       -0.2810    -8.2630     1.0550 C.ar  1 <1>  -0.1440 
 26 C        0.1860    -9.2140     0.1600 C.ar  1 <1>  -0.1500 
 27 C        0.4960    -7.9390     2.1580 C.ar  1 <1>  -0.1500 
 28 C        1.4150    -9.8200     0.3560 C.ar  1 <1>  -0.1500 
 29 C        1.7250    -8.5440     2.3570 C.ar  1 <1>  -0.1500 
 30 C        2.1870    -9.4850     1.4540 C.ar  1 <1>  -0.1500 
 31 H        1.9380     1.7670     0.9350 H     1 <1>   0.0800 
 32 H        3.4670     1.3530     0.1690 H     1 <1>   0.0800 
 33 H        1.3280    -1.0760    -1.6600 H     1 <1>   0.0800 
 34 H        0.0540    -0.8350    -0.4680 H     1 <1>   0.0800 
 35 H        4.3100    -3.0590     1.2740 H     1 <1>   0.1500 
 36 H        1.6410     2.8570    -1.1530 H     1 <1>   0.0800 
 37 H        2.6090     1.6530    -1.9800 H     1 <1>   0.0800 
 38 H        0.4230     0.8950    -2.5680 H     1 <1>   0.0800 
 39 H       -0.2240     1.3780    -1.0140 H     1 <1>   0.0800 
 40 H        1.8040    -6.2130     0.7470 H     1 <1>   0.1500 
 41 H       -0.6370    -5.4100    -1.6970 H     1 <1>   0.0800 
 42 H        0.3340    -6.4960    -0.7720 H     1 <1>   0.0800 
 43 H       -1.4100    -3.1360     1.1510 H     1 <1>   0.0800 
 44 H       -1.6210    -3.3170    -0.5730 H     1 <1>   0.0800 
 45 H       -3.6730    -3.9610     0.5160 H     1 <1>   0.0800 
 46 H       -2.8270    -5.0020     1.6200 H     1 <1>   0.0800 
 47 H       -3.1540    -5.3620    -1.3710 H     1 <1>   0.0800 
 48 H       -1.8080    -6.9470     1.7020 H     1 <1>   0.0800 
 49 H       -2.3980    -8.3310     0.8720 H     1 <1>   0.0800 
 50 H       -4.0990    -7.3140    -0.6170 H     1 <1>   0.4000 
 51 H       -0.4040    -9.4890    -0.6990 H     1 <1>   0.1500 
 52 H        0.1490    -7.2040     2.8620 H     1 <1>   0.1500 
 53 H        1.7640   -10.5490    -0.3520 H     1 <1>   0.1500 
 54 H        2.3210    -8.2780     3.2120 H     1 <1>   0.1500 
 55 H        3.1420    -9.9550     1.6040 H     1 <1>   0.1500 
@<TRIPOS>BOND
  1   1   2  2   
  2   2   3  am  
  3   2   4  1   
  4   3   5  1   
  5   3   6  1   
  6   4   7  ar  
  7   4   8  ar  
  8   5   9  1   
  9   5  31  1   
 10   5  32  1   
 11   6  10  1   
 12   6  33  1   
 13   6  34  1   
 14   7  11  ar  
 15   8  12  ar  
 16   8  35  1   
 17   9  10  1   
 18   9  36  1   
 19   9  37  1   
 20  10  38  1   
 21  10  39  1   
 22  11  13  1   
 23  11  14  ar  
 24  12  14  ar  
 25  13  15  1   
 26  13  16  1   
 27  14  40  1   
 28  15  17  1   
 29  15  41  1   
 30  15  42  1   
 31  16  18  1   
 32  16  43  1   
 33  16  44  1   
 34  17  19  1   
 35  17  20  1   
 36  17  21  1   
 37  18  20  1   
 38  18  45  1   
 39  18  46  1   
 40  19  22  ar  
 41  19  23  ar  
 42  20  24  1   
 43  20  47  1   
 44  21  25  1   
 45  21  48  1   
 46  21  49  1   
 47  24  50  1   
 48  25  26  ar  
 49  25  27  ar  
 50  26  28  ar  
 51  26  51  1   
 52  27  29  ar  
 53  27  52  1   
 54  28  30  ar  
 55  28  53  1   
 56  29  30  ar  
 57  29  54  1   
 58  30  55  1   
@<TRIPOS>SUBSTRUCTURE
  1 ****  13 GROUP 4 **** **** 0

# MOE 2024.06 (io_trps.svl 2023.06)
