@<TRIPOS>MOLECULE
NONAME
47 49 1 0 0 
SMALL
USER_CHARGES


@<TRIPOS>ATOM
  1 O       -0.0040     0.1280     0.4980 O.2   1 <1>  -0.5700 
  2 C       -0.9300     0.7170    -0.0050 C.2   1 <1>   0.5690 
  3 N       -2.1460     0.1210    -0.1860 N.am  1 <1>  -0.6600 
  4 C       -0.7050     2.1570    -0.4200 C.3   1 <1>  -0.0990 
  5 C       -3.3550     0.7050    -0.8210 C.3   1 <1>   0.1400 
  6 C       -2.4350    -1.2500     0.2860 C.3   1 <1>   0.1400 
  7 C       -1.0020     3.1090     0.7440 C.3   1 <1>  -0.0160 
  8 C       -4.4710    -0.3300    -0.6190 C.3   1 <1>   0.2000 
  9 C       -3.7190    -1.6530    -0.4410 C.3   1 <1>  -0.0800 
 10 C       -0.8110     4.5540     0.3140 C.ar  1 <1>  -0.1440 
 11 O       -5.1690    -0.0450     0.5600 O.3   1 <1>  -0.5600 
 12 C       -4.5180    -2.7510     0.2850 C.3   1 <1>   0.0200 
 13 C        0.4500     5.1340     0.3230 C.ar  1 <1>   0.1600 
 14 C       -1.8880     5.3140    -0.0980 C.ar  1 <1>  -0.1500 
 15 C       -6.2440     0.8310     0.4190 C.3   1 <1>   0.0400 
 16 C       -3.8180    -4.1010     0.2890 C.2   1 <1>  -0.0400 
 17 N        0.7170     6.3790    -0.0380 N.ar  1 <1>  -0.6200 
 18 C       -1.6280     6.6140    -0.4760 C.ar  1 <1>  -0.1500 
 19 O       -4.3700    -5.0910     0.9380 O.3   1 <1>  -0.0190 
 20 C       -2.6820    -4.5590    -0.2620 C.2   1 <1>  -0.1500 
 21 C       -0.3290     7.0890    -0.4290 C.ar  1 <1>   0.1600 
 22 N       -3.6660    -6.1830     0.8550 N.2   1 <1>  -0.4100 
 23 C       -2.6410    -5.8910     0.1380 C.2   1 <1>   0.1080 
 24 C       -1.5440    -6.8690    -0.2160 C.3   1 <1>  -0.0590 
 25 H        0.3220     2.2670    -0.7170 H     1 <1>   0.0800 
 26 H       -1.3150     2.4030    -1.2670 H     1 <1>   0.0800 
 27 H       -3.6090     1.6510    -0.3780 H     1 <1>   0.0800 
 28 H       -3.1660     0.8320    -1.8720 H     1 <1>   0.0800 
 29 H       -1.6150    -1.9120     0.0650 H     1 <1>   0.0800 
 30 H       -2.5940    -1.2210     1.3510 H     1 <1>   0.0800 
 31 H       -0.3430     2.8840     1.5660 H     1 <1>   0.0800 
 32 H       -2.0100     2.9590     1.0900 H     1 <1>   0.0800 
 33 H       -5.1620    -0.3680    -1.4440 H     1 <1>   0.0800 
 34 H       -3.4470    -2.0100    -1.4180 H     1 <1>   0.0800 
 35 H       -5.4740    -2.8690    -0.1940 H     1 <1>   0.0800 
 36 H       -4.7000    -2.4580     1.3040 H     1 <1>   0.0800 
 37 H        1.2880     4.5390     0.6450 H     1 <1>   0.1500 
 38 H       -2.8870     4.9180    -0.1230 H     1 <1>   0.1500 
 39 H       -6.6800     0.9820     1.3910 H     1 <1>   0.0800 
 40 H       -6.9740     0.3940    -0.2400 H     1 <1>   0.0800 
 41 H       -5.8960     1.7720     0.0300 H     1 <1>   0.0800 
 42 H       -2.4240     7.2580    -0.8060 H     1 <1>   0.1500 
 43 H       -1.9500    -4.0620    -0.8700 H     1 <1>   0.1500 
 44 H       -0.1390     8.1060    -0.7270 H     1 <1>   0.1500 
 45 H       -0.6020    -6.5080     0.1520 H     1 <1>   0.0800 
 46 H       -1.4890    -6.9850    -1.2830 H     1 <1>   0.0800 
 47 H       -1.7480    -7.8260     0.2290 H     1 <1>   0.0800 
@<TRIPOS>BOND
  1   1   2  2   
  2   2   3  am  
  3   2   4  1   
  4   3   5  1   
  5   3   6  1   
  6   4   7  1   
  7   4  25  1   
  8   4  26  1   
  9   5   8  1   
 10   5  27  1   
 11   5  28  1   
 12   6   9  1   
 13   6  29  1   
 14   6  30  1   
 15   7  10  1   
 16   7  31  1   
 17   7  32  1   
 18   8   9  1   
 19   8  11  1   
 20   8  33  1   
 21   9  12  1   
 22   9  34  1   
 23  10  13  ar  
 24  10  14  ar  
 25  11  15  1   
 26  12  16  1   
 27  12  35  1   
 28  12  36  1   
 29  13  17  ar  
 30  13  37  1   
 31  14  18  ar  
 32  14  38  1   
 33  15  39  1   
 34  15  40  1   
 35  15  41  1   
 36  16  19  1   
 37  16  20  2   
 38  17  21  ar  
 39  18  21  ar  
 40  18  42  1   
 41  19  22  1   
 42  20  23  1   
 43  20  43  1   
 44  21  44  1   
 45  22  23  2   
 46  23  24  1   
 47  24  45  1   
 48  24  46  1   
 49  24  47  1   
@<TRIPOS>SUBSTRUCTURE
  1 ****   3 GROUP 4 **** **** 0

# MOE 2024.06 (io_trps.svl 2023.06)
