@<TRIPOS>MOLECULE
NONAME
57 59 1 0 0 
SMALL
USER_CHARGES


@<TRIPOS>ATOM
  1 N       -0.5230     1.0130     1.7960 N.2   1 <1>  -0.3380 
  2 N       -1.2460     0.3730     2.7070 N.2   1 <1>  -0.3380 
  3 C       -1.2400     1.0840     0.7230 C.2   1 <1>   0.0070 
  4 C       -2.3680     0.0710     2.1540 C.2   1 <1>   0.0360 
  5 N       -2.4320     0.4940     0.8900 N.pl3 1 <1>   0.0480 
  6 C       -0.7560     1.7520    -0.5560 C.3   1 <1>   0.5230 
  7 C       -3.5700     0.3180    -0.0410 C.3   1 <1>   0.0960 
  8 N        0.4930     2.5140    -0.2490 N.4   1 <1>  -0.9590 
  9 C       -3.3010    -0.8310    -1.0190 C.3   1 <1>  -0.2400 
 10 C        0.2030     3.7680     0.4950 C.3   1 <1>   0.3430 
 11 C        1.3720     2.7180    -1.4260 C.3   1 <1>   0.3430 
 12 C        1.5190     4.3900     0.9750 C.3   1 <1>  -0.1600 
 13 C        2.6990     3.3260    -0.9600 C.3   1 <1>  -0.1600 
 14 C        2.5210     4.6530    -0.1760 C.3   1 <1>  -0.0800 
 15 C        3.8370     5.3100     0.3730 C.3   1 <1>   0.4230 
 16 N        3.8070     6.8010     0.1970 N.4   1 <1>  -0.9590 
 17 C        5.1180     4.7660    -0.2800 C.3   1 <1>  -0.2400 
 18 C        5.0560     7.5480     0.6050 C.3   1 <1>   0.3430 
 19 C        2.6240     7.5240     0.7880 C.3   1 <1>   0.3430 
 20 C        5.0070     9.0180     0.1200 C.3   1 <1>   0.1100 
 21 C        2.5970     9.0140     0.3650 C.3   1 <1>   0.1100 
 22 N        3.7200     9.3420    -0.5360 N.3   1 <1>  -0.8100 
 23 C        3.6770    10.7490    -0.9570 C.3   1 <1>   0.0300 
 24 H       -3.1660    -0.4600     2.6430 H     1 <1>   0.1500 
 25 H       -1.5130     2.4110    -0.9460 H     1 <1>   0.0800 
 26 H       -0.5500     0.9860    -1.2850 H     1 <1>   0.0800 
 27 H       -3.7380     1.2350    -0.5770 H     1 <1>   0.0800 
 28 H       -4.4550     0.1010     0.5330 H     1 <1>   0.0800 
 29 H        0.9680     1.8940     0.4320 H     1 <1>   0.4500 
 30 H       -2.4420    -0.6300    -1.6320 H     1 <1>   0.0800 
 31 H       -4.1520    -0.9620    -1.6650 H     1 <1>   0.0800 
 32 H       -3.1460    -1.7510    -0.4820 H     1 <1>   0.0800 
 33 H       -0.4210     3.5510     1.3500 H     1 <1>   0.0800 
 34 H       -0.3210     4.4620    -0.1430 H     1 <1>   0.0800 
 35 H        0.8950     3.3780    -2.1320 H     1 <1>   0.0800 
 36 H        1.5620     1.7750    -1.9140 H     1 <1>   0.0800 
 37 H        1.9600     3.7260     1.7010 H     1 <1>   0.0800 
 38 H        1.2800     5.2990     1.4950 H     1 <1>   0.0800 
 39 H        3.2990     3.4940    -1.8380 H     1 <1>   0.0800 
 40 H        3.2040     2.5940    -0.3530 H     1 <1>   0.0800 
 41 H        2.0710     5.3430    -0.8700 H     1 <1>   0.0800 
 42 H        3.9020     5.0890     1.4270 H     1 <1>   0.0800 
 43 H        3.7440     7.0290    -0.8080 H     1 <1>   0.4500 
 44 H        5.1600     5.0160    -1.3250 H     1 <1>   0.0800 
 45 H        5.1740     3.6980    -0.1800 H     1 <1>   0.0800 
 46 H        5.9990     5.1340     0.2110 H     1 <1>   0.0800 
 47 H        5.9310     7.0940     0.1730 H     1 <1>   0.0800 
 48 H        5.1690     7.5260     1.6760 H     1 <1>   0.0800 
 49 H        2.6490     7.4600     1.8630 H     1 <1>   0.0800 
 50 H        1.7080     7.0710     0.4510 H     1 <1>   0.0800 
 51 H        5.8110     9.1810    -0.5790 H     1 <1>   0.0800 
 52 H        5.1720     9.6740     0.9590 H     1 <1>   0.0800 
 53 H        2.6360     9.6360     1.2440 H     1 <1>   0.0800 
 54 H        1.6660     9.2200    -0.1350 H     1 <1>   0.0800 
 55 H        4.4850    10.9550    -1.6390 H     1 <1>   0.0800 
 56 H        3.7610    11.4070    -0.1090 H     1 <1>   0.0800 
 57 H        2.7490    10.9530    -1.4670 H     1 <1>   0.0800 
@<TRIPOS>BOND
  1   1   2  1   
  2   1   3  2   
  3   2   4  2   
  4   3   5  1   
  5   3   6  1   
  6   4   5  1   
  7   4  24  1   
  8   5   7  1   
  9   6   8  1   
 10   6  25  1   
 11   6  26  1   
 12   7   9  1   
 13   7  27  1   
 14   7  28  1   
 15   8  10  1   
 16   8  11  1   
 17   8  29  1   
 18   9  30  1   
 19   9  31  1   
 20   9  32  1   
 21  10  12  1   
 22  10  33  1   
 23  10  34  1   
 24  11  13  1   
 25  11  35  1   
 26  11  36  1   
 27  12  14  1   
 28  12  37  1   
 29  12  38  1   
 30  13  14  1   
 31  13  39  1   
 32  13  40  1   
 33  14  15  1   
 34  14  41  1   
 35  15  16  1   
 36  15  17  1   
 37  15  42  1   
 38  16  18  1   
 39  16  19  1   
 40  16  43  1   
 41  17  44  1   
 42  17  45  1   
 43  17  46  1   
 44  18  20  1   
 45  18  47  1   
 46  18  48  1   
 47  19  21  1   
 48  19  49  1   
 49  19  50  1   
 50  20  22  1   
 51  20  51  1   
 52  20  52  1   
 53  21  22  1   
 54  21  53  1   
 55  21  54  1   
 56  22  23  1   
 57  23  55  1   
 58  23  56  1   
 59  23  57  1   
@<TRIPOS>SUBSTRUCTURE
  1 ****  12 GROUP 4 **** **** 0

# MOE 2024.06 (io_trps.svl 2023.06)
