@<TRIPOS>MOLECULE
NONAME
44 45 1 0 0 
SMALL
USER_CHARGES


@<TRIPOS>ATOM
  1 O        3.3920    -1.1740     0.6180 O.2   1 <1>  -0.5700 
  2 C        2.4210    -1.2600    -0.0990 C.2   1 <1>   0.5690 
  3 N        1.7110    -0.1900    -0.5570 N.am  1 <1>  -0.4930 
  4 C        1.9620    -2.6410    -0.5040 C.3   1 <1>   0.1570 
  5 C        1.7750     1.1690    -0.1650 C.2   1 <1>   0.0630 
  6 N        0.4990    -2.7180    -0.3720 N.pl3 1 <1>   0.3140 
  7 C        0.6780     1.9480     0.2020 C.2   1 <1>   0.1080 
  8 C        2.8370     1.9970    -0.0650 C.2   1 <1>  -0.3320 
  9 N       -0.3060    -2.1760    -1.3110 N.2   1 <1>  -0.7070 
 10 C       -0.2210    -3.2210     0.6570 C.2   1 <1>  -0.3320 
 11 N        1.0150     3.1600     0.5130 N.2   1 <1>  -0.7070 
 12 C       -0.7540     1.4620     0.2480 C.3   1 <1>  -0.0590 
 13 N        2.3520     3.1930     0.3560 N.pl3 1 <1>   0.3140 
 14 C        4.3050     1.7180    -0.3510 C.3   1 <1>  -0.0600 
 15 C       -1.5080    -2.3660    -0.8700 C.2   1 <1>   0.1080 
 16 C       -1.5210    -3.0140     0.3590 C.2   1 <1>  -0.1500 
 17 C        0.3660    -3.8720     1.8990 C.3   1 <1>  -0.0600 
 18 C        3.1180     4.4230     0.6430 C.3   1 <1>   0.0960 
 19 C       -2.7320    -1.9160    -1.6320 C.3   1 <1>  -0.0590 
 20 C        3.2320     5.3040    -0.6100 C.3   1 <1>  -0.1600 
 21 C        4.0410     6.5750    -0.3280 C.3   1 <1>  -0.2400 
 22 H        0.8450    -0.4490    -1.0520 H     1 <1>   0.3700 
 23 H        2.4210    -3.3800     0.1220 H     1 <1>   0.0800 
 24 H        2.2290    -2.8240    -1.5260 H     1 <1>   0.0800 
 25 H       -0.7970     0.4780     0.6770 H     1 <1>   0.0800 
 26 H       -1.1570     1.4350    -0.7470 H     1 <1>   0.0800 
 27 H       -1.3440     2.1300     0.8480 H     1 <1>   0.0800 
 28 H        4.4180     0.7640    -0.8330 H     1 <1>   0.0800 
 29 H        4.8620     1.6990     0.5690 H     1 <1>   0.0800 
 30 H        4.7140     2.4700    -1.0000 H     1 <1>   0.0800 
 31 H       -2.3940    -3.2760     0.9290 H     1 <1>   0.1500 
 32 H        1.0190    -3.1840     2.4070 H     1 <1>   0.0800 
 33 H        0.9200    -4.7540     1.6330 H     1 <1>   0.0800 
 34 H       -0.4220    -4.1550     2.5750 H     1 <1>   0.0800 
 35 H        4.0920     4.1460     1.0000 H     1 <1>   0.0800 
 36 H        2.6070     4.9570     1.4220 H     1 <1>   0.0800 
 37 H       -2.6980    -0.8510    -1.7720 H     1 <1>   0.0800 
 38 H       -3.6260    -2.1730    -1.0940 H     1 <1>   0.0800 
 39 H       -2.7500    -2.3940    -2.5940 H     1 <1>   0.0800 
 40 H        2.2420     5.5780    -0.9350 H     1 <1>   0.0800 
 41 H        3.7070     4.7490    -1.4000 H     1 <1>   0.0800 
 42 H        3.5710     7.1570     0.4450 H     1 <1>   0.0800 
 43 H        4.1010     7.1770    -1.2180 H     1 <1>   0.0800 
 44 H        5.0410     6.3260    -0.0160 H     1 <1>   0.0800 
@<TRIPOS>BOND
  1   1   2  2   
  2   2   3  am  
  3   2   4  1   
  4   3   5  1   
  5   3  22  1   
  6   4   6  1   
  7   4  23  1   
  8   4  24  1   
  9   5   7  1   
 10   5   8  2   
 11   6   9  1   
 12   6  10  1   
 13   7  11  2   
 14   7  12  1   
 15   8  13  1   
 16   8  14  1   
 17   9  15  2   
 18  10  16  2   
 19  10  17  1   
 20  11  13  1   
 21  12  25  1   
 22  12  26  1   
 23  12  27  1   
 24  13  18  1   
 25  14  28  1   
 26  14  29  1   
 27  14  30  1   
 28  15  16  1   
 29  15  19  1   
 30  16  31  1   
 31  17  32  1   
 32  17  33  1   
 33  17  34  1   
 34  18  20  1   
 35  18  35  1   
 36  18  36  1   
 37  19  37  1   
 38  19  38  1   
 39  19  39  1   
 40  20  21  1   
 41  20  40  1   
 42  20  41  1   
 43  21  42  1   
 44  21  43  1   
 45  21  44  1   
@<TRIPOS>SUBSTRUCTURE
  1 ****   3 GROUP 4 **** **** 0

# MOE 2024.06 (io_trps.svl 2023.06)
