@<TRIPOS>MOLECULE
NONAME
44 46 1 0 0 
SMALL
USER_CHARGES


@<TRIPOS>ATOM
  1 F       -3.1660    -0.9240    -2.7200 F     1 <1>  -0.1900 
  2 C       -3.2880    -1.3430    -1.4890 C.ar  1 <1>   0.1900 
  3 C       -3.4570    -2.6940    -1.2600 C.ar  1 <1>  -0.1500 
  4 C       -3.2430    -0.4180    -0.4640 C.ar  1 <1>  -0.1500 
  5 C       -3.5880    -3.1390     0.0450 C.ar  1 <1>   0.0830 
  6 C       -3.3720    -0.8670     0.8400 C.ar  1 <1>  -0.1500 
  7 O       -3.7560    -4.4720     0.2150 O.3   1 <1>  -0.3630 
  8 C       -3.5430    -2.2200     1.0950 C.ar  1 <1>  -0.1500 
  9 C       -3.9350    -5.0380     1.5070 C.3   1 <1>   0.1810 
 10 C       -4.1420    -6.5490     1.4370 C.2   1 <1>   0.5690 
 11 O       -3.4500    -7.2440     2.1450 O.2   1 <1>  -0.5700 
 12 N       -5.1050    -7.0990     0.6330 N.am  1 <1>  -0.6600 
 13 C       -6.0370    -6.3690    -0.2640 C.3   1 <1>   0.1400 
 14 C       -5.2830    -8.5640     0.4700 C.3   1 <1>   0.1400 
 15 C       -7.1260    -7.3910    -0.5840 C.3   1 <1>   0.2000 
 16 C       -6.3650    -8.7190    -0.6050 C.3   1 <1>  -0.0800 
 17 O       -8.0320    -7.3920     0.4670 O.3   1 <1>  -0.6800 
 18 C       -7.2260    -9.9850    -0.4430 C.3   1 <1>   0.0210 
 19 C       -6.3620   -11.2310    -0.4700 C.2   1 <1>   0.1080 
 20 N       -5.6360   -11.5610    -1.4930 N.2   1 <1>  -0.7070 
 21 C       -6.2390   -12.1370     0.5770 C.2   1 <1>  -0.1500 
 22 N       -5.0230   -12.7000    -1.1210 N.pl3 1 <1>   0.3000 
 23 C       -5.3720   -13.0690     0.1300 C.2   1 <1>  -0.3320 
 24 C       -4.8460   -14.3080     0.8310 C.3   1 <1>  -0.0600 
 25 H       -3.4840    -3.3870    -2.0800 H     1 <1>   0.1500 
 26 H       -3.1090     0.6260    -0.6850 H     1 <1>   0.1500 
 27 H       -3.3390    -0.1640     1.6550 H     1 <1>   0.1500 
 28 H       -3.6370    -2.5350     2.1170 H     1 <1>   0.1500 
 29 H       -3.0550    -4.8290     2.0880 H     1 <1>   0.0800 
 30 H       -4.7930    -4.5840     1.9630 H     1 <1>   0.0800 
 31 H       -6.4410    -5.4850     0.1980 H     1 <1>   0.0800 
 32 H       -5.5130    -6.0980    -1.1650 H     1 <1>   0.0800 
 33 H       -4.3600    -9.0310     0.1660 H     1 <1>   0.0800 
 34 H       -5.6010    -8.9870     1.4080 H     1 <1>   0.0800 
 35 H       -7.6540    -7.1820    -1.4980 H     1 <1>   0.0800 
 36 H       -5.8580    -8.7870    -1.5530 H     1 <1>   0.0800 
 37 H       -7.5310    -7.4610     1.3040 H     1 <1>   0.4000 
 38 H       -7.9370   -10.0410    -1.2470 H     1 <1>   0.0800 
 39 H       -7.7720    -9.9570     0.4830 H     1 <1>   0.0800 
 40 H       -6.7390   -12.0810     1.5280 H     1 <1>   0.1500 
 41 H       -4.3750   -13.1990    -1.7410 H     1 <1>   0.2700 
 42 H       -5.2710   -14.3830     1.8170 H     1 <1>   0.0800 
 43 H       -3.7760   -14.2570     0.9240 H     1 <1>   0.0800 
 44 H       -5.1100   -15.1910     0.2770 H     1 <1>   0.0800 
@<TRIPOS>BOND
  1   1   2  1   
  2   2   3  ar  
  3   2   4  ar  
  4   3   5  ar  
  5   3  25  1   
  6   4   6  ar  
  7   4  26  1   
  8   5   7  1   
  9   5   8  ar  
 10   6   8  ar  
 11   6  27  1   
 12   7   9  1   
 13   8  28  1   
 14   9  10  1   
 15   9  29  1   
 16   9  30  1   
 17  10  11  2   
 18  10  12  am  
 19  12  13  1   
 20  12  14  1   
 21  13  15  1   
 22  13  31  1   
 23  13  32  1   
 24  14  16  1   
 25  14  33  1   
 26  14  34  1   
 27  15  16  1   
 28  15  17  1   
 29  15  35  1   
 30  16  18  1   
 31  16  36  1   
 32  17  37  1   
 33  18  19  1   
 34  18  38  1   
 35  18  39  1   
 36  19  20  2   
 37  19  21  1   
 38  20  22  1   
 39  21  23  2   
 40  21  40  1   
 41  22  23  1   
 42  22  41  1   
 43  23  24  1   
 44  24  42  1   
 45  24  43  1   
 46  24  44  1   
@<TRIPOS>SUBSTRUCTURE
  1 ****  12 GROUP 4 **** **** 0

# MOE 2024.06 (io_trps.svl 2023.06)
