@<TRIPOS>MOLECULE
NONAME
56 58 1 0 0 
SMALL
USER_CHARGES


@<TRIPOS>ATOM
  1 S        0.1980     0.0090     0.8550 S.o2  1 <1>   1.0900 
  2 O        0.7160    -1.3180     0.6200 O.2   1 <1>  -0.6500 
  3 O       -0.9210     0.2700     1.7290 O.2   1 <1>  -0.6500 
  4 C        1.5550     1.0670     1.3300 C.3   1 <1>  -0.0550 
  5 C       -0.0900     0.8310    -0.7050 C.3   1 <1>  -0.0550 
  6 C        1.5140     2.3180     0.4370 C.3   1 <1>  -0.0800 
  7 C        1.0570     1.8260    -0.9480 C.3   1 <1>  -0.1600 
  8 C        2.8670     3.0500     0.4170 C.3   1 <1>  -0.1600 
  9 C        2.8030     4.3430    -0.4030 C.3   1 <1>   0.3430 
 10 N        4.0950     5.0890    -0.3220 N.4   1 <1>  -0.9590 
 11 C        3.9040     6.5560    -0.5840 C.3   1 <1>   0.4230 
 12 C        5.1300     4.4220    -1.1710 C.3   1 <1>   0.4860 
 13 C        5.2380     7.3050    -0.7730 C.3   1 <1>  -0.1600 
 14 C        3.1300     7.1760     0.5980 C.3   1 <1>  -0.1600 
 15 C        6.4250     4.3390    -0.3840 C.ar  1 <1>  -0.1430 
 16 C        5.0370     8.8190    -0.9390 C.3   1 <1>  -0.1600 
 17 C        2.9220     8.6880     0.4260 C.3   1 <1>  -0.1600 
 18 C        7.5780     4.9220    -0.8920 C.ar  1 <1>  -0.1500 
 19 C        6.4820     3.6830     0.8390 C.ar  1 <1>  -0.1500 
 20 C        4.2590     9.4100     0.2380 C.3   1 <1>  -0.1600 
 21 C        8.7670     4.8760    -0.1830 C.ar  1 <1>  -0.1430 
 22 C        7.6680     3.6320     1.5480 C.ar  1 <1>  -0.1500 
 23 C        8.8060     4.2290     1.0390 C.ar  1 <1>  -0.1500 
 24 C       10.0210     5.5220    -0.7440 C.3   1 <1>  -0.0970 
 25 H        2.4750     0.5380     1.1640 H     1 <1>   0.0800 
 26 H        1.4940     1.3250     2.3700 H     1 <1>   0.0800 
 27 H       -1.0170     1.3700    -0.6470 H     1 <1>   0.0800 
 28 H       -0.1630     0.1220    -1.5080 H     1 <1>   0.0800 
 29 H        0.7540     2.9750     0.8330 H     1 <1>   0.0800 
 30 H        0.7290     2.6310    -1.5820 H     1 <1>   0.0800 
 31 H        1.8640     1.3040    -1.4360 H     1 <1>   0.0800 
 32 H        3.6150     2.3880     0.0170 H     1 <1>   0.0800 
 33 H        3.1310     3.2950     1.4320 H     1 <1>   0.0800 
 34 H        1.9990     4.9440    -0.0150 H     1 <1>   0.0800 
 35 H        2.5730     4.1180    -1.4320 H     1 <1>   0.0800 
 36 H        4.4660     5.0300     0.6340 H     1 <1>   0.4500 
 37 H        3.3210     6.6860    -1.4820 H     1 <1>   0.0800 
 38 H        5.2780     4.9650    -2.0890 H     1 <1>   0.0800 
 39 H        4.8230     3.4210    -1.4230 H     1 <1>   0.0800 
 40 H        5.7400     6.9640    -1.6570 H     1 <1>   0.0800 
 41 H        5.8750     7.1380     0.0790 H     1 <1>   0.0800 
 42 H        3.6770     7.0130     1.5100 H     1 <1>   0.0800 
 43 H        2.1570     6.7360     0.7030 H     1 <1>   0.0800 
 44 H        4.5030     9.0170    -1.8540 H     1 <1>   0.0800 
 45 H        5.9960     9.3040    -1.0100 H     1 <1>   0.0800 
 46 H        2.4230     9.0860     1.2940 H     1 <1>   0.0800 
 47 H        2.2920     8.8760    -0.4270 H     1 <1>   0.0800 
 48 H        7.5670     5.4190    -1.8470 H     1 <1>   0.1500 
 49 H        5.6210     3.1960     1.2590 H     1 <1>   0.1500 
 50 H        4.0810    10.4580     0.0640 H     1 <1>   0.0800 
 51 H        4.8460     9.3260     1.1380 H     1 <1>   0.0800 
 52 H        7.7150     3.1240     2.4970 H     1 <1>   0.1500 
 53 H        9.7250     4.1830     1.5980 H     1 <1>   0.1500 
 54 H        9.7730     6.3840    -1.3360 H     1 <1>   0.0800 
 55 H       10.5490     4.8170    -1.3610 H     1 <1>   0.0800 
 56 H       10.6720     5.8360     0.0520 H     1 <1>   0.0800 
@<TRIPOS>BOND
  1   1   2  2   
  2   1   3  2   
  3   1   4  1   
  4   1   5  1   
  5   4   6  1   
  6   4  25  1   
  7   4  26  1   
  8   5   7  1   
  9   5  27  1   
 10   5  28  1   
 11   6   7  1   
 12   6   8  1   
 13   6  29  1   
 14   7  30  1   
 15   7  31  1   
 16   8   9  1   
 17   8  32  1   
 18   8  33  1   
 19   9  10  1   
 20   9  34  1   
 21   9  35  1   
 22  10  11  1   
 23  10  12  1   
 24  10  36  1   
 25  11  13  1   
 26  11  14  1   
 27  11  37  1   
 28  12  15  1   
 29  12  38  1   
 30  12  39  1   
 31  13  16  1   
 32  13  40  1   
 33  13  41  1   
 34  14  17  1   
 35  14  42  1   
 36  14  43  1   
 37  15  18  ar  
 38  15  19  ar  
 39  16  20  1   
 40  16  44  1   
 41  16  45  1   
 42  17  20  1   
 43  17  46  1   
 44  17  47  1   
 45  18  21  ar  
 46  18  48  1   
 47  19  22  ar  
 48  19  49  1   
 49  20  50  1   
 50  20  51  1   
 51  21  23  ar  
 52  21  24  1   
 53  22  23  ar  
 54  22  52  1   
 55  23  53  1   
 56  24  54  1   
 57  24  55  1   
 58  24  56  1   
@<TRIPOS>SUBSTRUCTURE
  1 ****  10 GROUP 4 **** **** 0

# MOE 2024.06 (io_trps.svl 2023.06)
