@<TRIPOS>MOLECULE
NONAME
50 53 1 0 0 
SMALL
USER_CHARGES


@<TRIPOS>ATOM
  1 O        0.7630    -1.7200    -2.2620 O.3   1 <1>  -0.6800 
  2 C        0.2010    -2.0310    -1.0360 C.3   1 <1>   0.1200 
  3 C        1.2270    -1.9280     0.1320 C.3   1 <1>   0.0000 
  4 C        2.5910    -2.6350    -0.1280 C.3   1 <1>   0.4230 
  5 C        1.4880    -0.4300     0.4590 C.3   1 <1>  -0.1600 
  6 C        0.5820    -2.5970     1.3800 C.3   1 <1>  -0.1600 
  7 N        2.4550    -4.1180    -0.4550 N.4   1 <1>  -0.9590 
  8 C        3.5460    -1.8360    -1.0590 C.3   1 <1>   0.2090 
  9 C        2.4100     0.2880    -0.5360 C.3   1 <1>   0.2090 
 10 C        0.9910    -4.0740     1.5780 C.3   1 <1>  -0.1600 
 11 C        1.3220    -4.7900     0.2660 C.3   1 <1>   0.3430 
 12 C        2.3580    -4.4220    -1.9220 C.3   1 <1>   0.2630 
 13 N        3.7370    -0.4170    -0.5730 N.pl3 1 <1>  -0.8380 
 14 C        4.9380     0.1460    -0.2710 C.ar  1 <1>   0.4610 
 15 N        5.0310     1.4710    -0.0910 N.ar  1 <1>  -0.1790 
 16 C        6.1510    -0.5860    -0.1290 C.ar  1 <1>  -0.1500 
 17 C        6.1950     2.1580     0.2110 C.ar  1 <1>   0.3610 
 18 C        7.3310     0.0240     0.1640 C.ar  1 <1>  -0.1500 
 19 C        7.3880     1.4300     0.3440 C.ar  1 <1>   0.0000 
 20 C        6.2080     3.5470     0.3820 C.ar  1 <1>  -0.1500 
 21 C        8.5690     2.1190     0.6480 C.ar  1 <1>  -0.1500 
 22 C        7.3790     4.2020     0.6800 C.ar  1 <1>  -0.1500 
 23 C        8.5640     3.4830     0.8130 C.ar  1 <1>  -0.1500 
 24 H        0.0620    -1.5880    -2.9400 H     1 <1>   0.4000 
 25 H       -0.6200    -1.3520    -0.8680 H     1 <1>   0.0800 
 26 H       -0.2080    -3.0220    -1.1140 H     1 <1>   0.0800 
 27 H        3.0860    -2.6000     0.8280 H     1 <1>   0.0800 
 28 H        1.9440    -0.3370     1.4300 H     1 <1>   0.0800 
 29 H        0.5510     0.0990     0.5060 H     1 <1>   0.0800 
 30 H        0.8530    -2.0740     2.2820 H     1 <1>   0.0800 
 31 H       -0.4930    -2.5310     1.3160 H     1 <1>   0.0800 
 32 H        3.3150    -4.5670    -0.1090 H     1 <1>   0.4500 
 33 H        3.1510    -1.7950    -2.0570 H     1 <1>   0.0800 
 34 H        4.4800    -2.3570    -1.1200 H     1 <1>   0.0800 
 35 H        2.5090     1.3110    -0.2240 H     1 <1>   0.0800 
 36 H        1.9750     0.2980    -1.5220 H     1 <1>   0.0800 
 37 H        0.1900    -4.5970     2.0720 H     1 <1>   0.0800 
 38 H        1.8470    -4.1330     2.2290 H     1 <1>   0.0800 
 39 H        0.4420    -4.7840    -0.3560 H     1 <1>   0.0800 
 40 H        1.5740    -5.8200     0.4660 H     1 <1>   0.0800 
 41 H        1.4720    -3.9770    -2.3430 H     1 <1>   0.0800 
 42 H        2.3120    -5.4870    -2.0820 H     1 <1>   0.0800 
 43 H        3.2160    -4.0380    -2.4490 H     1 <1>   0.0800 
 44 H        4.1900     2.0200    -0.2210 H     1 <1>   0.4570 
 45 H        6.1480    -1.6510    -0.2440 H     1 <1>   0.1500 
 46 H        8.2460    -0.5380     0.2710 H     1 <1>   0.1500 
 47 H        5.3000     4.1160     0.2830 H     1 <1>   0.1500 
 48 H        9.4910     1.5700     0.7520 H     1 <1>   0.1500 
 49 H        7.3970     5.2730     0.8140 H     1 <1>   0.1500 
 50 H        9.4770     4.0080     1.0470 H     1 <1>   0.1500 
@<TRIPOS>BOND
  1   1   2  1   
  2   1  24  1   
  3   2   3  1   
  4   2  25  1   
  5   2  26  1   
  6   3   4  1   
  7   3   5  1   
  8   3   6  1   
  9   4   7  1   
 10   4   8  1   
 11   4  27  1   
 12   5   9  1   
 13   5  28  1   
 14   5  29  1   
 15   6  10  1   
 16   6  30  1   
 17   6  31  1   
 18   7  11  1   
 19   7  12  1   
 20   7  32  1   
 21   8  13  1   
 22   8  33  1   
 23   8  34  1   
 24   9  13  1   
 25   9  35  1   
 26   9  36  1   
 27  10  11  1   
 28  10  37  1   
 29  10  38  1   
 30  11  39  1   
 31  11  40  1   
 32  12  41  1   
 33  12  42  1   
 34  12  43  1   
 35  13  14  1   
 36  14  15  ar  
 37  14  16  ar  
 38  15  17  ar  
 39  15  44  1   
 40  16  18  ar  
 41  16  45  1   
 42  17  19  ar  
 43  17  20  ar  
 44  18  19  ar  
 45  18  46  1   
 46  19  21  ar  
 47  20  22  ar  
 48  20  47  1   
 49  21  23  ar  
 50  21  48  1   
 51  22  23  ar  
 52  22  49  1   
 53  23  50  1   
@<TRIPOS>SUBSTRUCTURE
  1 ****  13 GROUP 4 **** **** 0

# MOE 2024.06 (io_trps.svl 2023.06)
