@<TRIPOS>MOLECULE
NONAME
40 43 1 0 0 
SMALL
USER_CHARGES


@<TRIPOS>ATOM
  1 S       -1.0080     0.3460    -0.4850 S.3   1 <1>  -0.0800 
  2 C       -0.5700     1.9770    -0.0230 C.2   1 <1>  -0.1400 
  3 C        0.5980     0.0830    -1.1510 C.2   1 <1>  -0.1100 
  4 C        0.6980     2.2650    -0.3460 C.2   1 <1>  -0.1810 
  5 C       -1.5330     2.9180     0.6520 C.3   1 <1>   0.0200 
  6 C        1.3680     1.1780    -1.0020 C.2   1 <1>  -0.1500 
  7 C        1.3050     3.6350    -0.0250 C.3   1 <1>   0.4610 
  8 C       -0.9550     4.3370     0.5260 C.3   1 <1>   0.1200 
  9 O        0.4190     4.3460     0.8200 O.3   1 <1>  -0.5600 
 10 C        1.5440     4.4350    -1.3180 C.3   1 <1>  -0.1600 
 11 C        2.6050     3.4770     0.7780 C.3   1 <1>  -0.1600 
 12 C        2.2610     5.7510    -1.0320 C.3   1 <1>   0.2090 
 13 C        3.2940     4.8240     0.9940 C.3   1 <1>   0.2090 
 14 N        3.5230     5.4230    -0.3370 N.pl3 1 <1>  -0.8380 
 15 C        4.5940     6.2760    -0.4790 C.ar  1 <1>   0.4100 
 16 N        5.6380     5.7290    -1.0990 N.ar  1 <1>  -0.6200 
 17 C        4.5750     7.5950    -0.0050 C.ar  1 <1>  -0.1790 
 18 C        6.6900     6.5040    -1.2640 C.ar  1 <1>   0.1600 
 19 C        3.4250     8.1290     0.6690 C.2   1 <1>   0.9790 
 20 C        5.7010     8.3800    -0.1990 C.ar  1 <1>  -0.1500 
 21 C        6.7780     7.8180    -0.8430 C.ar  1 <1>  -0.1500 
 22 O        2.5430     8.7350     0.0310 O.co2 1 <1>  -0.9000 
 23 O        3.3200     8.0490     1.9070 O.co2 1 <1>  -0.9000 
 24 H        0.7980    -0.8780    -1.5910 H     1 <1>   0.1500 
 25 H       -1.6370     2.6520     1.6880 H     1 <1>   0.0800 
 26 H       -2.4970     2.8740     0.1800 H     1 <1>   0.0800 
 27 H        2.3900     1.2720    -1.3280 H     1 <1>   0.1500 
 28 H       -1.4400     5.0020     1.2180 H     1 <1>   0.0800 
 29 H       -1.0950     4.7180    -0.4700 H     1 <1>   0.0800 
 30 H        0.6210     4.6190    -1.8300 H     1 <1>   0.0800 
 31 H        2.1670     3.8590    -1.9770 H     1 <1>   0.0800 
 32 H        3.2870     2.8410     0.2480 H     1 <1>   0.0800 
 33 H        2.3880     3.0190     1.7240 H     1 <1>   0.0800 
 34 H        1.6480     6.3810    -0.4070 H     1 <1>   0.0800 
 35 H        2.4740     6.2790    -1.9460 H     1 <1>   0.0800 
 36 H        4.2350     4.6920     1.4990 H     1 <1>   0.0800 
 37 H        2.6760     5.4800     1.5870 H     1 <1>   0.0800 
 38 H        7.5350     6.0680    -1.7660 H     1 <1>   0.1500 
 39 H        5.7120     9.3980     0.1530 H     1 <1>   0.1500 
 40 H        7.6710     8.3880    -1.0150 H     1 <1>   0.1500 
@<TRIPOS>BOND
  1   1   2  1   
  2   1   3  1   
  3   2   4  2   
  4   2   5  1   
  5   3   6  2   
  6   3  24  1   
  7   4   6  1   
  8   4   7  1   
  9   5   8  1   
 10   5  25  1   
 11   5  26  1   
 12   6  27  1   
 13   7   9  1   
 14   7  10  1   
 15   7  11  1   
 16   8   9  1   
 17   8  28  1   
 18   8  29  1   
 19  10  12  1   
 20  10  30  1   
 21  10  31  1   
 22  11  13  1   
 23  11  32  1   
 24  11  33  1   
 25  12  14  1   
 26  12  34  1   
 27  12  35  1   
 28  13  14  1   
 29  13  36  1   
 30  13  37  1   
 31  14  15  1   
 32  15  16  ar  
 33  15  17  ar  
 34  16  18  ar  
 35  17  19  1   
 36  17  20  ar  
 37  18  21  ar  
 38  18  38  1   
 39  19  22  ar  
 40  19  23  ar  
 41  20  21  ar  
 42  20  39  1   
 43  21  40  1   
@<TRIPOS>SUBSTRUCTURE
  1 ****  14 GROUP 4 **** **** 0

# MOE 2024.06 (io_trps.svl 2023.06)
