@<TRIPOS>MOLECULE
NONAME
51 53 1 0 0 
SMALL
USER_CHARGES


@<TRIPOS>ATOM
  1 O       -1.0260     0.2080    -1.6160 O.2   1 <1>  -0.5700 
  2 C       -1.6940     0.7770    -0.7750 C.2   1 <1>   0.7160 
  3 N       -2.5170     0.0320     0.0400 N.am  1 <1>  -0.6600 
  4 C       -1.6420     2.2120    -0.6700 C.2   1 <1>  -0.0860 
  5 C       -2.4660    -1.4640     0.0660 C.3   1 <1>   0.1400 
  6 C       -3.7790     0.5730     0.6310 C.3   1 <1>   0.1400 
  7 C       -1.8020     3.1710    -1.6050 C.2   1 <1>  -0.0400 
  8 C       -1.4100     2.9780     0.4630 C.2   1 <1>   0.1080 
  9 C       -3.7590    -2.0680    -0.5090 C.3   1 <1>   0.3440 
 10 C       -5.0130    -0.1260     0.0120 C.3   1 <1>   0.2000 
 11 O       -1.7110     4.3770    -1.1000 O.3   1 <1>  -0.0190 
 12 C       -2.0660     3.0330    -3.0920 C.3   1 <1>  -0.0600 
 13 N       -1.4690     4.2240     0.1820 N.2   1 <1>  -0.4100 
 14 C       -1.1070     2.4540     1.8520 C.3   1 <1>  -0.0590 
 15 O       -4.8740    -1.5180     0.1430 O.3   1 <1>  -0.5600 
 16 C       -3.7620    -3.5840    -0.3410 C.ar  1 <1>  -0.1430 
 17 C       -6.3810     0.3130     0.6180 C.3   1 <1>   0.0000 
 18 C       -3.2350    -4.3850    -1.3440 C.ar  1 <1>  -0.1500 
 19 C       -4.2690    -4.1860     0.8030 C.ar  1 <1>  -0.1500 
 20 C       -6.4940    -0.0360     2.1140 C.3   1 <1>  -0.2400 
 21 C       -7.5240    -0.3980    -0.1300 C.3   1 <1>  -0.2400 
 22 C       -6.5920     1.8300     0.4550 C.3   1 <1>  -0.2400 
 23 C       -3.2130    -5.7620    -1.2070 C.ar  1 <1>  -0.1500 
 24 C       -4.2490    -5.5630     0.9430 C.ar  1 <1>  -0.1500 
 25 C       -3.7190    -6.3520    -0.0630 C.ar  1 <1>  -0.1500 
 26 H       -1.6250    -1.8300    -0.4960 H     1 <1>   0.0800 
 27 H       -2.3470    -1.7980     1.0810 H     1 <1>   0.0800 
 28 H       -3.7650     0.4090     1.6930 H     1 <1>   0.0800 
 29 H       -3.8500     1.6310     0.4580 H     1 <1>   0.0800 
 30 H       -3.8370    -1.8280    -1.5560 H     1 <1>   0.0800 
 31 H       -5.0340     0.0970    -1.0410 H     1 <1>   0.0800 
 32 H       -2.1180     1.9980    -3.3750 H     1 <1>   0.0800 
 33 H       -1.2700     3.5010    -3.6430 H     1 <1>   0.0800 
 34 H       -2.9940     3.5130    -3.3440 H     1 <1>   0.0800 
 35 H       -0.5390     1.5430     1.7920 H     1 <1>   0.0800 
 36 H       -2.0220     2.2680     2.3820 H     1 <1>   0.0800 
 37 H       -0.5330     3.1820     2.3960 H     1 <1>   0.0800 
 38 H       -2.8360    -3.9410    -2.2400 H     1 <1>   0.1500 
 39 H       -4.6870    -3.5810     1.5900 H     1 <1>   0.1500 
 40 H       -7.4700     0.2170     2.4870 H     1 <1>   0.0800 
 41 H       -5.7680     0.4980     2.6980 H     1 <1>   0.0800 
 42 H       -6.3430    -1.0910     2.2650 H     1 <1>   0.0800 
 43 H       -8.4820    -0.0880     0.2490 H     1 <1>   0.0800 
 44 H       -7.4490    -1.4650    -0.0090 H     1 <1>   0.0800 
 45 H       -7.4860    -0.1760    -1.1810 H     1 <1>   0.0800 
 46 H       -7.5790     2.1080     0.7820 H     1 <1>   0.0800 
 47 H       -6.4880     2.1180    -0.5760 H     1 <1>   0.0800 
 48 H       -5.8870     2.3910     1.0410 H     1 <1>   0.0800 
 49 H       -2.8020    -6.3750    -1.9900 H     1 <1>   0.1500 
 50 H       -4.6460    -6.0190     1.8320 H     1 <1>   0.1500 
 51 H       -3.7030    -7.4230     0.0450 H     1 <1>   0.1500 
@<TRIPOS>BOND
  1   1   2  2   
  2   2   3  am  
  3   2   4  1   
  4   3   5  1   
  5   3   6  1   
  6   4   7  2   
  7   4   8  1   
  8   5   9  1   
  9   5  26  1   
 10   5  27  1   
 11   6  10  1   
 12   6  28  1   
 13   6  29  1   
 14   7  11  1   
 15   7  12  1   
 16   8  13  2   
 17   8  14  1   
 18   9  15  1   
 19   9  16  1   
 20   9  30  1   
 21  10  15  1   
 22  10  17  1   
 23  10  31  1   
 24  11  13  1   
 25  12  32  1   
 26  12  33  1   
 27  12  34  1   
 28  14  35  1   
 29  14  36  1   
 30  14  37  1   
 31  16  18  ar  
 32  16  19  ar  
 33  17  20  1   
 34  17  21  1   
 35  17  22  1   
 36  18  23  ar  
 37  18  38  1   
 38  19  24  ar  
 39  19  39  1   
 40  20  40  1   
 41  20  41  1   
 42  20  42  1   
 43  21  43  1   
 44  21  44  1   
 45  21  45  1   
 46  22  46  1   
 47  22  47  1   
 48  22  48  1   
 49  23  25  ar  
 50  23  49  1   
 51  24  25  ar  
 52  24  50  1   
 53  25  51  1   
@<TRIPOS>SUBSTRUCTURE
  1 ****   3 GROUP 4 **** **** 0

# MOE 2024.06 (io_trps.svl 2023.06)
