@<TRIPOS>MOLECULE
NONAME
48 50 1 0 0 
SMALL
USER_CHARGES


@<TRIPOS>ATOM
  1 CL      -1.8560    -1.2030    -1.4220 Cl    1 <1>  -0.1770 
  2 C       -2.0310     0.3620    -0.6650 C.ar  1 <1>   0.1770 
  3 C       -2.7120     0.4970     0.5490 C.ar  1 <1>   0.0860 
  4 C       -1.4620     1.4420    -1.3130 C.ar  1 <1>  -0.1500 
  5 C       -3.3360    -0.6220     1.2230 C.2   1 <1>   0.5440 
  6 C       -2.7720     1.7740     1.1170 C.ar  1 <1>  -0.1500 
  7 C       -1.5670     2.6840    -0.7220 C.ar  1 <1>   0.1900 
  8 O       -3.0200    -0.8510     2.3750 O.2   1 <1>  -0.5700 
  9 N       -4.2890    -1.4300     0.6340 N.am  1 <1>  -0.6600 
 10 C       -2.2090     2.8710     0.4870 C.ar  1 <1>  -0.1500 
 11 F       -1.0410     3.7140    -1.3220 F     1 <1>  -0.1900 
 12 C       -5.1870    -1.0110    -0.4900 C.3   1 <1>   0.2200 
 13 C       -4.2740    -2.8860     0.9740 C.3   1 <1>   0.0600 
 14 C       -5.6550     0.4410    -0.3760 C.3   1 <1>  -0.1600 
 15 C       -6.5080    -1.7830    -0.4910 C.3   1 <1>  -0.1600 
 16 C       -6.9730     0.5270    -1.1580 C.3   1 <1>  -0.0800 
 17 C       -7.5060    -0.9080    -1.2590 C.3   1 <1>  -0.0800 
 18 C       -8.0550     1.3480    -0.4430 C.3   1 <1>  -0.1600 
 19 C       -8.9070    -0.8970    -0.6330 C.3   1 <1>  -0.1600 
 20 C       -8.8850     0.3050     0.3040 C.3   1 <1>   0.4230 
 21 N      -10.2520     0.7590     0.7070 N.4   1 <1>  -0.9590 
 22 C      -11.1180     1.2630    -0.4100 C.3   1 <1>   0.2630 
 23 C      -10.1640     1.7840     1.7930 C.3   1 <1>   0.2630 
 24 H       -0.9460     1.3200    -2.2480 H     1 <1>   0.1500 
 25 H       -3.2670     1.8950     2.0670 H     1 <1>   0.1500 
 26 H       -2.2600     3.8530     0.9230 H     1 <1>   0.1500 
 27 H       -4.6880    -1.1620    -1.4330 H     1 <1>   0.0800 
 28 H       -4.2880    -3.4780     0.0760 H     1 <1>   0.0800 
 29 H       -5.1250    -3.1310     1.5840 H     1 <1>   0.0800 
 30 H       -3.3820    -3.1350     1.5250 H     1 <1>   0.0800 
 31 H       -5.8170     0.6760     0.6620 H     1 <1>   0.0800 
 32 H       -4.9380     1.1240    -0.7940 H     1 <1>   0.0800 
 33 H       -6.4010    -2.7460    -0.9590 H     1 <1>   0.0800 
 34 H       -6.8390    -1.9110     0.5250 H     1 <1>   0.0800 
 35 H       -6.7830     0.9210    -2.1440 H     1 <1>   0.0800 
 36 H       -7.5440    -1.2230    -2.2900 H     1 <1>   0.0800 
 37 H       -8.6410     1.8440    -1.1950 H     1 <1>   0.0800 
 38 H       -7.6320     2.0810     0.2190 H     1 <1>   0.0800 
 39 H       -9.1220    -1.8140    -0.1120 H     1 <1>   0.0800 
 40 H       -9.6210    -0.7600    -1.4240 H     1 <1>   0.0800 
 41 H       -8.3330     0.0160     1.1850 H     1 <1>   0.0800 
 42 H      -10.7170    -0.0710     1.1040 H     1 <1>   0.4500 
 43 H      -10.6900     2.1490    -0.8490 H     1 <1>   0.0800 
 44 H      -12.0990     1.5090    -0.0370 H     1 <1>   0.0800 
 45 H      -11.2250     0.5140    -1.1760 H     1 <1>   0.0800 
 46 H       -9.6840     2.6770     1.4280 H     1 <1>   0.0800 
 47 H       -9.5940     1.4020     2.6250 H     1 <1>   0.0800 
 48 H      -11.1500     2.0430     2.1450 H     1 <1>   0.0800 
@<TRIPOS>BOND
  1   1   2  1   
  2   2   3  ar  
  3   2   4  ar  
  4   3   5  1   
  5   3   6  ar  
  6   4   7  ar  
  7   4  24  1   
  8   5   8  2   
  9   5   9  am  
 10   6  10  ar  
 11   6  25  1   
 12   7  10  ar  
 13   7  11  1   
 14   9  12  1   
 15   9  13  1   
 16  10  26  1   
 17  12  14  1   
 18  12  15  1   
 19  12  27  1   
 20  13  28  1   
 21  13  29  1   
 22  13  30  1   
 23  14  16  1   
 24  14  31  1   
 25  14  32  1   
 26  15  17  1   
 27  15  33  1   
 28  15  34  1   
 29  16  17  1   
 30  16  18  1   
 31  16  35  1   
 32  17  19  1   
 33  17  36  1   
 34  18  20  1   
 35  18  37  1   
 36  18  38  1   
 37  19  20  1   
 38  19  39  1   
 39  19  40  1   
 40  20  21  1   
 41  20  41  1   
 42  21  22  1   
 43  21  23  1   
 44  21  42  1   
 45  22  43  1   
 46  22  44  1   
 47  22  45  1   
 48  23  46  1   
 49  23  47  1   
 50  23  48  1   
@<TRIPOS>SUBSTRUCTURE
  1 ****  14 GROUP 4 **** **** 0

# MOE 2024.06 (io_trps.svl 2023.06)
