@<TRIPOS>MOLECULE
NONAME
46 48 1 0 0 
SMALL
USER_CHARGES


@<TRIPOS>ATOM
  1 O       -3.1120    -1.7680    -2.1280 O.co2 1 <1>  -0.9000 
  2 C       -2.5290    -2.0210    -1.0690 C.2   1 <1>   0.9060 
  3 O       -2.8070    -3.0560    -0.4550 O.co2 1 <1>  -0.9000 
  4 C       -1.8650    -0.8710    -0.3140 C.3   1 <1>   0.0040 
  5 N       -2.8040     0.0280     0.4600 N.3   1 <1>  -0.8100 
  6 C       -3.5820    -0.6200     1.5490 C.3   1 <1>   0.1100 
  7 C       -3.3420     1.2180    -0.2320 C.3   1 <1>   0.1100 
  8 C       -5.0330    -1.0510     1.1980 C.3   1 <1>   0.4230 
  9 C       -4.8560     1.2540    -0.5670 C.3   1 <1>  -0.0800 
 10 N       -5.1890    -1.2130    -0.2790 N.4   1 <1>  -0.9590 
 11 C       -6.0790    -0.0960     1.8100 C.3   1 <1>   0.1200 
 12 C       -5.7510     1.8820     0.5190 C.3   1 <1>   0.1200 
 13 C       -5.4660    -0.0380    -1.1170 C.3   1 <1>   0.3430 
 14 C       -5.7870    -2.4800    -0.7640 C.3   1 <1>   0.5240 
 15 O       -5.6780     1.2440     1.7510 O.3   1 <1>  -0.5600 
 16 C       -6.9660    -2.8690     0.1090 C.2   1 <1>  -0.1810 
 17 C       -6.9040    -3.7900     1.1530 C.2   1 <1>   0.1080 
 18 C       -8.2520    -2.4460     0.0930 C.2   1 <1>  -0.3320 
 19 N       -8.0400    -3.9130     1.7580 N.2   1 <1>  -0.7070 
 20 C       -5.6910    -4.5940     1.5820 C.3   1 <1>  -0.0590 
 21 N       -8.8770    -3.0940     1.1000 N.pl3 1 <1>   0.3000 
 22 C       -8.9600    -1.4630    -0.8240 C.3   1 <1>  -0.0600 
 23 H       -1.3040    -0.2900    -1.0210 H     1 <1>   0.0800 
 24 H       -1.1640    -1.3080     0.3730 H     1 <1>   0.0800 
 25 H       -3.0490    -1.4990     1.8680 H     1 <1>   0.0800 
 26 H       -3.5990     0.0410     2.3980 H     1 <1>   0.0800 
 27 H       -3.1100     2.0780     0.3720 H     1 <1>   0.0800 
 28 H       -2.7970     1.3380    -1.1530 H     1 <1>   0.0800 
 29 H       -5.1890    -2.0100     1.6570 H     1 <1>   0.0800 
 30 H       -4.9320     1.9490    -1.3830 H     1 <1>   0.0800 
 31 H       -4.2030    -1.3760    -0.5490 H     1 <1>   0.4500 
 32 H       -6.1830    -0.3340     2.8530 H     1 <1>   0.0800 
 33 H       -7.0410    -0.2110     1.3440 H     1 <1>   0.0800 
 34 H       -6.7820     1.8960     0.2100 H     1 <1>   0.0800 
 35 H       -5.4430     2.9000     0.6860 H     1 <1>   0.0800 
 36 H       -5.0530    -0.2230    -2.0970 H     1 <1>   0.0800 
 37 H       -6.5300     0.0880    -1.2180 H     1 <1>   0.0800 
 38 H       -6.0970    -2.3730    -1.7890 H     1 <1>   0.0800 
 39 H       -5.0440    -3.2610    -0.7340 H     1 <1>   0.0800 
 40 H       -4.7830    -4.2170     1.1470 H     1 <1>   0.0800 
 41 H       -5.8190    -5.6160     1.2780 H     1 <1>   0.0800 
 42 H       -5.6000    -4.5640     2.6520 H     1 <1>   0.0800 
 43 H       -9.8680    -3.0090     1.3580 H     1 <1>   0.2700 
 44 H       -8.3080    -1.1470    -1.6170 H     1 <1>   0.0800 
 45 H       -9.2770    -0.5980    -0.2690 H     1 <1>   0.0800 
 46 H       -9.8240    -1.9280    -1.2650 H     1 <1>   0.0800 
@<TRIPOS>BOND
  1   1   2  ar  
  2   2   3  ar  
  3   2   4  1   
  4   4   5  1   
  5   4  23  1   
  6   4  24  1   
  7   5   6  1   
  8   5   7  1   
  9   6   8  1   
 10   6  25  1   
 11   6  26  1   
 12   7   9  1   
 13   7  27  1   
 14   7  28  1   
 15   8  10  1   
 16   8  11  1   
 17   8  29  1   
 18   9  12  1   
 19   9  13  1   
 20   9  30  1   
 21  10  13  1   
 22  10  14  1   
 23  10  31  1   
 24  11  15  1   
 25  11  32  1   
 26  11  33  1   
 27  12  15  1   
 28  12  34  1   
 29  12  35  1   
 30  13  36  1   
 31  13  37  1   
 32  14  16  1   
 33  14  38  1   
 34  14  39  1   
 35  16  17  1   
 36  16  18  2   
 37  17  19  2   
 38  17  20  1   
 39  18  21  1   
 40  18  22  1   
 41  19  21  1   
 42  20  40  1   
 43  20  41  1   
 44  20  42  1   
 45  21  43  1   
 46  22  44  1   
 47  22  45  1   
 48  22  46  1   
@<TRIPOS>SUBSTRUCTURE
  1 ****  10 GROUP 4 **** **** 0

# MOE 2024.06 (io_trps.svl 2023.06)
