@<TRIPOS>MOLECULE
NONAME
51 54 1 0 0 
SMALL
USER_CHARGES


@<TRIPOS>ATOM
  1 S       -2.4040    -1.9770     3.2790 S.3   1 <1>  -0.4600 
  2 C       -2.4610    -0.5630     2.1300 C.3   1 <1>   0.2510 
  3 C       -3.1580    -3.2400     2.2080 C.3   1 <1>   0.2510 
  4 C       -3.1170    -1.1460     0.9010 C.2   1 <1>   0.1080 
  5 C       -3.4660    -2.4800     0.9400 C.2   1 <1>  -0.1810 
  6 N       -3.4160    -0.5770    -0.2220 N.2   1 <1>  -0.7070 
  7 C       -4.0200    -2.7480    -0.2650 C.2   1 <1>  -0.0880 
  8 N       -3.9770    -1.5690    -0.9600 N.pl3 1 <1>   0.3140 
  9 N       -4.5360    -4.0030    -0.6720 N.am  1 <1>  -0.4940 
 10 C       -4.5070    -1.2600    -2.2940 C.3   1 <1>   0.0160 
 11 C       -4.7110    -4.6010    -1.8880 C.2   1 <1>   0.5690 
 12 O       -4.4790    -4.0750    -2.9500 O.2   1 <1>  -0.5700 
 13 C       -5.2210    -6.0440    -1.8700 C.3   1 <1>   0.1710 
 14 N       -5.9020    -6.4270    -0.5960 N.3   1 <1>  -0.8100 
 15 C       -5.9990    -7.9020    -0.4860 C.3   1 <1>   0.1100 
 16 C       -7.2710    -5.8510    -0.5380 C.3   1 <1>   0.1100 
 17 C       -6.7170    -8.3600     0.8010 C.3   1 <1>   0.2090 
 18 C       -8.0120    -6.2200     0.7620 C.3   1 <1>   0.2090 
 19 N       -8.0440    -7.6960     0.9690 N.pl3 1 <1>  -0.8380 
 20 C       -9.2330    -8.3720     0.6910 C.ar  1 <1>   0.1000 
 21 C      -10.3410    -8.1640     1.5040 C.ar  1 <1>  -0.1500 
 22 C       -9.3580    -9.2470    -0.3840 C.ar  1 <1>  -0.1500 
 23 C      -11.5450    -8.8020     1.2600 C.ar  1 <1>  -0.1430 
 24 C      -10.5560    -9.8910    -0.6360 C.ar  1 <1>  -0.1500 
 25 C      -11.6490    -9.6680     0.1830 C.ar  1 <1>  -0.1500 
 26 C      -12.7460    -8.5650     2.1570 C.3   1 <1>  -0.0970 
 27 H       -1.4550    -0.2400     1.9350 H     1 <1>   0.0800 
 28 H       -3.0530     0.2160     2.5740 H     1 <1>   0.0800 
 29 H       -4.0440    -3.6060     2.6940 H     1 <1>   0.0800 
 30 H       -2.4360    -4.0210     2.0520 H     1 <1>   0.0800 
 31 H       -4.8020    -4.6480     0.0810 H     1 <1>   0.3700 
 32 H       -4.6240    -0.1970    -2.3910 H     1 <1>   0.0800 
 33 H       -5.4580    -1.7390    -2.4200 H     1 <1>   0.0800 
 34 H       -3.8160    -1.6140    -3.0350 H     1 <1>   0.0800 
 35 H       -4.3640    -6.6760    -2.0180 H     1 <1>   0.0800 
 36 H       -5.8850    -6.1900    -2.7040 H     1 <1>   0.0800 
 37 H       -5.0090    -8.3250    -0.4910 H     1 <1>   0.0800 
 38 H       -6.5300    -8.2940    -1.3360 H     1 <1>   0.0800 
 39 H       -7.8550    -6.2070    -1.3700 H     1 <1>   0.0800 
 40 H       -7.2200    -4.7780    -0.6070 H     1 <1>   0.0800 
 41 H       -6.1030    -8.1210     1.6500 H     1 <1>   0.0800 
 42 H       -6.8470    -9.4280     0.7850 H     1 <1>   0.0800 
 43 H       -9.0170    -5.8380     0.7170 H     1 <1>   0.0800 
 44 H       -7.5180    -5.7590     1.5990 H     1 <1>   0.0800 
 45 H      -10.2380    -7.4960     2.3380 H     1 <1>   0.1500 
 46 H       -8.5210    -9.4210    -1.0280 H     1 <1>   0.1500 
 47 H      -10.6410   -10.5650    -1.4700 H     1 <1>   0.1500 
 48 H      -12.5780   -10.1700    -0.0180 H     1 <1>   0.1500 
 49 H      -12.4830    -7.9470     2.9950 H     1 <1>   0.0800 
 50 H      -13.1160    -9.5040     2.5270 H     1 <1>   0.0800 
 51 H      -13.5260    -8.0770     1.6000 H     1 <1>   0.0800 
@<TRIPOS>BOND
  1   1   2  1   
  2   1   3  1   
  3   2   4  1   
  4   2  27  1   
  5   2  28  1   
  6   3   5  1   
  7   3  29  1   
  8   3  30  1   
  9   4   5  1   
 10   4   6  2   
 11   5   7  2   
 12   6   8  1   
 13   7   8  1   
 14   7   9  1   
 15   8  10  1   
 16   9  11  am  
 17   9  31  1   
 18  10  32  1   
 19  10  33  1   
 20  10  34  1   
 21  11  12  2   
 22  11  13  1   
 23  13  14  1   
 24  13  35  1   
 25  13  36  1   
 26  14  15  1   
 27  14  16  1   
 28  15  17  1   
 29  15  37  1   
 30  15  38  1   
 31  16  18  1   
 32  16  39  1   
 33  16  40  1   
 34  17  19  1   
 35  17  41  1   
 36  17  42  1   
 37  18  19  1   
 38  18  43  1   
 39  18  44  1   
 40  19  20  1   
 41  20  21  ar  
 42  20  22  ar  
 43  21  23  ar  
 44  21  45  1   
 45  22  24  ar  
 46  22  46  1   
 47  23  25  ar  
 48  23  26  1   
 49  24  25  ar  
 50  24  47  1   
 51  25  48  1   
 52  26  49  1   
 53  26  50  1   
 54  26  51  1   
@<TRIPOS>SUBSTRUCTURE
  1 ****  16 GROUP 4 **** **** 0

# MOE 2024.06 (io_trps.svl 2023.06)
