@<TRIPOS>MOLECULE
NONAME
50 52 1 0 0 
SMALL
USER_CHARGES


@<TRIPOS>ATOM
  1 O       -0.5650     0.6520     1.4190 O.2   1 <1>  -0.5700 
  2 C       -1.5460     1.2910     1.0900 C.2   1 <1>   0.5440 
  3 N       -2.7150     0.6200     0.8130 N.am  1 <1>  -0.6600 
  4 C       -1.4580     2.7350     0.9740 C.ar  1 <1>   0.0860 
  5 C       -3.7790     1.1270    -0.0930 C.3   1 <1>   0.1400 
  6 C       -2.8650    -0.8450     0.9770 C.3   1 <1>   0.1400 
  7 C       -0.3990     3.3330     0.2960 C.ar  1 <1>  -0.1500 
  8 C       -2.4180     3.5750     1.5390 C.ar  1 <1>  -0.1500 
  9 C       -4.6100    -0.0990    -0.5020 C.3   1 <1>   0.2000 
 10 C       -3.6770    -1.2850    -0.2410 C.3   1 <1>  -0.0800 
 11 C       -0.3000     4.7070     0.1640 C.ar  1 <1>   0.0830 
 12 C       -2.3350     4.9500     1.4140 C.ar  1 <1>  -0.1500 
 13 O       -5.7300    -0.2130     0.3310 O.3   1 <1>  -0.5600 
 14 C       -4.3880    -2.6370    -0.0510 C.3   1 <1>   0.0200 
 15 O        0.7720     5.1790    -0.5170 O.3   1 <1>  -0.3630 
 16 C       -1.2800     5.5220     0.7250 C.ar  1 <1>  -0.1500 
 17 C       -6.8500     0.5080    -0.0760 C.3   1 <1>   0.0400 
 18 C       -3.4250    -3.8110     0.0300 C.2   1 <1>  -0.0400 
 19 C        1.0010     6.5770    -0.6550 C.3   1 <1>   0.1810 
 20 O       -3.9050    -5.0020     0.2710 O.3   1 <1>  -0.0190 
 21 C       -2.0940    -3.9280    -0.1010 C.2   1 <1>  -0.1500 
 22 C        2.2920     6.8650    -1.4140 C.2   1 <1>   0.5690 
 23 N       -2.9700    -5.9060     0.3110 N.2   1 <1>  -0.4100 
 24 C       -1.8670    -5.2870     0.0920 C.2   1 <1>   0.1080 
 25 O        2.5470     7.9990    -1.7270 O.2   1 <1>  -0.5700 
 26 N        3.1460     5.8710    -1.7300 N.am  1 <1>  -0.8000 
 27 C       -0.5100    -5.9520     0.0500 C.3   1 <1>  -0.0590 
 28 H       -4.3870     1.8620     0.4030 H     1 <1>   0.0800 
 29 H       -3.3180     1.5630    -0.9620 H     1 <1>   0.0800 
 30 H       -1.9110    -1.3410     1.0250 H     1 <1>   0.0800 
 31 H       -3.4120    -1.0360     1.8850 H     1 <1>   0.0800 
 32 H        0.3640     2.7080    -0.1320 H     1 <1>   0.1500 
 33 H       -3.2340     3.1380     2.0890 H     1 <1>   0.1500 
 34 H       -4.9320    -0.0610    -1.5290 H     1 <1>   0.0800 
 35 H       -3.0030    -1.3620    -1.0750 H     1 <1>   0.0800 
 36 H       -3.0900     5.5770     1.8570 H     1 <1>   0.1500 
 37 H       -5.0580    -2.8060    -0.8750 H     1 <1>   0.0800 
 38 H       -4.9790    -2.6160     0.8490 H     1 <1>   0.0800 
 39 H       -1.2420     6.5920     0.6420 H     1 <1>   0.1500 
 40 H       -7.6280     0.3530     0.6500 H     1 <1>   0.0800 
 41 H       -7.1760     0.1460    -1.0360 H     1 <1>   0.0800 
 42 H       -6.6080     1.5550    -0.1270 H     1 <1>   0.0800 
 43 H        0.1740     7.0050    -1.1920 H     1 <1>   0.0800 
 44 H        1.0670     7.0100     0.3260 H     1 <1>   0.0800 
 45 H       -1.3440    -3.1860    -0.3050 H     1 <1>   0.1500 
 46 H        4.0060     6.0700    -2.2420 H     1 <1>   0.3700 
 47 H        2.9520     4.8960    -1.4920 H     1 <1>   0.3700 
 48 H        0.1470    -5.4860     0.7610 H     1 <1>   0.0800 
 49 H       -0.0900    -5.8620    -0.9350 H     1 <1>   0.0800 
 50 H       -0.6050    -6.9950     0.2950 H     1 <1>   0.0800 
@<TRIPOS>BOND
  1   1   2  2   
  2   2   3  am  
  3   2   4  1   
  4   3   5  1   
  5   3   6  1   
  6   4   7  ar  
  7   4   8  ar  
  8   5   9  1   
  9   5  28  1   
 10   5  29  1   
 11   6  10  1   
 12   6  30  1   
 13   6  31  1   
 14   7  11  ar  
 15   7  32  1   
 16   8  12  ar  
 17   8  33  1   
 18   9  10  1   
 19   9  13  1   
 20   9  34  1   
 21  10  14  1   
 22  10  35  1   
 23  11  15  1   
 24  11  16  ar  
 25  12  16  ar  
 26  12  36  1   
 27  13  17  1   
 28  14  18  1   
 29  14  37  1   
 30  14  38  1   
 31  15  19  1   
 32  16  39  1   
 33  17  40  1   
 34  17  41  1   
 35  17  42  1   
 36  18  20  1   
 37  18  21  2   
 38  19  22  1   
 39  19  43  1   
 40  19  44  1   
 41  20  23  1   
 42  21  24  1   
 43  21  45  1   
 44  22  25  2   
 45  22  26  am  
 46  23  24  2   
 47  24  27  1   
 48  26  46  1   
 49  26  47  1   
 50  27  48  1   
 51  27  49  1   
 52  27  50  1   
@<TRIPOS>SUBSTRUCTURE
  1 ****   2 GROUP 4 **** **** 0

# MOE 2024.06 (io_trps.svl 2023.06)
