@<TRIPOS>MOLECULE
NONAME
44 46 1 0 0 
SMALL
USER_CHARGES


@<TRIPOS>ATOM
  1 S       -0.1640    -0.9010    -0.3380 S.o2  1 <1>   1.4470 
  2 O        0.3760    -0.7070    -1.6680 O.2   1 <1>  -0.6500 
  3 O       -0.7530    -2.1740     0.0150 O.2   1 <1>  -0.6500 
  4 N       -1.3610     0.2800    -0.1280 N.am  1 <1>  -0.8490 
  5 C        1.0790    -0.4630     0.9100 C.ar  1 <1>  -0.0090 
  6 C       -2.5730    -0.0600    -0.9010 C.3   1 <1>   0.1960 
  7 C       -0.8840     1.6170    -0.4830 C.3   1 <1>   0.1960 
  8 C        2.4130    -0.2720     0.5670 C.ar  1 <1>  -0.1500 
  9 C        0.7230    -0.3040     2.2450 C.ar  1 <1>  -0.1500 
 10 C       -3.7440     0.9030    -0.5960 C.3   1 <1>   0.0000 
 11 C       -1.9470     2.6580    -0.1290 C.3   1 <1>  -0.1600 
 12 C        3.3580     0.0700     1.5190 C.ar  1 <1>  -0.1500 
 13 C        1.6610     0.0380     3.2040 C.ar  1 <1>  -0.1500 
 14 C       -4.3280     0.7240     0.8240 C.3   1 <1>   0.2000 
 15 C       -3.2710     2.3590    -0.8450 C.3   1 <1>  -0.1600 
 16 C       -4.9670     0.6160    -1.4840 C.3   1 <1>  -0.1600 
 17 C        2.9810     0.2260     2.8400 C.ar  1 <1>  -0.1500 
 18 O       -4.5110    -0.6350     1.1120 O.3   1 <1>  -0.5600 
 19 C       -5.7320     1.3260     0.7400 C.3   1 <1>  -0.1600 
 20 C       -6.1810     1.1610    -0.7200 C.3   1 <1>  -0.1600 
 21 C       -3.6640    -1.1560     2.0860 C.3   1 <1>   0.0400 
 22 H       -2.3440    -0.0230    -1.9530 H     1 <1>   0.0800 
 23 H       -2.8790    -1.0680    -0.6780 H     1 <1>   0.0800 
 24 H        0.0170     1.8430     0.0610 H     1 <1>   0.0800 
 25 H       -0.6620     1.6620    -1.5370 H     1 <1>   0.0800 
 26 H        2.7170    -0.3930    -0.4600 H     1 <1>   0.1500 
 27 H       -0.3040    -0.4510     2.5340 H     1 <1>   0.1500 
 28 H       -2.0900     2.6660     0.9370 H     1 <1>   0.0800 
 29 H       -1.5960     3.6330    -0.4170 H     1 <1>   0.0800 
 30 H        4.3860     0.2130     1.2320 H     1 <1>   0.1500 
 31 H        1.3640     0.1550     4.2320 H     1 <1>   0.1500 
 32 H       -3.7320     1.1870     1.5910 H     1 <1>   0.0800 
 33 H       -3.1160     2.4990    -1.9010 H     1 <1>   0.0800 
 34 H       -4.0160     3.0710    -0.5370 H     1 <1>   0.0800 
 35 H       -4.8830     1.0440    -2.4680 H     1 <1>   0.0800 
 36 H       -5.0840    -0.4500    -1.5860 H     1 <1>   0.0800 
 37 H        3.7140     0.4920     3.5830 H     1 <1>   0.1500 
 38 H       -6.4060     0.8460     1.4280 H     1 <1>   0.0800 
 39 H       -5.6850     2.3720     0.9820 H     1 <1>   0.0800 
 40 H       -7.0040     0.4700    -0.7890 H     1 <1>   0.0800 
 41 H       -6.4870     2.1110    -1.1210 H     1 <1>   0.0800 
 42 H       -3.8770    -2.2050     2.1870 H     1 <1>   0.0800 
 43 H       -3.8480    -0.6540     3.0200 H     1 <1>   0.0800 
 44 H       -2.6410    -1.0260     1.7810 H     1 <1>   0.0800 
@<TRIPOS>BOND
  1   1   2  2   
  2   1   3  2   
  3   1   4  am  
  4   1   5  1   
  5   4   6  1   
  6   4   7  1   
  7   5   8  ar  
  8   5   9  ar  
  9   6  10  1   
 10   6  22  1   
 11   6  23  1   
 12   7  11  1   
 13   7  24  1   
 14   7  25  1   
 15   8  12  ar  
 16   8  26  1   
 17   9  13  ar  
 18   9  27  1   
 19  10  14  1   
 20  10  15  1   
 21  10  16  1   
 22  11  15  1   
 23  11  28  1   
 24  11  29  1   
 25  12  17  ar  
 26  12  30  1   
 27  13  17  ar  
 28  13  31  1   
 29  14  18  1   
 30  14  19  1   
 31  14  32  1   
 32  15  33  1   
 33  15  34  1   
 34  16  20  1   
 35  16  35  1   
 36  16  36  1   
 37  17  37  1   
 38  18  21  1   
 39  19  20  1   
 40  19  38  1   
 41  19  39  1   
 42  20  40  1   
 43  20  41  1   
 44  21  42  1   
 45  21  43  1   
 46  21  44  1   
@<TRIPOS>SUBSTRUCTURE
  1 ****   4 GROUP 4 **** **** 0

# MOE 2024.06 (io_trps.svl 2023.06)
