@<TRIPOS>MOLECULE
NONAME
50 52 1 0 0 
SMALL
USER_CHARGES


@<TRIPOS>ATOM
  1 O        0.1170     1.4770    -0.3170 O.3   1 <1>  -0.5320 
  2 C        1.3960     1.8320    -0.1270 C.ar  1 <1>   0.0830 
  3 C        1.6960     2.7700     0.8430 C.ar  1 <1>  -0.1500 
  4 C        2.4020     1.2640    -0.8900 C.ar  1 <1>  -0.1500 
  5 C        3.0100     3.1490     1.0500 C.ar  1 <1>  -0.1500 
  6 C        3.7160     1.6450    -0.6820 C.ar  1 <1>  -0.1500 
  7 C        4.0260     2.5920     0.2860 C.ar  1 <1>  -0.1430 
  8 C        5.4620     3.0290     0.4980 C.3   1 <1>  -0.0170 
  9 C        5.7270     4.2550    -0.3790 C.3   1 <1>   0.3430 
 10 N        7.0850     4.8440    -0.1430 N.4   1 <1>  -0.9590 
 11 C        7.1650     6.1970    -0.7790 C.3   1 <1>   0.3430 
 12 C        8.1720     3.9410    -0.6450 C.3   1 <1>   0.2630 
 13 C        7.9860     7.1720     0.0740 C.3   1 <1>  -0.0800 
 14 C        7.9880     8.5700    -0.5480 C.3   1 <1>   0.2090 
 15 C        9.4710     6.8240     0.2260 C.3   1 <1>  -0.1600 
 16 N        9.3290     9.1250    -0.2760 N.pl3 1 <1>  -0.8380 
 17 C       10.1410     8.1620     0.4960 C.3   1 <1>   0.2090 
 18 C        9.4790    10.5130    -0.1330 C.ar  1 <1>   0.1000 
 19 C       10.2520    11.0890     0.8740 C.ar  1 <1>  -0.1500 
 20 C        8.8450    11.3710    -1.0290 C.ar  1 <1>  -0.1500 
 21 C       10.3710    12.4630     0.9910 C.ar  1 <1>  -0.1500 
 22 C        8.9580    12.7440    -0.9170 C.ar  1 <1>  -0.1500 
 23 C        9.7210    13.2950     0.0970 C.ar  1 <1>  -0.1500 
 24 H        0.0020     0.7970    -1.0040 H     1 <1>   0.4500 
 25 H        0.8990     3.1940     1.4290 H     1 <1>   0.1500 
 26 H        2.1670     0.5300    -1.6390 H     1 <1>   0.1500 
 27 H        3.2250     3.8770     1.8130 H     1 <1>   0.1500 
 28 H        4.4880     1.1930    -1.2800 H     1 <1>   0.1500 
 29 H        6.1200     2.2200     0.2370 H     1 <1>   0.0800 
 30 H        5.6080     3.2720     1.5360 H     1 <1>   0.0800 
 31 H        4.9720     4.9920    -0.1540 H     1 <1>   0.0800 
 32 H        5.6160     3.9800    -1.4160 H     1 <1>   0.0800 
 33 H        7.2010     4.9750     0.8720 H     1 <1>   0.4500 
 34 H        6.1720     6.6030    -0.8850 H     1 <1>   0.0800 
 35 H        7.5950     6.1200    -1.7650 H     1 <1>   0.0800 
 36 H        8.0650     3.7800    -1.7060 H     1 <1>   0.0800 
 37 H        8.1310     2.9870    -0.1460 H     1 <1>   0.0800 
 38 H        9.1410     4.3750    -0.4610 H     1 <1>   0.0800 
 39 H        7.5380     7.2650     1.0480 H     1 <1>   0.0800 
 40 H        7.2240     9.1960    -0.1150 H     1 <1>   0.0800 
 41 H        7.8520     8.5260    -1.6160 H     1 <1>   0.0800 
 42 H        9.8710     6.4380    -0.6950 H     1 <1>   0.0800 
 43 H        9.6630     6.1280     1.0230 H     1 <1>   0.0800 
 44 H       11.1660     8.1760     0.1670 H     1 <1>   0.0800 
 45 H       10.0860     8.3960     1.5460 H     1 <1>   0.0800 
 46 H       10.7720    10.4740     1.5810 H     1 <1>   0.1500 
 47 H        8.2640    10.9590    -1.8310 H     1 <1>   0.1500 
 48 H       10.9700    12.8860     1.7780 H     1 <1>   0.1500 
 49 H        8.4570    13.3850    -1.6200 H     1 <1>   0.1500 
 50 H        9.8120    14.3630     0.1880 H     1 <1>   0.1500 
@<TRIPOS>BOND
  1   1   2  1   
  2   1  24  1   
  3   2   3  ar  
  4   2   4  ar  
  5   3   5  ar  
  6   3  25  1   
  7   4   6  ar  
  8   4  26  1   
  9   5   7  ar  
 10   5  27  1   
 11   6   7  ar  
 12   6  28  1   
 13   7   8  1   
 14   8   9  1   
 15   8  29  1   
 16   8  30  1   
 17   9  10  1   
 18   9  31  1   
 19   9  32  1   
 20  10  11  1   
 21  10  12  1   
 22  10  33  1   
 23  11  13  1   
 24  11  34  1   
 25  11  35  1   
 26  12  36  1   
 27  12  37  1   
 28  12  38  1   
 29  13  14  1   
 30  13  15  1   
 31  13  39  1   
 32  14  16  1   
 33  14  40  1   
 34  14  41  1   
 35  15  17  1   
 36  15  42  1   
 37  15  43  1   
 38  16  17  1   
 39  16  18  1   
 40  17  44  1   
 41  17  45  1   
 42  18  19  ar  
 43  18  20  ar  
 44  19  21  ar  
 45  19  46  1   
 46  20  22  ar  
 47  20  47  1   
 48  21  23  ar  
 49  21  48  1   
 50  22  23  ar  
 51  22  49  1   
 52  23  50  1   
@<TRIPOS>SUBSTRUCTURE
  1 ****  11 GROUP 4 **** **** 0

# MOE 2024.06 (io_trps.svl 2023.06)
