@<TRIPOS>MOLECULE
NONAME
43 44 1 0 0 
SMALL
USER_CHARGES


@<TRIPOS>ATOM
  1 S       -0.5020     0.4460     1.6490 S.3   1 <1>  -0.0800 
  2 C       -1.3330     1.4780     0.4930 C.2   1 <1>  -0.1400 
  3 C       -1.2770    -0.9850     1.0000 C.2   1 <1>  -0.1100 
  4 C       -2.1310     0.7430    -0.3080 C.2   1 <1>  -0.1810 
  5 C       -1.0310     2.9650     0.5830 C.3   1 <1>   0.0200 
  6 C       -2.0960    -0.6590    -0.0150 C.2   1 <1>  -0.1500 
  7 C       -3.0190     1.2410    -1.4340 C.3   1 <1>  -0.0590 
  8 C        0.4050     3.2500     0.1430 C.3   1 <1>   0.1400 
  9 N        0.6340     4.7140     0.0630 N.am  1 <1>  -0.7300 
 10 C        1.2520     5.4560     1.0180 C.2   1 <1>   0.5690 
 11 O        1.6460     4.9710     2.0500 O.2   1 <1>  -0.5700 
 12 C        1.4420     6.9540     0.7910 C.3   1 <1>  -0.0190 
 13 C        0.0960     7.6850     0.6150 C.3   1 <1>  -0.1600 
 14 C        2.4030     7.2470    -0.3880 C.3   1 <1>  -0.1600 
 15 C        0.2720     9.2170     0.5480 C.3   1 <1>   0.2000 
 16 C        2.2220     8.6490    -1.0030 C.3   1 <1>  -0.1600 
 17 O       -0.7230     9.7260    -0.3050 O.3   1 <1>  -0.5600 
 18 C        1.6670     9.6440     0.0190 C.3   1 <1>   0.2000 
 19 C       -1.9650     9.9320     0.2930 C.3   1 <1>   0.0400 
 20 O        1.5620    10.8740    -0.5970 O.3   1 <1>  -0.6800 
 21 H       -1.0330    -1.9280     1.4540 H     1 <1>   0.1500 
 22 H       -1.7120     3.5080    -0.0430 H     1 <1>   0.0800 
 23 H       -1.1660     3.2920     1.5990 H     1 <1>   0.0800 
 24 H       -2.6870    -1.3580    -0.5800 H     1 <1>   0.1500 
 25 H       -2.7370     0.7660    -2.3560 H     1 <1>   0.0800 
 26 H       -2.9330     2.3040    -1.5570 H     1 <1>   0.0800 
 27 H       -4.0450     1.0030    -1.2200 H     1 <1>   0.0800 
 28 H        0.5870     2.8080    -0.8210 H     1 <1>   0.0800 
 29 H        1.0920     2.8110     0.8490 H     1 <1>   0.0800 
 30 H        0.3120     5.1720    -0.7900 H     1 <1>   0.3700 
 31 H        1.8980     7.3420     1.6860 H     1 <1>   0.0800 
 32 H       -0.5510     7.4400     1.4380 H     1 <1>   0.0800 
 33 H       -0.3660     7.3420    -0.2940 H     1 <1>   0.0800 
 34 H        3.4130     7.1440    -0.0280 H     1 <1>   0.0800 
 35 H        2.2730     6.5190    -1.1700 H     1 <1>   0.0800 
 36 H        0.1490     9.6480     1.5270 H     1 <1>   0.0800 
 37 H        1.5290     8.5840    -1.8240 H     1 <1>   0.0800 
 38 H        3.1650     9.0020    -1.3830 H     1 <1>   0.0800 
 39 H        2.3630     9.7420     0.8350 H     1 <1>   0.0800 
 40 H       -2.6370    10.3170    -0.4540 H     1 <1>   0.0800 
 41 H       -1.8610    10.6510     1.0880 H     1 <1>   0.0800 
 42 H       -2.3430     8.9990     0.6720 H     1 <1>   0.0800 
 43 H        0.6490    10.9130    -0.9630 H     1 <1>   0.4000 
@<TRIPOS>BOND
  1   1   2  1   
  2   1   3  1   
  3   2   4  2   
  4   2   5  1   
  5   3   6  2   
  6   3  21  1   
  7   4   6  1   
  8   4   7  1   
  9   5   8  1   
 10   5  22  1   
 11   5  23  1   
 12   6  24  1   
 13   7  25  1   
 14   7  26  1   
 15   7  27  1   
 16   8   9  1   
 17   8  28  1   
 18   8  29  1   
 19   9  10  am  
 20   9  30  1   
 21  10  11  2   
 22  10  12  1   
 23  12  13  1   
 24  12  14  1   
 25  12  31  1   
 26  13  15  1   
 27  13  32  1   
 28  13  33  1   
 29  14  16  1   
 30  14  34  1   
 31  14  35  1   
 32  15  17  1   
 33  15  18  1   
 34  15  36  1   
 35  16  18  1   
 36  16  37  1   
 37  16  38  1   
 38  17  19  1   
 39  18  20  1   
 40  18  39  1   
 41  19  40  1   
 42  19  41  1   
 43  19  42  1   
 44  20  43  1   
@<TRIPOS>SUBSTRUCTURE
  1 ****   9 GROUP 4 **** **** 0

# MOE 2024.06 (io_trps.svl 2023.06)
