@<TRIPOS>MOLECULE
NONAME
50 51 1 0 0 
SMALL
USER_CHARGES


@<TRIPOS>ATOM
  1 O        0.3950    -0.5500     1.6430 O.2   1 <1>  -0.5700 
  2 C        1.4190    -0.8770     1.0890 C.2   1 <1>   0.5690 
  3 N        2.5290    -0.0740     1.0020 N.am  1 <1>  -0.4940 
  4 C        1.4310    -2.2740     0.4420 C.3   1 <1>   0.4040 
  5 C        2.6990     1.2490     1.4870 C.2   1 <1>  -0.0880 
  6 N        0.0470    -2.8010     0.1400 N.4   1 <1>  -0.9590 
  7 N        3.8370     2.0000     1.3710 N.pl3 1 <1>   0.3140 
  8 C        1.8040     2.0280     2.1420 C.2   1 <1>  -0.1500 
  9 C        0.0110    -4.2800    -0.0910 C.3   1 <1>   0.3430 
 10 C       -0.6410    -2.0320    -0.9340 C.3   1 <1>   0.3430 
 11 N        3.6760     3.2190     1.9340 N.2   1 <1>  -0.7070 
 12 C        5.1530     1.6390     0.7640 C.3   1 <1>   0.1760 
 13 C        2.4630     3.2230     2.3880 C.2   1 <1>   0.1390 
 14 C       -1.3360    -4.7500    -0.6790 C.3   1 <1>  -0.0800 
 15 C       -2.1410    -2.3530    -0.9050 C.3   1 <1>  -0.1600 
 16 C        5.0320     1.2460    -0.7290 C.3   1 <1>  -0.1600 
 17 C        5.8470     0.5590     1.6220 C.3   1 <1>  -0.1600 
 18 C       -2.4760    -3.7620    -0.3790 C.3   1 <1>  -0.1600 
 19 C       -1.6920    -6.1480    -0.1590 C.3   1 <1>  -0.2400 
 20 C        4.2540     2.2700    -1.5690 C.3   1 <1>  -0.2400 
 21 C        7.2920     0.2660     1.1930 C.3   1 <1>  -0.2400 
 22 H        3.3540    -0.4490     0.5330 H     1 <1>   0.3700 
 23 H        1.9210    -2.9420     1.1290 H     1 <1>   0.0800 
 24 H        2.0100    -2.2380    -0.4640 H     1 <1>   0.0800 
 25 H       -0.5110    -2.5960     0.9880 H     1 <1>   0.4500 
 26 H        0.7930     1.8050     2.4290 H     1 <1>   0.1500 
 27 H        0.1760    -4.7830     0.8490 H     1 <1>   0.0800 
 28 H        0.8000    -4.5710    -0.7640 H     1 <1>   0.0800 
 29 H       -0.2320    -2.3080    -1.8920 H     1 <1>   0.0800 
 30 H       -0.5030    -0.9710    -0.7930 H     1 <1>   0.0800 
 31 H        5.7570     2.5290     0.8120 H     1 <1>   0.0800 
 32 H        2.0250     4.0650     2.8990 H     1 <1>   0.1500 
 33 H       -1.2240    -4.8200    -1.7490 H     1 <1>   0.0800 
 34 H       -2.5200    -2.2450    -1.9060 H     1 <1>   0.0800 
 35 H       -2.6480    -1.6200    -0.3010 H     1 <1>   0.0800 
 36 H        4.5810     0.2780    -0.8300 H     1 <1>   0.0800 
 37 H        6.0230     1.1770    -1.1420 H     1 <1>   0.0800 
 38 H        5.2850    -0.3560     1.6000 H     1 <1>   0.0800 
 39 H        5.8700     0.9080     2.6420 H     1 <1>   0.0800 
 40 H       -2.6350    -3.7160     0.6860 H     1 <1>   0.0800 
 41 H       -3.3960    -4.1020    -0.8260 H     1 <1>   0.0800 
 42 H       -1.8270    -6.1410     0.9090 H     1 <1>   0.0800 
 43 H       -0.9170    -6.8540    -0.4040 H     1 <1>   0.0800 
 44 H       -2.6070    -6.4920    -0.6110 H     1 <1>   0.0800 
 45 H        3.2230     2.3250    -1.2630 H     1 <1>   0.0800 
 46 H        4.2840     1.9970    -2.6090 H     1 <1>   0.0800 
 47 H        4.6900     3.2490    -1.4640 H     1 <1>   0.0800 
 48 H        7.3280    -0.1920     0.2200 H     1 <1>   0.0800 
 49 H        7.7510    -0.4080     1.8950 H     1 <1>   0.0800 
 50 H        7.8700     1.1740     1.1730 H     1 <1>   0.0800 
@<TRIPOS>BOND
  1   1   2  2   
  2   2   3  am  
  3   2   4  1   
  4   3   5  1   
  5   3  22  1   
  6   4   6  1   
  7   4  23  1   
  8   4  24  1   
  9   5   7  1   
 10   5   8  2   
 11   6   9  1   
 12   6  10  1   
 13   6  25  1   
 14   7  11  1   
 15   7  12  1   
 16   8  13  1   
 17   8  26  1   
 18   9  14  1   
 19   9  27  1   
 20   9  28  1   
 21  10  15  1   
 22  10  29  1   
 23  10  30  1   
 24  11  13  2   
 25  12  16  1   
 26  12  17  1   
 27  12  31  1   
 28  13  32  1   
 29  14  18  1   
 30  14  19  1   
 31  14  33  1   
 32  15  18  1   
 33  15  34  1   
 34  15  35  1   
 35  16  20  1   
 36  16  36  1   
 37  16  37  1   
 38  17  21  1   
 39  17  38  1   
 40  17  39  1   
 41  18  40  1   
 42  18  41  1   
 43  19  42  1   
 44  19  43  1   
 45  19  44  1   
 46  20  45  1   
 47  20  46  1   
 48  20  47  1   
 49  21  48  1   
 50  21  49  1   
 51  21  50  1   
@<TRIPOS>SUBSTRUCTURE
  1 ****   2 GROUP 4 **** **** 0

# MOE 2024.06 (io_trps.svl 2023.06)
