@<TRIPOS>MOLECULE
NONAME
51 53 1 0 0 
SMALL
USER_CHARGES


@<TRIPOS>ATOM
  1 S        2.4210    -1.5060    -2.0110 S.3   1 <1>  -0.0800 
  2 C        1.0870    -0.9910    -0.9990 C.2   1 <1>   0.1980 
  3 C        2.4790    -3.0070    -1.1380 C.2   1 <1>  -0.1100 
  4 N        0.7320    -1.8490    -0.1260 N.2   1 <1>  -0.5650 
  5 C        0.5010     0.3850    -1.2610 C.3   1 <1>   0.0200 
  6 C        1.5250    -2.9920    -0.1940 C.2   1 <1>   0.0460 
  7 C        1.4300     1.5020    -0.7710 C.3   1 <1>  -0.2400 
  8 C        1.2130    -4.1040     0.7940 C.3   1 <1>   0.5240 
  9 N       -0.2660    -4.2880     0.8080 N.4   1 <1>  -0.9590 
 10 C       -0.7070    -4.9460    -0.4720 C.3   1 <1>   0.3430 
 11 C       -0.7220    -4.9180     2.0740 C.3   1 <1>   0.3430 
 12 C       -1.5720    -6.2120    -0.2930 C.3   1 <1>   0.0000 
 13 C       -2.2150    -5.2420     2.0400 C.3   1 <1>  -0.1600 
 14 C       -2.6930    -5.8200     0.6990 C.3   1 <1>   0.2000 
 15 C       -2.2550    -6.4970    -1.6520 C.3   1 <1>   0.1200 
 16 C       -0.7580    -7.4770     0.1570 C.3   1 <1>  -0.0170 
 17 O       -3.5380    -6.8890     0.9350 O.3   1 <1>  -0.6800 
 18 O       -1.3060    -6.5280    -2.6620 O.3   1 <1>  -0.6800 
 19 C        0.7640    -7.3340     0.2220 C.ar  1 <1>  -0.1440 
 20 C        1.5090    -7.1400    -0.9340 C.ar  1 <1>  -0.1500 
 21 C        1.4290    -7.4210     1.4380 C.ar  1 <1>  -0.1500 
 22 C        2.8820    -6.9830    -0.8710 C.ar  1 <1>  -0.1500 
 23 C        2.8030    -7.2640     1.5040 C.ar  1 <1>  -0.1500 
 24 C        3.5300    -7.0370     0.3490 C.ar  1 <1>  -0.1500 
 25 H        3.2210    -3.7290    -1.4310 H     1 <1>   0.1500 
 26 H        0.3210     0.4970    -2.3160 H     1 <1>   0.0800 
 27 H       -0.4430     0.4630    -0.7530 H     1 <1>   0.0800 
 28 H        2.3700     1.4670    -1.2930 H     1 <1>   0.0800 
 29 H        1.6160     1.3940     0.2830 H     1 <1>   0.0800 
 30 H        0.9770     2.4620    -0.9440 H     1 <1>   0.0800 
 31 H        1.5540    -3.7990     1.7680 H     1 <1>   0.0800 
 32 H        1.7180    -5.0120     0.5150 H     1 <1>   0.0800 
 33 H       -0.5950    -3.3060     0.7620 H     1 <1>   0.4500 
 34 H       -1.2830    -4.2290    -1.0340 H     1 <1>   0.0800 
 35 H        0.1460    -5.1860    -1.0840 H     1 <1>   0.0800 
 36 H       -0.1810    -5.8330     2.2260 H     1 <1>   0.0800 
 37 H       -0.5110    -4.2690     2.9100 H     1 <1>   0.0800 
 38 H       -2.7630    -4.3370     2.2370 H     1 <1>   0.0800 
 39 H       -2.4290    -5.9200     2.8470 H     1 <1>   0.0800 
 40 H       -3.3040    -5.0640     0.2290 H     1 <1>   0.0800 
 41 H       -2.9660    -5.7270    -1.9000 H     1 <1>   0.0800 
 42 H       -2.7710    -7.4440    -1.6350 H     1 <1>   0.0800 
 43 H       -1.0990    -7.8050     1.1220 H     1 <1>   0.0800 
 44 H       -0.9680    -8.2970    -0.5080 H     1 <1>   0.0800 
 45 H       -3.1200    -7.5830     1.4820 H     1 <1>   0.4000 
 46 H       -1.7120    -6.8080    -3.5110 H     1 <1>   0.4000 
 47 H        1.0280    -7.1180    -1.8970 H     1 <1>   0.1500 
 48 H        0.8900    -7.6260     2.3470 H     1 <1>   0.1500 
 49 H        3.4490    -6.8340    -1.7750 H     1 <1>   0.1500 
 50 H        3.3120    -7.3340     2.4510 H     1 <1>   0.1500 
 51 H        4.6000    -6.9230     0.3980 H     1 <1>   0.1500 
@<TRIPOS>BOND
  1   1   2  1   
  2   1   3  1   
  3   2   4  2   
  4   2   5  1   
  5   3   6  2   
  6   3  25  1   
  7   4   6  1   
  8   5   7  1   
  9   5  26  1   
 10   5  27  1   
 11   6   8  1   
 12   7  28  1   
 13   7  29  1   
 14   7  30  1   
 15   8   9  1   
 16   8  31  1   
 17   8  32  1   
 18   9  10  1   
 19   9  11  1   
 20   9  33  1   
 21  10  12  1   
 22  10  34  1   
 23  10  35  1   
 24  11  13  1   
 25  11  36  1   
 26  11  37  1   
 27  12  14  1   
 28  12  15  1   
 29  12  16  1   
 30  13  14  1   
 31  13  38  1   
 32  13  39  1   
 33  14  17  1   
 34  14  40  1   
 35  15  18  1   
 36  15  41  1   
 37  15  42  1   
 38  16  19  1   
 39  16  43  1   
 40  16  44  1   
 41  17  45  1   
 42  18  46  1   
 43  19  20  ar  
 44  19  21  ar  
 45  20  22  ar  
 46  20  47  1   
 47  21  23  ar  
 48  21  48  1   
 49  22  24  ar  
 50  22  49  1   
 51  23  24  ar  
 52  23  50  1   
 53  24  51  1   
@<TRIPOS>SUBSTRUCTURE
  1 ****  10 GROUP 4 **** **** 0

# MOE 2024.06 (io_trps.svl 2023.06)
