@<TRIPOS>MOLECULE
NONAME
48 50 1 0 0 
SMALL
USER_CHARGES


@<TRIPOS>ATOM
  1 F        1.0150     2.2990     2.2280 F     1 <1>  -0.1900 
  2 C        2.3030     2.5190     2.1760 C.ar  1 <1>   0.1900 
  3 C        3.1290     2.0890     3.2000 C.ar  1 <1>   0.1900 
  4 C        2.8160     3.1860     1.0810 C.ar  1 <1>  -0.1500 
  5 F        2.6360     1.4600     4.2340 F     1 <1>  -0.1900 
  6 C        4.4890     2.3210     3.1420 C.ar  1 <1>  -0.1500 
  7 C        4.1890     3.4440     0.9950 C.ar  1 <1>   0.0860 
  8 C        5.0040     2.9920     2.0430 C.ar  1 <1>  -0.1500 
  9 C        4.7570     4.1500    -0.1430 C.2   1 <1>   0.5440 
 10 O        5.9360     4.0440    -0.4300 O.2   1 <1>  -0.5700 
 11 N        4.0170     5.0160    -0.9130 N.am  1 <1>  -0.6600 
 12 C        4.1720     5.0460    -2.4060 C.3   1 <1>   0.1400 
 13 C        3.4190     6.2340    -0.3080 C.3   1 <1>   0.1400 
 14 C        5.4730     5.7330    -2.8800 C.3   1 <1>   0.3430 
 15 C        4.4970     7.3040    -0.0830 C.3   1 <1>  -0.1600 
 16 N        6.1190     6.5240    -1.7900 N.4   1 <1>  -0.9590 
 17 C        5.3080     7.6870    -1.3260 C.3   1 <1>   0.3430 
 18 C        7.5440     6.8380    -2.0660 C.3   1 <1>   0.4860 
 19 C        8.1850     7.3390    -0.7900 C.ar  1 <1>  -0.1430 
 20 C        8.5860     8.6620    -0.6840 C.ar  1 <1>   0.1600 
 21 C        8.3730     6.4950     0.2900 C.ar  1 <1>  -0.1500 
 22 N        9.1220     9.2060     0.3930 N.ar  1 <1>  -0.6200 
 23 C        8.9400     7.0450     1.4170 C.ar  1 <1>  -0.1500 
 24 C        9.2920     8.3870     1.4270 C.ar  1 <1>   0.3930 
 25 O        9.8360     8.8680     2.5630 O.3   1 <1>  -0.3630 
 26 C       10.2530    10.2160     2.6570 C.3   1 <1>   0.0400 
 27 H        2.1480     3.4960     0.2980 H     1 <1>   0.1500 
 28 H        5.1270     1.9800     3.9390 H     1 <1>   0.1500 
 29 H        6.0660     3.1690     1.9920 H     1 <1>   0.1500 
 30 H        3.3250     5.5470    -2.8440 H     1 <1>   0.0800 
 31 H        4.1620     4.0350    -2.7790 H     1 <1>   0.0800 
 32 H        2.9650     5.9840     0.6370 H     1 <1>   0.0800 
 33 H        2.6420     6.6150    -0.9500 H     1 <1>   0.0800 
 34 H        5.2690     6.3560    -3.7350 H     1 <1>   0.0800 
 35 H        6.1510     4.9560    -3.1960 H     1 <1>   0.0800 
 36 H        5.1670     6.9880     0.6980 H     1 <1>   0.0800 
 37 H        4.0080     8.1920     0.2770 H     1 <1>   0.0800 
 38 H        6.1300     5.8460    -1.0000 H     1 <1>   0.4500 
 39 H        5.9580     8.5060    -1.0650 H     1 <1>   0.0800 
 40 H        4.6500     8.0220    -2.1110 H     1 <1>   0.0800 
 41 H        7.6200     7.5820    -2.8420 H     1 <1>   0.0800 
 42 H        8.0600     5.9480    -2.3910 H     1 <1>   0.0800 
 43 H        8.4600     9.3230    -1.5250 H     1 <1>   0.1500 
 44 H        8.0970     5.4520     0.2680 H     1 <1>   0.1500 
 45 H        9.1200     6.4550     2.2960 H     1 <1>   0.1500 
 46 H       10.6600    10.3760     3.6390 H     1 <1>   0.0800 
 47 H        9.4030    10.8560     2.4990 H     1 <1>   0.0800 
 48 H       11.0050    10.4000     1.9100 H     1 <1>   0.0800 
@<TRIPOS>BOND
  1   1   2  1   
  2   2   3  ar  
  3   2   4  ar  
  4   3   5  1   
  5   3   6  ar  
  6   4   7  ar  
  7   4  27  1   
  8   6   8  ar  
  9   6  28  1   
 10   7   8  ar  
 11   7   9  1   
 12   8  29  1   
 13   9  10  2   
 14   9  11  am  
 15  11  12  1   
 16  11  13  1   
 17  12  14  1   
 18  12  30  1   
 19  12  31  1   
 20  13  15  1   
 21  13  32  1   
 22  13  33  1   
 23  14  16  1   
 24  14  34  1   
 25  14  35  1   
 26  15  17  1   
 27  15  36  1   
 28  15  37  1   
 29  16  17  1   
 30  16  18  1   
 31  16  38  1   
 32  17  39  1   
 33  17  40  1   
 34  18  19  1   
 35  18  41  1   
 36  18  42  1   
 37  19  20  ar  
 38  19  21  ar  
 39  20  22  ar  
 40  20  43  1   
 41  21  23  ar  
 42  21  44  1   
 43  22  24  ar  
 44  23  24  ar  
 45  23  45  1   
 46  24  25  1   
 47  25  26  1   
 48  26  46  1   
 49  26  47  1   
 50  26  48  1   
@<TRIPOS>SUBSTRUCTURE
  1 ****  10 GROUP 4 **** **** 0

# MOE 2024.06 (io_trps.svl 2023.06)
