@<TRIPOS>MOLECULE
NONAME
57 59 1 0 0 
SMALL
USER_CHARGES


@<TRIPOS>ATOM
  1 S        0.6430    -0.3960    -0.5900 S.3   1 <1>  -0.0800 
  2 C       -0.8210    -1.3240    -0.8600 C.2   1 <1>  -0.1400 
  3 C        0.0300     0.9460    -1.5420 C.2   1 <1>  -0.1400 
  4 C       -1.6820    -0.6280    -1.6310 C.2   1 <1>  -0.1500 
  5 C       -0.8450    -2.6870    -0.2030 C.3   1 <1>   0.5230 
  6 C       -1.1960     0.6620    -2.0160 C.2   1 <1>  -0.1500 
  7 C        0.9180     2.1670    -1.6990 C.3   1 <1>   0.0200 
  8 N       -2.2540    -3.1190     0.0200 N.4   1 <1>  -0.9590 
  9 C        1.0470     2.9330    -0.3770 C.3   1 <1>  -0.1600 
 10 C       -2.3900    -4.5780     0.3450 C.3   1 <1>   0.3430 
 11 C       -2.9590    -2.2030     0.9690 C.3   1 <1>   0.3430 
 12 C        1.9110     4.1910    -0.5360 C.3   1 <1>  -0.1600 
 13 C       -3.8670    -5.0670     0.5230 C.3   1 <1>   0.4230 
 14 C       -4.3340    -2.7490     1.3930 C.3   1 <1>  -0.1600 
 15 C        2.0330     4.9450     0.7900 C.3   1 <1>  -0.2400 
 16 N       -4.3060    -6.2670    -0.3130 N.4   1 <1>  -0.9590 
 17 C       -4.9150    -3.9140     0.5430 C.3   1 <1>   0.0000 
 18 C       -5.7870    -6.5310    -0.2390 C.3   1 <1>   0.3430 
 19 C       -3.8860    -6.2430    -1.7550 C.3   1 <1>   0.2630 
 20 C       -6.1770    -4.4700     1.2630 C.3   1 <1>  -0.1600 
 21 C       -5.3830    -3.3810    -0.8500 C.3   1 <1>   0.1200 
 22 C       -6.3930    -5.9880     1.0600 C.3   1 <1>  -0.1600 
 23 O       -4.3370    -3.1480    -1.7370 O.3   1 <1>  -0.6800 
 24 H       -2.6530    -0.9440    -1.9670 H     1 <1>   0.1500 
 25 H       -0.3240    -2.6350     0.7400 H     1 <1>   0.0800 
 26 H       -0.3270    -3.3870    -0.8380 H     1 <1>   0.0800 
 27 H       -1.7880     1.3170    -2.6320 H     1 <1>   0.1500 
 28 H        1.8890     1.8580    -2.0430 H     1 <1>   0.0800 
 29 H        0.4920     2.8150    -2.4460 H     1 <1>   0.0800 
 30 H       -2.7470    -2.9730    -0.8850 H     1 <1>   0.4500 
 31 H        0.0650     3.2130    -0.0350 H     1 <1>   0.0800 
 32 H        1.4880     2.2910     0.3660 H     1 <1>   0.0800 
 33 H       -1.9150    -5.1600    -0.4260 H     1 <1>   0.0800 
 34 H       -1.8660    -4.7690     1.2670 H     1 <1>   0.0800 
 35 H       -2.3550    -2.0450     1.8490 H     1 <1>   0.0800 
 36 H       -3.0940    -1.2420     0.4950 H     1 <1>   0.0800 
 37 H        2.8950     3.9140    -0.8770 H     1 <1>   0.0800 
 38 H        1.4740     4.8420    -1.2740 H     1 <1>   0.0800 
 39 H       -3.8770    -5.4290     1.5380 H     1 <1>   0.0800 
 40 H       -4.2280    -3.0730     2.4140 H     1 <1>   0.0800 
 41 H       -5.0310    -1.9280     1.4190 H     1 <1>   0.0800 
 42 H        2.4890     4.3200     1.5380 H     1 <1>   0.0800 
 43 H        1.0630     5.2530     1.1400 H     1 <1>   0.0800 
 44 H        2.6430     5.8210     0.6600 H     1 <1>   0.0800 
 45 H       -3.8670    -7.1000     0.1100 H     1 <1>   0.4500 
 46 H       -6.2830    -6.0560    -1.0700 H     1 <1>   0.0800 
 47 H       -5.9760    -7.5910    -0.3130 H     1 <1>   0.0800 
 48 H       -4.3560    -5.4240    -2.2740 H     1 <1>   0.0800 
 49 H       -4.1790    -7.1600    -2.2430 H     1 <1>   0.0800 
 50 H       -2.8180    -6.1430    -1.8460 H     1 <1>   0.0800 
 51 H       -6.1210    -4.2990     2.3260 H     1 <1>   0.0800 
 52 H       -7.0540    -3.9380     0.9300 H     1 <1>   0.0800 
 53 H       -5.9210    -2.4550    -0.7270 H     1 <1>   0.0800 
 54 H       -6.0510    -4.0760    -1.3270 H     1 <1>   0.0800 
 55 H       -7.4500    -6.1950     1.0660 H     1 <1>   0.0800 
 56 H       -5.9720    -6.5320     1.8890 H     1 <1>   0.0800 
 57 H       -4.6920    -2.7380    -2.5630 H     1 <1>   0.4000 
@<TRIPOS>BOND
  1   1   2  1   
  2   1   3  1   
  3   2   4  2   
  4   2   5  1   
  5   3   6  2   
  6   3   7  1   
  7   4   6  1   
  8   4  24  1   
  9   5   8  1   
 10   5  25  1   
 11   5  26  1   
 12   6  27  1   
 13   7   9  1   
 14   7  28  1   
 15   7  29  1   
 16   8  10  1   
 17   8  11  1   
 18   8  30  1   
 19   9  12  1   
 20   9  31  1   
 21   9  32  1   
 22  10  13  1   
 23  10  33  1   
 24  10  34  1   
 25  11  14  1   
 26  11  35  1   
 27  11  36  1   
 28  12  15  1   
 29  12  37  1   
 30  12  38  1   
 31  13  16  1   
 32  13  17  1   
 33  13  39  1   
 34  14  17  1   
 35  14  40  1   
 36  14  41  1   
 37  15  42  1   
 38  15  43  1   
 39  15  44  1   
 40  16  18  1   
 41  16  19  1   
 42  16  45  1   
 43  17  20  1   
 44  17  21  1   
 45  18  22  1   
 46  18  46  1   
 47  18  47  1   
 48  19  48  1   
 49  19  49  1   
 50  19  50  1   
 51  20  22  1   
 52  20  51  1   
 53  20  52  1   
 54  21  23  1   
 55  21  53  1   
 56  21  54  1   
 57  22  55  1   
 58  22  56  1   
 59  23  57  1   
@<TRIPOS>SUBSTRUCTURE
  1 ****   8 GROUP 4 **** **** 0

# MOE 2024.06 (io_trps.svl 2023.06)
