@<TRIPOS>MOLECULE
NONAME
45 46 1 0 0 
SMALL
USER_CHARGES


@<TRIPOS>ATOM
  1 S        0.4960    -0.2580    -1.1140 S.o2  1 <1>   1.3330 
  2 O        1.8310    -0.7870    -1.2860 O.2   1 <1>  -0.6500 
  3 O       -0.3900    -0.1730    -2.2530 O.2   1 <1>  -0.6500 
  4 N       -0.2920    -1.2060     0.0550 N.am  1 <1>  -0.8490 
  5 C        0.5910     1.3570    -0.3280 C.3   1 <1>  -0.0550 
  6 C       -1.7540    -1.0810     0.0200 C.3   1 <1>   0.1160 
  7 C        0.0820    -2.6220    -0.0340 C.3   1 <1>   0.1160 
  8 C        1.7210     1.5830     0.7010 C.3   1 <1>  -0.0800 
  9 C        3.1180     1.5880     0.0740 C.3   1 <1>   0.2200 
 10 C        1.8390     0.5750     1.8490 C.3   1 <1>   0.1200 
 11 N        3.7120     2.9350     0.2400 N.am  1 <1>  -0.7300 
 12 C        3.8760     0.5530     0.9030 C.3   1 <1>   0.1200 
 13 O        3.2000     0.5020     2.1170 O.3   1 <1>  -0.5600 
 14 C        3.4610     3.9850    -0.5960 C.2   1 <1>   0.5440 
 15 O        2.7470     3.7920    -1.5590 O.2   1 <1>  -0.5700 
 16 C        4.0070     5.2970    -0.3510 C.ar  1 <1>   0.0860 
 17 C        4.4560     5.7150     0.8880 C.ar  1 <1>   0.1600 
 18 C        4.1070     6.2400    -1.3560 C.ar  1 <1>   0.1600 
 19 N        4.9580     6.9100     1.1110 N.ar  1 <1>  -0.6200 
 20 N        4.6030     7.4450    -1.1710 N.ar  1 <1>  -0.6200 
 21 C        5.0060     7.7160     0.0610 C.ar  1 <1>   0.4770 
 22 C        5.5890     9.1000     0.2940 C.3   1 <1>  -0.0170 
 23 C        7.1100     9.1310     0.0840 C.3   1 <1>  -0.2400 
 24 H        0.7150     2.0930    -1.1000 H     1 <1>   0.0800 
 25 H       -0.3480     1.5650     0.1440 H     1 <1>   0.0800 
 26 H       -2.1920    -1.6250     0.8400 H     1 <1>   0.0800 
 27 H       -2.1440    -1.4710    -0.9060 H     1 <1>   0.0800 
 28 H       -2.0430    -0.0480     0.1060 H     1 <1>   0.0800 
 29 H       -0.4280    -3.1920     0.7230 H     1 <1>   0.0800 
 30 H        1.1420    -2.7340     0.1200 H     1 <1>   0.0800 
 31 H       -0.1690    -3.0140    -1.0060 H     1 <1>   0.0800 
 32 H        1.5350     2.5400     1.1540 H     1 <1>   0.0800 
 33 H        3.1240     1.3180    -0.9680 H     1 <1>   0.0800 
 34 H        1.5170    -0.4140     1.5780 H     1 <1>   0.0800 
 35 H        1.3210     0.8960     2.7370 H     1 <1>   0.0800 
 36 H        4.2620     3.0410     1.0940 H     1 <1>   0.3700 
 37 H        4.9060     0.8120     1.0670 H     1 <1>   0.0800 
 38 H        3.8090    -0.4200     0.4460 H     1 <1>   0.0800 
 39 H        4.3970     5.0470     1.7290 H     1 <1>   0.1500 
 40 H        3.7650     5.9850    -2.3460 H     1 <1>   0.1500 
 41 H        5.1200     9.7950    -0.3790 H     1 <1>   0.0800 
 42 H        5.3590     9.4110     1.2970 H     1 <1>   0.0800 
 43 H        7.3490     8.8380    -0.9230 H     1 <1>   0.0800 
 44 H        7.5900     8.4510     0.7660 H     1 <1>   0.0800 
 45 H        7.4890    10.1220     0.2570 H     1 <1>   0.0800 
@<TRIPOS>BOND
  1   1   2  2   
  2   1   3  2   
  3   1   4  am  
  4   1   5  1   
  5   4   6  1   
  6   4   7  1   
  7   5   8  1   
  8   5  24  1   
  9   5  25  1   
 10   6  26  1   
 11   6  27  1   
 12   6  28  1   
 13   7  29  1   
 14   7  30  1   
 15   7  31  1   
 16   8   9  1   
 17   8  10  1   
 18   8  32  1   
 19   9  11  1   
 20   9  12  1   
 21   9  33  1   
 22  10  13  1   
 23  10  34  1   
 24  10  35  1   
 25  11  14  am  
 26  11  36  1   
 27  12  13  1   
 28  12  37  1   
 29  12  38  1   
 30  14  15  2   
 31  14  16  1   
 32  16  17  ar  
 33  16  18  ar  
 34  17  19  ar  
 35  17  39  1   
 36  18  20  ar  
 37  18  40  1   
 38  19  21  ar  
 39  20  21  ar  
 40  21  22  1   
 41  22  23  1   
 42  22  41  1   
 43  22  42  1   
 44  23  43  1   
 45  23  44  1   
 46  23  45  1   
@<TRIPOS>SUBSTRUCTURE
  1 ****  11 GROUP 4 **** **** 0

# MOE 2024.06 (io_trps.svl 2023.06)
