@<TRIPOS>MOLECULE
NONAME
50 52 1 0 0 
SMALL
USER_CHARGES


@<TRIPOS>ATOM
  1 S       -0.6300     0.7400     0.8430 S.o2  1 <1>   1.4470 
  2 O       -1.1280     2.0050     1.3420 O.2   1 <1>  -0.6500 
  3 O       -0.5700    -0.3820     1.7590 O.2   1 <1>  -0.6500 
  4 N       -1.6320     0.2780    -0.4490 N.am  1 <1>  -0.8490 
  5 C        0.9980     0.9750     0.0560 C.ar  1 <1>  -0.0090 
  6 C       -3.0570     0.3390    -0.1300 C.3   1 <1>   0.1960 
  7 C       -1.3970    -1.0890    -0.9110 C.3   1 <1>   0.1960 
  8 C        1.2520     1.9510    -0.9130 C.ar  1 <1>  -0.1440 
  9 C        2.0490     0.1370     0.4200 C.ar  1 <1>  -0.1500 
 10 C       -3.4060    -1.0210     0.4760 C.3   1 <1>  -0.0800 
 11 C       -2.4760    -1.9850    -0.2820 C.3   1 <1>  -0.0800 
 12 C        2.5130     2.0600    -1.4810 C.ar  1 <1>  -0.1500 
 13 C        0.1720     2.9230    -1.3760 C.3   1 <1>  -0.0970 
 14 C        3.3080     0.2440    -0.1430 C.ar  1 <1>  -0.1430 
 15 C       -4.9100    -1.4130     0.5010 C.3   1 <1>   0.2800 
 16 C       -3.2190    -2.8070    -1.3490 C.3   1 <1>  -0.1600 
 17 C        3.5350     1.2120    -1.1010 C.ar  1 <1>  -0.1500 
 18 C        4.4240    -0.6930     0.2850 C.3   1 <1>  -0.0970 
 19 O       -5.5460    -0.9230    -0.6250 O.3   1 <1>  -0.6800 
 20 C       -5.0400    -2.9480     0.4680 C.3   1 <1>  -0.1600 
 21 C       -5.6690    -0.8620     1.7300 C.3   1 <1>  -0.1600 
 22 C       -4.3820    -3.6190    -0.7550 C.3   1 <1>  -0.1600 
 23 C       -5.6910     0.6680     1.8900 C.3   1 <1>  -0.2400 
 24 H       -3.2860     1.1590     0.5260 H     1 <1>   0.0800 
 25 H       -3.5970     0.4830    -1.0500 H     1 <1>   0.0800 
 26 H       -1.4890    -1.1010    -1.9840 H     1 <1>   0.0800 
 27 H       -0.4080    -1.4330    -0.6570 H     1 <1>   0.0800 
 28 H        1.8760    -0.6210     1.1660 H     1 <1>   0.1500 
 29 H       -3.0700    -1.0110     1.4980 H     1 <1>   0.0800 
 30 H       -2.0130    -2.6600     0.4170 H     1 <1>   0.0800 
 31 H        2.7110     2.8100    -2.2260 H     1 <1>   0.1500 
 32 H        0.5480     3.5890    -2.1310 H     1 <1>   0.0800 
 33 H       -0.1720     3.5190    -0.5500 H     1 <1>   0.0800 
 34 H       -0.6620     2.3880    -1.7930 H     1 <1>   0.0800 
 35 H       -3.6190    -2.1300    -2.0860 H     1 <1>   0.0800 
 36 H       -2.5370    -3.4690    -1.8540 H     1 <1>   0.0800 
 37 H        4.5060     1.3130    -1.5540 H     1 <1>   0.1500 
 38 H        5.3810    -0.2200     0.1610 H     1 <1>   0.0800 
 39 H        4.3980    -1.5870    -0.3120 H     1 <1>   0.0800 
 40 H        4.3110    -0.9620     1.3200 H     1 <1>   0.0800 
 41 H       -6.4730    -1.2210    -0.6240 H     1 <1>   0.4000 
 42 H       -4.5600    -3.3310     1.3510 H     1 <1>   0.0800 
 43 H       -6.0730    -3.2410     0.5260 H     1 <1>   0.0800 
 44 H       -6.6850    -1.2120     1.6920 H     1 <1>   0.0800 
 45 H       -5.2330    -1.2820     2.6190 H     1 <1>   0.0800 
 46 H       -4.0280    -4.5930    -0.4640 H     1 <1>   0.0800 
 47 H       -5.1210    -3.7610    -1.5250 H     1 <1>   0.0800 
 48 H       -6.0080     1.1460     0.9800 H     1 <1>   0.0800 
 49 H       -4.7200     1.0370     2.1640 H     1 <1>   0.0800 
 50 H       -6.3770     0.9410     2.6720 H     1 <1>   0.0800 
@<TRIPOS>BOND
  1   1   2  2   
  2   1   3  2   
  3   1   4  am  
  4   1   5  1   
  5   4   6  1   
  6   4   7  1   
  7   5   8  ar  
  8   5   9  ar  
  9   6  10  1   
 10   6  24  1   
 11   6  25  1   
 12   7  11  1   
 13   7  26  1   
 14   7  27  1   
 15   8  12  ar  
 16   8  13  1   
 17   9  14  ar  
 18   9  28  1   
 19  10  11  1   
 20  10  15  1   
 21  10  29  1   
 22  11  16  1   
 23  11  30  1   
 24  12  17  ar  
 25  12  31  1   
 26  13  32  1   
 27  13  33  1   
 28  13  34  1   
 29  14  17  ar  
 30  14  18  1   
 31  15  19  1   
 32  15  20  1   
 33  15  21  1   
 34  16  22  1   
 35  16  35  1   
 36  16  36  1   
 37  17  37  1   
 38  18  38  1   
 39  18  39  1   
 40  18  40  1   
 41  19  41  1   
 42  20  22  1   
 43  20  42  1   
 44  20  43  1   
 45  21  23  1   
 46  21  44  1   
 47  21  45  1   
 48  22  46  1   
 49  22  47  1   
 50  23  48  1   
 51  23  49  1   
 52  23  50  1   
@<TRIPOS>SUBSTRUCTURE
  1 ****   4 GROUP 4 **** **** 0

# MOE 2024.06 (io_trps.svl 2023.06)
