@<TRIPOS>MOLECULE
NONAME
47 49 1 0 0 
SMALL
USER_CHARGES


@<TRIPOS>ATOM
  1 S       -0.1340     0.0130    -2.0840 S.o2  1 <1>   1.5760 
  2 O        1.1060    -0.3930    -2.7070 O.2   1 <1>  -0.6500 
  3 O       -1.0750     0.8560    -2.7920 O.2   1 <1>  -0.6500 
  4 N       -0.9590    -1.3720    -1.5790 N.am  1 <1>  -0.8490 
  5 N        0.2040     0.7070    -0.5730 N.am  1 <1>  -0.8490 
  6 C       -2.2110    -1.0870    -0.8610 C.3   1 <1>   0.1960 
  7 C       -0.0960    -2.3460    -0.9090 C.3   1 <1>   0.1960 
  8 C        1.6400     0.7150    -0.2710 C.3   1 <1>   0.1960 
  9 C       -0.3810     2.0440    -0.4230 C.3   1 <1>   0.1960 
 10 C       -3.3650    -1.9710    -1.3650 C.3   1 <1>   0.2090 
 11 C       -0.8090    -3.6360    -0.4800 C.3   1 <1>  -0.1600 
 12 C        1.8830     1.1750     1.1700 C.3   1 <1>  -0.1600 
 13 C       -0.2020     2.5520     1.0110 C.3   1 <1>  -0.1600 
 14 N       -3.2150    -3.4160    -1.0100 N.pl3 1 <1>  -0.8380 
 15 C       -1.9440    -4.0830    -1.4040 C.3   1 <1>   0.2090 
 16 C        1.2730     2.5580     1.4260 C.3   1 <1>  -0.1600 
 17 C       -4.1570    -4.0820    -0.2470 C.ar  1 <1>   0.4100 
 18 N       -3.6950    -4.8620     0.7190 N.ar  1 <1>  -0.6200 
 19 C       -5.5160    -3.9220    -0.5090 C.ar  1 <1>  -0.1500 
 20 C       -4.5940    -5.5000     1.4670 C.ar  1 <1>   0.3830 
 21 C       -6.4500    -4.5740     0.2570 C.ar  1 <1>  -0.1500 
 22 C       -4.1270    -6.3550     2.5280 C.1   1 <1>   0.4840 
 23 C       -5.9640    -5.3780     1.2660 C.ar  1 <1>  -0.1500 
 24 N       -3.8080    -7.0450     3.3820 N.1   1 <1>  -0.5570 
 25 H       -2.5060    -0.0670    -1.0300 H     1 <1>   0.0800 
 26 H       -2.0810    -1.2090     0.2000 H     1 <1>   0.0800 
 27 H        0.3570    -1.8980    -0.0410 H     1 <1>   0.0800 
 28 H        0.6950    -2.6140    -1.5900 H     1 <1>   0.0800 
 29 H        2.1530     1.3680    -0.9590 H     1 <1>   0.0800 
 30 H        2.0440    -0.2770    -0.3880 H     1 <1>   0.0800 
 31 H       -1.4350     2.0090    -0.6420 H     1 <1>   0.0800 
 32 H        0.0830     2.7250    -1.1190 H     1 <1>   0.0800 
 33 H       -3.4390    -1.8730    -2.4340 H     1 <1>   0.0800 
 34 H       -4.2760    -1.5940    -0.9360 H     1 <1>   0.0800 
 35 H       -1.1870    -3.5310     0.5210 H     1 <1>   0.0800 
 36 H       -0.0720    -4.4160    -0.4480 H     1 <1>   0.0800 
 37 H        2.9410     1.2060     1.3600 H     1 <1>   0.0800 
 38 H        1.4490     0.4560     1.8420 H     1 <1>   0.0800 
 39 H       -0.7640     1.9180     1.6750 H     1 <1>   0.0800 
 40 H       -0.6030     3.5470     1.0890 H     1 <1>   0.0800 
 41 H       -2.0690    -5.1490    -1.3190 H     1 <1>   0.0800 
 42 H       -1.7110    -3.8580    -2.4310 H     1 <1>   0.0800 
 43 H        1.8050     3.2960     0.8500 H     1 <1>   0.0800 
 44 H        1.3640     2.8150     2.4670 H     1 <1>   0.0800 
 45 H       -5.8230    -3.2920    -1.3210 H     1 <1>   0.1500 
 46 H       -7.5070    -4.4670     0.0770 H     1 <1>   0.1500 
 47 H       -6.6490    -5.9140     1.8990 H     1 <1>   0.1500 
@<TRIPOS>BOND
  1   1   2  2   
  2   1   3  2   
  3   1   4  am  
  4   1   5  am  
  5   4   6  1   
  6   4   7  1   
  7   5   8  1   
  8   5   9  1   
  9   6  10  1   
 10   6  25  1   
 11   6  26  1   
 12   7  11  1   
 13   7  27  1   
 14   7  28  1   
 15   8  12  1   
 16   8  29  1   
 17   8  30  1   
 18   9  13  1   
 19   9  31  1   
 20   9  32  1   
 21  10  14  1   
 22  10  33  1   
 23  10  34  1   
 24  11  15  1   
 25  11  35  1   
 26  11  36  1   
 27  12  16  1   
 28  12  37  1   
 29  12  38  1   
 30  13  16  1   
 31  13  39  1   
 32  13  40  1   
 33  14  15  1   
 34  14  17  1   
 35  15  41  1   
 36  15  42  1   
 37  16  43  1   
 38  16  44  1   
 39  17  18  ar  
 40  17  19  ar  
 41  18  20  ar  
 42  19  21  ar  
 43  19  45  1   
 44  20  22  1   
 45  20  23  ar  
 46  21  23  ar  
 47  21  46  1   
 48  22  24  3   
 49  23  47  1   
@<TRIPOS>SUBSTRUCTURE
  1 ****   6 GROUP 4 **** **** 0

# MOE 2024.06 (io_trps.svl 2023.06)
