@<TRIPOS>MOLECULE
NONAME
49 51 1 0 0 
SMALL
USER_CHARGES


@<TRIPOS>ATOM
  1 O        0.0180     0.7150     0.7850 O.2   1 <1>  -0.5700 
  2 C       -0.6380     1.3600    -0.0140 C.2   1 <1>   0.6900 
  3 N       -1.9960     1.1880    -0.1090 N.am  1 <1>  -0.6600 
  4 N       -0.0330     2.2710    -0.8130 N.am  1 <1>  -0.7300 
  5 C       -2.9200     2.2630    -0.5860 C.3   1 <1>   0.1400 
  6 C       -2.6880     0.1400     0.6870 C.3   1 <1>   0.1400 
  7 C        1.3240     2.8310    -0.6410 C.3   1 <1>   0.1400 
  8 C       -3.5550     2.9880     0.6170 C.3   1 <1>   0.1430 
  9 C       -3.3470     0.7810     1.9150 C.3   1 <1>  -0.1600 
 10 C        1.2400     4.3380    -0.8300 C.3   1 <1>  -0.2660 
 11 C       -4.5510     4.0300     0.1440 C.ar  1 <1>   0.1670 
 12 C       -4.2610     1.9640     1.5370 C.3   1 <1>  -0.1600 
 13 C       -2.5150     3.8460     1.3910 C.3   1 <1>  -0.1600 
 14 C        2.6110     4.9400    -0.7180 C.2   1 <1>   0.9060 
 15 N       -5.5110     3.8220    -0.7240 N.ar  1 <1>  -0.6200 
 16 C       -4.3370     5.2370     0.7370 C.ar  1 <1>  -0.1440 
 17 C       -3.1780     5.1980     1.7000 C.3   1 <1>  -0.0160 
 18 O        2.8650     5.6500     0.2580 O.co2 1 <1>  -0.9000 
 19 O        3.4250     4.7060    -1.6140 O.co2 1 <1>  -0.9000 
 20 C       -6.2760     4.8830    -0.9950 C.ar  1 <1>   0.7200 
 21 C       -5.1680     6.2720     0.3930 C.ar  1 <1>   0.1600 
 22 N       -6.1390     6.1070    -0.4740 N.ar  1 <1>  -0.6200 
 23 N       -7.3030     4.6980    -1.9000 N.pl3 1 <1>  -0.8380 
 24 C       -7.7780     3.3420    -2.2940 C.3   1 <1>   0.1290 
 25 C       -8.0450     5.8420    -2.4980 C.3   1 <1>   0.1290 
 26 H       -0.5600     2.6450    -1.5950 H     1 <1>   0.3700 
 27 H       -3.6960     1.8130    -1.1810 H     1 <1>   0.0800 
 28 H       -2.4080     2.9750    -1.2070 H     1 <1>   0.0800 
 29 H       -1.9900    -0.6190     0.9970 H     1 <1>   0.0800 
 30 H       -3.4350    -0.3290     0.0700 H     1 <1>   0.0800 
 31 H        1.9890     2.4040    -1.3730 H     1 <1>   0.0800 
 32 H        1.7020     2.6010     0.3420 H     1 <1>   0.0800 
 33 H       -2.5690     1.1090     2.5820 H     1 <1>   0.0800 
 34 H       -3.9210     0.0350     2.4350 H     1 <1>   0.0800 
 35 H        0.6160     4.7770    -0.0760 H     1 <1>   0.0800 
 36 H        0.8610     4.5770    -1.8040 H     1 <1>   0.0800 
 37 H       -5.1210     1.5770     1.0180 H     1 <1>   0.0800 
 38 H       -4.6160     2.4540     2.4270 H     1 <1>   0.0800 
 39 H       -1.6630     4.0330     0.7610 H     1 <1>   0.0800 
 40 H       -2.1590     3.3660     2.2840 H     1 <1>   0.0800 
 41 H       -2.4960     6.0150     1.5400 H     1 <1>   0.0800 
 42 H       -3.5450     5.2180     2.7120 H     1 <1>   0.0800 
 43 H       -5.0360     7.2460     0.8330 H     1 <1>   0.1500 
 44 H       -7.5940     2.6330    -1.5050 H     1 <1>   0.0800 
 45 H       -7.2570     3.0230    -3.1800 H     1 <1>   0.0800 
 46 H       -8.8350     3.3620    -2.4890 H     1 <1>   0.0800 
 47 H       -7.4050     6.7040    -2.5800 H     1 <1>   0.0800 
 48 H       -8.8860     6.0900    -1.8750 H     1 <1>   0.0800 
 49 H       -8.3920     5.5850    -3.4830 H     1 <1>   0.0800 
@<TRIPOS>BOND
  1   1   2  2   
  2   2   3  am  
  3   2   4  am  
  4   3   5  1   
  5   3   6  1   
  6   4   7  1   
  7   4  26  1   
  8   5   8  1   
  9   5  27  1   
 10   5  28  1   
 11   6   9  1   
 12   6  29  1   
 13   6  30  1   
 14   7  10  1   
 15   7  31  1   
 16   7  32  1   
 17   8  11  1   
 18   8  12  1   
 19   8  13  1   
 20   9  12  1   
 21   9  33  1   
 22   9  34  1   
 23  10  14  1   
 24  10  35  1   
 25  10  36  1   
 26  11  15  ar  
 27  11  16  ar  
 28  12  37  1   
 29  12  38  1   
 30  13  17  1   
 31  13  39  1   
 32  13  40  1   
 33  14  18  ar  
 34  14  19  ar  
 35  15  20  ar  
 36  16  17  1   
 37  16  21  ar  
 38  17  41  1   
 39  17  42  1   
 40  20  22  ar  
 41  20  23  1   
 42  21  22  ar  
 43  21  43  1   
 44  23  24  1   
 45  23  25  1   
 46  24  44  1   
 47  24  45  1   
 48  24  46  1   
 49  25  47  1   
 50  25  48  1   
 51  25  49  1   
@<TRIPOS>SUBSTRUCTURE
  1 ****   8 GROUP 4 **** **** 0

# MOE 2024.06 (io_trps.svl 2023.06)
