@<TRIPOS>MOLECULE
NONAME
39 41 1 0 0 
SMALL
USER_CHARGES


@<TRIPOS>ATOM
  1 S        1.8670    -0.6670     1.5740 S.3   1 <1>  -0.0800 
  2 C        0.2840    -1.1400     0.9430 C.2   1 <1>   0.2930 
  3 C        1.8300     0.7580     0.5970 C.2   1 <1>  -0.1400 
  4 N       -0.1740    -0.2800     0.0850 N.2   1 <1>  -0.5650 
  5 C       -0.2790    -2.3940     1.4370 C.2   1 <1>   0.7150 
  6 C        0.6960     0.7690    -0.1060 C.2   1 <1>   0.0460 
  7 C        2.9470     1.7770     0.5930 C.3   1 <1>   0.0200 
  8 O        0.4580    -3.2180     1.9630 O.2   1 <1>  -0.5700 
  9 N       -1.6170    -2.7420     1.3260 N.am  1 <1>  -0.6600 
 10 C        0.3640     1.8860    -1.0760 C.3   1 <1>   0.0210 
 11 C        2.4480     3.0510    -0.1180 C.3   1 <1>  -0.1600 
 12 C       -2.0670    -4.1320     1.6270 C.3   1 <1>   0.3200 
 13 C       -2.6930    -1.8060     0.8670 C.3   1 <1>   0.1400 
 14 C        1.6180     2.7340    -1.3830 C.3   1 <1>  -0.1600 
 15 C       -1.6510    -5.0700     0.5040 C.2   1 <1>   0.0060 
 16 C       -2.9960    -1.9500    -0.6320 C.3   1 <1>   0.1200 
 17 N       -2.4620    -5.6050    -0.3520 N.2   1 <1>  -0.5650 
 18 N       -0.3600    -5.4130     0.3090 N.pl3 1 <1>   0.0330 
 19 O       -3.7470    -3.0920    -0.8730 O.3   1 <1>  -0.6800 
 20 C       -1.6570    -6.3370    -1.1460 C.2   1 <1>   0.0770 
 21 C       -0.3680    -6.2310    -0.7570 C.2   1 <1>  -0.3020 
 22 H        3.7920     1.3650     0.0700 H     1 <1>   0.0800 
 23 H        3.2440     2.0090     1.6010 H     1 <1>   0.0800 
 24 H       -0.4010     2.5020    -0.6370 H     1 <1>   0.0800 
 25 H       -0.0220     1.4670    -1.9880 H     1 <1>   0.0800 
 26 H        3.2910     3.6680    -0.3760 H     1 <1>   0.0800 
 27 H        1.8310     3.6090     0.5660 H     1 <1>   0.0800 
 28 H       -3.1380    -4.1600     1.7310 H     1 <1>   0.0800 
 29 H       -1.6370    -4.4640     2.5560 H     1 <1>   0.0800 
 30 H       -2.3980    -0.7920     1.0670 H     1 <1>   0.0800 
 31 H       -3.5960    -1.9760     1.4270 H     1 <1>   0.0800 
 32 H        1.3190     3.6500    -1.8620 H     1 <1>   0.0800 
 33 H        2.2400     2.1910    -2.0740 H     1 <1>   0.0800 
 34 H       -2.0900    -1.9960    -1.2120 H     1 <1>   0.0800 
 35 H       -3.5800    -1.1110    -0.9650 H     1 <1>   0.0800 
 36 H        0.4360    -5.0660     0.8620 H     1 <1>   0.2700 
 37 H       -3.2110    -3.9180    -0.7330 H     1 <1>   0.4000 
 38 H       -2.0540    -6.9090    -1.9690 H     1 <1>   0.1500 
 39 H        0.5190    -6.6770    -1.1700 H     1 <1>   0.1500 
@<TRIPOS>BOND
  1   1   2  1   
  2   1   3  1   
  3   2   4  2   
  4   2   5  1   
  5   3   6  2   
  6   3   7  1   
  7   4   6  1   
  8   5   8  2   
  9   5   9  am  
 10   6  10  1   
 11   7  11  1   
 12   7  22  1   
 13   7  23  1   
 14   9  12  1   
 15   9  13  1   
 16  10  14  1   
 17  10  24  1   
 18  10  25  1   
 19  11  14  1   
 20  11  26  1   
 21  11  27  1   
 22  12  15  1   
 23  12  28  1   
 24  12  29  1   
 25  13  16  1   
 26  13  30  1   
 27  13  31  1   
 28  14  32  1   
 29  14  33  1   
 30  15  17  2   
 31  15  18  1   
 32  16  19  1   
 33  16  34  1   
 34  16  35  1   
 35  17  20  1   
 36  18  21  1   
 37  18  36  1   
 38  19  37  1   
 39  20  21  2   
 40  20  38  1   
 41  21  39  1   
@<TRIPOS>SUBSTRUCTURE
  1 ****   2 GROUP 4 **** **** 0

# MOE 2024.06 (io_trps.svl 2023.06)
