@<TRIPOS>MOLECULE
NONAME
47 48 1 0 0 
SMALL
USER_CHARGES


@<TRIPOS>ATOM
  1 S        1.0670     0.8490     0.2710 S.o2  1 <1>   1.3330 
  2 O       -0.0830     1.5720     0.7660 O.2   1 <1>  -0.6500 
  3 O        0.8710    -0.3810    -0.4640 O.2   1 <1>  -0.6500 
  4 N        2.0510     0.5000     1.6110 N.am  1 <1>  -0.8490 
  5 C        2.0680     1.9460    -0.7340 C.3   1 <1>  -0.0550 
  6 C        2.1400     1.6120     2.5660 C.3   1 <1>   0.1160 
  7 C        1.6140    -0.7150     2.3030 C.3   1 <1>   0.1160 
  8 C        3.2410     1.2560    -1.4660 C.3   1 <1>  -0.0800 
  9 C        4.0830     2.1770    -2.3370 C.3   1 <1>   0.2200 
 10 C        4.2930     0.6250    -0.5490 C.3   1 <1>   0.1200 
 11 N        4.3710     3.4280    -1.6060 N.am  1 <1>  -0.7300 
 12 C        5.3660     1.3620    -2.4480 C.3   1 <1>   0.1200 
 13 O        5.5200     0.7280    -1.2120 O.3   1 <1>  -0.5600 
 14 C        3.7350     4.6180    -1.7600 C.2   1 <1>   0.5690 
 15 O        3.0120     4.8230    -2.7040 O.2   1 <1>  -0.5700 
 16 C        3.8800     5.7100    -0.7150 C.3   1 <1>   0.1570 
 17 N        4.7710     5.2820     0.3800 N.pl3 1 <1>   0.3140 
 18 N        4.4070     4.3040     1.2400 N.2   1 <1>  -0.7070 
 19 C        6.0400     5.6900     0.6170 C.2   1 <1>  -0.3320 
 20 C        5.4420     4.1220     1.9970 C.2   1 <1>   0.1080 
 21 C        6.4940     4.9610     1.6580 C.2   1 <1>  -0.1500 
 22 C        6.7860     6.7560    -0.1670 C.3   1 <1>  -0.0600 
 23 C        5.4730     3.0980     3.1070 C.3   1 <1>  -0.0590 
 24 H        1.4370     2.3950    -1.4760 H     1 <1>   0.0800 
 25 H        2.4360     2.7370    -0.1120 H     1 <1>   0.0800 
 26 H        2.8150     1.3580     3.3650 H     1 <1>   0.0800 
 27 H        1.1710     1.8310     2.9840 H     1 <1>   0.0800 
 28 H        2.5140     2.4970     2.0810 H     1 <1>   0.0800 
 29 H        2.2650    -0.9250     3.1340 H     1 <1>   0.0800 
 30 H        1.6470    -1.5550     1.6290 H     1 <1>   0.0800 
 31 H        0.6050    -0.5980     2.6620 H     1 <1>   0.0800 
 32 H        2.8420     0.4740    -2.0890 H     1 <1>   0.0800 
 33 H        3.6370     2.3850    -3.2960 H     1 <1>   0.0800 
 34 H        4.0850    -0.4120    -0.3450 H     1 <1>   0.0800 
 35 H        4.3840     1.1670     0.3770 H     1 <1>   0.0800 
 36 H        4.8920     3.2760    -0.7280 H     1 <1>   0.3700 
 37 H        6.2280     1.9710    -2.6540 H     1 <1>   0.0800 
 38 H        5.2660     0.5980    -3.1980 H     1 <1>   0.0800 
 39 H        2.9150     5.9270    -0.3010 H     1 <1>   0.0800 
 40 H        4.2690     6.5950    -1.1760 H     1 <1>   0.0800 
 41 H        7.4560     4.9960     2.1380 H     1 <1>   0.1500 
 42 H        7.7810     6.8730     0.2240 H     1 <1>   0.0800 
 43 H        6.2790     7.7010    -0.0910 H     1 <1>   0.0800 
 44 H        6.8590     6.4760    -1.2030 H     1 <1>   0.0800 
 45 H        6.4210     3.1220     3.6120 H     1 <1>   0.0800 
 46 H        5.3200     2.1180     2.6950 H     1 <1>   0.0800 
 47 H        4.6930     3.3110     3.8140 H     1 <1>   0.0800 
@<TRIPOS>BOND
  1   1   2  2   
  2   1   3  2   
  3   1   4  am  
  4   1   5  1   
  5   4   6  1   
  6   4   7  1   
  7   5   8  1   
  8   5  24  1   
  9   5  25  1   
 10   6  26  1   
 11   6  27  1   
 12   6  28  1   
 13   7  29  1   
 14   7  30  1   
 15   7  31  1   
 16   8   9  1   
 17   8  10  1   
 18   8  32  1   
 19   9  11  1   
 20   9  12  1   
 21   9  33  1   
 22  10  13  1   
 23  10  34  1   
 24  10  35  1   
 25  11  14  am  
 26  11  36  1   
 27  12  13  1   
 28  12  37  1   
 29  12  38  1   
 30  14  15  2   
 31  14  16  1   
 32  16  17  1   
 33  16  39  1   
 34  16  40  1   
 35  17  18  1   
 36  17  19  1   
 37  18  20  2   
 38  19  21  2   
 39  19  22  1   
 40  20  21  1   
 41  20  23  1   
 42  21  41  1   
 43  22  42  1   
 44  22  43  1   
 45  22  44  1   
 46  23  45  1   
 47  23  46  1   
 48  23  47  1   
@<TRIPOS>SUBSTRUCTURE
  1 ****  11 GROUP 4 **** **** 0

# MOE 2024.06 (io_trps.svl 2023.06)
