@<TRIPOS>MOLECULE
NONAME
61 64 1 0 0 
SMALL
USER_CHARGES


@<TRIPOS>ATOM
  1 O        1.1030     0.7610     0.0530 O.3   1 <1>  -0.6800 
  2 C        1.7880    -0.3590     0.4850 C.3   1 <1>   0.2800 
  3 C        3.3200    -0.1870     0.2510 C.3   1 <1>  -0.0800 
  4 C        1.2510    -1.5410    -0.3430 C.3   1 <1>  -0.1600 
  5 C        1.4340    -0.5540     1.9760 C.3   1 <1>  -0.1600 
  6 C        3.8610    -0.8400    -1.0310 C.3   1 <1>  -0.0800 
  7 C        3.8390     1.2550     0.1810 C.3   1 <1>   0.2090 
  8 C        1.5210    -1.4050    -1.8580 C.3   1 <1>  -0.1600 
  9 C        1.8340     0.6030     2.9090 C.3   1 <1>  -0.2400 
 10 C        2.8510    -0.7000    -2.1820 C.3   1 <1>  -0.1600 
 11 C        5.1830    -0.1190    -1.3020 C.3   1 <1>   0.2090 
 12 N        5.0890     1.1960    -0.6170 N.pl3 1 <1>  -0.8380 
 13 C        6.2150     1.8830    -0.1920 C.ar  1 <1>   0.4100 
 14 N        7.3770     1.2380    -0.2040 N.ar  1 <1>  -0.6200 
 15 C        6.0990     3.2090     0.2230 C.ar  1 <1>  -0.1500 
 16 C        8.4280     1.9170     0.2160 C.ar  1 <1>   0.1600 
 17 C        7.2040     3.9060     0.6520 C.ar  1 <1>  -0.1500 
 18 C        8.4100     3.2340     0.6460 C.ar  1 <1>  -0.1440 
 19 C        9.6880     3.9270     1.0850 C.3   1 <1>   0.2530 
 20 N       10.0150     5.0410     0.1720 N.3   1 <1>  -0.8100 
 21 C       11.2040     5.7950     0.6330 C.3   1 <1>   0.1100 
 22 C       10.1940     4.5880    -1.2340 C.3   1 <1>   0.1100 
 23 C       11.5330     6.9970    -0.2880 C.3   1 <1>   0.3430 
 24 C       10.5880     5.7410    -2.1890 C.3   1 <1>   0.3430 
 25 N       10.6070     7.0560    -1.4680 N.4   1 <1>  -0.9590 
 26 C       10.8550     8.2220    -2.3640 C.3   1 <1>   0.2630 
 27 H        0.1460     0.6000     0.1250 H     1 <1>   0.4000 
 28 H        3.8390    -0.6630     1.0630 H     1 <1>   0.0800 
 29 H        1.7380    -2.4350     0.0050 H     1 <1>   0.0800 
 30 H        0.1980    -1.6760    -0.1740 H     1 <1>   0.0800 
 31 H        0.3740    -0.7150     2.0650 H     1 <1>   0.0800 
 32 H        1.9140    -1.4510     2.3280 H     1 <1>   0.0800 
 33 H        4.0570    -1.8860    -0.8730 H     1 <1>   0.0800 
 34 H        4.0210     1.6490     1.1650 H     1 <1>   0.0800 
 35 H        3.1520     1.9010    -0.3370 H     1 <1>   0.0800 
 36 H        1.5190    -2.3880    -2.2970 H     1 <1>   0.0800 
 37 H        0.7220    -0.8470    -2.3160 H     1 <1>   0.0800 
 38 H        1.4080     1.5310     2.5710 H     1 <1>   0.0800 
 39 H        2.9030     0.7070     2.9560 H     1 <1>   0.0800 
 40 H        1.4750     0.4090     3.9050 H     1 <1>   0.0800 
 41 H        2.6610     0.3480    -2.3460 H     1 <1>   0.0800 
 42 H        3.2620    -1.1000    -3.0920 H     1 <1>   0.0800 
 43 H        5.3580     0.0210    -2.3540 H     1 <1>   0.0800 
 44 H        5.9920    -0.6950    -0.8840 H     1 <1>   0.0800 
 45 H        5.1360     3.6790     0.1930 H     1 <1>   0.1500 
 46 H        9.3630     1.3840     0.2120 H     1 <1>   0.1500 
 47 H        7.1330     4.9300     0.9730 H     1 <1>   0.1500 
 48 H       10.5030     3.2220     1.1140 H     1 <1>   0.0800 
 49 H        9.5440     4.3100     2.0820 H     1 <1>   0.0800 
 50 H       11.0300     6.1630     1.6310 H     1 <1>   0.0800 
 51 H       12.0580     5.1400     0.6750 H     1 <1>   0.0800 
 52 H       10.9450     3.8180    -1.2820 H     1 <1>   0.0800 
 53 H        9.2730     4.1580    -1.5940 H     1 <1>   0.0800 
 54 H       12.5540     6.9150    -0.6240 H     1 <1>   0.0800 
 55 H       11.4510     7.9060     0.2850 H     1 <1>   0.0800 
 56 H        9.8800     5.7760    -3.0010 H     1 <1>   0.0800 
 57 H       11.5580     5.5370    -2.6090 H     1 <1>   0.0800 
 58 H        9.6670     7.1130    -1.0420 H     1 <1>   0.4500 
 59 H       11.8360     8.1530    -2.8060 H     1 <1>   0.0800 
 60 H       10.7920     9.1420    -1.8050 H     1 <1>   0.0800 
 61 H       10.1210     8.2490    -3.1520 H     1 <1>   0.0800 
@<TRIPOS>BOND
  1   1   2  1   
  2   1  27  1   
  3   2   3  1   
  4   2   4  1   
  5   2   5  1   
  6   3   6  1   
  7   3   7  1   
  8   3  28  1   
  9   4   8  1   
 10   4  29  1   
 11   4  30  1   
 12   5   9  1   
 13   5  31  1   
 14   5  32  1   
 15   6  10  1   
 16   6  11  1   
 17   6  33  1   
 18   7  12  1   
 19   7  34  1   
 20   7  35  1   
 21   8  10  1   
 22   8  36  1   
 23   8  37  1   
 24   9  38  1   
 25   9  39  1   
 26   9  40  1   
 27  10  41  1   
 28  10  42  1   
 29  11  12  1   
 30  11  43  1   
 31  11  44  1   
 32  12  13  1   
 33  13  14  ar  
 34  13  15  ar  
 35  14  16  ar  
 36  15  17  ar  
 37  15  45  1   
 38  16  18  ar  
 39  16  46  1   
 40  17  18  ar  
 41  17  47  1   
 42  18  19  1   
 43  19  20  1   
 44  19  48  1   
 45  19  49  1   
 46  20  21  1   
 47  20  22  1   
 48  21  23  1   
 49  21  50  1   
 50  21  51  1   
 51  22  24  1   
 52  22  52  1   
 53  22  53  1   
 54  23  25  1   
 55  23  54  1   
 56  23  55  1   
 57  24  25  1   
 58  24  56  1   
 59  24  57  1   
 60  25  26  1   
 61  25  58  1   
 62  26  59  1   
 63  26  60  1   
 64  26  61  1   
@<TRIPOS>SUBSTRUCTURE
  1 ****  13 GROUP 4 **** **** 0

# MOE 2024.06 (io_trps.svl 2023.06)
