@<TRIPOS>MOLECULE
NONAME
46 49 1 0 0 
SMALL
USER_CHARGES


@<TRIPOS>ATOM
  1 S        0.0310     0.6480     2.2400 S.3   1 <1>  -0.0800 
  2 C       -1.0620     1.2490     1.0030 C.2   1 <1>  -0.1400 
  3 C       -1.1910    -0.4790     2.8170 C.2   1 <1>  -0.1100 
  4 C       -2.2450     0.6250     1.0720 C.2   1 <1>  -0.1810 
  5 C       -0.6670     2.3370     0.0100 C.3   1 <1>   0.4600 
  6 C       -2.3260    -0.3670     2.1000 C.2   1 <1>  -0.1500 
  7 C       -3.3440     1.0030     0.1050 C.3   1 <1>   0.0210 
  8 O       -1.7080     2.4840    -0.9370 O.3   1 <1>  -0.5600 
  9 C       -0.4380     3.6840     0.7100 C.3   1 <1>  -0.1600 
 10 C        0.5810     1.9290    -0.7810 C.3   1 <1>  -0.1600 
 11 C       -3.0390     2.3950    -0.4820 C.3   1 <1>   0.1200 
 12 C       -0.0010     4.7660    -0.2790 C.3   1 <1>   0.1400 
 13 C        1.0130     3.0270    -1.7540 C.3   1 <1>   0.1400 
 14 N        1.2120     4.3000    -1.0070 N.am  1 <1>  -0.6600 
 15 C        2.4650     4.8410    -0.8520 C.2   1 <1>   0.6900 
 16 O        3.4550     4.1850    -1.1170 O.2   1 <1>  -0.5700 
 17 N        2.5720     6.1340    -0.4230 N.am  1 <1>  -0.5470 
 18 C        3.6780     6.8940    -0.0210 C.ar  1 <1>   0.1170 
 19 C        3.5960     8.2800    -0.0780 C.ar  1 <1>  -0.1500 
 20 C        4.8530     6.3240     0.4560 C.ar  1 <1>  -0.1500 
 21 C        4.6540     9.0740     0.3270 C.ar  1 <1>  -0.1500 
 22 C        5.9140     7.1150     0.8600 C.ar  1 <1>  -0.1500 
 23 C        5.8200     8.4950     0.8000 C.ar  1 <1>  -0.1430 
 24 C        6.9860     9.3620     1.2410 C.3   1 <1>  -0.0970 
 25 H       -0.9240    -1.1140     3.6420 H     1 <1>   0.1500 
 26 H       -3.2210    -0.9440     2.2510 H     1 <1>   0.1500 
 27 H       -4.2910     1.0300     0.6130 H     1 <1>   0.0800 
 28 H       -3.3990     0.2760    -0.6850 H     1 <1>   0.0800 
 29 H        0.3330     3.5680     1.4500 H     1 <1>   0.0800 
 30 H       -1.3290     3.9880     1.2260 H     1 <1>   0.0800 
 31 H        0.3800     1.0200    -1.3160 H     1 <1>   0.0800 
 32 H        1.3940     1.7370    -0.1060 H     1 <1>   0.0800 
 33 H       -3.1970     3.1560     0.2610 H     1 <1>   0.0800 
 34 H       -3.6850     2.5920    -1.3190 H     1 <1>   0.0800 
 35 H        0.1920     5.6760     0.2590 H     1 <1>   0.0800 
 36 H       -0.7870     4.9530    -0.9910 H     1 <1>   0.0800 
 37 H        0.2540     3.1730    -2.5030 H     1 <1>   0.0800 
 38 H        1.9190     2.7320    -2.2560 H     1 <1>   0.0800 
 39 H        1.7040     6.6440    -0.5230 H     1 <1>   0.3700 
 40 H        2.7000     8.7460    -0.4440 H     1 <1>   0.1500 
 41 H        4.9430     5.2550     0.5140 H     1 <1>   0.1500 
 42 H        4.5680    10.1450     0.2710 H     1 <1>   0.1500 
 43 H        6.8130     6.6480     1.2200 H     1 <1>   0.1500 
 44 H        6.6340    10.3110     1.6040 H     1 <1>   0.0800 
 45 H        7.6480     9.5290     0.4110 H     1 <1>   0.0800 
 46 H        7.5330     8.8790     2.0310 H     1 <1>   0.0800 
@<TRIPOS>BOND
  1   1   2  1   
  2   1   3  1   
  3   2   4  2   
  4   2   5  1   
  5   3   6  2   
  6   3  25  1   
  7   4   6  1   
  8   4   7  1   
  9   5   8  1   
 10   5   9  1   
 11   5  10  1   
 12   6  26  1   
 13   7  11  1   
 14   7  27  1   
 15   7  28  1   
 16   8  11  1   
 17   9  12  1   
 18   9  29  1   
 19   9  30  1   
 20  10  13  1   
 21  10  31  1   
 22  10  32  1   
 23  11  33  1   
 24  11  34  1   
 25  12  14  1   
 26  12  35  1   
 27  12  36  1   
 28  13  14  1   
 29  13  37  1   
 30  13  38  1   
 31  14  15  am  
 32  15  16  2   
 33  15  17  am  
 34  17  18  1   
 35  17  39  1   
 36  18  19  ar  
 37  18  20  ar  
 38  19  21  ar  
 39  19  40  1   
 40  20  22  ar  
 41  20  41  1   
 42  21  23  ar  
 43  21  42  1   
 44  22  23  ar  
 45  22  43  1   
 46  23  24  1   
 47  24  44  1   
 48  24  45  1   
 49  24  46  1   
@<TRIPOS>SUBSTRUCTURE
  1 ****  14 GROUP 4 **** **** 0

# MOE 2024.06 (io_trps.svl 2023.06)
