@<TRIPOS>MOLECULE
NONAME
46 47 1 0 0 
SMALL
USER_CHARGES


@<TRIPOS>ATOM
  1 S        0.4120    -0.0680    -0.1740 S.o2  1 <1>   1.3330 
  2 O        0.0650    -0.0680     1.2300 O.2   1 <1>  -0.6500 
  3 O        0.5310    -1.3240    -0.8790 O.2   1 <1>  -0.6500 
  4 N       -0.7220     0.8970    -0.9890 N.am  1 <1>  -0.8490 
  5 C        1.9440     0.8310    -0.3970 C.3   1 <1>  -0.0550 
  6 C       -1.1900     2.0410    -0.1990 C.3   1 <1>   0.1160 
  7 C       -1.8680     0.1190    -1.4680 C.3   1 <1>   0.1160 
  8 C        3.1720     0.0860     0.1630 C.3   1 <1>  -0.0800 
  9 C        4.5100     0.7640    -0.0920 C.3   1 <1>   0.2200 
 10 C        3.1650    -0.1010     1.6870 C.3   1 <1>   0.1200 
 11 N        4.4090     2.2260     0.1220 N.am  1 <1>  -0.7300 
 12 C        5.3440     0.1620     1.0300 C.3   1 <1>   0.1200 
 13 O        4.4800     0.0970     2.1220 O.3   1 <1>  -0.5600 
 14 C        4.3200     3.1830    -0.8440 C.2   1 <1>   0.7150 
 15 O        4.2940     2.8200    -2.0050 O.2   1 <1>  -0.5700 
 16 C        4.2270     4.5750    -0.4680 C.2   1 <1>   0.0550 
 17 O        4.1860     4.9040     0.8180 O.3   1 <1>  -0.2800 
 18 C        4.1590     5.7060    -1.2020 C.2   1 <1>   0.0460 
 19 C        4.0950     6.2170     0.7690 C.2   1 <1>   0.2980 
 20 N        4.0720     6.7560    -0.3950 N.2   1 <1>  -0.5650 
 21 C        4.1670     5.9280    -2.7020 C.3   1 <1>  -0.0590 
 22 C        4.0260     6.9550     2.0990 C.3   1 <1>   0.0200 
 23 C        3.8570     8.4750     1.9600 C.3   1 <1>  -0.2400 
 24 H        2.0960     0.9960    -1.4470 H     1 <1>   0.0800 
 25 H        1.8560     1.7890     0.0740 H     1 <1>   0.0800 
 26 H       -1.8400     2.6600    -0.7950 H     1 <1>   0.0800 
 27 H       -0.3550     2.6390     0.1210 H     1 <1>   0.0800 
 28 H       -1.7290     1.7040     0.6710 H     1 <1>   0.0800 
 29 H       -2.5570     0.7540    -1.9970 H     1 <1>   0.0800 
 30 H       -2.3760    -0.3480    -0.6400 H     1 <1>   0.0800 
 31 H       -1.5330    -0.6500    -2.1450 H     1 <1>   0.0800 
 32 H        3.2050    -0.8940    -0.2830 H     1 <1>   0.0800 
 33 H        4.9130     0.5450    -1.0670 H     1 <1>   0.0800 
 34 H        2.8480    -1.0910     1.9680 H     1 <1>   0.0800 
 35 H        2.5460     0.6290     2.1810 H     1 <1>   0.0800 
 36 H        4.4110     2.5200     1.1030 H     1 <1>   0.3700 
 37 H        6.2050     0.7580     1.2800 H     1 <1>   0.0800 
 38 H        5.6480    -0.8420     0.7870 H     1 <1>   0.0800 
 39 H        4.2720     5.0040    -3.2380 H     1 <1>   0.0800 
 40 H        4.9860     6.5730    -2.9640 H     1 <1>   0.0800 
 41 H        3.2480     6.3990    -3.0000 H     1 <1>   0.0800 
 42 H        3.2000     6.5590     2.6610 H     1 <1>   0.0800 
 43 H        4.9280     6.7480     2.6450 H     1 <1>   0.0800 
 44 H        2.9500     8.6990     1.4260 H     1 <1>   0.0800 
 45 H        4.6860     8.8910     1.4160 H     1 <1>   0.0800 
 46 H        3.8110     8.9360     2.9310 H     1 <1>   0.0800 
@<TRIPOS>BOND
  1   1   2  2   
  2   1   3  2   
  3   1   4  am  
  4   1   5  1   
  5   4   6  1   
  6   4   7  1   
  7   5   8  1   
  8   5  24  1   
  9   5  25  1   
 10   6  26  1   
 11   6  27  1   
 12   6  28  1   
 13   7  29  1   
 14   7  30  1   
 15   7  31  1   
 16   8   9  1   
 17   8  10  1   
 18   8  32  1   
 19   9  11  1   
 20   9  12  1   
 21   9  33  1   
 22  10  13  1   
 23  10  34  1   
 24  10  35  1   
 25  11  14  am  
 26  11  36  1   
 27  12  13  1   
 28  12  37  1   
 29  12  38  1   
 30  14  15  2   
 31  14  16  1   
 32  16  17  1   
 33  16  18  2   
 34  17  19  1   
 35  18  20  1   
 36  18  21  1   
 37  19  20  2   
 38  19  22  1   
 39  21  39  1   
 40  21  40  1   
 41  21  41  1   
 42  22  23  1   
 43  22  42  1   
 44  22  43  1   
 45  23  44  1   
 46  23  45  1   
 47  23  46  1   
@<TRIPOS>SUBSTRUCTURE
  1 ****  11 GROUP 4 **** **** 0

# MOE 2024.06 (io_trps.svl 2023.06)
