@<TRIPOS>MOLECULE
NONAME
42 44 1 0 0 
SMALL
USER_CHARGES


@<TRIPOS>ATOM
  1 O        0.0440     0.2850     1.1690 O.co2 1 <1>  -0.9000 
  2 C        1.2440     0.0310     1.2540 C.2   1 <1>   0.9060 
  3 O        1.7300    -0.4810     2.2760 O.co2 1 <1>  -0.9000 
  4 C        2.1440     0.2880     0.0310 C.3   1 <1>  -0.1060 
  5 C        3.6070    -0.0450     0.3690 C.3   1 <1>   0.4230 
  6 C        2.0170     1.7940    -0.3660 C.3   1 <1>  -0.1600 
  7 C        1.7350    -0.6470    -1.1300 C.3   1 <1>  -0.1600 
  8 N        3.7340    -1.4510     0.8780 N.4   1 <1>  -0.9590 
  9 C        4.1870     1.1000     1.2220 C.3   1 <1>   0.2090 
 10 C        3.3370     2.4990    -0.7230 C.3   1 <1>   0.2090 
 11 C        1.9260    -2.1210    -0.7200 C.3   1 <1>  -0.1600 
 12 C        3.3270    -2.4270    -0.1700 C.3   1 <1>   0.3430 
 13 C        5.0560    -1.7710     1.4730 C.3   1 <1>   0.2630 
 14 N        4.4130     2.2680     0.3010 N.pl3 1 <1>  -0.8380 
 15 C        5.7090     2.4730    -0.1410 C.ar  1 <1>   0.4100 
 16 N        6.3440     1.3750    -0.5540 N.ar  1 <1>  -0.6200 
 17 C        6.2780     3.7560    -0.1580 C.ar  1 <1>   0.0730 
 18 C        7.5770     1.5470    -0.9980 C.ar  1 <1>   0.1600 
 19 C        5.5450     4.8980     0.2940 C.1   1 <1>   0.4840 
 20 C        7.5710     3.8970    -0.6260 C.ar  1 <1>  -0.1500 
 21 C        8.2290     2.7640    -1.0550 C.ar  1 <1>  -0.1500 
 22 N        4.9970     5.8450     0.6180 N.1   1 <1>  -0.5570 
 23 H        4.1660    -0.0060    -0.5500 H     1 <1>   0.0800 
 24 H        1.5950     2.3410     0.4610 H     1 <1>   0.0800 
 25 H        1.3170     1.9060    -1.1750 H     1 <1>   0.0800 
 26 H        0.6990    -0.4810    -1.3780 H     1 <1>   0.0800 
 27 H        2.3260    -0.4300    -2.0030 H     1 <1>   0.0800 
 28 H        2.9980    -1.4560     1.6350 H     1 <1>   0.4500 
 29 H        5.1220     0.8210     1.6700 H     1 <1>   0.0800 
 30 H        3.5060     1.3820     2.0060 H     1 <1>   0.0800 
 31 H        3.1560     3.5580    -0.8100 H     1 <1>   0.0800 
 32 H        3.6800     2.1430    -1.6800 H     1 <1>   0.0800 
 33 H        1.7360    -2.7540    -1.5690 H     1 <1>   0.0800 
 34 H        1.1980    -2.3810     0.0310 H     1 <1>   0.0800 
 35 H        4.0360    -2.3880    -0.9810 H     1 <1>   0.0800 
 36 H        3.3350    -3.4240     0.2380 H     1 <1>   0.0800 
 37 H        5.8380    -1.6130     0.7490 H     1 <1>   0.0800 
 38 H        5.0770    -2.7980     1.7990 H     1 <1>   0.0800 
 39 H        5.2380    -1.1410     2.3280 H     1 <1>   0.0800 
 40 H        8.1020     0.6690    -1.3380 H     1 <1>   0.1500 
 41 H        8.0520     4.8620    -0.6580 H     1 <1>   0.1500 
 42 H        9.2360     2.8230    -1.4290 H     1 <1>   0.1500 
@<TRIPOS>BOND
  1   1   2  ar  
  2   2   3  ar  
  3   2   4  1   
  4   4   5  1   
  5   4   6  1   
  6   4   7  1   
  7   5   8  1   
  8   5   9  1   
  9   5  23  1   
 10   6  10  1   
 11   6  24  1   
 12   6  25  1   
 13   7  11  1   
 14   7  26  1   
 15   7  27  1   
 16   8  12  1   
 17   8  13  1   
 18   8  28  1   
 19   9  14  1   
 20   9  29  1   
 21   9  30  1   
 22  10  14  1   
 23  10  31  1   
 24  10  32  1   
 25  11  12  1   
 26  11  33  1   
 27  11  34  1   
 28  12  35  1   
 29  12  36  1   
 30  13  37  1   
 31  13  38  1   
 32  13  39  1   
 33  14  15  1   
 34  15  16  ar  
 35  15  17  ar  
 36  16  18  ar  
 37  17  19  1   
 38  17  20  ar  
 39  18  21  ar  
 40  18  40  1   
 41  19  22  3   
 42  20  21  ar  
 43  20  41  1   
 44  21  42  1   
@<TRIPOS>SUBSTRUCTURE
  1 ****   9 GROUP 4 **** **** 0

# MOE 2024.06 (io_trps.svl 2023.06)
