@<TRIPOS>MOLECULE
NONAME
39 42 1 0 0 
SMALL
USER_CHARGES


@<TRIPOS>ATOM
  1 CL      -0.0870    -0.2290    -1.0340 Cl    1 <1>  -0.1770 
  2 C        1.2380    -1.1390    -0.3260 C.ar  1 <1>   0.1770 
  3 C        1.0750    -2.4380     0.1460 C.ar  1 <1>   0.4100 
  4 C        2.4800    -0.5720    -0.2400 C.ar  1 <1>   0.1600 
  5 N        2.1050    -3.0950     0.6540 N.ar  1 <1>  -0.6200 
  6 N       -0.1330    -3.1040     0.1220 N.pl3 1 <1>  -0.8380 
  7 N        3.5130    -1.2190     0.2730 N.ar  1 <1>  -0.6200 
  8 C        3.2550    -2.4490     0.6900 C.ar  1 <1>   0.4770 
  9 C       -0.1960    -4.4100    -0.5820 C.3   1 <1>   0.2890 
 10 C       -1.1650    -2.6730     1.1050 C.3   1 <1>   0.2090 
 11 C        4.4240    -3.2050     1.2730 C.3   1 <1>  -0.0960 
 12 C       -0.3880    -5.5950     0.3790 C.3   1 <1>  -0.1600 
 13 C       -1.2480    -4.3450    -1.6960 C.3   1 <1>  -0.1600 
 14 C       -2.5070    -3.4260     1.0940 C.3   1 <1>  -0.0800 
 15 C       -1.8490    -5.8820     0.7760 C.3   1 <1>  -0.0800 
 16 C       -2.6830    -4.5940    -1.2090 C.3   1 <1>  -0.0800 
 17 C       -2.3990    -4.8210     1.7360 C.3   1 <1>  -0.1600 
 18 C       -3.1880    -3.4650    -0.2910 C.3   1 <1>  -0.1600 
 19 C       -2.7380    -5.9390    -0.4730 C.3   1 <1>  -0.1600 
 20 H        2.6350     0.4300    -0.5980 H     1 <1>   0.1500 
 21 H        0.7570    -4.5530    -1.0650 H     1 <1>   0.0800 
 22 H       -1.3750    -1.6330     0.9290 H     1 <1>   0.0800 
 23 H       -0.7370    -2.7430     2.0910 H     1 <1>   0.0800 
 24 H        4.0770    -4.0210     1.8790 H     1 <1>   0.0800 
 25 H        5.0180    -2.5480     1.8800 H     1 <1>   0.0800 
 26 H        5.0290    -3.5920     0.4750 H     1 <1>   0.0800 
 27 H        0.2240    -5.4490     1.2510 H     1 <1>   0.0800 
 28 H       -0.0150    -6.4700    -0.1220 H     1 <1>   0.0800 
 29 H       -1.0070    -5.1050    -2.4170 H     1 <1>   0.0800 
 30 H       -1.1800    -3.3980    -2.1990 H     1 <1>   0.0800 
 31 H       -3.1490    -2.8500     1.7360 H     1 <1>   0.0800 
 32 H       -1.8840    -6.8360     1.2740 H     1 <1>   0.0800 
 33 H       -3.3270    -4.6410    -2.0710 H     1 <1>   0.0800 
 34 H       -3.3820    -5.1280     2.0480 H     1 <1>   0.0800 
 35 H       -1.7860    -4.7760     2.6190 H     1 <1>   0.0800 
 36 H       -3.0710    -2.5150    -0.7830 H     1 <1>   0.0800 
 37 H       -4.2430    -3.6150    -0.1380 H     1 <1>   0.0800 
 38 H       -3.7530    -6.1590    -0.1900 H     1 <1>   0.0800 
 39 H       -2.4040    -6.7280    -1.1240 H     1 <1>   0.0800 
@<TRIPOS>BOND
  1   1   2  1   
  2   2   3  ar  
  3   2   4  ar  
  4   3   5  ar  
  5   3   6  1   
  6   4   7  ar  
  7   4  20  1   
  8   5   8  ar  
  9   6   9  1   
 10   6  10  1   
 11   7   8  ar  
 12   8  11  1   
 13   9  12  1   
 14   9  13  1   
 15   9  21  1   
 16  10  14  1   
 17  10  22  1   
 18  10  23  1   
 19  11  24  1   
 20  11  25  1   
 21  11  26  1   
 22  12  15  1   
 23  12  27  1   
 24  12  28  1   
 25  13  16  1   
 26  13  29  1   
 27  13  30  1   
 28  14  17  1   
 29  14  18  1   
 30  14  31  1   
 31  15  17  1   
 32  15  19  1   
 33  15  32  1   
 34  16  18  1   
 35  16  19  1   
 36  16  33  1   
 37  17  34  1   
 38  17  35  1   
 39  18  36  1   
 40  18  37  1   
 41  19  38  1   
 42  19  39  1   
@<TRIPOS>SUBSTRUCTURE
  1 ****   6 GROUP 4 **** **** 0

# MOE 2024.06 (io_trps.svl 2023.06)
