@<TRIPOS>MOLECULE
NONAME
45 47 1 0 0 
SMALL
USER_CHARGES


@<TRIPOS>ATOM
  1 F       -1.3540     1.2030    -0.3630 F     1 <1>  -0.1900 
  2 C       -0.7430     2.3150    -0.0590 C.ar  1 <1>   0.1900 
  3 C       -1.3260     3.5300    -0.3860 C.ar  1 <1>  -0.1440 
  4 C        0.4760     2.2350     0.5860 C.ar  1 <1>  -0.1500 
  5 C       -0.6450     4.6880    -0.0490 C.ar  1 <1>  -0.1500 
  6 C       -2.6760     3.5930    -1.0880 C.3   1 <1>  -0.0960 
  7 C        1.1360     3.4060     0.9110 C.ar  1 <1>  -0.1500 
  8 C        0.5970     4.6570     0.5950 C.ar  1 <1>   0.0860 
  9 C        1.2970     5.8890     0.9220 C.2   1 <1>   0.5440 
 10 O        0.6890     6.9280     1.1050 O.2   1 <1>  -0.5700 
 11 N        2.6680     5.9600     0.9790 N.am  1 <1>  -0.6600 
 12 C        3.3370     6.8880     1.9650 C.3   1 <1>   0.1400 
 13 C        3.5000     5.4680    -0.1620 C.3   1 <1>   0.1400 
 14 C        3.7520     8.2480     1.3450 C.3   1 <1>   0.4230 
 15 C        4.1300     6.5850    -1.0350 C.3   1 <1>  -0.0800 
 16 N        2.8780     8.4980     0.1420 N.4   1 <1>  -0.9590 
 17 C        5.2830     8.3060     1.1020 C.3   1 <1>   0.1200 
 18 C        5.6090     6.8370    -0.7080 C.3   1 <1>   0.1200 
 19 C        3.3680     7.9210    -1.1460 C.3   1 <1>   0.3430 
 20 C        2.5890     9.9830    -0.0240 C.3   1 <1>   0.2370 
 21 O        5.7910     7.0830     0.6440 O.3   1 <1>  -0.5600 
 22 C        3.8300    10.8540    -0.2300 C.2   1 <1>   0.9060 
 23 O        4.3710    11.3250     0.7730 O.co2 1 <1>  -0.9000 
 24 O        4.3260    10.8980    -1.3600 O.co2 1 <1>  -0.9000 
 25 H        0.8900     1.2720     0.8280 H     1 <1>   0.1500 
 26 H       -1.0770     5.6460    -0.2840 H     1 <1>   0.1500 
 27 H       -2.9740     4.6100    -1.2670 H     1 <1>   0.0800 
 28 H       -3.4260     3.1190    -0.4800 H     1 <1>   0.0800 
 29 H       -2.6230     3.0800    -2.0310 H     1 <1>   0.0800 
 30 H        2.0810     3.3520     1.4230 H     1 <1>   0.1500 
 31 H        2.6510     7.0890     2.7690 H     1 <1>   0.0800 
 32 H        4.1880     6.3970     2.4050 H     1 <1>   0.0800 
 33 H        4.2770     4.8300     0.2250 H     1 <1>   0.0800 
 34 H        2.8830     4.8590    -0.8000 H     1 <1>   0.0800 
 35 H        3.5380     9.0160     2.0700 H     1 <1>   0.0800 
 36 H        4.1520     6.1960    -2.0370 H     1 <1>   0.0800 
 37 H        1.9940     8.0050     0.3810 H     1 <1>   0.4500 
 38 H        5.7650     8.5000     2.0430 H     1 <1>   0.0800 
 39 H        5.5690     9.0940     0.4280 H     1 <1>   0.0800 
 40 H        6.0090     7.6660    -1.2710 H     1 <1>   0.0800 
 41 H        6.1900     5.9620    -0.9430 H     1 <1>   0.0800 
 42 H        2.5200     7.7830    -1.7960 H     1 <1>   0.0800 
 43 H        4.0190     8.6360    -1.6260 H     1 <1>   0.0800 
 44 H        1.9460    10.1370    -0.8700 H     1 <1>   0.0800 
 45 H        2.0890    10.3530     0.8520 H     1 <1>   0.0800 
@<TRIPOS>BOND
  1   1   2  1   
  2   2   3  ar  
  3   2   4  ar  
  4   3   5  ar  
  5   3   6  1   
  6   4   7  ar  
  7   4  25  1   
  8   5   8  ar  
  9   5  26  1   
 10   6  27  1   
 11   6  28  1   
 12   6  29  1   
 13   7   8  ar  
 14   7  30  1   
 15   8   9  1   
 16   9  10  2   
 17   9  11  am  
 18  11  12  1   
 19  11  13  1   
 20  12  14  1   
 21  12  31  1   
 22  12  32  1   
 23  13  15  1   
 24  13  33  1   
 25  13  34  1   
 26  14  16  1   
 27  14  17  1   
 28  14  35  1   
 29  15  18  1   
 30  15  19  1   
 31  15  36  1   
 32  16  19  1   
 33  16  20  1   
 34  16  37  1   
 35  17  21  1   
 36  17  38  1   
 37  17  39  1   
 38  18  21  1   
 39  18  40  1   
 40  18  41  1   
 41  19  42  1   
 42  19  43  1   
 43  20  22  1   
 44  20  44  1   
 45  20  45  1   
 46  22  23  ar  
 47  22  24  ar  
@<TRIPOS>SUBSTRUCTURE
  1 ****  11 GROUP 4 **** **** 0

# MOE 2024.06 (io_trps.svl 2023.06)
