@<TRIPOS>MOLECULE
NONAME
50 53 1 0 0 
SMALL
USER_CHARGES


@<TRIPOS>ATOM
  1 O       -0.3630     0.1950     0.1200 O.2   1 <1>  -0.5700 
  2 C       -1.4040     0.8280     0.1220 C.2   1 <1>   0.7150 
  3 N       -2.5790     0.1170    -0.0230 N.am  1 <1>  -0.6600 
  4 C       -1.3670     2.2710     0.2640 C.2   1 <1>   0.0550 
  5 C       -3.9240     0.6930    -0.2720 C.3   1 <1>   0.1400 
  6 C       -2.6080    -1.3580    -0.1750 C.3   1 <1>   0.1400 
  7 O       -2.4080     2.9450     0.7410 O.3   1 <1>  -0.2800 
  8 C       -0.3810     3.1550    -0.0080 C.2   1 <1>   0.0460 
  9 C       -4.7890    -0.4890    -0.7080 C.3   1 <1>   0.2000 
 10 C       -4.0920    -1.7320    -0.1600 C.3   1 <1>  -0.0800 
 11 C       -1.9740     4.1880     0.7240 C.2   1 <1>   0.2980 
 12 N       -0.7840     4.3840     0.2900 N.2   1 <1>  -0.5650 
 13 C        1.0140     2.9510    -0.5650 C.3   1 <1>  -0.0590 
 14 O       -6.0730    -0.3990    -0.1920 O.3   1 <1>  -0.6800 
 15 C       -4.4210    -3.0030    -0.9610 C.3   1 <1>  -0.0170 
 16 C       -2.9340     5.2600     1.2220 C.3   1 <1>   0.0200 
 17 C       -3.7010    -4.2130    -0.3940 C.ar  1 <1>   0.1670 
 18 C       -2.3660     6.6850     1.1570 C.3   1 <1>  -0.2400 
 19 N       -2.5010    -4.4500    -0.8270 N.ar  1 <1>  -0.6200 
 20 C       -4.3510    -5.0040     0.5670 C.ar  1 <1>  -0.1500 
 21 C       -1.8420    -5.5200    -0.3130 C.ar  1 <1>   0.3100 
 22 C       -3.7150    -6.0850     1.0980 C.ar  1 <1>  -0.1500 
 23 C       -2.4120    -6.3720     0.6590 C.ar  1 <1>   0.0000 
 24 C       -0.5380    -5.7930    -0.7580 C.ar  1 <1>  -0.1500 
 25 C       -1.6580    -7.4590     1.1430 C.ar  1 <1>  -0.1500 
 26 C        0.1780    -6.8550    -0.2750 C.ar  1 <1>  -0.1500 
 27 C       -0.3900    -7.6970     0.6870 C.ar  1 <1>  -0.1500 
 28 H       -4.2970     1.1240     0.6410 H     1 <1>   0.0800 
 29 H       -3.8780     1.4400    -1.0460 H     1 <1>   0.0800 
 30 H       -2.1520    -1.6250    -1.1140 H     1 <1>   0.0800 
 31 H       -2.0700    -1.8400     0.6250 H     1 <1>   0.0800 
 32 H       -4.8540    -0.5170    -1.7820 H     1 <1>   0.0800 
 33 H       -4.3700    -1.8770     0.8690 H     1 <1>   0.0800 
 34 H        1.1810     1.9280    -0.8430 H     1 <1>   0.0800 
 35 H        1.7400     3.2330     0.1750 H     1 <1>   0.0800 
 36 H        1.1470     3.5700    -1.4340 H     1 <1>   0.0800 
 37 H       -6.0470    -0.3880     0.7840 H     1 <1>   0.4000 
 38 H       -4.1320    -2.8730    -1.9890 H     1 <1>   0.0800 
 39 H       -5.4830    -3.1730    -0.9430 H     1 <1>   0.0800 
 40 H       -3.8300     5.2100     0.6300 H     1 <1>   0.0800 
 41 H       -3.1950     5.0300     2.2390 H     1 <1>   0.0800 
 42 H       -2.1130     6.9360     0.1420 H     1 <1>   0.0800 
 43 H       -1.4760     6.7560     1.7580 H     1 <1>   0.0800 
 44 H       -3.0890     7.3930     1.5200 H     1 <1>   0.0800 
 45 H       -5.3480    -4.7450     0.8750 H     1 <1>   0.1500 
 46 H       -4.1800    -6.7140     1.8350 H     1 <1>   0.1500 
 47 H       -0.1200    -5.1330    -1.4960 H     1 <1>   0.1500 
 48 H       -2.1000    -8.1020     1.8830 H     1 <1>   0.1500 
 49 H        1.1770    -7.0530    -0.6250 H     1 <1>   0.1500 
 50 H        0.1840    -8.5280     1.0590 H     1 <1>   0.1500 
@<TRIPOS>BOND
  1   1   2  2   
  2   2   3  am  
  3   2   4  1   
  4   3   5  1   
  5   3   6  1   
  6   4   7  1   
  7   4   8  2   
  8   5   9  1   
  9   5  28  1   
 10   5  29  1   
 11   6  10  1   
 12   6  30  1   
 13   6  31  1   
 14   7  11  1   
 15   8  12  1   
 16   8  13  1   
 17   9  10  1   
 18   9  14  1   
 19   9  32  1   
 20  10  15  1   
 21  10  33  1   
 22  11  12  2   
 23  11  16  1   
 24  13  34  1   
 25  13  35  1   
 26  13  36  1   
 27  14  37  1   
 28  15  17  1   
 29  15  38  1   
 30  15  39  1   
 31  16  18  1   
 32  16  40  1   
 33  16  41  1   
 34  17  19  ar  
 35  17  20  ar  
 36  18  42  1   
 37  18  43  1   
 38  18  44  1   
 39  19  21  ar  
 40  20  22  ar  
 41  20  45  1   
 42  21  23  ar  
 43  21  24  ar  
 44  22  23  ar  
 45  22  46  1   
 46  23  25  ar  
 47  24  26  ar  
 48  24  47  1   
 49  25  27  ar  
 50  25  48  1   
 51  26  27  ar  
 52  26  49  1   
 53  27  50  1   
@<TRIPOS>SUBSTRUCTURE
  1 ****   6 GROUP 4 **** **** 0

# MOE 2024.06 (io_trps.svl 2023.06)
