@<TRIPOS>MOLECULE
NONAME
56 58 1 0 0 
SMALL
USER_CHARGES


@<TRIPOS>ATOM
  1 O       -1.4400     0.7850    -2.9790 O.2   1 <1>  -0.5700 
  2 C       -2.0070     1.3850    -2.0840 C.2   1 <1>   0.5440 
  3 N       -3.1170     0.7980    -1.5060 N.am  1 <1>  -0.6600 
  4 C       -1.5010     2.6680    -1.6530 C.ar  1 <1>   0.0860 
  5 C       -3.4950    -0.5960    -1.8470 C.3   1 <1>   0.1400 
  6 C       -3.7750     1.3140    -0.2730 C.3   1 <1>   0.1400 
  7 C       -0.6240     2.7740    -0.5680 C.ar  1 <1>   0.0830 
  8 C       -1.8800     3.8340    -2.3170 C.ar  1 <1>  -0.1500 
  9 C       -3.0370    -1.5110    -0.6930 C.3   1 <1>   0.4230 
 10 C       -3.3910     0.4080     0.9070 C.3   1 <1>  -0.1600 
 11 O       -0.2640     1.6280     0.0620 O.3   1 <1>  -0.3630 
 12 C       -0.1550     4.0240    -0.1680 C.ar  1 <1>  -0.1500 
 13 C       -1.4130     5.0710    -1.9170 C.ar  1 <1>  -0.1500 
 14 N       -3.1320    -2.9970    -1.0100 N.4   1 <1>  -0.9590 
 15 C       -3.6800    -1.1040     0.6690 C.3   1 <1>   0.0000 
 16 C        0.7580     1.5860     1.0300 C.3   1 <1>   0.1200 
 17 C       -0.5490     5.1660    -0.8400 C.ar  1 <1>  -0.1500 
 18 C       -3.0820    -3.8840     0.1970 C.3   1 <1>   0.3430 
 19 C       -4.2730    -3.3950    -1.8980 C.3   1 <1>   0.2630 
 20 C       -3.0160    -1.9250     1.8170 C.3   1 <1>  -0.1600 
 21 C       -5.2130    -1.3600     0.6360 C.3   1 <1>   0.1200 
 22 C        0.9580     0.1260     1.4410 C.3   1 <1>  -0.1600 
 23 C       -2.3200    -3.2130     1.3380 C.3   1 <1>  -0.1600 
 24 O       -5.8450    -0.8490     1.7580 O.3   1 <1>  -0.6800 
 25 C        2.0570    -0.0090     2.5000 C.3   1 <1>  -0.2400 
 26 H       -4.5580    -0.6390    -1.9950 H     1 <1>   0.0800 
 27 H       -3.0190    -0.9010    -2.7620 H     1 <1>   0.0800 
 28 H       -3.4690     2.3260    -0.0690 H     1 <1>   0.0800 
 29 H       -4.8430     1.3190    -0.4110 H     1 <1>   0.0800 
 30 H       -2.5450     3.7600    -3.1590 H     1 <1>   0.1500 
 31 H       -1.9860    -1.2970    -0.5800 H     1 <1>   0.0800 
 32 H       -2.3410     0.5510     1.0860 H     1 <1>   0.0800 
 33 H       -3.8970     0.7600     1.7890 H     1 <1>   0.0800 
 34 H        0.5160     4.1300     0.6630 H     1 <1>   0.1500 
 35 H       -1.7160     5.9600    -2.4430 H     1 <1>   0.1500 
 36 H       -2.2670    -3.1890    -1.5400 H     1 <1>   0.4500 
 37 H        1.6570     1.9860     0.5930 H     1 <1>   0.0800 
 38 H        0.4560     2.1810     1.8740 H     1 <1>   0.0800 
 39 H       -0.1840     6.1300    -0.5290 H     1 <1>   0.1500 
 40 H       -4.0830    -4.0960     0.5340 H     1 <1>   0.0800 
 41 H       -2.6110    -4.8210    -0.0570 H     1 <1>   0.0800 
 42 H       -5.2150    -3.1730    -1.4260 H     1 <1>   0.0800 
 43 H       -4.2330    -4.4530    -2.1050 H     1 <1>   0.0800 
 44 H       -4.2240    -2.8670    -2.8370 H     1 <1>   0.0800 
 45 H       -2.2770    -1.3330     2.3300 H     1 <1>   0.0800 
 46 H       -3.7510    -2.1850     2.5580 H     1 <1>   0.0800 
 47 H       -5.4360    -2.4100     0.5940 H     1 <1>   0.0800 
 48 H       -5.6740    -0.8810    -0.2100 H     1 <1>   0.0800 
 49 H        0.0370    -0.2600     1.8390 H     1 <1>   0.0800 
 50 H        1.2320    -0.4480     0.5730 H     1 <1>   0.0800 
 51 H       -2.2420    -3.8990     2.1640 H     1 <1>   0.0800 
 52 H       -1.3160    -2.9950     1.0140 H     1 <1>   0.0800 
 53 H       -5.5150    -1.2520     2.5850 H     1 <1>   0.4000 
 54 H        1.8010     0.5480     3.3850 H     1 <1>   0.0800 
 55 H        2.9940     0.3580     2.1190 H     1 <1>   0.0800 
 56 H        2.1830    -1.0420     2.7720 H     1 <1>   0.0800 
@<TRIPOS>BOND
  1   1   2  2   
  2   2   3  am  
  3   2   4  1   
  4   3   5  1   
  5   3   6  1   
  6   4   7  ar  
  7   4   8  ar  
  8   5   9  1   
  9   5  26  1   
 10   5  27  1   
 11   6  10  1   
 12   6  28  1   
 13   6  29  1   
 14   7  11  1   
 15   7  12  ar  
 16   8  13  ar  
 17   8  30  1   
 18   9  14  1   
 19   9  15  1   
 20   9  31  1   
 21  10  15  1   
 22  10  32  1   
 23  10  33  1   
 24  11  16  1   
 25  12  17  ar  
 26  12  34  1   
 27  13  17  ar  
 28  13  35  1   
 29  14  18  1   
 30  14  19  1   
 31  14  36  1   
 32  15  20  1   
 33  15  21  1   
 34  16  22  1   
 35  16  37  1   
 36  16  38  1   
 37  17  39  1   
 38  18  23  1   
 39  18  40  1   
 40  18  41  1   
 41  19  42  1   
 42  19  43  1   
 43  19  44  1   
 44  20  23  1   
 45  20  45  1   
 46  20  46  1   
 47  21  24  1   
 48  21  47  1   
 49  21  48  1   
 50  22  25  1   
 51  22  49  1   
 52  22  50  1   
 53  23  51  1   
 54  23  52  1   
 55  24  53  1   
 56  25  54  1   
 57  25  55  1   
 58  25  56  1   
@<TRIPOS>SUBSTRUCTURE
  1 ****   3 GROUP 4 **** **** 0

# MOE 2024.06 (io_trps.svl 2023.06)
