@<TRIPOS>MOLECULE
NONAME
38 39 1 0 0 
SMALL
USER_CHARGES


@<TRIPOS>ATOM
  1 O        2.8850     0.7690    -1.4170 O.2   1 <1>  -0.5700 
  2 C        2.6280    -0.0860    -0.5730 C.2   1 <1>   0.6160 
  3 N        2.1670    -1.3330    -1.0060 N.am  1 <1>  -0.4690 
  4 C        2.7890     0.1660     0.8350 C.2   1 <1>   0.0290 
  5 C        1.8650    -2.3240    -0.0930 C.2   1 <1>  -0.0290 
  6 C        2.0010    -1.5940    -2.4730 C.3   1 <1>   0.0600 
  7 C        3.2640     1.4430     1.3280 C.2   1 <1>   0.6160 
  8 C        2.4760    -0.8510     1.7050 C.2   1 <1>  -0.1500 
  9 C        2.0140    -2.0930     1.2390 C.2   1 <1>  -0.1500 
 10 C        1.3630    -3.6780    -0.5800 C.3   1 <1>  -0.1020 
 11 O        3.3840     1.6100     2.5300 O.2   1 <1>  -0.5700 
 12 N        3.5880     2.4840     0.4970 N.am  1 <1>  -0.4930 
 13 C        4.0610     3.7880     0.7890 C.2   1 <1>   0.0630 
 14 C        4.3370     4.3900     2.0180 C.2   1 <1>   0.1390 
 15 C        4.3490     4.7390    -0.1220 C.2   1 <1>  -0.3020 
 16 N        4.7610     5.6130     1.8860 N.2   1 <1>  -0.7070 
 17 N        4.7690     5.8320     0.5570 N.pl3 1 <1>   0.3140 
 18 C        5.1980     7.1370    -0.0170 C.3   1 <1>   0.1760 
 19 C        4.0470     7.7960    -0.7890 C.3   1 <1>  -0.2400 
 20 C        6.4310     6.9570    -0.9130 C.3   1 <1>  -0.2400 
 21 H        2.2730    -0.7410    -3.0680 H     1 <1>   0.0800 
 22 H        0.9730    -1.8320    -2.6820 H     1 <1>   0.0800 
 23 H        2.6260    -2.4180    -2.7660 H     1 <1>   0.0800 
 24 H        2.5760    -0.7200     2.7700 H     1 <1>   0.1500 
 25 H        1.7850    -2.8500     1.9690 H     1 <1>   0.1500 
 26 H        0.4460    -3.5610    -1.1280 H     1 <1>   0.0800 
 27 H        1.1740    -4.3350     0.2500 H     1 <1>   0.0800 
 28 H        2.0990    -4.1430    -1.2110 H     1 <1>   0.0800 
 29 H        3.4630     2.2770    -0.5020 H     1 <1>   0.3700 
 30 H        4.2140     3.9020     2.9690 H     1 <1>   0.1500 
 31 H        4.2810     4.7020    -1.1910 H     1 <1>   0.1500 
 32 H        5.4650     7.7720     0.8100 H     1 <1>   0.0800 
 33 H        3.7600     7.1970    -1.6340 H     1 <1>   0.0800 
 34 H        4.3500     8.7650    -1.1430 H     1 <1>   0.0800 
 35 H        3.1980     7.9230    -0.1400 H     1 <1>   0.0800 
 36 H        6.2010     6.3380    -1.7620 H     1 <1>   0.0800 
 37 H        7.2290     6.5040    -0.3500 H     1 <1>   0.0800 
 38 H        6.7700     7.9130    -1.2690 H     1 <1>   0.0800 
@<TRIPOS>BOND
  1   1   2  2   
  2   2   3  am  
  3   2   4  1   
  4   3   5  1   
  5   3   6  1   
  6   4   7  1   
  7   4   8  2   
  8   5   9  2   
  9   5  10  1   
 10   6  21  1   
 11   6  22  1   
 12   6  23  1   
 13   7  11  2   
 14   7  12  am  
 15   8   9  1   
 16   8  24  1   
 17   9  25  1   
 18  10  26  1   
 19  10  27  1   
 20  10  28  1   
 21  12  13  1   
 22  12  29  1   
 23  13  14  1   
 24  13  15  2   
 25  14  16  2   
 26  14  30  1   
 27  15  17  1   
 28  15  31  1   
 29  16  17  1   
 30  17  18  1   
 31  18  19  1   
 32  18  20  1   
 33  18  32  1   
 34  19  33  1   
 35  19  34  1   
 36  19  35  1   
 37  20  36  1   
 38  20  37  1   
 39  20  38  1   
@<TRIPOS>SUBSTRUCTURE
  1 ****  12 GROUP 4 **** **** 0

# MOE 2024.06 (io_trps.svl 2023.06)
