@<TRIPOS>MOLECULE
NONAME
36 37 1 0 0 
SMALL
USER_CHARGES


@<TRIPOS>ATOM
  1 S       -1.5850    -1.4510     1.9530 S.3   1 <1>  -0.4600 
  2 C       -2.3520    -0.8160     0.4130 C.3   1 <1>   0.1310 
  3 C        0.1420    -1.7450     1.4780 C.3   1 <1>  -0.0100 
  4 C       -2.5520    -1.9110    -0.6290 C.2   1 <1>   0.5690 
  5 O       -2.8120    -1.5940    -1.7640 O.2   1 <1>  -0.5700 
  6 N       -2.4460    -3.2120    -0.2620 N.am  1 <1>  -0.7300 
  7 C       -2.6060    -4.3860    -1.1490 C.3   1 <1>   0.2200 
  8 C       -3.7880    -5.2420    -0.7160 C.3   1 <1>  -0.0800 
  9 C       -1.4550    -5.3520    -0.9040 C.3   1 <1>   0.1200 
 10 C       -3.1890    -6.1250     0.3850 C.3   1 <1>   0.1200 
 11 C       -5.0550    -4.4750    -0.2930 C.3   1 <1>  -0.0160 
 12 O       -1.7980    -6.0470     0.2560 O.3   1 <1>  -0.5600 
 13 C       -6.1820    -5.4360     0.0490 C.ar  1 <1>  -0.1440 
 14 C       -6.9600    -6.0220    -0.9290 C.ar  1 <1>  -0.1500 
 15 C       -6.4870    -5.7730     1.3520 C.ar  1 <1>  -0.1500 
 16 C       -7.9710    -6.8960    -0.5680 C.ar  1 <1>   0.1600 
 17 C       -7.5200    -6.6600     1.6070 C.ar  1 <1>   0.1600 
 18 N       -8.2690    -7.2310     0.6770 N.ar  1 <1>  -0.6200 
 19 H       -3.3020    -0.3950     0.6850 H     1 <1>   0.0800 
 20 H       -1.7120    -0.0440     0.0270 H     1 <1>   0.0800 
 21 H        0.6580    -2.1280     2.3400 H     1 <1>   0.0800 
 22 H        0.5670    -0.8070     1.1660 H     1 <1>   0.0800 
 23 H        0.1560    -2.4620     0.6760 H     1 <1>   0.0800 
 24 H       -2.1930    -3.4320     0.7080 H     1 <1>   0.3700 
 25 H       -2.6690    -4.0800    -2.1800 H     1 <1>   0.0800 
 26 H       -4.0450    -5.8870    -1.5380 H     1 <1>   0.0800 
 27 H       -0.5130    -4.8520    -0.7650 H     1 <1>   0.0800 
 28 H       -1.3790    -6.0660    -1.7060 H     1 <1>   0.0800 
 29 H       -3.4950    -7.1520     0.2840 H     1 <1>   0.0800 
 30 H       -3.4430    -5.7650     1.3660 H     1 <1>   0.0800 
 31 H       -5.3660    -3.8300    -1.0970 H     1 <1>   0.0800 
 32 H       -4.8510    -3.8510     0.5590 H     1 <1>   0.0800 
 33 H       -6.7890    -5.8070    -1.9680 H     1 <1>   0.1500 
 34 H       -5.9320    -5.3570     2.1730 H     1 <1>   0.1500 
 35 H       -8.5670    -7.3440    -1.3440 H     1 <1>   0.1500 
 36 H       -7.7430    -6.9110     2.6290 H     1 <1>   0.1500 
@<TRIPOS>BOND
  1   1   2  1   
  2   1   3  1   
  3   2   4  1   
  4   2  19  1   
  5   2  20  1   
  6   3  21  1   
  7   3  22  1   
  8   3  23  1   
  9   4   5  2   
 10   4   6  am  
 11   6   7  1   
 12   6  24  1   
 13   7   8  1   
 14   7   9  1   
 15   7  25  1   
 16   8  10  1   
 17   8  11  1   
 18   8  26  1   
 19   9  12  1   
 20   9  27  1   
 21   9  28  1   
 22  10  12  1   
 23  10  29  1   
 24  10  30  1   
 25  11  13  1   
 26  11  31  1   
 27  11  32  1   
 28  13  14  ar  
 29  13  15  ar  
 30  14  16  ar  
 31  14  33  1   
 32  15  17  ar  
 33  15  34  1   
 34  16  18  ar  
 35  16  35  1   
 36  17  18  ar  
 37  17  36  1   
@<TRIPOS>SUBSTRUCTURE
  1 ****  11 GROUP 4 **** **** 0

# MOE 2024.06 (io_trps.svl 2023.06)
