@<TRIPOS>MOLECULE
NONAME
47 50 1 0 0 
SMALL
USER_CHARGES


@<TRIPOS>ATOM
  1 O        0.6170    -0.1030    -0.8830 O.2   1 <1>  -0.5700 
  2 C        1.5260    -0.6590    -0.2940 C.2   1 <1>   0.5440 
  3 N        2.7050     0.0340    -0.0950 N.am  1 <1>  -0.6600 
  4 C        1.3420    -2.0240     0.1630 C.ar  1 <1>   0.0860 
  5 C        4.0080    -0.6700     0.1280 C.3   1 <1>   0.1400 
  6 C        2.7040     1.5170    -0.2470 C.3   1 <1>   0.1400 
  7 C        0.7930    -2.9890    -0.6880 C.ar  1 <1>  -0.1500 
  8 C        1.6960    -2.4180     1.4620 C.ar  1 <1>  -0.1500 
  9 C        5.1490    -0.1480    -0.7550 C.3   1 <1>   0.1100 
 10 C        3.8130     2.2220     0.5390 C.3   1 <1>  -0.1600 
 11 C        0.6290    -4.2870    -0.2490 C.ar  1 <1>  -0.1430 
 12 C        1.5310    -3.7220     1.8980 C.ar  1 <1>  -0.1500 
 13 N        5.8770     0.9700    -0.1200 N.3   1 <1>  -0.8100 
 14 C        5.1570     2.2500    -0.1930 C.3   1 <1>   0.1100 
 15 C        0.9950    -4.6450     1.0210 C.ar  1 <1>   0.0830 
 16 C        0.0760    -5.4950    -0.9450 C.3   1 <1>  -0.0170 
 17 C        7.2500     1.0820    -0.6880 C.3   1 <1>   0.2900 
 18 O        0.7690    -5.9380     1.2850 O.3   1 <1>  -0.3630 
 19 C        0.1880    -6.5700     0.1530 C.3   1 <1>   0.1200 
 20 C        8.2070     1.9770     0.0990 C.2   1 <1>   0.2980 
 21 O        8.1810     3.2650    -0.0460 O.3   1 <1>  -0.2800 
 22 N        9.1210     1.6030     0.9140 N.2   1 <1>  -0.3380 
 23 C        9.1230     3.6790     0.7360 C.2   1 <1>   0.2980 
 24 N        9.7180     2.7200     1.3340 N.2   1 <1>  -0.3380 
 25 C        9.4080     5.1570     0.8590 C.3   1 <1>  -0.0600 
 26 H        3.8820    -1.7140    -0.0990 H     1 <1>   0.0800 
 27 H        4.2920    -0.5930     1.1630 H     1 <1>   0.0800 
 28 H        1.7560     1.8880     0.1050 H     1 <1>   0.0800 
 29 H        2.7740     1.7620    -1.2930 H     1 <1>   0.0800 
 30 H        0.4970    -2.7050    -1.6830 H     1 <1>   0.1500 
 31 H        2.1010    -1.6820     2.1340 H     1 <1>   0.1500 
 32 H        4.7790     0.1300    -1.7280 H     1 <1>   0.0800 
 33 H        5.8310    -0.9700    -0.8860 H     1 <1>   0.0800 
 34 H        3.9170     1.8090     1.5260 H     1 <1>   0.0800 
 35 H        3.5050     3.2450     0.6580 H     1 <1>   0.0800 
 36 H        1.8030    -4.0260     2.8920 H     1 <1>   0.1500 
 37 H        5.7520     3.0100     0.2810 H     1 <1>   0.0800 
 38 H        5.0140     2.5370    -1.2220 H     1 <1>   0.0800 
 39 H        0.6680    -5.7570    -1.8030 H     1 <1>   0.0800 
 40 H       -0.9480    -5.3450    -1.2360 H     1 <1>   0.0800 
 41 H        7.1960     1.4350    -1.7020 H     1 <1>   0.0800 
 42 H        7.6970     0.1030    -0.7050 H     1 <1>   0.0800 
 43 H        0.8290    -7.3790    -0.1470 H     1 <1>   0.0800 
 44 H       -0.7790    -6.9440     0.4390 H     1 <1>   0.0800 
 45 H        9.6770     5.5540    -0.1020 H     1 <1>   0.0800 
 46 H       10.2190     5.3160     1.5460 H     1 <1>   0.0800 
 47 H        8.5340     5.6640     1.2230 H     1 <1>   0.0800 
@<TRIPOS>BOND
  1   1   2  2   
  2   2   3  am  
  3   2   4  1   
  4   3   5  1   
  5   3   6  1   
  6   4   7  ar  
  7   4   8  ar  
  8   5   9  1   
  9   5  26  1   
 10   5  27  1   
 11   6  10  1   
 12   6  28  1   
 13   6  29  1   
 14   7  11  ar  
 15   7  30  1   
 16   8  12  ar  
 17   8  31  1   
 18   9  13  1   
 19   9  32  1   
 20   9  33  1   
 21  10  14  1   
 22  10  34  1   
 23  10  35  1   
 24  11  15  ar  
 25  11  16  1   
 26  12  15  ar  
 27  12  36  1   
 28  13  14  1   
 29  13  17  1   
 30  14  37  1   
 31  14  38  1   
 32  15  18  1   
 33  16  19  1   
 34  16  39  1   
 35  16  40  1   
 36  17  20  1   
 37  17  41  1   
 38  17  42  1   
 39  18  19  1   
 40  19  43  1   
 41  19  44  1   
 42  20  21  1   
 43  20  22  2   
 44  21  23  1   
 45  22  24  1   
 46  23  24  2   
 47  23  25  1   
 48  25  45  1   
 49  25  46  1   
 50  25  47  1   
@<TRIPOS>SUBSTRUCTURE
  1 ****   5 GROUP 4 **** **** 0

# MOE 2024.06 (io_trps.svl 2023.06)
