@<TRIPOS>MOLECULE
NONAME
45 48 1 0 0 
SMALL
USER_CHARGES


@<TRIPOS>ATOM
  1 S       -0.9420    -0.7360     0.6510 S.3   1 <1>  -0.0800 
  2 C       -1.5640    -0.8220    -0.9900 C.2   1 <1>  -0.1400 
  3 C       -1.0490     1.0140     0.6480 C.2   1 <1>  -0.1400 
  4 C       -1.8170     0.4130    -1.4650 C.2   1 <1>  -0.1500 
  5 C       -1.7240    -2.2020    -1.5870 C.3   1 <1>   0.5230 
  6 C       -1.5240     1.4560    -0.5300 C.2   1 <1>  -0.1500 
  7 C       -0.6100     1.7410     1.9030 C.3   1 <1>  -0.0600 
  8 N       -2.6590    -2.9700    -0.7270 N.4   1 <1>  -0.9590 
  9 C       -4.0280    -2.3400    -0.6920 C.3   1 <1>   0.3430 
 10 C       -2.7380    -4.4160    -1.1190 C.3   1 <1>   0.3430 
 11 C       -5.0140    -3.1460     0.1790 C.3   1 <1>   0.1900 
 12 C       -3.7500    -5.1930    -0.2520 C.3   1 <1>   0.1100 
 13 N       -5.0850    -4.5590    -0.2800 N.3   1 <1>  -0.8100 
 14 C       -6.4060    -2.4900     0.1450 C.3   1 <1>   0.1200 
 15 C       -6.1010    -5.3000     0.5160 C.3   1 <1>   0.2850 
 16 O       -7.2860    -3.2160     0.9450 O.3   1 <1>  -0.5600 
 17 C       -6.3200    -6.7030    -0.0680 C.3   1 <1>  -0.1950 
 18 C       -7.4490    -4.5430     0.5280 C.3   1 <1>   0.1200 
 19 C       -7.0150    -7.7590     0.7350 C.3   1 <1>  -0.2000 
 20 C       -5.5580    -7.9030     0.4100 C.3   1 <1>  -0.2000 
 21 H       -2.2000     0.6590    -2.4420 H     1 <1>   0.1500 
 22 H       -0.7620    -2.6870    -1.6200 H     1 <1>   0.0800 
 23 H       -2.1100    -2.1280    -2.5910 H     1 <1>   0.0800 
 24 H       -1.6810     2.4900    -0.7890 H     1 <1>   0.1500 
 25 H       -0.7180     2.8030     1.7740 H     1 <1>   0.0800 
 26 H        0.4220     1.5220     2.1120 H     1 <1>   0.0800 
 27 H       -1.2100     1.4310     2.7390 H     1 <1>   0.0800 
 28 H       -2.2810    -2.9090     0.2270 H     1 <1>   0.4500 
 29 H       -3.9590    -1.3360    -0.3040 H     1 <1>   0.0800 
 30 H       -4.4280    -2.2830    -1.6900 H     1 <1>   0.0800 
 31 H       -3.0490    -4.4980    -2.1470 H     1 <1>   0.0800 
 32 H       -1.7680    -4.8770    -1.0270 H     1 <1>   0.0800 
 33 H       -4.6690    -3.1160     1.1990 H     1 <1>   0.0800 
 34 H       -3.3920    -5.2600     0.7620 H     1 <1>   0.0800 
 35 H       -3.8150    -6.1920    -0.6460 H     1 <1>   0.0800 
 36 H       -6.7990    -2.4590    -0.8570 H     1 <1>   0.0800 
 37 H       -6.3660    -1.4890     0.5370 H     1 <1>   0.0800 
 38 H       -5.7660    -5.3920     1.5360 H     1 <1>   0.0800 
 39 H       -6.5820    -6.6610    -1.1120 H     1 <1>   0.1000 
 40 H       -8.1330    -5.0180     1.2090 H     1 <1>   0.0800 
 41 H       -7.8900    -4.5440    -0.4540 H     1 <1>   0.0800 
 42 H       -7.2910    -7.5600     1.7570 H     1 <1>   0.1000 
 43 H       -7.7190    -8.4080     0.2410 H     1 <1>   0.1000 
 44 H       -5.2660    -8.6540    -0.3040 H     1 <1>   0.1000 
 45 H       -4.8520    -7.8060     1.2170 H     1 <1>   0.1000 
@<TRIPOS>BOND
  1   1   2  1   
  2   1   3  1   
  3   2   4  2   
  4   2   5  1   
  5   3   6  2   
  6   3   7  1   
  7   4   6  1   
  8   4  21  1   
  9   5   8  1   
 10   5  22  1   
 11   5  23  1   
 12   6  24  1   
 13   7  25  1   
 14   7  26  1   
 15   7  27  1   
 16   8   9  1   
 17   8  10  1   
 18   8  28  1   
 19   9  11  1   
 20   9  29  1   
 21   9  30  1   
 22  10  12  1   
 23  10  31  1   
 24  10  32  1   
 25  11  13  1   
 26  11  14  1   
 27  11  33  1   
 28  12  13  1   
 29  12  34  1   
 30  12  35  1   
 31  13  15  1   
 32  14  16  1   
 33  14  36  1   
 34  14  37  1   
 35  15  17  1   
 36  15  18  1   
 37  15  38  1   
 38  16  18  1   
 39  17  19  1   
 40  17  20  1   
 41  17  39  1   
 42  18  40  1   
 43  18  41  1   
 44  19  20  1   
 45  19  42  1   
 46  19  43  1   
 47  20  44  1   
 48  20  45  1   
@<TRIPOS>SUBSTRUCTURE
  1 ****   9 GROUP 4 **** **** 0

# MOE 2024.06 (io_trps.svl 2023.06)
