@<TRIPOS>MOLECULE
NONAME
45 47 1 0 0 
SMALL
USER_CHARGES


@<TRIPOS>ATOM
  1 CL      -0.9860    -1.2100    -0.3090 Cl    1 <1>  -0.1770 
  2 C        0.6640    -1.7510    -0.0810 C.ar  1 <1>   0.1770 
  3 C        0.9710    -2.7380     0.8520 C.ar  1 <1>  -0.1440 
  4 C        1.6380    -1.1680    -0.8710 C.ar  1 <1>  -0.1500 
  5 C        2.2950    -3.1380     0.9780 C.ar  1 <1>  -0.1500 
  6 C       -0.0820    -3.3970     1.7460 C.3   1 <1>   0.0450 
  7 C        2.9520    -1.5720    -0.7330 C.ar  1 <1>   0.0830 
  8 C        3.2800    -2.5680     0.1880 C.ar  1 <1>   0.0830 
  9 C       -0.1200    -4.9160     1.6080 C.2   1 <1>   0.5690 
 10 O        3.9030    -0.9840    -1.5020 O.3   1 <1>  -0.3630 
 11 O        4.5590    -3.0010     0.3260 O.3   1 <1>  -0.3630 
 12 O        0.3600    -5.5510     2.5170 O.2   1 <1>  -0.5700 
 13 N       -0.6810    -5.5360     0.5160 N.am  1 <1>  -0.6600 
 14 C        5.2510    -1.1850    -1.1190 C.3   1 <1>   0.1200 
 15 C        5.4720    -2.6430    -0.6940 C.3   1 <1>   0.1200 
 16 C       -0.7320    -7.0230     0.4490 C.3   1 <1>   0.3200 
 17 C       -1.1900    -4.8240    -0.6940 C.3   1 <1>   0.1400 
 18 C       -2.1670    -7.4880     0.5970 C.2   1 <1>  -0.3320 
 19 C       -2.6510    -4.3860    -0.5300 C.3   1 <1>   0.1200 
 20 N       -2.9960    -7.8680    -0.3990 N.pl3 1 <1>   0.0480 
 21 C       -2.8690    -7.6080     1.7460 C.2   1 <1>   0.0770 
 22 O       -3.0600    -3.7600    -1.6980 O.3   1 <1>  -0.6800 
 23 C       -4.1520    -8.1870     0.2250 C.2   1 <1>   0.0360 
 24 C       -2.7480    -7.9150    -1.8520 C.3   1 <1>   0.0160 
 25 N       -4.1180    -8.0460     1.5100 N.2   1 <1>  -0.5650 
 26 H        1.3810    -0.4050    -1.5820 H     1 <1>   0.1500 
 27 H        2.5770    -3.8980     1.6870 H     1 <1>   0.1500 
 28 H       -1.0640    -3.0100     1.5710 H     1 <1>   0.0800 
 29 H        0.1580    -3.1630     2.7670 H     1 <1>   0.0800 
 30 H        5.4700    -0.5200    -0.3020 H     1 <1>   0.0800 
 31 H        5.8750    -0.9320    -1.9570 H     1 <1>   0.0800 
 32 H        5.3170    -3.3040    -1.5290 H     1 <1>   0.0800 
 33 H        6.4670    -2.7840    -0.3120 H     1 <1>   0.0800 
 34 H       -0.1460    -7.4580     1.2400 H     1 <1>   0.0800 
 35 H       -0.3090    -7.3610    -0.4800 H     1 <1>   0.0800 
 36 H       -1.1150    -5.4770    -1.5450 H     1 <1>   0.0800 
 37 H       -0.5760    -3.9690    -0.8950 H     1 <1>   0.0800 
 38 H       -2.7720    -3.6930     0.2840 H     1 <1>   0.0800 
 39 H       -3.2940    -5.2320    -0.3700 H     1 <1>   0.0800 
 40 H       -2.5290    -7.3920     2.7460 H     1 <1>   0.1500 
 41 H       -2.7010    -2.8500    -1.7470 H     1 <1>   0.4000 
 42 H       -5.0170    -8.5250    -0.3170 H     1 <1>   0.1500 
 43 H       -1.7630    -8.2990    -2.0390 H     1 <1>   0.0800 
 44 H       -2.8380    -6.9240    -2.2600 H     1 <1>   0.0800 
 45 H       -3.4730    -8.5570    -2.3180 H     1 <1>   0.0800 
@<TRIPOS>BOND
  1   1   2  1   
  2   2   3  ar  
  3   2   4  ar  
  4   3   5  ar  
  5   3   6  1   
  6   4   7  ar  
  7   4  26  1   
  8   5   8  ar  
  9   5  27  1   
 10   6   9  1   
 11   6  28  1   
 12   6  29  1   
 13   7   8  ar  
 14   7  10  1   
 15   8  11  1   
 16   9  12  2   
 17   9  13  am  
 18  10  14  1   
 19  11  15  1   
 20  13  16  1   
 21  13  17  1   
 22  14  15  1   
 23  14  30  1   
 24  14  31  1   
 25  15  32  1   
 26  15  33  1   
 27  16  18  1   
 28  16  34  1   
 29  16  35  1   
 30  17  19  1   
 31  17  36  1   
 32  17  37  1   
 33  18  20  1   
 34  18  21  2   
 35  19  22  1   
 36  19  38  1   
 37  19  39  1   
 38  20  23  1   
 39  20  24  1   
 40  21  25  1   
 41  21  40  1   
 42  22  41  1   
 43  23  25  2   
 44  23  42  1   
 45  24  43  1   
 46  24  44  1   
 47  24  45  1   
@<TRIPOS>SUBSTRUCTURE
  1 ****  13 GROUP 4 **** **** 0

# MOE 2024.06 (io_trps.svl 2023.06)
