@<TRIPOS>MOLECULE
NONAME
53 54 1 0 0 
SMALL
USER_CHARGES


@<TRIPOS>ATOM
  1 S        1.9890     1.0250     0.8430 S.o2  1 <1>   1.3330 
  2 O        0.8500     0.2490     0.4060 O.2   1 <1>  -0.6500 
  3 O        1.9960     1.5960     2.1710 O.2   1 <1>  -0.6500 
  4 N        3.3630     0.0340     0.7150 N.am  1 <1>  -0.8490 
  5 C        2.2620     2.3280    -0.3570 C.3   1 <1>  -0.0550 
  6 C        3.1260    -1.2960     1.2810 C.3   1 <1>   0.1160 
  7 C        4.5600     0.6260     1.3220 C.3   1 <1>   0.1160 
  8 C        2.2890     1.8680    -1.8320 C.3   1 <1>  -0.0800 
  9 C        2.3290     3.0080    -2.8430 C.3   1 <1>   0.2200 
 10 C        3.5130     1.0260    -2.2180 C.3   1 <1>   0.1200 
 11 N        3.2290     4.0780    -2.3620 N.am  1 <1>  -0.7300 
 12 C        2.9720     2.3140    -4.0350 C.3   1 <1>   0.1200 
 13 O        3.9200     1.4530    -3.4850 O.3   1 <1>  -0.5600 
 14 C        2.8360     5.2710    -1.8540 C.2   1 <1>   0.5690 
 15 O        1.6900     5.6450    -1.9220 O.2   1 <1>  -0.5700 
 16 C        3.8640     6.1290    -1.1390 C.3   1 <1>   0.0440 
 17 C        4.7300     5.2840    -0.1920 C.ar  1 <1>  -0.1440 
 18 C        4.2520     4.9560     1.0780 C.ar  1 <1>  -0.1440 
 19 C        5.9870     4.8220    -0.5880 C.ar  1 <1>  -0.1440 
 20 C        5.0290     4.1910     1.9320 C.ar  1 <1>  -0.1500 
 21 C        2.8860     5.4090     1.5860 C.3   1 <1>  -0.0970 
 22 C        6.7440     4.0580     0.2850 C.ar  1 <1>  -0.1500 
 23 C        6.5870     5.1320    -1.9560 C.3   1 <1>  -0.0970 
 24 C        6.2760     3.7400     1.5450 C.ar  1 <1>  -0.1440 
 25 C        7.1310     2.9170     2.4910 C.3   1 <1>  -0.0970 
 26 H        1.4750     3.0480    -0.2500 H     1 <1>   0.0800 
 27 H        3.1810     2.8240    -0.1210 H     1 <1>   0.0800 
 28 H        4.0020    -1.9110     1.1680 H     1 <1>   0.0800 
 29 H        2.3100    -1.7760     0.7660 H     1 <1>   0.0800 
 30 H        2.8770    -1.2190     2.3260 H     1 <1>   0.0800 
 31 H        5.4080    -0.0190     1.1730 H     1 <1>   0.0800 
 32 H        4.4150     0.7780     2.3790 H     1 <1>   0.0800 
 33 H        4.7770     1.5740     0.8630 H     1 <1>   0.0800 
 34 H        1.4090     1.2790    -2.0270 H     1 <1>   0.0800 
 35 H        1.3530     3.4020    -3.0730 H     1 <1>   0.0800 
 36 H        3.2780    -0.0240    -2.2590 H     1 <1>   0.0800 
 37 H        4.3380     1.1870    -1.5470 H     1 <1>   0.0800 
 38 H        4.1940     3.7710    -2.2080 H     1 <1>   0.3700 
 39 H        3.4500     3.0020    -4.7090 H     1 <1>   0.0800 
 40 H        2.2500     1.7170    -4.5650 H     1 <1>   0.0800 
 41 H        4.4560     6.6340    -1.8760 H     1 <1>   0.0800 
 42 H        3.3550     6.8960    -0.5880 H     1 <1>   0.0800 
 43 H        4.6610     3.9470     2.9130 H     1 <1>   0.1500 
 44 H        2.6160     4.8840     2.4850 H     1 <1>   0.0800 
 45 H        2.1200     5.2190     0.8580 H     1 <1>   0.0800 
 46 H        2.9080     6.4610     1.8040 H     1 <1>   0.0800 
 47 H        7.7170     3.7080    -0.0130 H     1 <1>   0.1500 
 48 H        7.4950     4.5800    -2.1140 H     1 <1>   0.0800 
 49 H        6.8190     6.1800    -2.0230 H     1 <1>   0.0800 
 50 H        5.9050     4.8710    -2.7440 H     1 <1>   0.0800 
 51 H        6.5310     2.4910     3.2760 H     1 <1>   0.0800 
 52 H        7.8830     3.5430     2.9350 H     1 <1>   0.0800 
 53 H        7.6150     2.1180     1.9580 H     1 <1>   0.0800 
@<TRIPOS>BOND
  1   1   2  2   
  2   1   3  2   
  3   1   4  am  
  4   1   5  1   
  5   4   6  1   
  6   4   7  1   
  7   5   8  1   
  8   5  26  1   
  9   5  27  1   
 10   6  28  1   
 11   6  29  1   
 12   6  30  1   
 13   7  31  1   
 14   7  32  1   
 15   7  33  1   
 16   8   9  1   
 17   8  10  1   
 18   8  34  1   
 19   9  11  1   
 20   9  12  1   
 21   9  35  1   
 22  10  13  1   
 23  10  36  1   
 24  10  37  1   
 25  11  14  am  
 26  11  38  1   
 27  12  13  1   
 28  12  39  1   
 29  12  40  1   
 30  14  15  2   
 31  14  16  1   
 32  16  17  1   
 33  16  41  1   
 34  16  42  1   
 35  17  18  ar  
 36  17  19  ar  
 37  18  20  ar  
 38  18  21  1   
 39  19  22  ar  
 40  19  23  1   
 41  20  24  ar  
 42  20  43  1   
 43  21  44  1   
 44  21  45  1   
 45  21  46  1   
 46  22  24  ar  
 47  22  47  1   
 48  23  48  1   
 49  23  49  1   
 50  23  50  1   
 51  24  25  1   
 52  25  51  1   
 53  25  52  1   
 54  25  53  1   
@<TRIPOS>SUBSTRUCTURE
  1 ****   5 GROUP 4 **** **** 0

# MOE 2024.06 (io_trps.svl 2023.06)
