@<TRIPOS>MOLECULE
NONAME
52 55 1 0 0 
SMALL
USER_CHARGES


@<TRIPOS>ATOM
  1 O        1.3050     1.0080     1.3690 O.3   1 <1>  -0.0190 
  2 N        2.4000     0.4520     1.8030 N.2   1 <1>  -0.4100 
  3 C        1.5430     2.1180     0.7220 C.2   1 <1>  -0.0400 
  4 C        3.3610     1.2170     1.4260 C.2   1 <1>   0.1080 
  5 C        2.8730     2.3110     0.7200 C.2   1 <1>  -0.1500 
  6 C        0.3770     2.9010     0.1430 C.3   1 <1>   0.0200 
  7 C        4.8220     0.9560     1.7140 C.3   1 <1>  -0.0590 
  8 C        0.8060     4.2800    -0.3880 C.3   1 <1>  -0.0800 
  9 C       -0.2690     5.0590    -1.1410 C.3   1 <1>   0.2000 
 10 C        1.2310     5.2490     0.7120 C.3   1 <1>   0.2090 
 11 O       -1.4900     4.9050    -0.4690 O.3   1 <1>  -0.5600 
 12 C        0.2170     6.5170    -1.0540 C.3   1 <1>   0.2090 
 13 N        1.1840     6.5910     0.0810 N.pl3 1 <1>  -0.8380 
 14 C       -2.6220     5.2180    -1.2180 C.3   1 <1>   0.0400 
 15 C        2.4060     7.1770    -0.1800 C.ar  1 <1>   0.4100 
 16 N        3.2470     6.5500    -1.0130 N.ar  1 <1>  -0.3100 
 17 C        2.7330     8.3770     0.4180 C.ar  1 <1>  -0.1500 
 18 N        4.4230     7.0640    -1.2750 N.ar  1 <1>  -0.3100 
 19 C        3.9630     8.9150     0.1400 C.ar  1 <1>  -0.1500 
 20 C        4.8060     8.2230    -0.7180 C.ar  1 <1>   0.3100 
 21 C        6.1110     8.7450    -1.0600 C.ar  1 <1>   0.0000 
 22 C        7.0560     9.1080    -0.0900 C.ar  1 <1>   0.0820 
 23 C        6.4610     8.8980    -2.4020 C.ar  1 <1>  -0.1500 
 24 O        6.7190     8.9370     1.2160 O.3   1 <1>  -0.3630 
 25 C        8.2940     9.6180    -0.4730 C.ar  1 <1>  -0.1500 
 26 C        7.6910     9.4010    -2.7770 C.ar  1 <1>  -0.1500 
 27 C        7.6360     9.1500     2.2660 C.3   1 <1>   0.0400 
 28 C        8.6100     9.7640    -1.8110 C.ar  1 <1>  -0.1500 
 29 H        3.4620     3.1010     0.2900 H     1 <1>   0.1500 
 30 H       -0.0580     2.3270    -0.6550 H     1 <1>   0.0800 
 31 H       -0.3730     3.0220     0.9060 H     1 <1>   0.0800 
 32 H        5.3540     0.8120     0.7920 H     1 <1>   0.0800 
 33 H        4.9260     0.0740     2.3190 H     1 <1>   0.0800 
 34 H        5.2440     1.7920     2.2400 H     1 <1>   0.0800 
 35 H        1.6400     4.1510    -1.0550 H     1 <1>   0.0800 
 36 H       -0.3740     4.7180    -2.1560 H     1 <1>   0.0800 
 37 H        2.2160     5.0250     1.0860 H     1 <1>   0.0800 
 38 H        0.5280     5.2250     1.5280 H     1 <1>   0.0800 
 39 H       -0.6010     7.1940    -0.8890 H     1 <1>   0.0800 
 40 H        0.7160     6.7840    -1.9700 H     1 <1>   0.0800 
 41 H       -3.4850     5.0670    -0.5940 H     1 <1>   0.0800 
 42 H       -2.6760     4.5640    -2.0710 H     1 <1>   0.0800 
 43 H       -2.5790     6.2470    -1.5290 H     1 <1>   0.0800 
 44 H        2.0320     8.8520     1.0770 H     1 <1>   0.1500 
 45 H        4.2780     9.8450     0.5740 H     1 <1>   0.1500 
 46 H        5.7520     8.6140    -3.1610 H     1 <1>   0.1500 
 47 H        9.0280     9.9070     0.2540 H     1 <1>   0.1500 
 48 H        7.9350     9.5090    -3.8200 H     1 <1>   0.1500 
 49 H        7.1490     8.8980     3.1910 H     1 <1>   0.0800 
 50 H        7.9230    10.1870     2.2750 H     1 <1>   0.0800 
 51 H        8.4900     8.5130     2.1190 H     1 <1>   0.0800 
 52 H        9.5690    10.1580    -2.1010 H     1 <1>   0.1500 
@<TRIPOS>BOND
  1   1   2  1   
  2   1   3  1   
  3   2   4  2   
  4   3   5  2   
  5   3   6  1   
  6   4   5  1   
  7   4   7  1   
  8   5  29  1   
  9   6   8  1   
 10   6  30  1   
 11   6  31  1   
 12   7  32  1   
 13   7  33  1   
 14   7  34  1   
 15   8   9  1   
 16   8  10  1   
 17   8  35  1   
 18   9  11  1   
 19   9  12  1   
 20   9  36  1   
 21  10  13  1   
 22  10  37  1   
 23  10  38  1   
 24  11  14  1   
 25  12  13  1   
 26  12  39  1   
 27  12  40  1   
 28  13  15  1   
 29  14  41  1   
 30  14  42  1   
 31  14  43  1   
 32  15  16  ar  
 33  15  17  ar  
 34  16  18  ar  
 35  17  19  ar  
 36  17  44  1   
 37  18  20  ar  
 38  19  20  ar  
 39  19  45  1   
 40  20  21  1   
 41  21  22  ar  
 42  21  23  ar  
 43  22  24  1   
 44  22  25  ar  
 45  23  26  ar  
 46  23  46  1   
 47  24  27  1   
 48  25  28  ar  
 49  25  47  1   
 50  26  28  ar  
 51  26  48  1   
 52  27  49  1   
 53  27  50  1   
 54  27  51  1   
 55  28  52  1   
@<TRIPOS>SUBSTRUCTURE
  1 ****  16 GROUP 4 **** **** 0

# MOE 2024.06 (io_trps.svl 2023.06)
