@<TRIPOS>MOLECULE
NONAME
54 58 1 0 0 
SMALL
USER_CHARGES


@<TRIPOS>ATOM
  1 O        2.3510    -0.3360    -0.8670 O.3   1 <1>  -0.5600 
  2 C        2.8920    -1.1600     0.1500 C.3   1 <1>   0.4600 
  3 C        0.9780    -0.0160    -0.7990 C.3   1 <1>   0.1200 
  4 C        1.8940    -2.2500     0.5160 C.2   1 <1>  -0.3320 
  5 C        3.2530    -0.2800     1.3490 C.3   1 <1>  -0.1600 
  6 C        4.1730    -1.7640    -0.4390 C.3   1 <1>  -0.1600 
  7 C        0.1080    -1.2750    -0.9320 C.3   1 <1>   0.0210 
  8 N        2.0900    -3.3050     1.3690 N.pl3 1 <1>   0.0330 
  9 C        0.6400    -2.3110     0.0250 C.2   1 <1>  -0.1810 
 10 C        4.2060     0.8600     0.9690 C.3   1 <1>   0.3430 
 11 C        5.3440    -0.7770    -0.5080 C.3   1 <1>   0.3430 
 12 C        0.9350    -4.0450     1.4030 C.ar  1 <1>  -0.1520 
 13 C        0.0010    -3.4470     0.5630 C.ar  1 <1>   0.0000 
 14 N        4.8520     0.6160    -0.3600 N.4   1 <1>  -0.9590 
 15 C        0.6200    -5.2090     2.1090 C.ar  1 <1>  -0.1500 
 16 C       -1.2680    -4.0160     0.4200 C.ar  1 <1>  -0.1500 
 17 C        5.8720     1.6600    -0.7120 C.3   1 <1>   0.4860 
 18 C       -0.6320    -5.7590     1.9600 C.ar  1 <1>  -0.1500 
 19 C       -1.5760    -5.1620     1.1150 C.ar  1 <1>  -0.1500 
 20 C        5.2630     3.0590    -0.7780 C.ar  1 <1>   0.1670 
 21 N        5.0380     3.6850     0.3600 N.ar  1 <1>  -0.6200 
 22 C        4.9570     3.6390    -1.9890 C.ar  1 <1>  -0.1500 
 23 C        4.5040     4.8950     0.2630 C.ar  1 <1>   0.4770 
 24 C        4.4040     4.8970    -1.9690 C.ar  1 <1>   0.1600 
 25 N        4.1700     5.5330    -0.8450 N.ar  1 <1>  -0.6200 
 26 C        4.2380     5.6270     1.5700 C.3   1 <1>  -0.0170 
 27 C        2.9000     5.2170     2.2030 C.3   1 <1>  -0.2400 
 28 H        0.7560     0.6710    -1.5970 H     1 <1>   0.0800 
 29 H        0.7830     0.4710     0.1400 H     1 <1>   0.0800 
 30 H        3.7250    -0.8870     2.0990 H     1 <1>   0.0800 
 31 H        2.3630     0.1220     1.7980 H     1 <1>   0.0800 
 32 H        3.9550    -2.1500    -1.4190 H     1 <1>   0.0800 
 33 H        4.4880    -2.6010     0.1560 H     1 <1>   0.0800 
 34 H        0.1460    -1.6510    -1.9380 H     1 <1>   0.0800 
 35 H       -0.9130    -1.0380    -0.6920 H     1 <1>   0.0800 
 36 H        2.9320    -3.5390     1.9020 H     1 <1>   0.2700 
 37 H        4.9560     0.9790     1.7350 H     1 <1>   0.0800 
 38 H        3.6400     1.7770     0.9190 H     1 <1>   0.0800 
 39 H        5.8520    -0.8970    -1.4520 H     1 <1>   0.0800 
 40 H        6.0440    -0.9930     0.2830 H     1 <1>   0.0800 
 41 H        4.0600     0.6960    -1.0280 H     1 <1>   0.4500 
 42 H        1.3490    -5.6640     2.7550 H     1 <1>   0.1500 
 43 H       -1.9830    -3.5500    -0.2320 H     1 <1>   0.1500 
 44 H        6.3100     1.4290    -1.6680 H     1 <1>   0.0800 
 45 H        6.6580     1.6640     0.0250 H     1 <1>   0.0800 
 46 H       -0.8990    -6.6550     2.4930 H     1 <1>   0.1500 
 47 H       -2.5480    -5.6130     1.0160 H     1 <1>   0.1500 
 48 H        5.1370     3.1450    -2.9260 H     1 <1>   0.1500 
 49 H        4.1470     5.3940    -2.8910 H     1 <1>   0.1500 
 50 H        4.2350     6.6860     1.3830 H     1 <1>   0.0800 
 51 H        5.0400     5.4200     2.2550 H     1 <1>   0.0800 
 52 H        2.0920     5.4370     1.5270 H     1 <1>   0.0800 
 53 H        2.7430     5.7620     3.1170 H     1 <1>   0.0800 
 54 H        2.8960     4.1650     2.4200 H     1 <1>   0.0800 
@<TRIPOS>BOND
  1   1   2  1   
  2   1   3  1   
  3   2   4  1   
  4   2   5  1   
  5   2   6  1   
  6   3   7  1   
  7   3  28  1   
  8   3  29  1   
  9   4   8  1   
 10   4   9  2   
 11   5  10  1   
 12   5  30  1   
 13   5  31  1   
 14   6  11  1   
 15   6  32  1   
 16   6  33  1   
 17   7   9  1   
 18   7  34  1   
 19   7  35  1   
 20   8  12  1   
 21   8  36  1   
 22   9  13  1   
 23  10  14  1   
 24  10  37  1   
 25  10  38  1   
 26  11  14  1   
 27  11  39  1   
 28  11  40  1   
 29  12  13  ar  
 30  12  15  ar  
 31  13  16  ar  
 32  14  17  1   
 33  14  41  1   
 34  15  18  ar  
 35  15  42  1   
 36  16  19  ar  
 37  16  43  1   
 38  17  20  1   
 39  17  44  1   
 40  17  45  1   
 41  18  19  ar  
 42  18  46  1   
 43  19  47  1   
 44  20  21  ar  
 45  20  22  ar  
 46  21  23  ar  
 47  22  24  ar  
 48  22  48  1   
 49  23  25  ar  
 50  23  26  1   
 51  24  25  ar  
 52  24  49  1   
 53  26  27  1   
 54  26  50  1   
 55  26  51  1   
 56  27  52  1   
 57  27  53  1   
 58  27  54  1   
@<TRIPOS>SUBSTRUCTURE
  1 ****   2 GROUP 4 **** **** 0

# MOE 2024.06 (io_trps.svl 2023.06)
