@<TRIPOS>MOLECULE
NONAME
52 54 1 0 0 
SMALL
USER_CHARGES


@<TRIPOS>ATOM
  1 O       -2.0130     0.9850     1.6710 O.2   1 <1>  -0.5700 
  2 C       -2.5130     1.0650     0.5670 C.2   1 <1>   0.5690 
  3 N       -3.2130    -0.0340     0.1030 N.am  1 <1>  -0.6600 
  4 C       -2.3440     2.4180    -0.2420 C.3   1 <1>   0.3310 
  5 C       -4.2350    -0.1060    -0.9750 C.3   1 <1>   0.1400 
  6 C       -3.2430    -1.3020     0.8900 C.3   1 <1>   0.1400 
  7 N       -1.1120     3.1820     0.1730 N.3   1 <1>  -0.8100 
  8 C       -3.5690     3.2950     0.0730 C.3   1 <1>  -0.2400 
  9 C       -2.2630     2.1990    -1.7700 C.3   1 <1>  -0.2400 
 10 C       -5.1550    -1.2550    -0.5700 C.3   1 <1>   0.2000 
 11 C       -4.2400    -2.2240     0.1760 C.3   1 <1>  -0.0800 
 12 C        0.1570     2.4350    -0.0040 C.3   1 <1>   0.1100 
 13 C       -0.9340     4.5870    -0.2720 C.3   1 <1>   0.1100 
 14 O       -6.0900    -0.7610     0.3250 O.3   1 <1>  -0.6800 
 15 C       -3.5300    -3.1790    -0.8020 C.3   1 <1>   0.0210 
 16 C        1.3280     3.1640     0.6750 C.3   1 <1>   0.1200 
 17 C        0.2860     5.2320     0.4110 C.3   1 <1>   0.1200 
 18 C       -2.6620    -4.1840    -0.0700 C.2   1 <1>   0.1080 
 19 O        1.4380     4.4710     0.1880 O.3   1 <1>  -0.5600 
 20 N       -3.1570    -5.1590     0.6260 N.2   1 <1>  -0.7070 
 21 C       -1.2710    -4.1800    -0.0550 C.2   1 <1>  -0.1500 
 22 N       -2.0830    -5.8120     1.1090 N.pl3 1 <1>   0.3000 
 23 C       -0.9290    -5.2370     0.7110 C.2   1 <1>  -0.3320 
 24 C        0.4510    -5.7410     1.0930 C.3   1 <1>  -0.0600 
 25 H       -4.7920     0.8070    -1.0780 H     1 <1>   0.0800 
 26 H       -3.7480    -0.3430    -1.9040 H     1 <1>   0.0800 
 27 H       -2.2570    -1.7290     0.9560 H     1 <1>   0.0800 
 28 H       -3.5890    -1.0890     1.8870 H     1 <1>   0.0800 
 29 H       -4.4750     2.7340    -0.0470 H     1 <1>   0.0800 
 30 H       -3.6260     4.1450    -0.5800 H     1 <1>   0.0800 
 31 H       -3.5200     3.6250     1.0950 H     1 <1>   0.0800 
 32 H       -3.2230     1.9580    -2.1800 H     1 <1>   0.0800 
 33 H       -1.5870     1.3940    -1.9940 H     1 <1>   0.0800 
 34 H       -1.9330     3.0820    -2.2800 H     1 <1>   0.0800 
 35 H       -5.6810    -1.6970    -1.3990 H     1 <1>   0.0800 
 36 H       -4.7940    -2.8180     0.8830 H     1 <1>   0.0800 
 37 H        0.0790     1.4540     0.4280 H     1 <1>   0.0800 
 38 H        0.3810     2.3250    -1.0500 H     1 <1>   0.0800 
 39 H       -0.7920     4.6340    -1.3360 H     1 <1>   0.0800 
 40 H       -1.7950     5.1750    -0.0150 H     1 <1>   0.0800 
 41 H       -5.6200    -0.3270     1.0660 H     1 <1>   0.4000 
 42 H       -2.9220    -2.6290    -1.4970 H     1 <1>   0.0800 
 43 H       -4.2650    -3.7280    -1.3640 H     1 <1>   0.0800 
 44 H        2.2530     2.6570     0.4700 H     1 <1>   0.0800 
 45 H        1.1780     3.2010     1.7400 H     1 <1>   0.0800 
 46 H        0.1240     5.3090     1.4720 H     1 <1>   0.0800 
 47 H        0.4600     6.2150     0.0130 H     1 <1>   0.0800 
 48 H       -0.6320    -3.4730    -0.5530 H     1 <1>   0.1500 
 49 H       -2.1730    -6.6440     1.7050 H     1 <1>   0.2700 
 50 H        1.2070    -5.1120     0.6590 H     1 <1>   0.0800 
 51 H        0.5930    -6.7450     0.7350 H     1 <1>   0.0800 
 52 H        0.5680    -5.7300     2.1620 H     1 <1>   0.0800 
@<TRIPOS>BOND
  1   1   2  2   
  2   2   3  am  
  3   2   4  1   
  4   3   5  1   
  5   3   6  1   
  6   4   7  1   
  7   4   8  1   
  8   4   9  1   
  9   5  10  1   
 10   5  25  1   
 11   5  26  1   
 12   6  11  1   
 13   6  27  1   
 14   6  28  1   
 15   7  12  1   
 16   7  13  1   
 17   8  29  1   
 18   8  30  1   
 19   8  31  1   
 20   9  32  1   
 21   9  33  1   
 22   9  34  1   
 23  10  11  1   
 24  10  14  1   
 25  10  35  1   
 26  11  15  1   
 27  11  36  1   
 28  12  16  1   
 29  12  37  1   
 30  12  38  1   
 31  13  17  1   
 32  13  39  1   
 33  13  40  1   
 34  14  41  1   
 35  15  18  1   
 36  15  42  1   
 37  15  43  1   
 38  16  19  1   
 39  16  44  1   
 40  16  45  1   
 41  17  19  1   
 42  17  46  1   
 43  17  47  1   
 44  18  20  2   
 45  18  21  1   
 46  20  22  1   
 47  21  23  2   
 48  21  48  1   
 49  22  23  1   
 50  22  49  1   
 51  23  24  1   
 52  24  50  1   
 53  24  51  1   
 54  24  52  1   
@<TRIPOS>SUBSTRUCTURE
  1 ****   3 GROUP 4 **** **** 0

# MOE 2024.06 (io_trps.svl 2023.06)
