@<TRIPOS>MOLECULE
NONAME
45 46 1 0 0 
SMALL
USER_CHARGES


@<TRIPOS>ATOM
  1 S        0.2610     0.2820    -0.5530 S.o2  1 <1>   1.3330 
  2 O        0.1610    -0.0660     0.8470 O.2   1 <1>  -0.6500 
  3 O        0.1350    -0.7540    -1.5530 O.2   1 <1>  -0.6500 
  4 N       -0.9050     1.4730    -0.8730 N.am  1 <1>  -0.8490 
  5 C        1.8130     1.1300    -0.8310 C.3   1 <1>  -0.0550 
  6 C       -2.1970     0.8920    -1.2480 C.3   1 <1>   0.1160 
  7 C       -1.0850     2.4260     0.2260 C.3   1 <1>   0.1160 
  8 C        3.0330     0.1890    -0.7820 C.3   1 <1>  -0.0800 
  9 C        4.3720     0.8540    -1.0590 C.3   1 <1>   0.2200 
 10 C        3.2690    -0.4980     0.5700 C.3   1 <1>   0.1200 
 11 N        4.4830     2.1410    -0.3310 N.am  1 <1>  -0.7300 
 12 C        5.3130    -0.1500    -0.4090 C.3   1 <1>   0.1200 
 13 O        4.6560    -0.5520     0.7550 O.3   1 <1>  -0.5600 
 14 C        4.2790     3.3790    -0.8690 C.2   1 <1>   0.5440 
 15 O        3.9120     3.4380    -2.0260 O.2   1 <1>  -0.5700 
 16 C        4.4780     4.5830    -0.0780 C.ar  1 <1>   0.0860 
 17 C        4.6960     5.8140    -0.6950 C.ar  1 <1>  -0.1500 
 18 C        4.4570     4.5660     1.3200 C.ar  1 <1>  -0.1500 
 19 C        4.8950     6.9740     0.0320 C.ar  1 <1>   0.0820 
 20 C        4.6550     5.7180     2.0600 C.ar  1 <1>  -0.1500 
 21 O        5.1010     8.1110    -0.6770 O.3   1 <1>  -0.3620 
 22 C        4.8760     6.9240     1.4220 C.ar  1 <1>  -0.1500 
 23 C        5.3110     9.3510    -0.0380 C.3   1 <1>   0.0400 
 24 H        1.7850     1.5980    -1.7960 H     1 <1>   0.0800 
 25 H        1.9220     1.9040    -0.0990 H     1 <1>   0.0800 
 26 H       -2.9070     1.6710    -1.4670 H     1 <1>   0.0800 
 27 H       -2.5770     0.2770    -0.4500 H     1 <1>   0.0800 
 28 H       -2.0840     0.2830    -2.1300 H     1 <1>   0.0800 
 29 H       -1.7760     3.1990    -0.0650 H     1 <1>   0.0800 
 30 H       -0.1460     2.8900     0.4730 H     1 <1>   0.0800 
 31 H       -1.4660     1.9260     1.1020 H     1 <1>   0.0800 
 32 H        2.8890    -0.5850    -1.5170 H     1 <1>   0.0800 
 33 H        4.5690     0.9880    -2.1100 H     1 <1>   0.0800 
 34 H        2.8740    -1.5000     0.5850 H     1 <1>   0.0800 
 35 H        2.8540     0.0680     1.3860 H     1 <1>   0.0800 
 36 H        4.8020     2.0370     0.6340 H     1 <1>   0.3700 
 37 H        6.2720     0.2710    -0.1620 H     1 <1>   0.0800 
 38 H        5.4410    -1.0160    -1.0340 H     1 <1>   0.0800 
 39 H        4.7120     5.8700    -1.7690 H     1 <1>   0.1500 
 40 H        4.2780     3.6440     1.8420 H     1 <1>   0.1500 
 41 H        4.6360     5.6780     3.1360 H     1 <1>   0.1500 
 42 H        5.0280     7.8050     2.0160 H     1 <1>   0.1500 
 43 H        5.4480    10.0990    -0.7990 H     1 <1>   0.0800 
 44 H        6.1950     9.2850     0.5720 H     1 <1>   0.0800 
 45 H        4.4470     9.5880     0.5560 H     1 <1>   0.0800 
@<TRIPOS>BOND
  1   1   2  2   
  2   1   3  2   
  3   1   4  am  
  4   1   5  1   
  5   4   6  1   
  6   4   7  1   
  7   5   8  1   
  8   5  24  1   
  9   5  25  1   
 10   6  26  1   
 11   6  27  1   
 12   6  28  1   
 13   7  29  1   
 14   7  30  1   
 15   7  31  1   
 16   8   9  1   
 17   8  10  1   
 18   8  32  1   
 19   9  11  1   
 20   9  12  1   
 21   9  33  1   
 22  10  13  1   
 23  10  34  1   
 24  10  35  1   
 25  11  14  am  
 26  11  36  1   
 27  12  13  1   
 28  12  37  1   
 29  12  38  1   
 30  14  15  2   
 31  14  16  1   
 32  16  17  ar  
 33  16  18  ar  
 34  17  19  ar  
 35  17  39  1   
 36  18  20  ar  
 37  18  40  1   
 38  19  21  1   
 39  19  22  ar  
 40  20  22  ar  
 41  20  41  1   
 42  21  23  1   
 43  22  42  1   
 44  23  43  1   
 45  23  44  1   
 46  23  45  1   
@<TRIPOS>SUBSTRUCTURE
  1 ****  14 GROUP 4 **** **** 0

# MOE 2024.06 (io_trps.svl 2023.06)
