@<TRIPOS>MOLECULE
NONAME
43 45 1 0 0 
SMALL
USER_CHARGES


@<TRIPOS>ATOM
  1 O        0.0490    -0.6280     0.4950 O.3   1 <1>  -0.3630 
  2 C       -0.0070    -1.9670     0.5450 C.ar  1 <1>   0.7020 
  3 C        0.8730     0.0600    -0.4260 C.3   1 <1>   0.0400 
  4 N        0.7210    -2.6660    -0.3260 N.ar  1 <1>  -0.6200 
  5 N       -0.8070    -2.4560     1.4830 N.ar  1 <1>  -0.6200 
  6 C        0.6270    -3.9690    -0.2330 C.ar  1 <1>   0.1600 
  7 C       -0.8800    -3.7600     1.5540 C.ar  1 <1>   0.1600 
  8 C       -0.1850    -4.5810     0.6950 C.ar  1 <1>  -0.1430 
  9 C       -0.3120    -6.0860     0.7730 C.3   1 <1>   0.4870 
 10 N       -1.2030    -6.5680    -0.3230 N.4   1 <1>  -0.9590 
 11 C       -2.5920    -5.9950    -0.2660 C.3   1 <1>   0.3430 
 12 C       -1.3290    -8.0620    -0.3370 C.3   1 <1>   0.3430 
 13 C       -3.5430    -7.1610    -0.5400 C.3   1 <1>   0.2000 
 14 C       -2.7940    -8.3940    -0.0540 C.3   1 <1>  -0.0800 
 15 O       -4.7400    -7.0190     0.1410 O.3   1 <1>  -0.6800 
 16 C       -3.2690    -9.6930    -0.7320 C.3   1 <1>  -0.0170 
 17 C       -2.5070   -10.9090    -0.2250 C.ar  1 <1>   0.1670 
 18 N       -1.2120   -10.9520    -0.5080 N.ar  1 <1>  -0.6200 
 19 C       -3.1790   -11.8930     0.4850 C.ar  1 <1>  -0.1500 
 20 C       -0.5680   -12.0290    -0.0800 C.ar  1 <1>   0.1600 
 21 C       -2.4930   -13.0000     0.9340 C.ar  1 <1>  -0.1500 
 22 C       -1.1500   -13.0610     0.6350 C.ar  1 <1>  -0.1500 
 23 H        0.7470     1.1160    -0.2650 H     1 <1>   0.0800 
 24 H        0.5720    -0.1990    -1.4260 H     1 <1>   0.0800 
 25 H        1.8970    -0.2190    -0.2540 H     1 <1>   0.0800 
 26 H        1.2170    -4.5500    -0.9220 H     1 <1>   0.1500 
 27 H       -1.5170    -4.1690     2.3210 H     1 <1>   0.1500 
 28 H       -0.7190    -6.3680     1.7310 H     1 <1>   0.0800 
 29 H        0.6650    -6.5330     0.6780 H     1 <1>   0.0800 
 30 H       -0.7840    -6.2830    -1.2190 H     1 <1>   0.4500 
 31 H       -2.7930    -5.6060     0.7180 H     1 <1>   0.0800 
 32 H       -2.7230    -5.2120    -0.9950 H     1 <1>   0.0800 
 33 H       -1.0640    -8.4400    -1.3130 H     1 <1>   0.0800 
 34 H       -0.6860    -8.5330     0.3900 H     1 <1>   0.0800 
 35 H       -3.7600    -7.2130    -1.5940 H     1 <1>   0.0800 
 36 H       -2.9020    -8.4940     1.0120 H     1 <1>   0.0800 
 37 H       -4.6790    -7.2660     1.0850 H     1 <1>   0.4000 
 38 H       -3.1350    -9.6290    -1.7980 H     1 <1>   0.0800 
 39 H       -4.3210    -9.8240    -0.5500 H     1 <1>   0.0800 
 40 H       -4.2320   -11.8060     0.6860 H     1 <1>   0.1500 
 41 H        0.4820   -12.0990    -0.3100 H     1 <1>   0.1500 
 42 H       -2.9830   -13.7830     1.4880 H     1 <1>   0.1500 
 43 H       -0.5580   -13.9020     0.9500 H     1 <1>   0.1500 
@<TRIPOS>BOND
  1   1   2  1   
  2   1   3  1   
  3   2   4  ar  
  4   2   5  ar  
  5   3  23  1   
  6   3  24  1   
  7   3  25  1   
  8   4   6  ar  
  9   5   7  ar  
 10   6   8  ar  
 11   6  26  1   
 12   7   8  ar  
 13   7  27  1   
 14   8   9  1   
 15   9  10  1   
 16   9  28  1   
 17   9  29  1   
 18  10  11  1   
 19  10  12  1   
 20  10  30  1   
 21  11  13  1   
 22  11  31  1   
 23  11  32  1   
 24  12  14  1   
 25  12  33  1   
 26  12  34  1   
 27  13  14  1   
 28  13  15  1   
 29  13  35  1   
 30  14  16  1   
 31  14  36  1   
 32  15  37  1   
 33  16  17  1   
 34  16  38  1   
 35  16  39  1   
 36  17  18  ar  
 37  17  19  ar  
 38  18  20  ar  
 39  19  21  ar  
 40  19  40  1   
 41  20  22  ar  
 42  20  41  1   
 43  21  22  ar  
 44  21  42  1   
 45  22  43  1   
@<TRIPOS>SUBSTRUCTURE
  1 ****  10 GROUP 4 **** **** 0

# MOE 2024.06 (io_trps.svl 2023.06)
