@<TRIPOS>MOLECULE
NONAME
57 61 1 0 0 
SMALL
USER_CHARGES


@<TRIPOS>ATOM
  1 O       -0.9040     0.8590    -1.8520 O.2   1 <1>  -0.5700 
  2 C       -1.8940     1.2300    -1.2650 C.2   1 <1>   0.5690 
  3 N       -3.0830     0.5510    -1.3550 N.am  1 <1>  -0.6600 
  4 C       -1.7830     2.4650    -0.3900 C.3   1 <1>  -0.0990 
  5 C       -4.3250     0.8710    -0.5960 C.3   1 <1>   0.1400 
  6 C       -3.2270    -0.6480    -2.2270 C.3   1 <1>   0.1400 
  7 C       -0.4430     3.1930    -0.5550 C.3   1 <1>   0.0960 
  8 C       -4.6700    -0.3160     0.3040 C.3   1 <1>  -0.1600 
  9 C       -3.5650    -1.8590    -1.3570 C.3   1 <1>  -0.1600 
 10 N       -0.3470     4.3000     0.4150 N.pl3 1 <1>   0.3140 
 11 C       -4.8140    -1.6130    -0.5050 C.3   1 <1>   0.4600 
 12 N       -1.1370     5.3850     0.3100 N.2   1 <1>  -0.7070 
 13 C        0.4570     4.3840     1.5010 C.2   1 <1>  -0.3320 
 14 O       -5.8880    -1.4740    -1.4100 O.3   1 <1>  -0.5600 
 15 C       -5.0730    -2.8040     0.4080 C.2   1 <1>  -0.3320 
 16 C       -0.8180     6.1320     1.3170 C.2   1 <1>   0.1080 
 17 C        0.1750     5.5590     2.1020 C.2   1 <1>  -0.1500 
 18 C        1.4690     3.3340     1.9290 C.3   1 <1>  -0.0600 
 19 C       -7.1950    -1.6910    -0.9320 C.3   1 <1>   0.1200 
 20 N       -4.2010    -3.3380     1.3170 N.pl3 1 <1>   0.0330 
 21 C       -6.2250    -3.5040     0.4350 C.2   1 <1>  -0.1810 
 22 C       -1.4740     7.4670     1.5750 C.3   1 <1>  -0.0590 
 23 C       -7.3830    -3.1430    -0.4610 C.3   1 <1>   0.0210 
 24 C       -4.8210    -4.4020     1.9260 C.ar  1 <1>  -0.1520 
 25 C       -6.0990    -4.5340     1.3890 C.ar  1 <1>   0.0000 
 26 C       -4.3670    -5.2770     2.9160 C.ar  1 <1>  -0.1500 
 27 C       -6.9390    -5.5550     1.8440 C.ar  1 <1>  -0.1500 
 28 C       -5.2040    -6.2770     3.3550 C.ar  1 <1>  -0.1500 
 29 C       -6.4900    -6.4160     2.8190 C.ar  1 <1>  -0.1500 
 30 H       -1.8990     2.1640     0.6340 H     1 <1>   0.0800 
 31 H       -2.5720     3.1470    -0.6510 H     1 <1>   0.0800 
 32 H       -5.1270     1.0460    -1.2940 H     1 <1>   0.0800 
 33 H       -4.2090     1.7540     0.0040 H     1 <1>   0.0800 
 34 H       -2.3210    -0.8370    -2.7770 H     1 <1>   0.0800 
 35 H       -4.0170    -0.4750    -2.9390 H     1 <1>   0.0800 
 36 H       -0.3640     3.6010    -1.5460 H     1 <1>   0.0800 
 37 H        0.3740     2.5160    -0.3980 H     1 <1>   0.0800 
 38 H       -5.5740    -0.1190     0.8480 H     1 <1>   0.0800 
 39 H       -3.8850    -0.4350     1.0270 H     1 <1>   0.0800 
 40 H       -2.7230    -2.0650    -0.7230 H     1 <1>   0.0800 
 41 H       -3.7260    -2.7230    -1.9760 H     1 <1>   0.0800 
 42 H        0.6050     5.9840     2.9910 H     1 <1>   0.1500 
 43 H        2.2160     3.2060     1.1650 H     1 <1>   0.0800 
 44 H        0.9790     2.3940     2.1060 H     1 <1>   0.0800 
 45 H        1.9590     3.6410     2.8350 H     1 <1>   0.0800 
 46 H       -7.8780    -1.4700    -1.7320 H     1 <1>   0.0800 
 47 H       -7.3810    -1.0100    -0.1210 H     1 <1>   0.0800 
 48 H       -3.2460    -3.0240     1.5090 H     1 <1>   0.2700 
 49 H       -2.5310     7.3260     1.7060 H     1 <1>   0.0800 
 50 H       -1.3100     8.1130     0.7320 H     1 <1>   0.0800 
 51 H       -1.0640     7.9240     2.4560 H     1 <1>   0.0800 
 52 H       -7.4060    -3.8040    -1.3080 H     1 <1>   0.0800 
 53 H       -8.3100    -3.2330     0.0750 H     1 <1>   0.0800 
 54 H       -3.3780    -5.1640     3.3210 H     1 <1>   0.1500 
 55 H       -7.9220    -5.6510     1.4230 H     1 <1>   0.1500 
 56 H       -4.8770    -6.9630     4.1160 H     1 <1>   0.1500 
 57 H       -7.1250    -7.2070     3.1790 H     1 <1>   0.1500 
@<TRIPOS>BOND
  1   1   2  2   
  2   2   3  am  
  3   2   4  1   
  4   3   5  1   
  5   3   6  1   
  6   4   7  1   
  7   4  30  1   
  8   4  31  1   
  9   5   8  1   
 10   5  32  1   
 11   5  33  1   
 12   6   9  1   
 13   6  34  1   
 14   6  35  1   
 15   7  10  1   
 16   7  36  1   
 17   7  37  1   
 18   8  11  1   
 19   8  38  1   
 20   8  39  1   
 21   9  11  1   
 22   9  40  1   
 23   9  41  1   
 24  10  12  1   
 25  10  13  1   
 26  11  14  1   
 27  11  15  1   
 28  12  16  2   
 29  13  17  2   
 30  13  18  1   
 31  14  19  1   
 32  15  20  1   
 33  15  21  2   
 34  16  17  1   
 35  16  22  1   
 36  17  42  1   
 37  18  43  1   
 38  18  44  1   
 39  18  45  1   
 40  19  23  1   
 41  19  46  1   
 42  19  47  1   
 43  20  24  1   
 44  20  48  1   
 45  21  23  1   
 46  21  25  1   
 47  22  49  1   
 48  22  50  1   
 49  22  51  1   
 50  23  52  1   
 51  23  53  1   
 52  24  25  ar  
 53  24  26  ar  
 54  25  27  ar  
 55  26  28  ar  
 56  26  54  1   
 57  27  29  ar  
 58  27  55  1   
 59  28  29  ar  
 60  28  56  1   
 61  29  57  1   
@<TRIPOS>SUBSTRUCTURE
  1 ****   8 GROUP 4 **** **** 0

# MOE 2024.06 (io_trps.svl 2023.06)
