@<TRIPOS>MOLECULE
NONAME
30 32 1 0 0 
SMALL
USER_CHARGES


@<TRIPOS>ATOM
  1 S        0.1600    -0.6830    -0.1510 S.3   1 <1>  -0.4600 
  2 C       -1.2460     0.4760    -0.1540 C.3   1 <1>   0.2510 
  3 C       -0.7620    -2.2440    -0.0090 C.3   1 <1>   0.2510 
  4 C       -2.4430    -0.4350    -0.0190 C.2   1 <1>   0.1080 
  5 C       -2.2020    -1.7910     0.0550 C.2   1 <1>  -0.1810 
  6 N       -3.7010    -0.1400     0.0430 N.2   1 <1>  -0.7070 
  7 C       -3.4190    -2.3720     0.1650 C.2   1 <1>  -0.0880 
  8 N       -4.3210    -1.3420     0.1560 N.pl3 1 <1>   0.3140 
  9 N       -3.6670    -3.7610     0.2850 N.am  1 <1>  -0.4940 
 10 C       -5.7780    -1.3890     0.3370 C.3   1 <1>   0.0160 
 11 C       -4.6830    -4.5650    -0.1760 C.2   1 <1>   0.7160 
 12 O       -5.6390    -4.0830    -0.7580 O.2   1 <1>  -0.5700 
 13 C       -4.5810    -5.9940     0.0420 C.2   1 <1>   0.2030 
 14 N       -3.5960    -6.6020     0.6370 N.2   1 <1>  -0.4100 
 15 C       -5.5090    -6.9480    -0.3480 C.2   1 <1>  -0.1500 
 16 O       -3.8130    -7.8940     0.6670 O.3   1 <1>  -0.0190 
 17 C       -4.9690    -8.0950     0.0700 C.2   1 <1>  -0.0400 
 18 C       -5.4880    -9.5130    -0.0480 C.3   1 <1>  -0.0600 
 19 H       -1.2490     1.0100    -1.0860 H     1 <1>   0.0800 
 20 H       -1.1460     1.1390     0.6860 H     1 <1>   0.0800 
 21 H       -0.4450    -2.7390     0.8910 H     1 <1>   0.0800 
 22 H       -0.5570    -2.8350    -0.8840 H     1 <1>   0.0800 
 23 H       -2.9080    -4.3110     0.6950 H     1 <1>   0.3700 
 24 H       -6.1160    -0.4440     0.7190 H     1 <1>   0.0800 
 25 H       -6.0280    -2.1680     1.0300 H     1 <1>   0.0800 
 26 H       -6.2420    -1.5790    -0.6130 H     1 <1>   0.0800 
 27 H       -6.4320    -6.7540    -0.8650 H     1 <1>   0.1500 
 28 H       -6.4350    -9.5240    -0.5550 H     1 <1>   0.0800 
 29 H       -5.6110    -9.9390     0.9310 H     1 <1>   0.0800 
 30 H       -4.7880   -10.1120    -0.6030 H     1 <1>   0.0800 
@<TRIPOS>BOND
  1   1   2  1   
  2   1   3  1   
  3   2   4  1   
  4   2  19  1   
  5   2  20  1   
  6   3   5  1   
  7   3  21  1   
  8   3  22  1   
  9   4   5  1   
 10   4   6  2   
 11   5   7  2   
 12   6   8  1   
 13   7   8  1   
 14   7   9  1   
 15   8  10  1   
 16   9  11  am  
 17   9  23  1   
 18  10  24  1   
 19  10  25  1   
 20  10  26  1   
 21  11  12  2   
 22  11  13  1   
 23  13  14  2   
 24  13  15  1   
 25  14  16  1   
 26  15  17  2   
 27  15  27  1   
 28  16  17  1   
 29  17  18  1   
 30  18  28  1   
 31  18  29  1   
 32  18  30  1   
@<TRIPOS>SUBSTRUCTURE
  1 ****   9 GROUP 4 **** **** 0

# MOE 2024.06 (io_trps.svl 2023.06)
