@<TRIPOS>MOLECULE
NONAME
50 51 1 0 0 
SMALL
USER_CHARGES


@<TRIPOS>ATOM
  1 S       -0.4440     0.4570    -1.4650 S.o2  1 <1>   1.3330 
  2 O        0.7420    -0.2890    -1.8120 O.2   1 <1>  -0.6500 
  3 O       -1.0620     1.3470    -2.4210 O.2   1 <1>  -0.6500 
  4 N       -0.1290     1.3340    -0.0450 N.am  1 <1>  -0.8490 
  5 C       -1.7150    -0.6950    -0.9310 C.3   1 <1>  -0.0550 
  6 C        0.8790     0.6980     0.8140 C.3   1 <1>   0.1160 
  7 C        0.2850     2.7130    -0.3320 C.3   1 <1>   0.1160 
  8 C       -3.0120     0.0010    -0.4720 C.3   1 <1>  -0.1600 
  9 C       -4.0760    -1.0080    -0.0450 C.3   1 <1>   0.3430 
 10 N       -5.3680    -0.3160     0.2040 N.4   1 <1>  -0.9590 
 11 C       -5.3460     0.6500     1.3480 C.3   1 <1>   0.3430 
 12 C       -6.5170    -1.2550     0.2940 C.3   1 <1>   0.3430 
 13 C       -6.7350     1.2480     1.6060 C.3   1 <1>  -0.1600 
 14 C       -7.8390    -0.4850     0.1870 C.3   1 <1>  -0.1600 
 15 C       -7.6980     1.0220     0.4360 C.3   1 <1>   0.4180 
 16 O       -7.1190     1.5550    -0.7340 O.3   1 <1>  -0.5600 
 17 C       -9.0680     1.6360     0.6960 C.2   1 <1>  -0.2880 
 18 C       -7.2910     2.9280    -0.9720 C.3   1 <1>   0.1200 
 19 C       -9.5810     2.6420    -0.0150 C.2   1 <1>  -0.2760 
 20 C       -8.7780     3.2690    -1.1380 C.3   1 <1>  -0.0220 
 21 C      -10.9620     3.2350     0.2060 C.3   1 <1>  -0.1020 
 22 H       -1.3250    -1.2960    -0.1320 H     1 <1>   0.0800 
 23 H       -1.9400    -1.3500    -1.7520 H     1 <1>   0.0800 
 24 H        0.5870    -0.3110     1.0490 H     1 <1>   0.0800 
 25 H        0.9810     1.2460     1.7350 H     1 <1>   0.0800 
 26 H        1.8350     0.6710     0.3170 H     1 <1>   0.0800 
 27 H       -0.4950     3.2310    -0.8650 H     1 <1>   0.0800 
 28 H        1.1770     2.7180    -0.9380 H     1 <1>   0.0800 
 29 H        0.4770     3.2470     0.5830 H     1 <1>   0.0800 
 30 H       -3.3860     0.5950    -1.2900 H     1 <1>   0.0800 
 31 H       -2.7730     0.6580     0.3460 H     1 <1>   0.0800 
 32 H       -3.7570    -1.5310     0.8420 H     1 <1>   0.0800 
 33 H       -4.2080    -1.7300    -0.8360 H     1 <1>   0.0800 
 34 H       -5.5970     0.2780    -0.6190 H     1 <1>   0.4500 
 35 H       -4.6660     1.4540     1.1150 H     1 <1>   0.0800 
 36 H       -4.9930     0.1620     2.2420 H     1 <1>   0.0800 
 37 H       -6.4790    -1.7770     1.2360 H     1 <1>   0.0800 
 38 H       -6.4680    -1.9840    -0.4990 H     1 <1>   0.0800 
 39 H       -6.6490     2.2970     1.8220 H     1 <1>   0.0800 
 40 H       -7.1490     0.7910     2.4870 H     1 <1>   0.0800 
 41 H       -8.5210    -0.9070     0.9030 H     1 <1>   0.0800 
 42 H       -8.2770    -0.6380    -0.7830 H     1 <1>   0.0800 
 43 H       -9.5960     1.1740     1.5110 H     1 <1>   0.1500 
 44 H       -6.7510     3.1830    -1.8670 H     1 <1>   0.0800 
 45 H       -6.8740     3.4770    -0.1460 H     1 <1>   0.0800 
 46 H       -9.1340     2.9110    -2.0880 H     1 <1>   0.0800 
 47 H       -8.8860     4.3390    -1.1230 H     1 <1>   0.0800 
 48 H      -11.5530     3.1390    -0.6870 H     1 <1>   0.0800 
 49 H      -10.8840     4.2770     0.4600 H     1 <1>   0.0800 
 50 H      -11.4690     2.7270     1.0060 H     1 <1>   0.0800 
@<TRIPOS>BOND
  1   1   2  2   
  2   1   3  2   
  3   1   4  am  
  4   1   5  1   
  5   4   6  1   
  6   4   7  1   
  7   5   8  1   
  8   5  22  1   
  9   5  23  1   
 10   6  24  1   
 11   6  25  1   
 12   6  26  1   
 13   7  27  1   
 14   7  28  1   
 15   7  29  1   
 16   8   9  1   
 17   8  30  1   
 18   8  31  1   
 19   9  10  1   
 20   9  32  1   
 21   9  33  1   
 22  10  11  1   
 23  10  12  1   
 24  10  34  1   
 25  11  13  1   
 26  11  35  1   
 27  11  36  1   
 28  12  14  1   
 29  12  37  1   
 30  12  38  1   
 31  13  15  1   
 32  13  39  1   
 33  13  40  1   
 34  14  15  1   
 35  14  41  1   
 36  14  42  1   
 37  15  16  1   
 38  15  17  1   
 39  16  18  1   
 40  17  19  2   
 41  17  43  1   
 42  18  20  1   
 43  18  44  1   
 44  18  45  1   
 45  19  20  1   
 46  19  21  1   
 47  20  46  1   
 48  20  47  1   
 49  21  48  1   
 50  21  49  1   
 51  21  50  1   
@<TRIPOS>SUBSTRUCTURE
  1 ****  10 GROUP 4 **** **** 0

# MOE 2024.06 (io_trps.svl 2023.06)
