@<TRIPOS>MOLECULE
NONAME
50 53 1 0 0 
SMALL
USER_CHARGES


@<TRIPOS>ATOM
  1 S       -0.4740    -1.3220    -0.4900 S.3   1 <1>  -0.2320 
  2 C       -1.1960     0.2040    -0.1150 C.cat 1 <1>   0.8400 
  3 C       -1.9170    -2.1750     0.0610 C.2   1 <1>  -0.0490 
  4 N       -0.5730     1.3470    -0.2780 N.pl3 1 <1>  -0.7940 
  5 N       -2.4270     0.0590     0.3590 N.pl3 1 <1>  -0.6850 
  6 C       -2.8460    -1.2930     0.4690 C.2   1 <1>   0.2030 
  7 C       -1.1860     2.6440     0.0660 C.3   1 <1>   0.3290 
  8 C       -3.2000     1.2470     0.8050 C.3   1 <1>   0.3290 
  9 C       -4.2310    -1.6240     1.0150 C.3   1 <1>   0.0390 
 10 C       -2.7150     2.5030     0.0620 C.3   1 <1>  -0.1600 
 11 C       -4.4230    -3.1260     1.0960 C.2   1 <1>   0.5690 
 12 O       -4.0620    -3.6520     2.1200 O.2   1 <1>  -0.5700 
 13 N       -4.9210    -3.8450     0.0400 N.am  1 <1>  -0.6600 
 14 C       -4.7400    -5.3390     0.0540 C.3   1 <1>   0.3640 
 15 C       -5.6660    -3.2360    -1.1090 C.3   1 <1>   0.1400 
 16 C       -3.2930    -5.6330    -0.3530 C.ar  1 <1>  -0.1430 
 17 C       -5.7520    -6.1490    -0.8100 C.3   1 <1>   0.2000 
 18 C       -6.2950    -4.2560    -2.0700 C.3   1 <1>   0.1200 
 19 C       -2.4240    -6.1720     0.5850 C.ar  1 <1>  -0.1500 
 20 C       -2.8130    -5.3580    -1.6290 C.ar  1 <1>  -0.1500 
 21 O       -6.7680    -5.3520    -1.3600 O.3   1 <1>  -0.5600 
 22 C       -6.4410    -7.2600    -0.0050 C.3   1 <1>   0.1200 
 23 C       -1.1050    -6.4330     0.2580 C.ar  1 <1>  -0.1500 
 24 C       -1.4950    -5.6190    -1.9580 C.ar  1 <1>  -0.1500 
 25 O       -5.5040    -8.1480     0.5170 O.3   1 <1>  -0.6800 
 26 C       -0.6390    -6.1560    -1.0140 C.ar  1 <1>  -0.1500 
 27 H       -1.8960    -3.2520     0.0180 H     1 <1>   0.1500 
 28 H        0.3900     1.3560    -0.6260 H     1 <1>   0.4500 
 29 H       -0.8420     2.9500     1.0410 H     1 <1>   0.0800 
 30 H       -0.8870     3.3920    -0.6510 H     1 <1>   0.0800 
 31 H       -4.2490     1.1040     0.6080 H     1 <1>   0.0800 
 32 H       -3.0660     1.3710     1.8670 H     1 <1>   0.0800 
 33 H       -4.9900    -1.1760     0.4070 H     1 <1>   0.0800 
 34 H       -4.3220    -1.2260     2.0090 H     1 <1>   0.0800 
 35 H       -3.1570     3.3770     0.5060 H     1 <1>   0.0800 
 36 H       -3.0580     2.4590    -0.9570 H     1 <1>   0.0800 
 37 H       -4.8650    -5.6720     1.0710 H     1 <1>   0.0800 
 38 H       -6.4630    -2.6290    -0.7150 H     1 <1>   0.0800 
 39 H       -5.0060    -2.5950    -1.6680 H     1 <1>   0.0800 
 40 H       -5.2380    -6.6110    -1.6340 H     1 <1>   0.0800 
 41 H       -5.5890    -4.5950    -2.8070 H     1 <1>   0.0800 
 42 H       -7.1290    -3.8110    -2.5840 H     1 <1>   0.0800 
 43 H       -2.7720    -6.3860     1.5820 H     1 <1>   0.1500 
 44 H       -3.4570    -4.9360    -2.3760 H     1 <1>   0.1500 
 45 H       -7.1170    -7.8160    -0.6310 H     1 <1>   0.0800 
 46 H       -6.9850    -6.8350     0.8220 H     1 <1>   0.0800 
 47 H       -0.4430    -6.8500     0.9970 H     1 <1>   0.1500 
 48 H       -1.1310    -5.4040    -2.9480 H     1 <1>   0.1500 
 49 H       -5.0450    -8.6400    -0.1930 H     1 <1>   0.4000 
 50 H        0.3870    -6.3600    -1.2670 H     1 <1>   0.1500 
@<TRIPOS>BOND
  1   1   2  1   
  2   1   3  1   
  3   2   4  ar  
  4   2   5  ar  
  5   3   6  2   
  6   3  27  1   
  7   4   7  1   
  8   4  28  1   
  9   5   6  1   
 10   5   8  1   
 11   6   9  1   
 12   7  10  1   
 13   7  29  1   
 14   7  30  1   
 15   8  10  1   
 16   8  31  1   
 17   8  32  1   
 18   9  11  1   
 19   9  33  1   
 20   9  34  1   
 21  10  35  1   
 22  10  36  1   
 23  11  12  2   
 24  11  13  am  
 25  13  14  1   
 26  13  15  1   
 27  14  16  1   
 28  14  17  1   
 29  14  37  1   
 30  15  18  1   
 31  15  38  1   
 32  15  39  1   
 33  16  19  ar  
 34  16  20  ar  
 35  17  21  1   
 36  17  22  1   
 37  17  40  1   
 38  18  21  1   
 39  18  41  1   
 40  18  42  1   
 41  19  23  ar  
 42  19  43  1   
 43  20  24  ar  
 44  20  44  1   
 45  22  25  1   
 46  22  45  1   
 47  22  46  1   
 48  23  26  ar  
 49  23  47  1   
 50  24  26  ar  
 51  24  48  1   
 52  25  49  1   
 53  26  50  1   
@<TRIPOS>SUBSTRUCTURE
  1 ****  11 GROUP 4 **** **** 0

# MOE 2024.06 (io_trps.svl 2023.06)
