@<TRIPOS>MOLECULE
NONAME
47 50 1 0 0 
SMALL
USER_CHARGES


@<TRIPOS>ATOM
  1 S        0.0880     0.4200    -0.0560 S.3   1 <1>  -0.0800 
  2 C        0.6700    -1.2240     0.2310 C.2   1 <1>   0.0410 
  3 C        1.6620     0.9660    -0.6060 C.2   1 <1>  -0.1400 
  4 C       -0.2470    -2.2130     0.7400 C.2   1 <1>   0.2880 
  5 C        1.9840    -1.2800    -0.1010 C.2   1 <1>  -0.1500 
  6 C        2.5410    -0.0530    -0.5700 C.2   1 <1>  -0.1500 
  7 C        1.7680     2.4250    -1.0070 C.3   1 <1>   0.2900 
  8 N       -1.4930    -1.9820     1.0830 N.2   1 <1>  -0.7070 
  9 C        0.0710    -3.5610     0.9410 C.2   1 <1>  -0.1500 
 10 N        3.1480     2.9200    -0.8270 N.3   1 <1>  -0.8100 
 11 N       -1.9740    -3.1630     1.4990 N.pl3 1 <1>   0.3000 
 12 C       -1.0480    -4.1360     1.4240 C.2   1 <1>  -0.3020 
 13 C        3.5640     2.9590     0.6210 C.3   1 <1>   0.1900 
 14 C        3.3850     4.1530    -1.6100 C.3   1 <1>   0.1100 
 15 C        3.1460     4.2450     1.3590 C.3   1 <1>   0.1200 
 16 C        5.0860     2.7090     0.7650 C.3   1 <1>   0.3430 
 17 C        4.5680     5.0290    -1.1420 C.3   1 <1>  -0.0800 
 18 O        4.1200     5.2380     1.2400 O.3   1 <1>  -0.5600 
 19 N        5.7660     2.8690    -0.5580 N.4   1 <1>  -0.9590 
 20 C        4.1690     5.9310     0.0390 C.3   1 <1>   0.1200 
 21 C        5.9140     4.3110    -0.9010 C.3   1 <1>   0.3430 
 22 C        7.1300     2.2010    -0.5200 C.3   1 <1>   0.2370 
 23 C        8.0860     2.7770     0.5280 C.2   1 <1>   0.9060 
 24 O        8.0580     2.2930     1.6620 O.co2 1 <1>  -0.9000 
 25 O        8.7490     3.7720     0.2190 O.co2 1 <1>  -0.9000 
 26 H        2.5920    -2.1630    -0.0280 H     1 <1>   0.1500 
 27 H        3.5750     0.0110    -0.8600 H     1 <1>   0.1500 
 28 H        1.0900     3.0160    -0.4150 H     1 <1>   0.0800 
 29 H        1.4760     2.5110    -2.0400 H     1 <1>   0.0800 
 30 H        1.0240    -4.0140     0.7400 H     1 <1>   0.1500 
 31 H       -2.9420    -3.2730     1.8290 H     1 <1>   0.2700 
 32 H       -1.2360    -5.1540     1.7110 H     1 <1>   0.1500 
 33 H        3.0790     2.1500     1.1400 H     1 <1>   0.0800 
 34 H        3.5540     3.8630    -2.6340 H     1 <1>   0.0800 
 35 H        2.4930     4.7590    -1.6000 H     1 <1>   0.0800 
 36 H        3.0650     4.0300     2.4100 H     1 <1>   0.0800 
 37 H        2.1960     4.6190     1.0180 H     1 <1>   0.0800 
 38 H        5.2360     1.7050     1.1240 H     1 <1>   0.0800 
 39 H        5.5180     3.3750     1.4950 H     1 <1>   0.0800 
 40 H        4.7520     5.7190    -1.9450 H     1 <1>   0.0800 
 41 H        5.1050     2.4480    -1.2290 H     1 <1>   0.4500 
 42 H        3.2140     6.4010    -0.1270 H     1 <1>   0.0800 
 43 H        4.9050     6.7080     0.1640 H     1 <1>   0.0800 
 44 H        6.4610     4.8140    -0.1170 H     1 <1>   0.0800 
 45 H        6.5070     4.3860    -1.7970 H     1 <1>   0.0800 
 46 H        7.0170     1.1550    -0.3010 H     1 <1>   0.0800 
 47 H        7.6100     2.2990    -1.4760 H     1 <1>   0.0800 
@<TRIPOS>BOND
  1   1   2  1   
  2   1   3  1   
  3   2   4  1   
  4   2   5  2   
  5   3   6  2   
  6   3   7  1   
  7   4   8  2   
  8   4   9  1   
  9   5   6  1   
 10   5  26  1   
 11   6  27  1   
 12   7  10  1   
 13   7  28  1   
 14   7  29  1   
 15   8  11  1   
 16   9  12  2   
 17   9  30  1   
 18  10  13  1   
 19  10  14  1   
 20  11  12  1   
 21  11  31  1   
 22  12  32  1   
 23  13  15  1   
 24  13  16  1   
 25  13  33  1   
 26  14  17  1   
 27  14  34  1   
 28  14  35  1   
 29  15  18  1   
 30  15  36  1   
 31  15  37  1   
 32  16  19  1   
 33  16  38  1   
 34  16  39  1   
 35  17  20  1   
 36  17  21  1   
 37  17  40  1   
 38  18  20  1   
 39  19  21  1   
 40  19  22  1   
 41  19  41  1   
 42  20  42  1   
 43  20  43  1   
 44  21  44  1   
 45  21  45  1   
 46  22  23  1   
 47  22  46  1   
 48  22  47  1   
 49  23  24  ar  
 50  23  25  ar  
@<TRIPOS>SUBSTRUCTURE
  1 ****  13 GROUP 4 **** **** 0

# MOE 2024.06 (io_trps.svl 2023.06)
