@<TRIPOS>MOLECULE
NONAME
46 47 1 0 0 
SMALL
USER_CHARGES


@<TRIPOS>ATOM
  1 O       -1.2910    -0.1660     2.5000 O.2   1 <1>  -0.5700 
  2 C       -1.4800     0.4800     1.4950 C.2   1 <1>   0.5690 
  3 N       -1.7900    -0.1200     0.3010 N.am  1 <1>  -0.6600 
  4 C       -1.3530     1.9870     1.6190 C.3   1 <1>  -0.0990 
  5 C       -1.9140    -1.6100     0.2140 C.3   1 <1>   0.3210 
  6 C       -1.9670     0.6180    -0.9970 C.3   1 <1>   0.1400 
  7 C        0.0710     2.4540     1.2920 C.3   1 <1>  -0.0170 
  8 C       -3.3360    -2.0210    -0.1490 C.2   1 <1>   0.0460 
  9 C       -3.4350     0.9430    -1.3370 C.3   1 <1>   0.1200 
 10 C        0.1480     3.9750     1.2980 C.ar  1 <1>  -0.1440 
 11 N       -3.6340    -2.4520    -1.3930 N.2   1 <1>  -0.5650 
 12 C       -4.4400    -2.0080     0.6350 C.2   1 <1>  -0.3320 
 13 O       -4.1700     1.1790    -0.1850 O.3   1 <1>  -0.6800 
 14 C       -0.3020     4.7250     0.2120 C.ar  1 <1>   0.0820 
 15 C        0.6680     4.6220     2.4080 C.ar  1 <1>  -0.1500 
 16 C       -4.9030    -2.6900    -1.3420 C.2   1 <1>   0.0360 
 17 N       -5.4550    -2.4390    -0.1370 N.pl3 1 <1>   0.0330 
 18 C       -4.6210    -1.6070     2.0890 C.3   1 <1>  -0.0600 
 19 O       -0.8170     4.0570    -0.8560 O.3   1 <1>  -0.3630 
 20 C       -0.2170     6.1150     0.2550 C.ar  1 <1>  -0.1500 
 21 C        0.7470     6.0030     2.4450 C.ar  1 <1>  -0.1500 
 22 C       -1.5560     4.7280    -1.8520 C.3   1 <1>   0.0400 
 23 C        0.3050     6.7490     1.3680 C.ar  1 <1>  -0.1500 
 24 H       -1.5910     2.2700     2.6280 H     1 <1>   0.0800 
 25 H       -2.0660     2.4730     0.9810 H     1 <1>   0.0800 
 26 H       -1.6540    -2.0710     1.1490 H     1 <1>   0.0800 
 27 H       -1.2350    -1.9820    -0.5320 H     1 <1>   0.0800 
 28 H       -1.5500     0.0350    -1.7990 H     1 <1>   0.0800 
 29 H       -1.4160     1.5390    -0.9750 H     1 <1>   0.0800 
 30 H        0.3730     2.0850     0.3280 H     1 <1>   0.0800 
 31 H        0.7520     2.0430     2.0160 H     1 <1>   0.0800 
 32 H       -3.8900     0.1190    -1.8560 H     1 <1>   0.0800 
 33 H       -3.4950     1.8160    -1.9630 H     1 <1>   0.0800 
 34 H       -4.0440     0.4000     0.4000 H     1 <1>   0.4000 
 35 H        1.0140     4.0530     3.2530 H     1 <1>   0.1500 
 36 H       -5.4850    -3.0550    -2.1700 H     1 <1>   0.1500 
 37 H       -6.4370    -2.5520     0.1280 H     1 <1>   0.2700 
 38 H       -3.6780    -1.3320     2.5270 H     1 <1>   0.0800 
 39 H       -5.0260    -2.4270     2.6540 H     1 <1>   0.0800 
 40 H       -5.2880    -0.7670     2.1650 H     1 <1>   0.0800 
 41 H       -0.5490     6.7200    -0.5670 H     1 <1>   0.1500 
 42 H        1.1520     6.4950     3.3120 H     1 <1>   0.1500 
 43 H       -1.9600     3.9920    -2.5230 H     1 <1>   0.0800 
 44 H       -0.9000     5.3900    -2.3890 H     1 <1>   0.0800 
 45 H       -2.3570     5.2730    -1.3830 H     1 <1>   0.0800 
 46 H        0.3670     7.8220     1.3970 H     1 <1>   0.1500 
@<TRIPOS>BOND
  1   1   2  2   
  2   2   3  am  
  3   2   4  1   
  4   3   5  1   
  5   3   6  1   
  6   4   7  1   
  7   4  24  1   
  8   4  25  1   
  9   5   8  1   
 10   5  26  1   
 11   5  27  1   
 12   6   9  1   
 13   6  28  1   
 14   6  29  1   
 15   7  10  1   
 16   7  30  1   
 17   7  31  1   
 18   8  11  1   
 19   8  12  2   
 20   9  13  1   
 21   9  32  1   
 22   9  33  1   
 23  10  14  ar  
 24  10  15  ar  
 25  11  16  2   
 26  12  17  1   
 27  12  18  1   
 28  13  34  1   
 29  14  19  1   
 30  14  20  ar  
 31  15  21  ar  
 32  15  35  1   
 33  16  17  1   
 34  16  36  1   
 35  17  37  1   
 36  18  38  1   
 37  18  39  1   
 38  18  40  1   
 39  19  22  1   
 40  20  23  ar  
 41  20  41  1   
 42  21  23  ar  
 43  21  42  1   
 44  22  43  1   
 45  22  44  1   
 46  22  45  1   
 47  23  46  1   
@<TRIPOS>SUBSTRUCTURE
  1 ****   4 GROUP 4 **** **** 0

# MOE 2024.06 (io_trps.svl 2023.06)
