@<TRIPOS>MOLECULE
NONAME
48 51 1 0 0 
SMALL
USER_CHARGES


@<TRIPOS>ATOM
  1 O        1.7090    -1.1640    -1.8650 O.2   1 <1>  -0.5700 
  2 C        1.5060    -1.1890    -0.6730 C.2   1 <1>   0.6300 
  3 N        1.4880    -0.0500     0.0690 N.am  1 <1>  -0.7300 
  4 C        1.2670    -2.5200     0.0440 C.3   1 <1>   0.0320 
  5 C        1.6850     1.3090    -0.4650 C.3   1 <1>   0.1400 
  6 C       -0.2170    -2.8550     0.1340 C.ar  1 <1>  -0.0320 
  7 C        2.2470    -3.6550    -0.0920 C.3   1 <1>  -0.1900 
  8 C        2.1800    -2.8950     1.1920 C.3   1 <1>  -0.2000 
  9 C        3.0980     1.7700    -0.1210 C.3   1 <1>  -0.1600 
 10 C       -0.8800    -3.3060    -0.9950 C.ar  1 <1>  -0.1500 
 11 C       -0.9220    -2.7070     1.3200 C.ar  1 <1>  -0.1500 
 12 C        1.8670    -5.1310    -0.0540 C.3   1 <1>  -0.0650 
 13 C        3.5450    -3.5740    -0.8940 C.3   1 <1>  -0.0650 
 14 C        3.3970     3.1340    -0.7550 C.3   1 <1>   0.0960 
 15 C       -2.2280    -3.6140    -0.9430 C.ar  1 <1>  -0.1500 
 16 C       -2.2710    -3.0140     1.3760 C.ar  1 <1>  -0.1500 
 17 C        3.2150    -5.8410     0.0190 C.3   1 <1>  -0.1600 
 18 C        4.2010    -4.9540    -0.7520 C.3   1 <1>  -0.1600 
 19 N        4.7420     3.6000    -0.3720 N.pl3 1 <1>   0.3140 
 20 C       -2.9240    -3.4690     0.2440 C.ar  1 <1>  -0.1500 
 21 N        4.9600     4.3780     0.6930 N.2   1 <1>  -0.4180 
 22 C        5.9010     3.3370    -0.9760 C.2   1 <1>  -0.3020 
 23 N        6.2240     4.6120     0.7740 N.2   1 <1>  -0.2270 
 24 C        6.8200     3.9810    -0.2420 C.2   1 <1>   0.0770 
 25 H        1.3050    -0.1290     1.0700 H     1 <1>   0.3700 
 26 H        0.9520     1.9720    -0.0380 H     1 <1>   0.0800 
 27 H        1.5500     1.2970    -1.5350 H     1 <1>   0.0800 
 28 H        1.7710    -3.3870     2.0550 H     1 <1>   0.1000 
 29 H        2.9900    -2.2340     1.4460 H     1 <1>   0.1000 
 30 H        3.8040     1.0470    -0.4930 H     1 <1>   0.0800 
 31 H        3.1980     1.8450     0.9490 H     1 <1>   0.0800 
 32 H       -0.3390    -3.4150    -1.9200 H     1 <1>   0.1500 
 33 H       -0.4250    -2.3520     2.2040 H     1 <1>   0.1500 
 34 H        1.3700    -5.3910    -0.9730 H     1 <1>   0.0800 
 35 H        1.2280    -5.3810     0.7750 H     1 <1>   0.0800 
 36 H        4.1920    -2.7850    -0.5520 H     1 <1>   0.0800 
 37 H        3.3080    -3.4000    -1.9300 H     1 <1>   0.0800 
 38 H        2.6820     3.8640    -0.4190 H     1 <1>   0.0800 
 39 H        3.3480     3.0690    -1.8260 H     1 <1>   0.0800 
 40 H       -2.7330    -3.9640    -1.8260 H     1 <1>   0.1500 
 41 H       -2.8120    -2.8990     2.2980 H     1 <1>   0.1500 
 42 H        3.1640    -6.8360    -0.3870 H     1 <1>   0.0800 
 43 H        3.5230    -5.8980     1.0490 H     1 <1>   0.0800 
 44 H        5.1350    -4.8830    -0.2220 H     1 <1>   0.0800 
 45 H        4.3860    -5.3660    -1.7280 H     1 <1>   0.0800 
 46 H       -3.9720    -3.7080     0.2860 H     1 <1>   0.1500 
 47 H        6.0000     2.7310    -1.8560 H     1 <1>   0.1500 
 48 H        7.8860     4.0280    -0.3870 H     1 <1>   0.1500 
@<TRIPOS>BOND
  1   1   2  2   
  2   2   3  am  
  3   2   4  1   
  4   3   5  1   
  5   3  25  1   
  6   4   6  1   
  7   4   7  1   
  8   4   8  1   
  9   5   9  1   
 10   5  26  1   
 11   5  27  1   
 12   6  10  ar  
 13   6  11  ar  
 14   7   8  1   
 15   7  12  1   
 16   7  13  1   
 17   8  28  1   
 18   8  29  1   
 19   9  14  1   
 20   9  30  1   
 21   9  31  1   
 22  10  15  ar  
 23  10  32  1   
 24  11  16  ar  
 25  11  33  1   
 26  12  17  1   
 27  12  34  1   
 28  12  35  1   
 29  13  18  1   
 30  13  36  1   
 31  13  37  1   
 32  14  19  1   
 33  14  38  1   
 34  14  39  1   
 35  15  20  ar  
 36  15  40  1   
 37  16  20  ar  
 38  16  41  1   
 39  17  18  1   
 40  17  42  1   
 41  17  43  1   
 42  18  44  1   
 43  18  45  1   
 44  19  21  1   
 45  19  22  1   
 46  20  46  1   
 47  21  23  2   
 48  22  24  2   
 49  22  47  1   
 50  23  24  1   
 51  24  48  1   
@<TRIPOS>SUBSTRUCTURE
  1 ****   2 GROUP 4 **** **** 0

# MOE 2024.06 (io_trps.svl 2023.06)
