@<TRIPOS>MOLECULE
NONAME
48 51 1 0 0 
SMALL
USER_CHARGES


@<TRIPOS>ATOM
  1 S        2.8230    -0.6690     0.0940 S.3   1 <1>  -0.0800 
  2 C        1.9620     0.8460     0.2570 C.2   1 <1>  -0.1400 
  3 C        4.2130     0.1720    -0.5770 C.2   1 <1>  -0.1100 
  4 C        2.6980     1.8870    -0.1530 C.2   1 <1>  -0.1810 
  5 C        0.5570     0.9300     0.7890 C.3   1 <1>   0.0200 
  6 C        3.9890     1.4990    -0.6430 C.2   1 <1>  -0.1500 
  7 C        2.1520     3.3160    -0.0830 C.3   1 <1>   0.4610 
  8 C       -0.0070     2.2950     0.3610 C.3   1 <1>   0.1200 
  9 O        0.9170     3.3270     0.6130 O.3   1 <1>  -0.5600 
 10 C        1.9470     3.8970    -1.4890 C.3   1 <1>  -0.1600 
 11 C        3.0960     4.2090     0.7310 C.3   1 <1>  -0.1600 
 12 C        1.4800     5.3510    -1.4360 C.3   1 <1>   0.1400 
 13 C        2.6190     5.6620     0.7580 C.3   1 <1>   0.1400 
 14 N        2.4550     6.1450    -0.6400 N.am  1 <1>  -0.6600 
 15 C        3.1450     7.2170    -1.1760 C.2   1 <1>   0.5440 
 16 O        2.9220     7.5410    -2.3290 O.2   1 <1>  -0.5700 
 17 C        4.0740     8.0110    -0.4010 C.ar  1 <1>   0.0860 
 18 C        5.3310     7.5370    -0.0020 C.ar  1 <1>   0.0830 
 19 C        3.7190     9.3110    -0.0400 C.ar  1 <1>  -0.1500 
 20 O        5.6790     6.2770    -0.3640 O.3   1 <1>  -0.3630 
 21 C        6.1820     8.3520     0.7420 C.ar  1 <1>  -0.1500 
 22 C        4.5650    10.1150     0.6980 C.ar  1 <1>  -0.1500 
 23 C        7.0040     5.8070    -0.2750 C.3   1 <1>   0.1200 
 24 C        5.8000     9.6330     1.0910 C.ar  1 <1>  -0.1500 
 25 C        7.0510     4.4060    -0.8750 C.3   1 <1>  -0.2400 
 26 H        5.0620    -0.4260    -0.8580 H     1 <1>   0.1500 
 27 H        0.5640     0.8480     1.8610 H     1 <1>   0.0800 
 28 H       -0.0480     0.1410     0.3820 H     1 <1>   0.0800 
 29 H        4.6830     2.2280    -1.0220 H     1 <1>   0.1500 
 30 H       -0.9040     2.5160     0.9110 H     1 <1>   0.0800 
 31 H       -0.2370     2.2920    -0.6890 H     1 <1>   0.0800 
 32 H        1.2450     3.3010    -2.0390 H     1 <1>   0.0800 
 33 H        2.8790     3.8640    -2.0240 H     1 <1>   0.0800 
 34 H        4.0780     4.1850     0.2990 H     1 <1>   0.0800 
 35 H        3.1700     3.8270     1.7320 H     1 <1>   0.0800 
 36 H        0.5120     5.4130    -0.9690 H     1 <1>   0.0800 
 37 H        1.3930     5.7380    -2.4370 H     1 <1>   0.0800 
 38 H        3.3250     6.2650     1.3000 H     1 <1>   0.0800 
 39 H        1.6700     5.7260     1.2640 H     1 <1>   0.0800 
 40 H        2.7600     9.6870    -0.3550 H     1 <1>   0.1500 
 41 H        7.1460     8.0060     1.0630 H     1 <1>   0.1500 
 42 H        4.2660    11.1150     0.9630 H     1 <1>   0.1500 
 43 H        7.2920     5.7830     0.7620 H     1 <1>   0.0800 
 44 H        7.6390     6.4790    -0.8260 H     1 <1>   0.0800 
 45 H        6.4620    10.2590     1.6660 H     1 <1>   0.1500 
 46 H        6.4490     3.7350    -0.2900 H     1 <1>   0.0800 
 47 H        8.0630     4.0440    -0.8740 H     1 <1>   0.0800 
 48 H        6.6930     4.4260    -1.8890 H     1 <1>   0.0800 
@<TRIPOS>BOND
  1   1   2  1   
  2   1   3  1   
  3   2   4  2   
  4   2   5  1   
  5   3   6  2   
  6   3  26  1   
  7   4   6  1   
  8   4   7  1   
  9   5   8  1   
 10   5  27  1   
 11   5  28  1   
 12   6  29  1   
 13   7   9  1   
 14   7  10  1   
 15   7  11  1   
 16   8   9  1   
 17   8  30  1   
 18   8  31  1   
 19  10  12  1   
 20  10  32  1   
 21  10  33  1   
 22  11  13  1   
 23  11  34  1   
 24  11  35  1   
 25  12  14  1   
 26  12  36  1   
 27  12  37  1   
 28  13  14  1   
 29  13  38  1   
 30  13  39  1   
 31  14  15  am  
 32  15  16  2   
 33  15  17  1   
 34  17  18  ar  
 35  17  19  ar  
 36  18  20  1   
 37  18  21  ar  
 38  19  22  ar  
 39  19  40  1   
 40  20  23  1   
 41  21  24  ar  
 42  21  41  1   
 43  22  24  ar  
 44  22  42  1   
 45  23  25  1   
 46  23  43  1   
 47  23  44  1   
 48  24  45  1   
 49  25  46  1   
 50  25  47  1   
 51  25  48  1   
@<TRIPOS>SUBSTRUCTURE
  1 ****  11 GROUP 4 **** **** 0

# MOE 2024.06 (io_trps.svl 2023.06)
