@<TRIPOS>MOLECULE
NONAME
43 45 1 0 0 
SMALL
USER_CHARGES


@<TRIPOS>ATOM
  1 S        0.8620     0.2330    -2.0770 S.3   1 <1>  -0.0800 
  2 C        0.4880    -0.8660    -0.7730 C.2   1 <1>   0.1980 
  3 C        1.1340     1.4880    -0.9030 C.2   1 <1>  -0.1400 
  4 N        0.5590    -0.3530     0.3910 N.2   1 <1>  -0.5650 
  5 C        0.1220    -2.2950    -1.1390 C.3   1 <1>   0.5230 
  6 C        0.9260     0.9820     0.3260 C.2   1 <1>   0.0460 
  7 C        1.5360     2.8480    -1.4440 C.3   1 <1>  -0.0600 
  8 N       -0.4200    -2.9830     0.0770 N.4   1 <1>  -0.9590 
  9 C        1.0490     1.7090     1.6490 C.3   1 <1>  -0.0590 
 10 C       -1.8140    -2.5580     0.4160 C.3   1 <1>   0.3430 
 11 C       -0.3870    -4.4750     0.0380 C.3   1 <1>   0.3430 
 12 C       -2.4180    -3.7470     1.1670 C.3   1 <1>   0.2000 
 13 C       -1.7750    -4.9540     0.4790 C.3   1 <1>  -0.0800 
 14 O       -2.0450    -3.6900     2.5060 O.3   1 <1>  -0.6800 
 15 C       -1.7420    -6.2670     1.2860 C.3   1 <1>  -0.0160 
 16 C       -0.9550    -7.3200     0.5230 C.ar  1 <1>  -0.1440 
 17 C        0.3130    -7.7070     0.9090 C.ar  1 <1>  -0.1500 
 18 C       -1.4660    -7.9370    -0.6020 C.ar  1 <1>  -0.1500 
 19 C        1.0000    -8.6470     0.1570 C.ar  1 <1>   0.1600 
 20 C       -0.6960    -8.8650    -1.2830 C.ar  1 <1>   0.1600 
 21 N        0.5290    -9.2210    -0.9360 N.ar  1 <1>  -0.6200 
 22 H        1.0110    -2.7960    -1.4830 H     1 <1>   0.0800 
 23 H       -0.6070    -2.2970    -1.9310 H     1 <1>   0.0800 
 24 H        1.6810     3.5520    -0.6450 H     1 <1>   0.0800 
 25 H        0.7690     3.2240    -2.0970 H     1 <1>   0.0800 
 26 H        2.4530     2.7650    -1.9990 H     1 <1>   0.0800 
 27 H        0.1770    -2.6240     0.8430 H     1 <1>   0.4500 
 28 H        1.3360     2.7330     1.5030 H     1 <1>   0.0800 
 29 H        1.7900     1.2270     2.2600 H     1 <1>   0.0800 
 30 H        0.1060     1.6860     2.1650 H     1 <1>   0.0800 
 31 H       -1.8320    -1.6600     1.0140 H     1 <1>   0.0800 
 32 H       -2.3770    -2.3940    -0.4880 H     1 <1>   0.0800 
 33 H       -0.1660    -4.8430    -0.9510 H     1 <1>   0.0800 
 34 H        0.3640    -4.8420     0.7190 H     1 <1>   0.0800 
 35 H       -3.4940    -3.7580     1.1220 H     1 <1>   0.0800 
 36 H       -2.3330    -5.1420    -0.4210 H     1 <1>   0.0800 
 37 H       -1.0780    -3.6810     2.6380 H     1 <1>   0.4000 
 38 H       -2.7460    -6.6170     1.4550 H     1 <1>   0.0800 
 39 H       -1.2880    -6.1180     2.2500 H     1 <1>   0.0800 
 40 H        0.7790    -7.2990     1.7870 H     1 <1>   0.1500 
 41 H       -2.4560    -7.7130    -0.9580 H     1 <1>   0.1500 
 42 H        1.9880    -8.9420     0.4700 H     1 <1>   0.1500 
 43 H       -1.1080    -9.3400    -2.1580 H     1 <1>   0.1500 
@<TRIPOS>BOND
  1   1   2  1   
  2   1   3  1   
  3   2   4  2   
  4   2   5  1   
  5   3   6  2   
  6   3   7  1   
  7   4   6  1   
  8   5   8  1   
  9   5  22  1   
 10   5  23  1   
 11   6   9  1   
 12   7  24  1   
 13   7  25  1   
 14   7  26  1   
 15   8  10  1   
 16   8  11  1   
 17   8  27  1   
 18   9  28  1   
 19   9  29  1   
 20   9  30  1   
 21  10  12  1   
 22  10  31  1   
 23  10  32  1   
 24  11  13  1   
 25  11  33  1   
 26  11  34  1   
 27  12  13  1   
 28  12  14  1   
 29  12  35  1   
 30  13  15  1   
 31  13  36  1   
 32  14  37  1   
 33  15  16  1   
 34  15  38  1   
 35  15  39  1   
 36  16  17  ar  
 37  16  18  ar  
 38  17  19  ar  
 39  17  40  1   
 40  18  20  ar  
 41  18  41  1   
 42  19  21  ar  
 43  19  42  1   
 44  20  21  ar  
 45  20  43  1   
@<TRIPOS>SUBSTRUCTURE
  1 ****   8 GROUP 4 **** **** 0

# MOE 2024.06 (io_trps.svl 2023.06)
