@<TRIPOS>MOLECULE
NONAME
42 44 1 0 0 
SMALL
USER_CHARGES


@<TRIPOS>ATOM
  1 CL      -2.4640     0.8960    -2.9240 Cl    1 <1>  -0.1230 
  2 C       -2.7510     0.8290    -1.1910 C.2   1 <1>   0.1230 
  3 C       -3.0060    -0.3140    -0.4270 C.2   1 <1>   0.2030 
  4 C       -2.7610     1.8850    -0.3580 C.2   1 <1>  -0.3320 
  5 N       -3.1680     0.0420     0.8410 N.2   1 <1>  -0.7070 
  6 C       -3.0890    -1.6790    -0.9160 C.2   1 <1>   0.7160 
  7 N       -3.0160     1.3760     0.8680 N.pl3 1 <1>   0.3140 
  8 C       -2.5400     3.3600    -0.6630 C.3   1 <1>  -0.0600 
  9 O       -3.0200    -1.9770    -2.0960 O.2   1 <1>  -0.5700 
 10 N       -3.2750    -2.6870    -0.0150 N.am  1 <1>  -0.7300 
 11 C       -3.1270     2.1300     2.1240 C.3   1 <1>   0.0160 
 12 C       -3.4820    -4.1160    -0.3310 C.3   1 <1>   0.2200 
 13 C       -4.9690    -4.4220    -0.2910 C.3   1 <1>  -0.0800 
 14 C       -2.9380    -4.9900     0.7980 C.3   1 <1>   0.1200 
 15 C       -5.1880    -4.6810     1.2000 C.3   1 <1>   0.1200 
 16 C       -5.3170    -5.6490    -1.1540 C.3   1 <1>  -0.0160 
 17 O       -3.9930    -5.2110     1.6900 O.3   1 <1>  -0.5600 
 18 C       -6.8110    -5.9310    -1.1360 C.ar  1 <1>  -0.1430 
 19 C       -7.3530    -6.9720    -0.4100 C.ar  1 <1>  -0.1500 
 20 C       -7.7030    -5.1540    -1.8460 C.ar  1 <1>  -0.1500 
 21 C       -8.7230    -7.1780    -0.4260 C.ar  1 <1>   0.1600 
 22 C       -9.0570    -5.4440    -1.7930 C.ar  1 <1>   0.1600 
 23 N       -9.5880    -6.4370    -1.0990 N.ar  1 <1>  -0.6200 
 24 H       -2.3560     3.5010    -1.7130 H     1 <1>   0.0800 
 25 H       -1.6900     3.7300    -0.1180 H     1 <1>   0.0800 
 26 H       -3.4090     3.9310    -0.3920 H     1 <1>   0.0800 
 27 H       -3.3870    -2.4030     0.9630 H     1 <1>   0.3700 
 28 H       -3.9260     2.8420     2.0400 H     1 <1>   0.0800 
 29 H       -2.2000     2.6370     2.3150 H     1 <1>   0.0800 
 30 H       -3.3350     1.4490     2.9290 H     1 <1>   0.0800 
 31 H       -3.0270    -4.3530    -1.2790 H     1 <1>   0.0800 
 32 H       -5.5510    -3.5820    -0.6290 H     1 <1>   0.0800 
 33 H       -2.1170    -4.5270     1.3180 H     1 <1>   0.0800 
 34 H       -2.6320    -5.9490     0.4190 H     1 <1>   0.0800 
 35 H       -5.9910    -5.3670     1.4020 H     1 <1>   0.0800 
 36 H       -5.3700    -3.7560     1.7200 H     1 <1>   0.0800 
 37 H       -4.7800    -6.5140    -0.8060 H     1 <1>   0.0800 
 38 H       -5.0150    -5.4660    -2.1710 H     1 <1>   0.0800 
 39 H       -6.7250    -7.6240     0.1690 H     1 <1>   0.1500 
 40 H       -7.3590    -4.3250    -2.4380 H     1 <1>   0.1500 
 41 H       -9.1280    -7.9940     0.1470 H     1 <1>   0.1500 
 42 H       -9.7380    -4.8260    -2.3530 H     1 <1>   0.1500 
@<TRIPOS>BOND
  1   1   2  1   
  2   2   3  1   
  3   2   4  2   
  4   3   5  2   
  5   3   6  1   
  6   4   7  1   
  7   4   8  1   
  8   5   7  1   
  9   6   9  2   
 10   6  10  am  
 11   7  11  1   
 12   8  24  1   
 13   8  25  1   
 14   8  26  1   
 15  10  12  1   
 16  10  27  1   
 17  11  28  1   
 18  11  29  1   
 19  11  30  1   
 20  12  13  1   
 21  12  14  1   
 22  12  31  1   
 23  13  15  1   
 24  13  16  1   
 25  13  32  1   
 26  14  17  1   
 27  14  33  1   
 28  14  34  1   
 29  15  17  1   
 30  15  35  1   
 31  15  36  1   
 32  16  18  1   
 33  16  37  1   
 34  16  38  1   
 35  18  19  ar  
 36  18  20  ar  
 37  19  21  ar  
 38  19  39  1   
 39  20  22  ar  
 40  20  40  1   
 41  21  23  ar  
 42  21  41  1   
 43  22  23  ar  
 44  22  42  1   
@<TRIPOS>SUBSTRUCTURE
  1 ****  10 GROUP 4 **** **** 0

# MOE 2024.06 (io_trps.svl 2023.06)
