@<TRIPOS>MOLECULE
NONAME
52 54 1 0 0 
SMALL
USER_CHARGES


@<TRIPOS>ATOM
  1 O       -1.0000    -0.1630    -0.0910 O.2   1 <1>  -0.5700 
  2 C       -2.0500     0.3960     0.0810 C.2   1 <1>   0.4230 
  3 C       -3.3120    -0.2610    -0.1120 C.ar  1 <1>   0.0860 
  4 C       -1.9850     1.8660     0.4480 C.3   1 <1>  -0.1790 
  5 C       -4.4290    -0.1650     0.7140 C.ar  1 <1>   0.1660 
  6 C       -3.4770    -1.0790    -1.2160 C.ar  1 <1>   0.1600 
  7 N       -5.5620    -0.7530     0.4300 N.ar  1 <1>  -0.6200 
  8 C       -4.4210     0.6050     2.0240 C.3   1 <1>  -0.0960 
  9 N       -4.5970    -1.6850    -1.5140 N.ar  1 <1>  -0.6200 
 10 C       -5.6140    -1.4930    -0.6770 C.ar  1 <1>   0.7200 
 11 N       -6.8020    -2.1010    -0.9730 N.pl3 1 <1>  -0.8380 
 12 C       -6.9460    -3.1370    -2.0560 C.3   1 <1>   0.2090 
 13 C       -8.0310    -1.8810    -0.1440 C.3   1 <1>   0.2090 
 14 C       -7.9050    -4.3120    -1.6960 C.3   1 <1>   0.3690 
 15 C       -9.3190    -2.3720    -0.8340 C.3   1 <1>   0.2090 
 16 N       -9.2610    -3.8080    -1.2740 N.pl3 1 <1>  -0.8380 
 17 C       -7.2820    -5.1690    -0.5850 C.3   1 <1>  -0.2400 
 18 C       -8.0940    -5.1810    -2.9430 C.3   1 <1>  -0.2400 
 19 C      -10.2130    -4.6710    -0.6950 C.ar  1 <1>   0.1000 
 20 C      -10.3620    -4.8720     0.6900 C.ar  1 <1>   0.0820 
 21 C      -11.0720    -5.3530    -1.5480 C.ar  1 <1>  -0.1500 
 22 O       -9.5540    -4.2000     1.5610 O.3   1 <1>  -0.3620 
 23 C      -11.3360    -5.7390     1.1700 C.ar  1 <1>  -0.1500 
 24 C      -12.0350    -6.2210    -1.0670 C.ar  1 <1>  -0.1500 
 25 C       -9.0190    -4.8960     2.6640 C.3   1 <1>   0.0400 
 26 C      -12.1680    -6.4170     0.2950 C.ar  1 <1>  -0.1500 
 27 H       -2.9120     2.3600     0.2250 H     1 <1>   0.0800 
 28 H       -1.2040     2.3380    -0.1200 H     1 <1>   0.0800 
 29 H       -1.7570     1.9720     1.4920 H     1 <1>   0.0800 
 30 H       -2.6380    -1.2250    -1.8770 H     1 <1>   0.1500 
 31 H       -3.4650     0.5310     2.5090 H     1 <1>   0.0800 
 32 H       -5.1590     0.1970     2.6930 H     1 <1>   0.0800 
 33 H       -4.6610     1.6370     1.8470 H     1 <1>   0.0800 
 34 H       -5.9860    -3.5520    -2.3010 H     1 <1>   0.0800 
 35 H       -7.3170    -2.6490    -2.9390 H     1 <1>   0.0800 
 36 H       -8.1350    -0.8320     0.0690 H     1 <1>   0.0800 
 37 H       -7.9180    -2.3940     0.7940 H     1 <1>   0.0800 
 38 H       -9.5020    -1.7560    -1.6960 H     1 <1>   0.0800 
 39 H      -10.1470    -2.2350    -0.1610 H     1 <1>   0.0800 
 40 H       -7.1550    -4.5860     0.3070 H     1 <1>   0.0800 
 41 H       -6.3150    -5.5240    -0.8900 H     1 <1>   0.0800 
 42 H       -7.9000    -6.0200    -0.3660 H     1 <1>   0.0800 
 43 H       -8.6040    -4.6220    -3.7060 H     1 <1>   0.0800 
 44 H       -8.6660    -6.0590    -2.7070 H     1 <1>   0.0800 
 45 H       -7.1410    -5.4980    -3.3250 H     1 <1>   0.0800 
 46 H      -10.9780    -5.1900    -2.6050 H     1 <1>   0.1500 
 47 H      -11.4640    -5.8870     2.2250 H     1 <1>   0.1500 
 48 H      -12.6830    -6.7390    -1.7530 H     1 <1>   0.1500 
 49 H       -8.2050    -4.3160     3.0600 H     1 <1>   0.0800 
 50 H       -8.6580    -5.8540     2.3310 H     1 <1>   0.0800 
 51 H       -9.7820    -5.0120     3.4120 H     1 <1>   0.0800 
 52 H      -12.9190    -7.0890     0.6730 H     1 <1>   0.1500 
@<TRIPOS>BOND
  1   1   2  2   
  2   2   3  1   
  3   2   4  1   
  4   3   5  ar  
  5   3   6  ar  
  6   4  27  1   
  7   4  28  1   
  8   4  29  1   
  9   5   7  ar  
 10   5   8  1   
 11   6   9  ar  
 12   6  30  1   
 13   7  10  ar  
 14   8  31  1   
 15   8  32  1   
 16   8  33  1   
 17   9  10  ar  
 18  10  11  1   
 19  11  12  1   
 20  11  13  1   
 21  12  14  1   
 22  12  34  1   
 23  12  35  1   
 24  13  15  1   
 25  13  36  1   
 26  13  37  1   
 27  14  16  1   
 28  14  17  1   
 29  14  18  1   
 30  15  16  1   
 31  15  38  1   
 32  15  39  1   
 33  16  19  1   
 34  17  40  1   
 35  17  41  1   
 36  17  42  1   
 37  18  43  1   
 38  18  44  1   
 39  18  45  1   
 40  19  20  ar  
 41  19  21  ar  
 42  20  22  1   
 43  20  23  ar  
 44  21  24  ar  
 45  21  46  1   
 46  22  25  1   
 47  23  26  ar  
 48  23  47  1   
 49  24  26  ar  
 50  24  48  1   
 51  25  49  1   
 52  25  50  1   
 53  25  51  1   
 54  26  52  1   
@<TRIPOS>SUBSTRUCTURE
  1 ****  11 GROUP 4 **** **** 0

# MOE 2024.06 (io_trps.svl 2023.06)
