@<TRIPOS>MOLECULE
NONAME
38 40 1 0 0 
SMALL
USER_CHARGES


@<TRIPOS>ATOM
  1 CL      -0.1780    -1.0480     1.0490 Cl    1 <1>  -0.1770 
  2 C       -1.8350    -1.4910     1.4050 C.ar  1 <1>   0.1770 
  3 C       -2.6170    -2.2130     0.5050 C.ar  1 <1>   0.1310 
  4 C       -2.3300    -1.1110     2.6370 C.ar  1 <1>  -0.1500 
  5 N       -3.8900    -2.5430     0.8110 N.ar  1 <1>  -0.6200 
  6 C       -2.0370    -2.6380    -0.7680 C.2   1 <1>   0.9790 
  7 C       -3.6120    -1.5040     2.9420 C.ar  1 <1>  -0.1500 
  8 C       -4.3450    -2.2350     2.0160 C.ar  1 <1>   0.4100 
  9 O       -1.7110    -1.8070    -1.6380 O.co2 1 <1>  -0.9000 
 10 O       -1.8630    -3.8520    -1.0200 O.co2 1 <1>  -0.9000 
 11 N       -5.6030    -2.7160     2.3370 N.pl3 1 <1>  -0.8380 
 12 C       -6.7360    -1.9790     1.6870 C.3   1 <1>   0.2090 
 13 C       -5.7670    -4.1610     1.9920 C.3   1 <1>   0.2090 
 14 C       -7.6390    -3.0440     1.0470 C.3   1 <1>   0.2000 
 15 C       -6.6520    -4.1610     0.7470 C.3   1 <1>  -0.0800 
 16 O       -8.5670    -3.4860     1.9830 O.3   1 <1>  -0.6800 
 17 C       -7.1920    -5.5480     0.3780 C.3   1 <1>   0.0200 
 18 C       -6.0610    -6.4260    -0.1430 C.2   1 <1>  -0.0400 
 19 O       -6.2450    -7.7080    -0.3130 O.3   1 <1>  -0.0190 
 20 C       -4.7970    -6.1440    -0.5050 C.2   1 <1>  -0.1500 
 21 N       -5.1730    -8.2990    -0.7660 N.2   1 <1>  -0.4100 
 22 C       -4.2850    -7.3760    -0.8910 C.2   1 <1>   0.1080 
 23 C       -2.8720    -7.5770    -1.3900 C.3   1 <1>  -0.0590 
 24 H       -1.7240    -0.5470     3.3220 H     1 <1>   0.1500 
 25 H       -4.0620    -1.2710     3.8870 H     1 <1>   0.1500 
 26 H       -7.2730    -1.3830     2.4020 H     1 <1>   0.0800 
 27 H       -6.3480    -1.3350     0.9150 H     1 <1>   0.0800 
 28 H       -4.8210    -4.6450     1.8090 H     1 <1>   0.0800 
 29 H       -6.2510    -4.6670     2.8090 H     1 <1>   0.0800 
 30 H       -8.1620    -2.6880     0.1770 H     1 <1>   0.0800 
 31 H       -6.0590    -3.8160    -0.0820 H     1 <1>   0.0800 
 32 H       -8.1070    -3.6010     2.8390 H     1 <1>   0.4000 
 33 H       -7.9390    -5.4560    -0.3910 H     1 <1>   0.0800 
 34 H       -7.6470    -6.0120     1.2350 H     1 <1>   0.0800 
 35 H       -4.2450    -5.2160    -0.5220 H     1 <1>   0.1500 
 36 H       -2.3420    -6.6390    -1.3900 H     1 <1>   0.0800 
 37 H       -2.8930    -7.9650    -2.3910 H     1 <1>   0.0800 
 38 H       -2.3560    -8.2690    -0.7510 H     1 <1>   0.0800 
@<TRIPOS>BOND
  1   1   2  1   
  2   2   3  ar  
  3   2   4  ar  
  4   3   5  ar  
  5   3   6  1   
  6   4   7  ar  
  7   4  24  1   
  8   5   8  ar  
  9   6   9  ar  
 10   6  10  ar  
 11   7   8  ar  
 12   7  25  1   
 13   8  11  1   
 14  11  12  1   
 15  11  13  1   
 16  12  14  1   
 17  12  26  1   
 18  12  27  1   
 19  13  15  1   
 20  13  28  1   
 21  13  29  1   
 22  14  15  1   
 23  14  16  1   
 24  14  30  1   
 25  15  17  1   
 26  15  31  1   
 27  16  32  1   
 28  17  18  1   
 29  17  33  1   
 30  17  34  1   
 31  18  19  1   
 32  18  20  2   
 33  19  21  1   
 34  20  22  1   
 35  20  35  1   
 36  21  22  2   
 37  22  23  1   
 38  23  36  1   
 39  23  37  1   
 40  23  38  1   
@<TRIPOS>SUBSTRUCTURE
  1 ****   5 GROUP 4 **** **** 0

# MOE 2024.06 (io_trps.svl 2023.06)
