@<TRIPOS>MOLECULE
NONAME
64 68 1 0 0 
SMALL
USER_CHARGES


@<TRIPOS>ATOM
  1 O       -1.0720    -1.1960     1.6060 O.2   1 <1>  -0.5700 
  2 C       -1.4720    -1.2580     0.4590 C.2   1 <1>   0.5440 
  3 N       -0.8310    -2.1170    -0.3920 N.am  1 <1>  -0.7300 
  4 C       -2.5860    -0.4430     0.0070 C.ar  1 <1>   0.0860 
  5 C        0.3380    -2.9340    -0.0030 C.3   1 <1>   0.1400 
  6 C       -3.3880    -0.8160    -1.0740 C.ar  1 <1>  -0.1500 
  7 C       -2.8990     0.7590     0.6460 C.ar  1 <1>  -0.1500 
  8 C       -0.1390    -4.2220     0.6860 C.3   1 <1>  -0.0800 
  9 C       -4.4370    -0.0230    -1.5010 C.ar  1 <1>  -0.1500 
 10 C       -3.9460     1.5580     0.2270 C.ar  1 <1>  -0.1500 
 11 C       -0.6880    -5.2290    -0.3320 C.3   1 <1>   0.2000 
 12 C        0.9660    -5.0700     1.3570 C.3   1 <1>  -0.0800 
 13 C       -4.7250     1.1700    -0.8590 C.ar  1 <1>   0.0830 
 14 O        0.4760    -5.8900    -0.6660 O.3   1 <1>  -0.5600 
 15 C       -1.4820    -6.3520     0.3540 C.3   1 <1>  -0.1600 
 16 C        0.8530    -6.3710     0.5740 C.3   1 <1>   0.2800 
 17 C        2.4450    -4.6710     1.1980 C.3   1 <1>   0.3430 
 18 O       -5.7650     1.8880    -1.3380 O.3   1 <1>  -0.3630 
 19 C       -0.3650    -7.1990     0.9760 C.3   1 <1>  -0.1600 
 20 C        2.2660    -6.9300     0.5080 C.3   1 <1>   0.3430 
 21 N        3.0900    -5.6940     0.3000 N.4   1 <1>  -0.9590 
 22 C       -6.1540     3.1110    -0.7520 C.3   1 <1>   0.0400 
 23 C        4.5680    -5.8530     0.4200 C.3   1 <1>   0.4230 
 24 C        5.2630    -4.5120     0.1530 C.3   1 <1>  -0.1600 
 25 C        5.0650    -6.9080    -0.5770 C.3   1 <1>  -0.1600 
 26 C        6.7850    -4.6550     0.1600 C.3   1 <1>   0.3430 
 27 C        6.5900    -7.0220    -0.5650 C.3   1 <1>   0.3430 
 28 N        7.2040    -5.6900    -0.8270 N.4   1 <1>  -0.9590 
 29 C        8.7000    -5.8060    -0.8550 C.3   1 <1>   0.2630 
 30 H       -1.0720    -2.0960    -1.3850 H     1 <1>   0.3700 
 31 H        0.9260    -3.1580    -0.8770 H     1 <1>   0.0800 
 32 H        0.9370    -2.3550     0.6790 H     1 <1>   0.0800 
 33 H       -3.2010    -1.7410    -1.5870 H     1 <1>   0.1500 
 34 H       -2.3030     1.0660     1.4890 H     1 <1>   0.1500 
 35 H       -0.8950    -3.9650     1.4100 H     1 <1>   0.0800 
 36 H       -5.0460    -0.3220    -2.3350 H     1 <1>   0.1500 
 37 H       -4.1420     2.4730     0.7530 H     1 <1>   0.1500 
 38 H       -1.1680    -4.8020    -1.1970 H     1 <1>   0.0800 
 39 H        0.7490    -5.2180     2.4010 H     1 <1>   0.0800 
 40 H       -2.1700    -5.9640     1.0860 H     1 <1>   0.0800 
 41 H       -2.0310    -6.9170    -0.3800 H     1 <1>   0.0800 
 42 H        2.9130    -4.6910     2.1700 H     1 <1>   0.0800 
 43 H        2.5490    -3.6800     0.7890 H     1 <1>   0.0800 
 44 H       -0.3280    -8.1750     0.5230 H     1 <1>   0.0800 
 45 H       -0.4640    -7.2960     2.0430 H     1 <1>   0.0800 
 46 H        2.3600    -7.6320    -0.3040 H     1 <1>   0.0800 
 47 H        2.5150    -7.4050     1.4420 H     1 <1>   0.0800 
 48 H        2.8380    -5.4070    -0.6600 H     1 <1>   0.4500 
 49 H       -6.9980     3.4890    -1.2990 H     1 <1>   0.0800 
 50 H       -5.3350     3.8050    -0.8170 H     1 <1>   0.0800 
 51 H       -6.4310     2.9340     0.2720 H     1 <1>   0.0800 
 52 H        4.8080    -6.1780     1.4210 H     1 <1>   0.0800 
 53 H        4.9560    -4.1100    -0.7960 H     1 <1>   0.0800 
 54 H        5.0030    -3.8020     0.9180 H     1 <1>   0.0800 
 55 H        4.6690    -7.8740    -0.3220 H     1 <1>   0.0800 
 56 H        4.7430    -6.6660    -1.5750 H     1 <1>   0.0800 
 57 H        7.1210    -4.9360     1.1460 H     1 <1>   0.0800 
 58 H        7.2380    -3.7070    -0.0880 H     1 <1>   0.0800 
 59 H        6.9050    -7.7270    -1.3190 H     1 <1>   0.0800 
 60 H        6.9210    -7.3920     0.3940 H     1 <1>   0.0800 
 61 H        6.9150    -5.3790    -1.7690 H     1 <1>   0.4500 
 62 H        9.0730    -6.1300     0.1030 H     1 <1>   0.0800 
 63 H        9.1470    -4.8530    -1.0930 H     1 <1>   0.0800 
 64 H        9.0090    -6.5200    -1.6020 H     1 <1>   0.0800 
@<TRIPOS>BOND
  1   1   2  2   
  2   2   3  am  
  3   2   4  1   
  4   3   5  1   
  5   3  30  1   
  6   4   6  ar  
  7   4   7  ar  
  8   5   8  1   
  9   5  31  1   
 10   5  32  1   
 11   6   9  ar  
 12   6  33  1   
 13   7  10  ar  
 14   7  34  1   
 15   8  11  1   
 16   8  12  1   
 17   8  35  1   
 18   9  13  ar  
 19   9  36  1   
 20  10  13  ar  
 21  10  37  1   
 22  11  14  1   
 23  11  15  1   
 24  11  38  1   
 25  12  16  1   
 26  12  17  1   
 27  12  39  1   
 28  13  18  1   
 29  14  16  1   
 30  15  19  1   
 31  15  40  1   
 32  15  41  1   
 33  16  19  1   
 34  16  20  1   
 35  17  21  1   
 36  17  42  1   
 37  17  43  1   
 38  18  22  1   
 39  19  44  1   
 40  19  45  1   
 41  20  21  1   
 42  20  46  1   
 43  20  47  1   
 44  21  23  1   
 45  21  48  1   
 46  22  49  1   
 47  22  50  1   
 48  22  51  1   
 49  23  24  1   
 50  23  25  1   
 51  23  52  1   
 52  24  26  1   
 53  24  53  1   
 54  24  54  1   
 55  25  27  1   
 56  25  55  1   
 57  25  56  1   
 58  26  28  1   
 59  26  57  1   
 60  26  58  1   
 61  27  28  1   
 62  27  59  1   
 63  27  60  1   
 64  28  29  1   
 65  28  61  1   
 66  29  62  1   
 67  29  63  1   
 68  29  64  1   
@<TRIPOS>SUBSTRUCTURE
  1 ****   5 GROUP 4 **** **** 0

# MOE 2024.06 (io_trps.svl 2023.06)
