@<TRIPOS>MOLECULE
NONAME
43 44 1 0 0 
SMALL
USER_CHARGES


@<TRIPOS>ATOM
  1 S       -0.2460     0.4940    -0.0990 S.o2  1 <1>   1.3330 
  2 O       -0.6770     1.8280    -0.4480 O.2   1 <1>  -0.6500 
  3 O       -0.4940    -0.0080     1.2340 O.2   1 <1>  -0.6500 
  4 N       -0.9620    -0.5930    -1.1920 N.am  1 <1>  -0.8490 
  5 C        1.4970     0.3540    -0.5010 C.3   1 <1>  -0.0550 
  6 C       -0.9500    -1.9830    -0.7210 C.3   1 <1>   0.1160 
  7 C       -2.3280    -0.2010    -1.5500 C.3   1 <1>   0.1160 
  8 C        2.4100     1.2690     0.3400 C.3   1 <1>  -0.0800 
  9 C        3.8320     1.2600    -0.1940 C.3   1 <1>   0.2890 
 10 C        2.6190     0.7270     1.7560 C.3   1 <1>   0.1200 
 11 N        4.5330     2.4840     0.2590 N.pl3 1 <1>  -0.8690 
 12 C        4.4290     0.0380     0.5030 C.3   1 <1>   0.1200 
 13 O        3.6960    -0.1600     1.6790 O.3   1 <1>  -0.5600 
 14 C        4.6570     3.6430    -0.4660 C.ar  1 <1>   0.4100 
 15 N        4.1580     3.6390    -1.6830 N.ar  1 <1>  -0.6200 
 16 C        5.2770     4.7680     0.0690 C.ar  1 <1>  -0.1430 
 17 C        4.2820     4.7670    -2.3480 C.ar  1 <1>   0.4700 
 18 C        5.3360     5.8880    -0.7340 C.ar  1 <1>   0.1670 
 19 C        5.8550     4.7210     1.4860 C.3   1 <1>  -0.0970 
 20 N        4.8400     5.8950    -1.9540 N.ar  1 <1>  -0.6200 
 21 C        5.9660     7.1950    -0.2870 C.3   1 <1>  -0.0970 
 22 H        1.8080    -0.6660    -0.3840 H     1 <1>   0.0800 
 23 H        1.6150     0.6150    -1.5350 H     1 <1>   0.0800 
 24 H       -1.3280    -2.6360    -1.4890 H     1 <1>   0.0800 
 25 H       -1.5630    -2.0870     0.1600 H     1 <1>   0.0800 
 26 H        0.0540    -2.2870    -0.4800 H     1 <1>   0.0800 
 27 H       -2.7460    -0.9010    -2.2530 H     1 <1>   0.0800 
 28 H       -2.3240     0.7730    -2.0090 H     1 <1>   0.0800 
 29 H       -2.9500    -0.1660    -0.6710 H     1 <1>   0.0800 
 30 H        2.0040     2.2670     0.3470 H     1 <1>   0.0800 
 31 H        3.8860     1.1700    -1.2660 H     1 <1>   0.0800 
 32 H        1.7670     0.2100     2.1590 H     1 <1>   0.0800 
 33 H        2.9000     1.5210     2.4260 H     1 <1>   0.0800 
 34 H        4.7590     2.5040     1.2540 H     1 <1>   0.4000 
 35 H        5.4680     0.1730     0.7430 H     1 <1>   0.0800 
 36 H        4.3070    -0.8400    -0.1050 H     1 <1>   0.0800 
 37 H        3.8750     4.7710    -3.3450 H     1 <1>   0.1500 
 38 H        6.4470     5.5850     1.7190 H     1 <1>   0.0800 
 39 H        6.4880     3.8580     1.5930 H     1 <1>   0.0800 
 40 H        5.0540     4.6550     2.2000 H     1 <1>   0.0800 
 41 H        5.5470     7.5080     0.6510 H     1 <1>   0.0800 
 42 H        5.7810     7.9680    -1.0120 H     1 <1>   0.0800 
 43 H        7.0280     7.0710    -0.1870 H     1 <1>   0.0800 
@<TRIPOS>BOND
  1   1   2  2   
  2   1   3  2   
  3   1   4  am  
  4   1   5  1   
  5   4   6  1   
  6   4   7  1   
  7   5   8  1   
  8   5  22  1   
  9   5  23  1   
 10   6  24  1   
 11   6  25  1   
 12   6  26  1   
 13   7  27  1   
 14   7  28  1   
 15   7  29  1   
 16   8   9  1   
 17   8  10  1   
 18   8  30  1   
 19   9  11  1   
 20   9  12  1   
 21   9  31  1   
 22  10  13  1   
 23  10  32  1   
 24  10  33  1   
 25  11  14  1   
 26  11  34  1   
 27  12  13  1   
 28  12  35  1   
 29  12  36  1   
 30  14  15  ar  
 31  14  16  ar  
 32  15  17  ar  
 33  16  18  ar  
 34  16  19  1   
 35  17  20  ar  
 36  17  37  1   
 37  18  20  ar  
 38  18  21  1   
 39  19  38  1   
 40  19  39  1   
 41  19  40  1   
 42  21  41  1   
 43  21  42  1   
 44  21  43  1   
@<TRIPOS>SUBSTRUCTURE
  1 ****   8 GROUP 4 **** **** 0

# MOE 2024.06 (io_trps.svl 2023.06)
