@<TRIPOS>MOLECULE
NONAME
53 55 1 0 0 
SMALL
USER_CHARGES


@<TRIPOS>ATOM
  1 O        1.1570     0.1040     1.7430 O.2   1 <1>  -0.5700 
  2 C        1.5340    -0.4660     0.7320 C.2   1 <1>   0.5440 
  3 N        1.2050     0.0790    -0.4890 N.am  1 <1>  -0.6600 
  4 C        2.2940    -1.6880     0.8240 C.ar  1 <1>   0.0860 
  5 C        0.4120     1.3240    -0.6080 C.3   1 <1>   0.1400 
  6 C        1.1900    -0.6770    -1.7620 C.3   1 <1>   0.1400 
  7 C        1.8050    -2.7860     1.5550 C.ar  1 <1>   0.4100 
  8 C        3.5140    -1.8320     0.1770 C.ar  1 <1>  -0.1500 
  9 C        0.0610     1.4290    -2.0880 C.3   1 <1>  -0.1600 
 10 C        0.1050    -0.0090    -2.5970 C.3   1 <1>  -0.1600 
 11 N        2.4210    -3.9640     1.6230 N.ar  1 <1>  -0.6200 
 12 N        0.6090    -2.6940     2.2290 N.pl3 1 <1>  -0.8690 
 13 C        4.1600    -3.0430     0.2660 C.ar  1 <1>  -0.1500 
 14 C        3.5740    -4.0650     0.9910 C.ar  1 <1>   0.1600 
 15 C       -0.0230    -3.7210     3.0980 C.3   1 <1>   0.2090 
 16 C       -1.3950    -4.1170     2.5420 C.3   1 <1>  -0.0990 
 17 C       -1.3680    -4.8950     1.2390 C.2   1 <1>   0.5690 
 18 O       -2.4150    -5.3210     0.8140 O.2   1 <1>  -0.5700 
 19 N       -0.1970    -5.0940     0.5920 N.am  1 <1>  -0.7300 
 20 C       -0.0100    -5.7240    -0.7170 C.3   1 <1>   0.2200 
 21 C        1.0120    -6.8550    -0.5750 C.3   1 <1>  -0.1600 
 22 C        0.4780    -4.6530    -1.6980 C.3   1 <1>  -0.1600 
 23 C        1.3630    -7.4660    -1.9400 C.3   1 <1>  -0.1600 
 24 C        0.8260    -5.2600    -3.0640 C.3   1 <1>  -0.1600 
 25 C        1.8540    -6.3910    -2.9200 C.3   1 <1>  -0.1600 
 26 H        0.9830     2.1710    -0.2690 H     1 <1>   0.0800 
 27 H       -0.4810     1.2310    -0.0120 H     1 <1>   0.0800 
 28 H        0.9710    -1.7180    -1.5980 H     1 <1>   0.0800 
 29 H        2.1470    -0.5750    -2.2440 H     1 <1>   0.0800 
 30 H        3.9350    -1.0110    -0.3780 H     1 <1>   0.1500 
 31 H        0.8140     2.0170    -2.5830 H     1 <1>   0.0800 
 32 H       -0.8990     1.8890    -2.2370 H     1 <1>   0.0800 
 33 H       -0.8350    -0.4950    -2.4000 H     1 <1>   0.0800 
 34 H        0.3160    -0.0660    -3.6500 H     1 <1>   0.0800 
 35 H        0.2750    -1.7280     2.3770 H     1 <1>   0.4000 
 36 H        5.1080    -3.2000    -0.2180 H     1 <1>   0.1500 
 37 H        4.0830    -5.0120     1.0530 H     1 <1>   0.1500 
 38 H       -0.1440    -3.3050     4.0840 H     1 <1>   0.0800 
 39 H        0.6020    -4.5930     3.1870 H     1 <1>   0.0800 
 40 H       -1.9930    -3.2370     2.4040 H     1 <1>   0.0800 
 41 H       -1.8880    -4.7340     3.2680 H     1 <1>   0.0800 
 42 H        0.6440    -4.6370     0.9800 H     1 <1>   0.3700 
 43 H       -0.9480    -6.1290    -1.0630 H     1 <1>   0.0800 
 44 H        0.6060    -7.6190     0.0640 H     1 <1>   0.0800 
 45 H        1.9080    -6.4720    -0.1210 H     1 <1>   0.0800 
 46 H        1.3520    -4.1740    -1.2940 H     1 <1>   0.0800 
 47 H       -0.2940    -3.9130    -1.8210 H     1 <1>   0.0800 
 48 H        0.4910    -7.9480    -2.3480 H     1 <1>   0.0800 
 49 H        2.1250    -8.2160    -1.8140 H     1 <1>   0.0800 
 50 H        1.2180    -4.4950    -3.7120 H     1 <1>   0.0800 
 51 H       -0.0700    -5.6500    -3.5180 H     1 <1>   0.0800 
 52 H        2.0360    -6.8370    -3.8820 H     1 <1>   0.0800 
 53 H        2.7840    -5.9830    -2.5630 H     1 <1>   0.0800 
@<TRIPOS>BOND
  1   1   2  2   
  2   2   3  am  
  3   2   4  1   
  4   3   5  1   
  5   3   6  1   
  6   4   7  ar  
  7   4   8  ar  
  8   5   9  1   
  9   5  26  1   
 10   5  27  1   
 11   6  10  1   
 12   6  28  1   
 13   6  29  1   
 14   7  11  ar  
 15   7  12  1   
 16   8  13  ar  
 17   8  30  1   
 18   9  10  1   
 19   9  31  1   
 20   9  32  1   
 21  10  33  1   
 22  10  34  1   
 23  11  14  ar  
 24  12  15  1   
 25  12  35  1   
 26  13  14  ar  
 27  13  36  1   
 28  14  37  1   
 29  15  16  1   
 30  15  38  1   
 31  15  39  1   
 32  16  17  1   
 33  16  40  1   
 34  16  41  1   
 35  17  18  2   
 36  17  19  am  
 37  19  20  1   
 38  19  42  1   
 39  20  21  1   
 40  20  22  1   
 41  20  43  1   
 42  21  23  1   
 43  21  44  1   
 44  21  45  1   
 45  22  24  1   
 46  22  46  1   
 47  22  47  1   
 48  23  25  1   
 49  23  48  1   
 50  23  49  1   
 51  24  25  1   
 52  24  50  1   
 53  24  51  1   
 54  25  52  1   
 55  25  53  1   
@<TRIPOS>SUBSTRUCTURE
  1 ****   7 GROUP 4 **** **** 0

# MOE 2024.06 (io_trps.svl 2023.06)
