@<TRIPOS>MOLECULE
NONAME
46 49 1 0 0 
SMALL
USER_CHARGES


@<TRIPOS>ATOM
  1 F       -1.7890    -0.2710    -0.4570 F     1 <1>  -0.1900 
  2 C       -1.0090    -1.3200    -0.5690 C.ar  1 <1>   0.1900 
  3 C       -1.5950    -2.5860    -0.6580 C.ar  1 <1>   0.1170 
  4 C        0.3550    -1.1110    -0.5920 C.ar  1 <1>  -0.1500 
  5 N       -2.9980    -2.7040    -0.6300 N.am  1 <1>  -0.5470 
  6 C       -0.7380    -3.6800    -0.7870 C.ar  1 <1>  -0.1500 
  7 C        1.1580    -2.2270    -0.7150 C.ar  1 <1>   0.1900 
  8 C       -3.8320    -3.7390    -0.3190 C.2   1 <1>   0.6900 
  9 C        0.6380    -3.5060    -0.8130 C.ar  1 <1>  -0.1500 
 10 F        2.4550    -2.0700    -0.7400 F     1 <1>  -0.1900 
 11 O       -3.3870    -4.8300    -0.0170 O.2   1 <1>  -0.5700 
 12 N       -5.1880    -3.5260    -0.3230 N.am  1 <1>  -0.6600 
 13 C       -5.8650    -2.2570    -0.7320 C.3   1 <1>   0.1400 
 14 C       -6.1120    -4.5910     0.1770 C.3   1 <1>   0.1400 
 15 C       -6.5880    -1.6140     0.4720 C.3   1 <1>   0.1440 
 16 C       -7.4720    -4.0180     0.6200 C.3   1 <1>  -0.1600 
 17 C       -7.5400    -0.5690    -0.0840 C.ar  1 <1>   0.1670 
 18 C       -7.3010    -2.6770     1.3530 C.3   1 <1>  -0.1600 
 19 C       -5.6180    -0.7460     1.3190 C.3   1 <1>  -0.1600 
 20 N       -8.6830    -0.8200    -0.6840 N.ar  1 <1>  -0.6200 
 21 C       -7.0580     0.6940     0.0900 C.ar  1 <1>  -0.1440 
 22 C       -5.7220     0.6950     0.7890 C.3   1 <1>  -0.0170 
 23 C       -9.3350     0.2590    -1.0940 C.ar  1 <1>   0.4770 
 24 C       -7.8160     1.7390    -0.3760 C.ar  1 <1>   0.1600 
 25 N       -8.9690     1.5290    -0.9760 N.ar  1 <1>  -0.6200 
 26 C      -10.6590     0.0220    -1.7790 C.3   1 <1>  -0.0970 
 27 H        0.7780    -0.1260    -0.5190 H     1 <1>   0.1500 
 28 H       -3.4880    -1.8240    -0.7390 H     1 <1>   0.3700 
 29 H       -1.1410    -4.6730    -0.8700 H     1 <1>   0.1500 
 30 H        1.2990    -4.3490    -0.9090 H     1 <1>   0.1500 
 31 H       -6.5920    -2.4980    -1.4900 H     1 <1>   0.0800 
 32 H       -5.1800    -1.5570    -1.1730 H     1 <1>   0.0800 
 33 H       -5.6510    -5.0790     1.0200 H     1 <1>   0.0800 
 34 H       -6.2550    -5.3290    -0.5930 H     1 <1>   0.0800 
 35 H       -7.9620    -4.7290     1.2610 H     1 <1>   0.0800 
 36 H       -8.1020    -3.8800    -0.2430 H     1 <1>   0.0800 
 37 H       -8.2600    -2.3080     1.6740 H     1 <1>   0.0800 
 38 H       -6.7160    -2.8690     2.2360 H     1 <1>   0.0800 
 39 H       -4.6080    -1.1160     1.2990 H     1 <1>   0.0800 
 40 H       -5.9500    -0.7360     2.3420 H     1 <1>   0.0800 
 41 H       -4.9390     0.9000     0.0790 H     1 <1>   0.0800 
 42 H       -5.6890     1.4140     1.5890 H     1 <1>   0.0800 
 43 H       -7.4780     2.7550    -0.2590 H     1 <1>   0.1500 
 44 H      -10.8060    -1.0260    -1.9640 H     1 <1>   0.0800 
 45 H      -10.6790     0.5480    -2.7140 H     1 <1>   0.0800 
 46 H      -11.4520     0.3840    -1.1530 H     1 <1>   0.0800 
@<TRIPOS>BOND
  1   1   2  1   
  2   2   3  ar  
  3   2   4  ar  
  4   3   5  1   
  5   3   6  ar  
  6   4   7  ar  
  7   4  27  1   
  8   5   8  am  
  9   5  28  1   
 10   6   9  ar  
 11   6  29  1   
 12   7   9  ar  
 13   7  10  1   
 14   8  11  2   
 15   8  12  am  
 16   9  30  1   
 17  12  13  1   
 18  12  14  1   
 19  13  15  1   
 20  13  31  1   
 21  13  32  1   
 22  14  16  1   
 23  14  33  1   
 24  14  34  1   
 25  15  17  1   
 26  15  18  1   
 27  15  19  1   
 28  16  18  1   
 29  16  35  1   
 30  16  36  1   
 31  17  20  ar  
 32  17  21  ar  
 33  18  37  1   
 34  18  38  1   
 35  19  22  1   
 36  19  39  1   
 37  19  40  1   
 38  20  23  ar  
 39  21  22  1   
 40  21  24  ar  
 41  22  41  1   
 42  22  42  1   
 43  23  25  ar  
 44  23  26  1   
 45  24  25  ar  
 46  24  43  1   
 47  26  44  1   
 48  26  45  1   
 49  26  46  1   
@<TRIPOS>SUBSTRUCTURE
  1 ****  13 GROUP 4 **** **** 0

# MOE 2024.06 (io_trps.svl 2023.06)
