@<TRIPOS>MOLECULE
NONAME
45 46 1 0 0 
SMALL
USER_CHARGES


@<TRIPOS>ATOM
  1 F        0.4910    -0.0490     1.3950 F     1 <1>  -0.3400 
  2 C       -0.3020    -0.8810     0.7300 C.3   1 <1>   1.1640 
  3 F       -0.7430    -0.2080    -0.3260 F     1 <1>  -0.3400 
  4 F       -1.3560    -1.0930     1.5070 F     1 <1>  -0.3400 
  5 C        0.3910    -2.1980     0.3390 C.ar  1 <1>  -0.1440 
  6 C        1.5910    -2.5950     0.9240 C.ar  1 <1>  -0.1500 
  7 C       -0.1900    -3.0260    -0.6130 C.ar  1 <1>  -0.1500 
  8 C        2.2090    -3.7910     0.5700 C.ar  1 <1>  -0.1440 
  9 C        0.4040    -4.2240    -0.9750 C.ar  1 <1>  -0.1440 
 10 C        1.5990    -4.5950    -0.3850 C.ar  1 <1>  -0.1500 
 11 C        3.5350    -4.2440     1.2080 C.3   1 <1>   1.1640 
 12 C       -0.2450    -5.1330    -2.0160 C.3   1 <1>   0.0450 
 13 F        4.4440    -4.5790     0.3010 F     1 <1>  -0.3400 
 14 F        3.3720    -5.3070     1.9850 F     1 <1>  -0.3400 
 15 F        4.0970    -3.3110     1.9680 F     1 <1>  -0.3400 
 16 C       -0.5120    -6.5380    -1.4840 C.2   1 <1>   0.5690 
 17 O        0.2960    -7.3900    -1.7740 O.2   1 <1>  -0.5700 
 18 N       -1.6100    -6.8320    -0.7120 N.am  1 <1>  -0.6600 
 19 C       -1.7990    -8.2340    -0.2350 C.3   1 <1>   0.3200 
 20 C       -2.5420    -5.7880    -0.1770 C.3   1 <1>   0.1400 
 21 C       -3.2710    -8.5950    -0.1360 C.2   1 <1>  -0.3320 
 22 C       -3.6820    -5.4940    -1.1610 C.3   1 <1>   0.1200 
 23 N       -3.9790    -8.6990     1.0080 N.pl3 1 <1>   0.0480 
 24 C       -4.1240    -8.8830    -1.1430 C.2   1 <1>   0.0770 
 25 O       -4.2460    -4.2660    -0.8460 O.3   1 <1>  -0.6800 
 26 C       -5.2260    -9.0320     0.6060 C.2   1 <1>   0.0360 
 27 C       -3.5120    -8.5440     2.3980 C.3   1 <1>   0.0160 
 28 N       -5.3570    -9.1450    -0.6750 N.2   1 <1>  -0.5650 
 29 H        2.0490    -1.9630     1.6690 H     1 <1>   0.1500 
 30 H       -1.1210    -2.7340    -1.0750 H     1 <1>   0.1500 
 31 H        2.0610    -5.5280    -0.6720 H     1 <1>   0.1500 
 32 H        0.4170    -5.2120    -2.8580 H     1 <1>   0.0800 
 33 H       -1.1590    -4.7050    -2.3780 H     1 <1>   0.0800 
 34 H       -1.3120    -8.3530     0.7170 H     1 <1>   0.0800 
 35 H       -1.3340    -8.9190    -0.9240 H     1 <1>   0.0800 
 36 H       -1.9920    -4.8840     0.0060 H     1 <1>   0.0800 
 37 H       -2.9520    -6.1060     0.7630 H     1 <1>   0.0800 
 38 H       -4.4510    -6.2450    -1.1130 H     1 <1>   0.0800 
 39 H       -3.3090    -5.4290    -2.1670 H     1 <1>   0.0800 
 40 H       -3.9100    -8.9100    -2.2000 H     1 <1>   0.1500 
 41 H       -4.9600    -4.3730    -0.1860 H     1 <1>   0.4000 
 42 H       -6.0280    -9.1890     1.3060 H     1 <1>   0.1500 
 43 H       -2.9340    -7.6430     2.4890 H     1 <1>   0.0800 
 44 H       -2.9040    -9.3900     2.6630 H     1 <1>   0.0800 
 45 H       -4.3580    -8.4930     3.0590 H     1 <1>   0.0800 
@<TRIPOS>BOND
  1   1   2  1   
  2   2   3  1   
  3   2   4  1   
  4   2   5  1   
  5   5   6  ar  
  6   5   7  ar  
  7   6   8  ar  
  8   6  29  1   
  9   7   9  ar  
 10   7  30  1   
 11   8  10  ar  
 12   8  11  1   
 13   9  10  ar  
 14   9  12  1   
 15  10  31  1   
 16  11  13  1   
 17  11  14  1   
 18  11  15  1   
 19  12  16  1   
 20  12  32  1   
 21  12  33  1   
 22  16  17  2   
 23  16  18  am  
 24  18  19  1   
 25  18  20  1   
 26  19  21  1   
 27  19  34  1   
 28  19  35  1   
 29  20  22  1   
 30  20  36  1   
 31  20  37  1   
 32  21  23  1   
 33  21  24  2   
 34  22  25  1   
 35  22  38  1   
 36  22  39  1   
 37  23  26  1   
 38  23  27  1   
 39  24  28  1   
 40  24  40  1   
 41  25  41  1   
 42  26  28  2   
 43  26  42  1   
 44  27  43  1   
 45  27  44  1   
 46  27  45  1   
@<TRIPOS>SUBSTRUCTURE
  1 ****   9 GROUP 4 **** **** 0

# MOE 2024.06 (io_trps.svl 2023.06)
