@<TRIPOS>MOLECULE
NONAME
41 43 1 0 0 
SMALL
USER_CHARGES


@<TRIPOS>ATOM
  1 O        0.1960     0.6620     0.8830 O.co2 1 <1>  -0.9000 
  2 C        1.3610     0.2950     1.0280 C.2   1 <1>   0.9060 
  3 O        1.7430    -0.2570     2.0740 O.co2 1 <1>  -0.9000 
  4 C        2.3430     0.4640    -0.1460 C.3   1 <1>  -0.1060 
  5 C        3.7580     0.0310     0.2770 C.3   1 <1>   0.4230 
  6 C        2.3530     1.9680    -0.5710 C.3   1 <1>  -0.1600 
  7 C        1.9290    -0.4570    -1.3160 C.3   1 <1>  -0.1600 
  8 N        3.7570    -1.3740     0.8040 N.4   1 <1>  -0.9590 
  9 C        4.3690     1.1420     1.1520 C.3   1 <1>   0.2090 
 10 C        3.7440     2.5640    -0.8560 C.3   1 <1>   0.2090 
 11 C        1.9930    -1.9350    -0.8800 C.3   1 <1>  -0.1600 
 12 C        3.3400    -2.3290    -0.2580 C.3   1 <1>   0.3430 
 13 C        5.0260    -1.7720     1.4640 C.3   1 <1>   0.2630 
 14 N        4.7300     2.2780     0.2390 N.pl3 1 <1>  -0.8380 
 15 C        6.0500     2.3280    -0.1640 C.ar  1 <1>   0.4100 
 16 N        6.6090     1.1820    -0.5470 N.ar  1 <1>  -0.6200 
 17 C        6.7140     3.5500    -0.1730 C.ar  1 <1>  -0.1500 
 18 C        7.8670     1.2710    -0.9510 C.ar  1 <1>   0.1600 
 19 C        8.0210     3.6240    -0.5940 C.ar  1 <1>  -0.1500 
 20 C        8.6070     2.4400    -0.9950 C.ar  1 <1>  -0.1500 
 21 H        4.3670     0.0200    -0.6100 H     1 <1>   0.0800 
 22 H        1.9260     2.5600     0.2210 H     1 <1>   0.0800 
 23 H        1.7150     2.1160    -1.4240 H     1 <1>   0.0800 
 24 H        0.9220    -0.2210    -1.6200 H     1 <1>   0.0800 
 25 H        2.5790    -0.2960    -2.1580 H     1 <1>   0.0800 
 26 H        2.9850    -1.3170     1.5220 H     1 <1>   0.4500 
 27 H        5.2560     0.8040     1.6540 H     1 <1>   0.0800 
 28 H        3.6670     1.4820     1.8940 H     1 <1>   0.0800 
 29 H        3.6560     3.6300    -0.9760 H     1 <1>   0.0800 
 30 H        4.1180     2.1590    -1.7820 H     1 <1>   0.0800 
 31 H        1.8020    -2.5640    -1.7310 H     1 <1>   0.0800 
 32 H        1.2130    -2.1320    -0.1640 H     1 <1>   0.0800 
 33 H        4.0910    -2.3450    -1.0300 H     1 <1>   0.0800 
 34 H        3.2610    -3.3200     0.1570 H     1 <1>   0.0800 
 35 H        5.8510    -1.6650     0.7770 H     1 <1>   0.0800 
 36 H        4.9680    -2.7960     1.7930 H     1 <1>   0.0800 
 37 H        5.2060    -1.1490     2.3240 H     1 <1>   0.0800 
 38 H        6.1860     4.4250     0.1560 H     1 <1>   0.1500 
 39 H        8.3410     0.3590    -1.2690 H     1 <1>   0.1500 
 40 H        8.5600     4.5550    -0.6110 H     1 <1>   0.1500 
 41 H        9.6260     2.4270    -1.3370 H     1 <1>   0.1500 
@<TRIPOS>BOND
  1   1   2  ar  
  2   2   3  ar  
  3   2   4  1   
  4   4   5  1   
  5   4   6  1   
  6   4   7  1   
  7   5   8  1   
  8   5   9  1   
  9   5  21  1   
 10   6  10  1   
 11   6  22  1   
 12   6  23  1   
 13   7  11  1   
 14   7  24  1   
 15   7  25  1   
 16   8  12  1   
 17   8  13  1   
 18   8  26  1   
 19   9  14  1   
 20   9  27  1   
 21   9  28  1   
 22  10  14  1   
 23  10  29  1   
 24  10  30  1   
 25  11  12  1   
 26  11  31  1   
 27  11  32  1   
 28  12  33  1   
 29  12  34  1   
 30  13  35  1   
 31  13  36  1   
 32  13  37  1   
 33  14  15  1   
 34  15  16  ar  
 35  15  17  ar  
 36  16  18  ar  
 37  17  19  ar  
 38  17  38  1   
 39  18  20  ar  
 40  18  39  1   
 41  19  20  ar  
 42  19  40  1   
 43  20  41  1   
@<TRIPOS>SUBSTRUCTURE
  1 ****   5 GROUP 4 **** **** 0

# MOE 2024.06 (io_trps.svl 2023.06)
