@<TRIPOS>MOLECULE
NONAME
51 53 1 0 0 
SMALL
USER_CHARGES


@<TRIPOS>ATOM
  1 F       -1.8370    -0.8950     2.1050 F     1 <1>  -0.1900 
  2 C       -2.0470    -1.4030     0.9160 C.ar  1 <1>   0.1900 
  3 C       -2.2710    -2.7710     0.7560 C.ar  1 <1>   0.0820 
  4 C       -2.0160    -0.5370    -0.1600 C.ar  1 <1>  -0.1500 
  5 O       -2.2990    -3.6600     1.7820 O.3   1 <1>  -0.3630 
  6 C       -2.4610    -3.2660    -0.5280 C.ar  1 <1>  -0.1440 
  7 C       -2.2030    -1.0450    -1.4350 C.ar  1 <1>  -0.1500 
  8 C       -3.1340    -3.3860     2.8910 C.3   1 <1>   0.0400 
  9 C       -2.4200    -2.4020    -1.6170 C.ar  1 <1>  -0.1500 
 10 C       -2.7080    -4.7520    -0.7100 C.3   1 <1>   0.4870 
 11 N       -4.1380    -5.0670    -0.5060 N.4   1 <1>  -0.9590 
 12 C       -4.3950    -6.5490    -0.4160 C.3   1 <1>   0.3430 
 13 C       -5.0850    -4.3640    -1.4090 C.3   1 <1>   0.3430 
 14 C       -5.8910    -6.9240    -0.5840 C.3   1 <1>   0.2000 
 15 C       -6.5300    -4.5080    -0.9000 C.3   1 <1>  -0.1600 
 16 O       -6.1470    -7.1390    -1.9420 O.3   1 <1>  -0.6800 
 17 C       -6.7890    -5.7910    -0.0460 C.3   1 <1>  -0.1060 
 18 C       -6.3160    -5.6240     1.4030 C.2   1 <1>   0.9060 
 19 C       -8.2900    -6.1820    -0.0660 C.3   1 <1>  -0.0170 
 20 O       -5.6270    -4.6410     1.7100 O.co2 1 <1>  -0.9000 
 21 O       -6.4300    -6.5840     2.1650 O.co2 1 <1>  -0.9000 
 22 C       -9.2190    -5.0360     0.3180 C.ar  1 <1>  -0.1430 
 23 C       -9.3610    -4.6680     1.6470 C.ar  1 <1>  -0.1500 
 24 C       -9.9360    -4.3520    -0.6530 C.ar  1 <1>  -0.1500 
 25 C      -10.2010    -3.6270     2.0010 C.ar  1 <1>  -0.1500 
 26 C      -10.7780    -3.3110    -0.3010 C.ar  1 <1>  -0.1500 
 27 C      -10.9100    -2.9470     1.0280 C.ar  1 <1>  -0.1500 
 28 H       -1.8440     0.5120     0.0010 H     1 <1>   0.1500 
 29 H       -2.1770    -0.3810    -2.2830 H     1 <1>   0.1500 
 30 H       -3.4200    -4.3210     3.3390 H     1 <1>   0.0800 
 31 H       -4.0190    -2.8700     2.5570 H     1 <1>   0.0800 
 32 H       -2.5930    -2.7870     3.6000 H     1 <1>   0.0800 
 33 H       -2.5570    -2.7770    -2.6170 H     1 <1>   0.1500 
 34 H       -2.1160    -5.2910     0.0130 H     1 <1>   0.0800 
 35 H       -2.4020    -5.0560    -1.6960 H     1 <1>   0.0800 
 36 H       -4.4000    -4.7020     0.4500 H     1 <1>   0.4500 
 37 H       -3.8250    -7.0810    -1.1580 H     1 <1>   0.0800 
 38 H       -4.0780    -6.8840     0.5590 H     1 <1>   0.0800 
 39 H       -4.8380    -3.3170    -1.4720 H     1 <1>   0.0800 
 40 H       -5.0140    -4.7960    -2.3940 H     1 <1>   0.0800 
 41 H       -6.0840    -7.8490    -0.0650 H     1 <1>   0.0800 
 42 H       -6.7890    -3.6360    -0.3230 H     1 <1>   0.0800 
 43 H       -7.1720    -4.5050    -1.7610 H     1 <1>   0.0800 
 44 H       -7.0560    -7.4810    -2.0550 H     1 <1>   0.4000 
 45 H       -8.5660    -6.5260    -1.0460 H     1 <1>   0.0800 
 46 H       -8.4580    -7.0030     0.6110 H     1 <1>   0.0800 
 47 H       -8.8130    -5.1900     2.4160 H     1 <1>   0.1500 
 48 H       -9.8430    -4.6250    -1.6880 H     1 <1>   0.1500 
 49 H      -10.2970    -3.3490     3.0360 H     1 <1>   0.1500 
 50 H      -11.3300    -2.7850    -1.0590 H     1 <1>   0.1500 
 51 H      -11.5620    -2.1380     1.3040 H     1 <1>   0.1500 
@<TRIPOS>BOND
  1   1   2  1   
  2   2   3  ar  
  3   2   4  ar  
  4   3   5  1   
  5   3   6  ar  
  6   4   7  ar  
  7   4  28  1   
  8   5   8  1   
  9   6   9  ar  
 10   6  10  1   
 11   7   9  ar  
 12   7  29  1   
 13   8  30  1   
 14   8  31  1   
 15   8  32  1   
 16   9  33  1   
 17  10  11  1   
 18  10  34  1   
 19  10  35  1   
 20  11  12  1   
 21  11  13  1   
 22  11  36  1   
 23  12  14  1   
 24  12  37  1   
 25  12  38  1   
 26  13  15  1   
 27  13  39  1   
 28  13  40  1   
 29  14  16  1   
 30  14  17  1   
 31  14  41  1   
 32  15  17  1   
 33  15  42  1   
 34  15  43  1   
 35  16  44  1   
 36  17  18  1   
 37  17  19  1   
 38  18  20  ar  
 39  18  21  ar  
 40  19  22  1   
 41  19  45  1   
 42  19  46  1   
 43  22  23  ar  
 44  22  24  ar  
 45  23  25  ar  
 46  23  47  1   
 47  24  26  ar  
 48  24  48  1   
 49  25  27  ar  
 50  25  49  1   
 51  26  27  ar  
 52  26  50  1   
 53  27  51  1   
@<TRIPOS>SUBSTRUCTURE
  1 ****  20 GROUP 4 **** **** 0

# MOE 2024.06 (io_trps.svl 2023.06)
