@<TRIPOS>MOLECULE
NONAME
47 49 1 0 0 
SMALL
USER_CHARGES


@<TRIPOS>ATOM
  1 O        0.3320     1.1610     0.6210 O.3   1 <1>  -0.3630 
  2 C       -0.9620     1.1380     0.2080 C.ar  1 <1>   0.0830 
  3 C        0.9260     0.0940     1.3230 C.3   1 <1>   0.0400 
  4 C       -1.4500     2.2240    -0.5260 C.ar  1 <1>  -0.1440 
  5 C       -1.8040     0.0650     0.5000 C.ar  1 <1>  -0.1500 
  6 C       -2.7730     2.2030    -0.9490 C.ar  1 <1>  -0.1500 
  7 C       -0.6030     3.4500    -0.9000 C.3   1 <1>   0.0640 
  8 C       -3.1170     0.0650     0.0690 C.ar  1 <1>  -0.1500 
  9 C       -3.6020     1.1360    -0.6560 C.ar  1 <1>  -0.1500 
 10 C        0.5790     3.1040    -1.8160 C.3   1 <1>  -0.1600 
 11 C       -0.1100     4.2330     0.3250 C.3   1 <1>  -0.1600 
 12 C        1.3310     4.3670    -2.2420 C.3   1 <1>   0.2090 
 13 C        0.6380     5.5010    -0.0920 C.3   1 <1>   0.2090 
 14 N        1.7270     5.1740    -1.0530 N.pl3 1 <1>  -0.8380 
 15 C        3.0480     5.1480    -0.5660 C.ar  1 <1>   0.4100 
 16 N        3.6860     4.0040    -0.7620 N.ar  1 <1>  -0.6200 
 17 C        3.6590     6.2720     0.1090 C.ar  1 <1>   0.4100 
 18 C        4.9050     3.9930    -0.2460 C.ar  1 <1>   0.1600 
 19 N        4.8800     6.2210     0.6210 N.ar  1 <1>  -0.6200 
 20 N        3.0200     7.5210     0.2520 N.pl3 1 <1>  -0.8380 
 21 C        5.4760     5.0550     0.4230 C.ar  1 <1>   0.1600 
 22 C        3.4050     8.4210     1.3730 C.3   1 <1>   0.1290 
 23 C        2.6490     8.2300    -1.0000 C.3   1 <1>   0.1290 
 24 H        1.9530     0.3530     1.5090 H     1 <1>   0.0800 
 25 H        0.8770    -0.7920     0.7170 H     1 <1>   0.0800 
 26 H        0.4080    -0.0410     2.2550 H     1 <1>   0.0800 
 27 H       -1.4570    -0.7790     1.0620 H     1 <1>   0.1500 
 28 H       -3.1750     3.0240    -1.5160 H     1 <1>   0.1500 
 29 H       -1.2320     4.1220    -1.4570 H     1 <1>   0.0800 
 30 H       -3.7600    -0.7660     0.2980 H     1 <1>   0.1500 
 31 H       -4.6240     1.1390    -0.9930 H     1 <1>   0.1500 
 32 H        0.2230     2.5880    -2.6880 H     1 <1>   0.0800 
 33 H        1.2710     2.4570    -1.3100 H     1 <1>   0.0800 
 34 H        0.5570     3.6310     0.9130 H     1 <1>   0.0800 
 35 H       -0.9460     4.4990     0.9450 H     1 <1>   0.0800 
 36 H        0.7000     4.9700    -2.8710 H     1 <1>   0.0800 
 37 H        2.2020     4.0970    -2.8140 H     1 <1>   0.0800 
 38 H        1.0440     5.9710     0.7870 H     1 <1>   0.0800 
 39 H       -0.0390     6.1950    -0.5570 H     1 <1>   0.0800 
 40 H        5.4700     3.0870    -0.3650 H     1 <1>   0.1500 
 41 H        6.4720     4.9490     0.8130 H     1 <1>   0.1500 
 42 H        3.5580     7.8430     2.2680 H     1 <1>   0.0800 
 43 H        2.6260     9.1390     1.5530 H     1 <1>   0.0800 
 44 H        4.3200     8.9340     1.1310 H     1 <1>   0.0800 
 45 H        2.6370     7.5480    -1.8320 H     1 <1>   0.0800 
 46 H        3.3630     9.0090    -1.2060 H     1 <1>   0.0800 
 47 H        1.6700     8.6610    -0.8940 H     1 <1>   0.0800 
@<TRIPOS>BOND
  1   1   2  1   
  2   1   3  1   
  3   2   4  ar  
  4   2   5  ar  
  5   3  24  1   
  6   3  25  1   
  7   3  26  1   
  8   4   6  ar  
  9   4   7  1   
 10   5   8  ar  
 11   5  27  1   
 12   6   9  ar  
 13   6  28  1   
 14   7  10  1   
 15   7  11  1   
 16   7  29  1   
 17   8   9  ar  
 18   8  30  1   
 19   9  31  1   
 20  10  12  1   
 21  10  32  1   
 22  10  33  1   
 23  11  13  1   
 24  11  34  1   
 25  11  35  1   
 26  12  14  1   
 27  12  36  1   
 28  12  37  1   
 29  13  14  1   
 30  13  38  1   
 31  13  39  1   
 32  14  15  1   
 33  15  16  ar  
 34  15  17  ar  
 35  16  18  ar  
 36  17  19  ar  
 37  17  20  1   
 38  18  21  ar  
 39  18  40  1   
 40  19  21  ar  
 41  20  22  1   
 42  20  23  1   
 43  21  41  1   
 44  22  42  1   
 45  22  43  1   
 46  22  44  1   
 47  23  45  1   
 48  23  46  1   
 49  23  47  1   
@<TRIPOS>SUBSTRUCTURE
  1 ****  11 GROUP 4 **** **** 0

# MOE 2024.06 (io_trps.svl 2023.06)
