@<TRIPOS>MOLECULE
NONAME
48 50 1 0 0 
SMALL
USER_CHARGES


@<TRIPOS>ATOM
  1 CL       0.3150    -0.2500     0.8740 Cl    1 <1>  -0.1770 
  2 C       -0.0640    -1.8320     0.2460 C.ar  1 <1>   0.1770 
  3 C        0.8080    -2.8790     0.4740 C.ar  1 <1>  -0.1500 
  4 C       -1.2280    -2.0140    -0.4710 C.ar  1 <1>  -0.1500 
  5 C        0.5170    -4.1430    -0.0180 C.ar  1 <1>  -0.1440 
  6 C       -1.5250    -3.2730    -0.9610 C.ar  1 <1>  -0.1500 
  7 C       -0.6640    -4.3420    -0.7320 C.ar  1 <1>  -0.1430 
  8 C        1.5160    -5.2650     0.2400 C.3   1 <1>  -0.0960 
  9 C       -1.0500    -5.7090    -1.2730 C.3   1 <1>   0.4870 
 10 N       -1.6410    -6.5050    -0.1670 N.4   1 <1>  -0.9590 
 11 C       -2.8960    -5.9010     0.3570 C.3   1 <1>   0.3430 
 12 C       -1.9950    -7.8830    -0.5680 C.3   1 <1>   0.3430 
 13 C       -3.7770    -7.0460     0.8610 C.3   1 <1>  -0.0800 
 14 C       -3.0070    -8.3310     0.4770 C.3   1 <1>  -0.0800 
 15 C       -5.2130    -6.9730     0.2850 C.3   1 <1>   0.2800 
 16 C       -3.8760    -9.4900    -0.0410 C.3   1 <1>  -0.1600 
 17 O       -5.0910    -6.8810    -1.0900 O.3   1 <1>  -0.6800 
 18 C       -6.0090    -8.2630     0.6040 C.3   1 <1>  -0.1600 
 19 C       -6.0440    -5.7530     0.7580 C.3   1 <1>  -0.1600 
 20 C       -5.1840    -9.5570     0.7440 C.3   1 <1>  -0.1600 
 21 C       -5.6010    -4.3440     0.3180 C.3   1 <1>  -0.2400 
 22 H        1.7070    -2.6870     1.0320 H     1 <1>   0.1500 
 23 H       -1.8850    -1.1790    -0.6400 H     1 <1>   0.1500 
 24 H       -2.4340    -3.4050    -1.5250 H     1 <1>   0.1500 
 25 H        2.4300    -4.8710     0.6500 H     1 <1>   0.0800 
 26 H        1.7660    -5.7700    -0.6760 H     1 <1>   0.0800 
 27 H        1.1190    -5.9730     0.9430 H     1 <1>   0.0800 
 28 H       -0.1770    -6.2030    -1.6640 H     1 <1>   0.0800 
 29 H       -1.7660    -5.5990    -2.0720 H     1 <1>   0.0800 
 30 H       -0.9660    -6.5290     0.6040 H     1 <1>   0.4500 
 31 H       -2.6860    -5.1900     1.1410 H     1 <1>   0.0800 
 32 H       -3.4060    -5.3910    -0.4430 H     1 <1>   0.0800 
 33 H       -2.4740    -7.8680    -1.5340 H     1 <1>   0.0800 
 34 H       -1.1340    -8.5310    -0.5970 H     1 <1>   0.0800 
 35 H       -3.8490    -6.9920     1.9330 H     1 <1>   0.0800 
 36 H       -2.4670    -8.6730     1.3440 H     1 <1>   0.0800 
 37 H       -4.1110    -9.3560    -1.0840 H     1 <1>   0.0800 
 38 H       -3.3440   -10.4210     0.0570 H     1 <1>   0.0800 
 39 H       -5.9830    -6.9000    -1.4910 H     1 <1>   0.4000 
 40 H       -6.5300    -8.1320     1.5380 H     1 <1>   0.0800 
 41 H       -6.7680    -8.4060    -0.1450 H     1 <1>   0.0800 
 42 H       -7.0560    -5.8910     0.4150 H     1 <1>   0.0800 
 43 H       -6.0910    -5.7670     1.8330 H     1 <1>   0.0800 
 44 H       -4.9540    -9.7210     1.7840 H     1 <1>   0.0800 
 45 H       -5.7700   -10.3960     0.4100 H     1 <1>   0.0800 
 46 H       -5.4460    -4.2980    -0.7460 H     1 <1>   0.0800 
 47 H       -4.7090    -4.0310     0.8270 H     1 <1>   0.0800 
 48 H       -6.3740    -3.6370     0.5670 H     1 <1>   0.0800 
@<TRIPOS>BOND
  1   1   2  1   
  2   2   3  ar  
  3   2   4  ar  
  4   3   5  ar  
  5   3  22  1   
  6   4   6  ar  
  7   4  23  1   
  8   5   7  ar  
  9   5   8  1   
 10   6   7  ar  
 11   6  24  1   
 12   7   9  1   
 13   8  25  1   
 14   8  26  1   
 15   8  27  1   
 16   9  10  1   
 17   9  28  1   
 18   9  29  1   
 19  10  11  1   
 20  10  12  1   
 21  10  30  1   
 22  11  13  1   
 23  11  31  1   
 24  11  32  1   
 25  12  14  1   
 26  12  33  1   
 27  12  34  1   
 28  13  14  1   
 29  13  15  1   
 30  13  35  1   
 31  14  16  1   
 32  14  36  1   
 33  15  17  1   
 34  15  18  1   
 35  15  19  1   
 36  16  20  1   
 37  16  37  1   
 38  16  38  1   
 39  17  39  1   
 40  18  20  1   
 41  18  40  1   
 42  18  41  1   
 43  19  21  1   
 44  19  42  1   
 45  19  43  1   
 46  20  44  1   
 47  20  45  1   
 48  21  46  1   
 49  21  47  1   
 50  21  48  1   
@<TRIPOS>SUBSTRUCTURE
  1 ****  11 GROUP 4 **** **** 0

# MOE 2024.06 (io_trps.svl 2023.06)
