@<TRIPOS>MOLECULE
NONAME
44 47 1 0 0 
SMALL
USER_CHARGES


@<TRIPOS>ATOM
  1 S       -0.1460     1.3410     1.2250 S.3   1 <1>  -0.0800 
  2 C        1.4000     1.8120     0.5520 C.ar  1 <1>   0.0400 
  3 C        0.5660    -0.1810     1.7430 C.2   1 <1>   0.2280 
  4 C        2.2950     0.7840     0.7800 C.ar  1 <1>   0.2270 
  5 C        1.7330     2.9820    -0.1020 C.ar  1 <1>  -0.1500 
  6 N        1.7970    -0.3240     1.4570 N.2   1 <1>  -0.5650 
  7 C        3.5940     0.9400     0.3190 C.ar  1 <1>  -0.1500 
  8 C        3.0400     3.1490    -0.5560 C.ar  1 <1>   0.0860 
  9 C        3.9530     2.1040    -0.3410 C.ar  1 <1>  -0.1500 
 10 C        3.4310     4.3660    -1.2370 C.2   1 <1>   0.5440 
 11 O        3.0040     4.5740    -2.3540 O.2   1 <1>  -0.5700 
 12 N        4.2740     5.3060    -0.6720 N.am  1 <1>  -0.6600 
 13 C        4.8630     5.1510     0.7140 C.3   1 <1>   0.2200 
 14 C        4.5430     6.5720    -1.4390 C.3   1 <1>   0.1400 
 15 C        4.4930     6.3250     1.6360 C.3   1 <1>   0.1200 
 16 C        6.3950     4.9280     0.6640 C.3   1 <1>   0.3430 
 17 C        5.6620     7.4770    -0.8880 C.3   1 <1>  -0.0800 
 18 O        5.3950     7.3800     1.5120 O.3   1 <1>  -0.5600 
 19 N        6.9920     5.3300    -0.6560 N.4   1 <1>  -0.9590 
 20 C        5.2450     8.1980     0.4020 C.3   1 <1>   0.1200 
 21 C        7.0510     6.8180    -0.7700 C.3   1 <1>   0.3430 
 22 C        8.4050     4.7720    -0.7500 C.3   1 <1>   0.2370 
 23 C        9.3340     5.2150     0.3850 C.2   1 <1>   0.9060 
 24 O        9.9680     6.2620     0.2350 O.co2 1 <1>  -0.9000 
 25 O        9.2900     4.5740     1.4390 O.co2 1 <1>  -0.9000 
 26 H       -0.0840    -0.8680     2.2580 H     1 <1>   0.1500 
 27 H        0.9940     3.7480    -0.2640 H     1 <1>   0.1500 
 28 H        4.2980     0.1430     0.4810 H     1 <1>   0.1500 
 29 H        4.9580     2.2090    -0.7090 H     1 <1>   0.1500 
 30 H        4.4370     4.2840     1.1830 H     1 <1>   0.0800 
 31 H        4.7930     6.3070    -2.4530 H     1 <1>   0.0800 
 32 H        3.6260     7.1360    -1.4860 H     1 <1>   0.0800 
 33 H        4.5570     5.9970     2.6600 H     1 <1>   0.0800 
 34 H        3.4910     6.6730     1.4560 H     1 <1>   0.0800 
 35 H        6.5940     3.8840     0.8370 H     1 <1>   0.0800 
 36 H        6.8730     5.4700     1.4660 H     1 <1>   0.0800 
 37 H        5.7760     8.2650    -1.6100 H     1 <1>   0.0800 
 38 H        6.3800     4.9630    -1.3960 H     1 <1>   0.4500 
 39 H        4.2260     8.5470     0.3560 H     1 <1>   0.0800 
 40 H        5.8840     9.0490     0.5610 H     1 <1>   0.0800 
 41 H        7.5770     7.2260     0.0810 H     1 <1>   0.0800 
 42 H        7.6260     7.0710    -1.6450 H     1 <1>   0.0800 
 43 H        8.3760     3.6990    -0.7290 H     1 <1>   0.0800 
 44 H        8.8620     5.0820    -1.6720 H     1 <1>   0.0800 
@<TRIPOS>BOND
  1   1   2  1   
  2   1   3  1   
  3   2   4  ar  
  4   2   5  ar  
  5   3   6  2   
  6   3  26  1   
  7   4   6  1   
  8   4   7  ar  
  9   5   8  ar  
 10   5  27  1   
 11   7   9  ar  
 12   7  28  1   
 13   8   9  ar  
 14   8  10  1   
 15   9  29  1   
 16  10  11  2   
 17  10  12  am  
 18  12  13  1   
 19  12  14  1   
 20  13  15  1   
 21  13  16  1   
 22  13  30  1   
 23  14  17  1   
 24  14  31  1   
 25  14  32  1   
 26  15  18  1   
 27  15  33  1   
 28  15  34  1   
 29  16  19  1   
 30  16  35  1   
 31  16  36  1   
 32  17  20  1   
 33  17  21  1   
 34  17  37  1   
 35  18  20  1   
 36  19  21  1   
 37  19  22  1   
 38  19  38  1   
 39  20  39  1   
 40  20  40  1   
 41  21  41  1   
 42  21  42  1   
 43  22  23  1   
 44  22  43  1   
 45  22  44  1   
 46  23  24  ar  
 47  23  25  ar  
@<TRIPOS>SUBSTRUCTURE
  1 ****  13 GROUP 4 **** **** 0

# MOE 2024.06 (io_trps.svl 2023.06)
