@<TRIPOS>MOLECULE
NONAME
43 45 1 0 0 
SMALL
USER_CHARGES


@<TRIPOS>ATOM
  1 S        0.4790    -0.2060     0.3720 S.3   1 <1>  -0.2030 
  2 C        0.3460     1.5690     0.4590 C.ar  1 <1>   0.4620 
  3 C       -1.1800    -0.7870     0.0040 C.ar  1 <1>   0.1020 
  4 N       -0.8850     2.1040     0.5190 N.ar  1 <1>  -0.1790 
  5 C        1.4330     2.3740     0.4730 C.ar  1 <1>  -0.1500 
  6 C       -1.8100    -1.6220     0.9140 C.ar  1 <1>  -0.1500 
  7 C       -1.8000    -0.3760    -1.1690 C.ar  1 <1>  -0.1500 
  8 C       -1.0210     3.4340     0.5780 C.ar  1 <1>   0.7710 
  9 C        1.2250     3.7620     0.5440 C.ar  1 <1>   0.4100 
 10 C       -3.1070    -2.0370     0.6600 C.ar  1 <1>  -0.1500 
 11 C       -3.0980    -0.7900    -1.4230 C.ar  1 <1>  -0.1500 
 12 N       -0.0010     4.2620     0.5850 N.ar  1 <1>  -0.6200 
 13 N       -2.2320     3.9820     0.6300 N.pl3 1 <1>  -0.9000 
 14 N        2.2600     4.6430     0.5660 N.pl3 1 <1>  -0.8380 
 15 C       -3.7270    -1.6070    -0.5000 C.ar  1 <1>   0.1900 
 16 C        2.0880     6.0940     0.1560 C.3   1 <1>   0.3500 
 17 C        3.6850     4.3330     0.9130 C.3   1 <1>   0.2090 
 18 F       -4.9530    -1.9870    -0.7350 F     1 <1>  -0.1900 
 19 C        3.2200     6.6360    -0.7550 C.2   1 <1>   0.5690 
 20 C        1.9360     6.9370     1.4280 C.3   1 <1>  -0.2400 
 21 C        4.6180     4.5980    -0.2820 C.3   1 <1>   0.1400 
 22 O        3.0300     7.6860    -1.3290 O.2   1 <1>  -0.5700 
 23 N        4.4000     5.9370    -0.9060 N.am  1 <1>  -0.6600 
 24 C        5.4950     6.4140    -1.7960 C.3   1 <1>   0.0600 
 25 H       -1.7120     1.5170     0.5220 H     1 <1>   0.4570 
 26 H        2.4210     1.9650     0.4160 H     1 <1>   0.1500 
 27 H       -1.3000    -1.9470     1.8060 H     1 <1>   0.1500 
 28 H       -1.2820     0.2370    -1.8880 H     1 <1>   0.1500 
 29 H       -3.6330    -2.6850     1.3420 H     1 <1>   0.1500 
 30 H       -3.6170    -0.5000    -2.3210 H     1 <1>   0.1500 
 31 H       -2.2820     5.0060     0.6760 H     1 <1>   0.4000 
 32 H       -3.1470     3.5280     0.6410 H     1 <1>   0.4000 
 33 H        1.1840     6.1950    -0.4160 H     1 <1>   0.0800 
 34 H        3.7990     3.3180     1.2430 H     1 <1>   0.0800 
 35 H        3.9920     4.9600     1.7320 H     1 <1>   0.0800 
 36 H        2.8470     6.9390     1.9970 H     1 <1>   0.0800 
 37 H        1.1330     6.5570     2.0320 H     1 <1>   0.0800 
 38 H        1.7080     7.9520     1.1570 H     1 <1>   0.0800 
 39 H        4.4600     3.8400    -1.0290 H     1 <1>   0.0800 
 40 H        5.6380     4.5260     0.0540 H     1 <1>   0.0800 
 41 H        5.2530     7.3730    -2.2220 H     1 <1>   0.0800 
 42 H        5.6450     5.7120    -2.5970 H     1 <1>   0.0800 
 43 H        6.4070     6.5130    -1.2330 H     1 <1>   0.0800 
@<TRIPOS>BOND
  1   1   2  1   
  2   1   3  1   
  3   2   4  ar  
  4   2   5  ar  
  5   3   6  ar  
  6   3   7  ar  
  7   4   8  ar  
  8   4  25  1   
  9   5   9  ar  
 10   5  26  1   
 11   6  10  ar  
 12   6  27  1   
 13   7  11  ar  
 14   7  28  1   
 15   8  12  ar  
 16   8  13  1   
 17   9  12  ar  
 18   9  14  1   
 19  10  15  ar  
 20  10  29  1   
 21  11  15  ar  
 22  11  30  1   
 23  13  31  1   
 24  13  32  1   
 25  14  16  1   
 26  14  17  1   
 27  15  18  1   
 28  16  19  1   
 29  16  20  1   
 30  16  33  1   
 31  17  21  1   
 32  17  34  1   
 33  17  35  1   
 34  19  22  2   
 35  19  23  am  
 36  20  36  1   
 37  20  37  1   
 38  20  38  1   
 39  21  23  1   
 40  21  39  1   
 41  21  40  1   
 42  23  24  1   
 43  24  41  1   
 44  24  42  1   
 45  24  43  1   
@<TRIPOS>SUBSTRUCTURE
  1 ****   5 GROUP 4 **** **** 0

# MOE 2024.06 (io_trps.svl 2023.06)
