@<TRIPOS>MOLECULE
NONAME
49 52 1 0 0 
SMALL
USER_CHARGES


@<TRIPOS>ATOM
  1 S       -0.1630     0.3570    -1.6680 S.3   1 <1>  -0.0800 
  2 C       -0.0590     1.7630    -0.6290 C.2   1 <1>  -0.1400 
  3 C        1.4410     0.6880    -2.3060 C.2   1 <1>  -0.1100 
  4 C        1.1090     2.4020    -0.7660 C.2   1 <1>  -0.1810 
  5 C       -1.1740     2.1760     0.2930 C.3   1 <1>   0.0200 
  6 C        1.9710     1.7880    -1.7360 C.2   1 <1>  -0.1500 
  7 C        1.4270     3.6520     0.0580 C.3   1 <1>   0.4610 
  8 C       -0.9230     3.6420     0.6800 C.3   1 <1>   0.1200 
  9 O        0.4230     3.8520     1.0390 O.3   1 <1>  -0.5600 
 10 C        2.7390     3.4650     0.8280 C.3   1 <1>  -0.1600 
 11 C        1.5070     4.8980    -0.8360 C.3   1 <1>  -0.1600 
 12 C        3.1220     4.7240     1.6050 C.3   1 <1>   0.1400 
 13 C        1.8970     6.1440    -0.0380 C.3   1 <1>   0.1400 
 14 N        3.1790     5.8810     0.6700 N.am  1 <1>  -0.6600 
 15 C        4.3700     6.4810     0.3580 C.2   1 <1>   0.6900 
 16 O        5.4300     5.9630     0.6580 O.2   1 <1>  -0.5700 
 17 N        4.3650     7.6800    -0.2740 N.am  1 <1>  -0.7300 
 18 C        5.5800     8.4380    -0.6530 C.3   1 <1>   0.1400 
 19 C        6.0060     9.3550     0.4930 C.3   1 <1>  -0.0170 
 20 C        7.2190    10.1770     0.0860 C.ar  1 <1>  -0.1440 
 21 C        7.0670    11.4660    -0.4020 C.ar  1 <1>  -0.1500 
 22 C        8.4910     9.6370     0.1960 C.ar  1 <1>  -0.1500 
 23 C        8.1760    12.2070    -0.7760 C.ar  1 <1>  -0.1500 
 24 C        9.6000    10.3770    -0.1770 C.ar  1 <1>  -0.1500 
 25 C        9.4430    11.6630    -0.6630 C.ar  1 <1>  -0.1500 
 26 H        1.8230     0.0140    -3.0510 H     1 <1>   0.1500 
 27 H       -1.1760     1.5530     1.1690 H     1 <1>   0.0800 
 28 H       -2.1240     2.0870    -0.2010 H     1 <1>   0.0800 
 29 H        2.9420     2.1950    -1.9600 H     1 <1>   0.1500 
 30 H       -1.5330     3.9130     1.5230 H     1 <1>   0.0800 
 31 H       -1.1630     4.2930    -0.1420 H     1 <1>   0.0800 
 32 H        3.5360     3.2370     0.1440 H     1 <1>   0.0800 
 33 H        2.6390     2.6330     1.5000 H     1 <1>   0.0800 
 34 H        0.5710     5.0550    -1.3370 H     1 <1>   0.0800 
 35 H        2.2490     4.7370    -1.5970 H     1 <1>   0.0800 
 36 H        4.0730     4.5790     2.0900 H     1 <1>   0.0800 
 37 H        2.3890     4.9240     2.3680 H     1 <1>   0.0800 
 38 H        1.1350     6.3710     0.6880 H     1 <1>   0.0800 
 39 H        1.9880     6.9800    -0.7080 H     1 <1>   0.0800 
 40 H        3.4850     8.1850    -0.2930 H     1 <1>   0.3700 
 41 H        5.3780     9.0200    -1.5360 H     1 <1>   0.0800 
 42 H        6.3790     7.7510    -0.8800 H     1 <1>   0.0800 
 43 H        6.2510     8.7570     1.3530 H     1 <1>   0.0800 
 44 H        5.1960    10.0110     0.7560 H     1 <1>   0.0800 
 45 H        6.0870    11.9000    -0.4940 H     1 <1>   0.1500 
 46 H        8.6220     8.6370     0.5730 H     1 <1>   0.1500 
 47 H        8.0520    13.2070    -1.1530 H     1 <1>   0.1500 
 48 H       10.5830     9.9500    -0.0890 H     1 <1>   0.1500 
 49 H       10.3050    12.2380    -0.9530 H     1 <1>   0.1500 
@<TRIPOS>BOND
  1   1   2  1   
  2   1   3  1   
  3   2   4  2   
  4   2   5  1   
  5   3   6  2   
  6   3  26  1   
  7   4   6  1   
  8   4   7  1   
  9   5   8  1   
 10   5  27  1   
 11   5  28  1   
 12   6  29  1   
 13   7   9  1   
 14   7  10  1   
 15   7  11  1   
 16   8   9  1   
 17   8  30  1   
 18   8  31  1   
 19  10  12  1   
 20  10  32  1   
 21  10  33  1   
 22  11  13  1   
 23  11  34  1   
 24  11  35  1   
 25  12  14  1   
 26  12  36  1   
 27  12  37  1   
 28  13  14  1   
 29  13  38  1   
 30  13  39  1   
 31  14  15  am  
 32  15  16  2   
 33  15  17  am  
 34  17  18  1   
 35  17  40  1   
 36  18  19  1   
 37  18  41  1   
 38  18  42  1   
 39  19  20  1   
 40  19  43  1   
 41  19  44  1   
 42  20  21  ar  
 43  20  22  ar  
 44  21  23  ar  
 45  21  45  1   
 46  22  24  ar  
 47  22  46  1   
 48  23  25  ar  
 49  23  47  1   
 50  24  25  ar  
 51  24  48  1   
 52  25  49  1   
@<TRIPOS>SUBSTRUCTURE
  1 ****  14 GROUP 4 **** **** 0

# MOE 2024.06 (io_trps.svl 2023.06)
