@<TRIPOS>MOLECULE
NONAME
50 53 1 0 0 
SMALL
USER_CHARGES


@<TRIPOS>ATOM
  1 O       -2.5190     0.7570    -2.0330 O.2   1 <1>  -0.5700 
  2 C       -2.2970     1.1180    -0.8930 C.2   1 <1>   0.7150 
  3 N       -2.5090     0.2120     0.1170 N.am  1 <1>  -0.6600 
  4 C       -1.9150     2.4760    -0.6220 C.2   1 <1>  -0.2370 
  5 C       -3.4310     0.5390     1.2430 C.3   1 <1>   0.1400 
  6 C       -2.4080    -1.2470    -0.1730 C.3   1 <1>   0.1400 
  7 N       -1.9820     3.4390    -1.6010 N.pl3 1 <1>   0.0330 
  8 C       -1.4390     3.0750     0.5110 C.2   1 <1>  -0.1500 
  9 C       -4.8370    -0.0680     1.0120 C.3   1 <1>   0.4230 
 10 C       -3.8060    -1.8260    -0.4530 C.3   1 <1>   0.3430 
 11 C       -1.5760     4.6380    -1.0840 C.ar  1 <1>  -0.1520 
 12 C       -1.2270     4.4390     0.2460 C.ar  1 <1>   0.0000 
 13 N       -4.7770    -1.5510     0.6770 N.4   1 <1>  -0.9590 
 14 C       -5.6030     0.7140    -0.0820 C.3   1 <1>   0.1200 
 15 C       -1.4780     5.9020    -1.6710 C.ar  1 <1>  -0.1500 
 16 C       -0.7690     5.5190     1.0100 C.ar  1 <1>  -0.1500 
 17 C       -6.1700    -2.0520     0.4000 C.3   1 <1>   0.4230 
 18 O       -6.8760     0.1660    -0.2640 O.3   1 <1>  -0.5600 
 19 C       -1.0280     6.9550    -0.9100 C.ar  1 <1>  -0.1500 
 20 C       -0.6730     6.7630     0.4320 C.ar  1 <1>  -0.1500 
 21 C       -6.8890    -1.1770    -0.6570 C.3   1 <1>   0.1200 
 22 C       -6.1470    -3.5440     0.0250 C.3   1 <1>  -0.1600 
 23 C       -7.5380    -4.1910     0.1090 C.3   1 <1>  -0.1600 
 24 C       -7.4610    -5.6910    -0.1890 C.3   1 <1>  -0.2400 
 25 H       -3.0170     0.1560     2.1600 H     1 <1>   0.0800 
 26 H       -3.5230     1.6060     1.3550 H     1 <1>   0.0800 
 27 H       -1.7760    -1.4080    -1.0310 H     1 <1>   0.0800 
 28 H       -1.9550    -1.7510     0.6630 H     1 <1>   0.0800 
 29 H       -2.2550     3.2660    -2.5750 H     1 <1>   0.2700 
 30 H       -1.2330     2.6210     1.4630 H     1 <1>   0.1500 
 31 H       -5.3950     0.0600     1.9250 H     1 <1>   0.0800 
 32 H       -3.7140    -2.8880    -0.6120 H     1 <1>   0.0800 
 33 H       -4.1730    -1.3870    -1.3670 H     1 <1>   0.0800 
 34 H       -4.4340    -2.0430     1.5090 H     1 <1>   0.4500 
 35 H       -5.0820     0.6980    -1.0240 H     1 <1>   0.0800 
 36 H       -5.7330     1.7400     0.2150 H     1 <1>   0.0800 
 37 H       -1.7510     6.0400    -2.7020 H     1 <1>   0.1500 
 38 H       -0.4970     5.3590     2.0370 H     1 <1>   0.1500 
 39 H       -6.7420    -1.9650     1.3090 H     1 <1>   0.0800 
 40 H       -0.9430     7.9390    -1.3370 H     1 <1>   0.1500 
 41 H       -0.3230     7.6040     1.0050 H     1 <1>   0.1500 
 42 H       -7.9200    -1.4700    -0.7480 H     1 <1>   0.0800 
 43 H       -6.4250    -1.2620    -1.6240 H     1 <1>   0.0800 
 44 H       -5.7710    -3.6720    -0.9750 H     1 <1>   0.0800 
 45 H       -5.4990    -4.0680     0.7060 H     1 <1>   0.0800 
 46 H       -7.9520    -4.0540     1.0950 H     1 <1>   0.0800 
 47 H       -8.2110    -3.7380    -0.6000 H     1 <1>   0.0800 
 48 H       -6.8260    -6.1900     0.5220 H     1 <1>   0.0800 
 49 H       -7.0770    -5.8650    -1.1800 H     1 <1>   0.0800 
 50 H       -8.4420    -6.1280    -0.1270 H     1 <1>   0.0800 
@<TRIPOS>BOND
  1   1   2  2   
  2   2   3  am  
  3   2   4  1   
  4   3   5  1   
  5   3   6  1   
  6   4   7  1   
  7   4   8  2   
  8   5   9  1   
  9   5  25  1   
 10   5  26  1   
 11   6  10  1   
 12   6  27  1   
 13   6  28  1   
 14   7  11  1   
 15   7  29  1   
 16   8  12  1   
 17   8  30  1   
 18   9  13  1   
 19   9  14  1   
 20   9  31  1   
 21  10  13  1   
 22  10  32  1   
 23  10  33  1   
 24  11  12  ar  
 25  11  15  ar  
 26  12  16  ar  
 27  13  17  1   
 28  13  34  1   
 29  14  18  1   
 30  14  35  1   
 31  14  36  1   
 32  15  19  ar  
 33  15  37  1   
 34  16  20  ar  
 35  16  38  1   
 36  17  21  1   
 37  17  22  1   
 38  17  39  1   
 39  18  21  1   
 40  19  20  ar  
 41  19  40  1   
 42  20  41  1   
 43  21  42  1   
 44  21  43  1   
 45  22  23  1   
 46  22  44  1   
 47  22  45  1   
 48  23  24  1   
 49  23  46  1   
 50  23  47  1   
 51  24  48  1   
 52  24  49  1   
 53  24  50  1   
@<TRIPOS>SUBSTRUCTURE
  1 ****   3 GROUP 4 **** **** 0

# MOE 2024.06 (io_trps.svl 2023.06)
