@<TRIPOS>MOLECULE
NONAME
48 51 1 0 0 
SMALL
USER_CHARGES


@<TRIPOS>ATOM
  1 F       -1.6440     0.1470    -2.1830 F     1 <1>  -0.1900 
  2 C       -2.4230    -0.6830    -1.5190 C.ar  1 <1>   0.1900 
  3 C       -2.9650    -0.3460    -0.2800 C.ar  1 <1>   0.4100 
  4 C       -2.6950    -1.9100    -2.0570 C.ar  1 <1>   0.1600 
  5 N       -3.7240    -1.2200     0.3560 N.ar  1 <1>  -0.6200 
  6 N       -2.7520     0.8750     0.3500 N.pl3 1 <1>  -0.8380 
  7 N       -3.4580    -2.7830    -1.4280 N.ar  1 <1>  -0.6200 
  8 C       -3.9280    -2.3740    -0.2540 C.ar  1 <1>   0.7200 
  9 C       -3.1460     2.1400    -0.3380 C.3   1 <1>   0.2090 
 10 C       -2.8900     0.9820     1.8350 C.3   1 <1>   0.2090 
 11 N       -4.7220    -3.2190     0.4380 N.pl3 1 <1>  -0.8690 
 12 C       -2.4380     3.3500     0.2980 C.3   1 <1>   0.1200 
 13 C       -2.2040     2.2560     2.3600 C.3   1 <1>   0.1200 
 14 C       -4.5830    -4.6940     0.3990 C.3   1 <1>   0.2890 
 15 O       -2.6630     3.3940     1.6810 O.3   1 <1>  -0.5600 
 16 C       -5.9500    -5.3600     0.3970 C.3   1 <1>  -0.0800 
 17 C       -4.0350    -5.1810     1.7350 C.3   1 <1>   0.1200 
 18 C       -6.3220    -5.3730     1.8820 C.3   1 <1>   0.1200 
 19 C       -7.0080    -4.7110    -0.5150 C.3   1 <1>  -0.0170 
 20 O       -5.1300    -5.2350     2.6020 O.3   1 <1>  -0.5600 
 21 C       -8.3150    -5.4880    -0.4680 C.ar  1 <1>  -0.1430 
 22 C       -8.5030    -6.6440    -1.1980 C.ar  1 <1>  -0.1500 
 23 C       -9.3800    -5.0780     0.3100 C.ar  1 <1>  -0.1500 
 24 C       -9.7100    -7.3180    -1.1130 C.ar  1 <1>   0.1600 
 25 C      -10.5450    -5.8260     0.3230 C.ar  1 <1>   0.1600 
 26 N      -10.7360    -6.9390    -0.3680 N.ar  1 <1>  -0.6200 
 27 H       -2.2820    -2.1810    -3.0120 H     1 <1>   0.1500 
 28 H       -2.8990     2.0950    -1.3830 H     1 <1>   0.0800 
 29 H       -4.2110     2.2720    -0.2540 H     1 <1>   0.0800 
 30 H       -3.9340     1.0040     2.0970 H     1 <1>   0.0800 
 31 H       -2.4470     0.1190     2.3020 H     1 <1>   0.0800 
 32 H       -4.9280    -2.8630     1.3710 H     1 <1>   0.4000 
 33 H       -2.8140     4.2640    -0.1250 H     1 <1>   0.0800 
 34 H       -1.3780     3.2960     0.1230 H     1 <1>   0.0800 
 35 H       -1.1390     2.1850     2.2310 H     1 <1>   0.0800 
 36 H       -2.4190     2.3880     3.4050 H     1 <1>   0.0800 
 37 H       -3.9710    -5.0140    -0.4270 H     1 <1>   0.0800 
 38 H       -5.8190    -6.3820     0.0890 H     1 <1>   0.0800 
 39 H       -3.2830    -4.5270     2.1380 H     1 <1>   0.0800 
 40 H       -3.6430    -6.1790     1.6420 H     1 <1>   0.0800 
 41 H       -6.8040    -6.2920     2.1690 H     1 <1>   0.0800 
 42 H       -6.9500    -4.5370     2.1360 H     1 <1>   0.0800 
 43 H       -6.6410    -4.6860    -1.5260 H     1 <1>   0.0800 
 44 H       -7.1890    -3.6930    -0.2160 H     1 <1>   0.0800 
 45 H       -7.7240    -7.0260    -1.8310 H     1 <1>   0.1500 
 46 H       -9.3150    -4.1850     0.9040 H     1 <1>   0.1500 
 47 H       -9.8390    -8.2180    -1.6900 H     1 <1>   0.1500 
 48 H      -11.3640    -5.4910     0.9360 H     1 <1>   0.1500 
@<TRIPOS>BOND
  1   1   2  1   
  2   2   3  ar  
  3   2   4  ar  
  4   3   5  ar  
  5   3   6  1   
  6   4   7  ar  
  7   4  27  1   
  8   5   8  ar  
  9   6   9  1   
 10   6  10  1   
 11   7   8  ar  
 12   8  11  1   
 13   9  12  1   
 14   9  28  1   
 15   9  29  1   
 16  10  13  1   
 17  10  30  1   
 18  10  31  1   
 19  11  14  1   
 20  11  32  1   
 21  12  15  1   
 22  12  33  1   
 23  12  34  1   
 24  13  15  1   
 25  13  35  1   
 26  13  36  1   
 27  14  16  1   
 28  14  17  1   
 29  14  37  1   
 30  16  18  1   
 31  16  19  1   
 32  16  38  1   
 33  17  20  1   
 34  17  39  1   
 35  17  40  1   
 36  18  20  1   
 37  18  41  1   
 38  18  42  1   
 39  19  21  1   
 40  19  43  1   
 41  19  44  1   
 42  21  22  ar  
 43  21  23  ar  
 44  22  24  ar  
 45  22  45  1   
 46  23  25  ar  
 47  23  46  1   
 48  24  26  ar  
 49  24  47  1   
 50  25  26  ar  
 51  25  48  1   
@<TRIPOS>SUBSTRUCTURE
  1 ****  11 GROUP 4 **** **** 0

# MOE 2024.06 (io_trps.svl 2023.06)
