@<TRIPOS>MOLECULE
NONAME
50 53 1 0 0 
SMALL
USER_CHARGES


@<TRIPOS>ATOM
  1 N       -1.1560    -0.4760     0.7450 N.ar  1 <1>  -0.6200 
  2 C       -1.6720    -0.7510    -0.4460 C.ar  1 <1>   0.1660 
  3 C       -1.0390     0.8090     1.0390 C.ar  1 <1>   0.1600 
  4 C       -2.0610     0.2220    -1.3560 C.ar  1 <1>  -0.1500 
  5 C       -1.8150    -2.2280    -0.8230 C.3   1 <1>   0.2540 
  6 C       -1.4040     1.8550     0.2050 C.ar  1 <1>  -0.1440 
  7 C       -1.9300     1.5560    -1.0340 C.ar  1 <1>  -0.1500 
  8 N       -2.9730    -2.9100    -0.1820 N.3   1 <1>  -0.8100 
  9 C       -1.2270     3.3000     0.6430 C.3   1 <1>  -0.0170 
 10 C       -2.8650    -4.3720    -0.3360 C.3   1 <1>   0.1100 
 11 C       -4.2630    -2.3470    -0.6390 C.3   1 <1>   0.1100 
 12 C        0.1430     3.8280     0.2100 C.3   1 <1>  -0.2400 
 13 C       -3.6630    -5.1270     0.7330 C.3   1 <1>   0.0960 
 14 C       -5.4040    -2.6420     0.3370 C.3   1 <1>   0.0200 
 15 N       -5.1070    -5.1360     0.4200 N.pl3 1 <1>   0.0480 
 16 C       -5.8890    -4.0730     0.2320 C.2   1 <1>   0.0070 
 17 C       -5.9480    -6.1630     0.2310 C.2   1 <1>   0.0060 
 18 N       -7.0970    -4.4150    -0.0530 N.2   1 <1>  -0.3380 
 19 N       -7.1340    -5.7460    -0.0550 N.2   1 <1>  -0.3380 
 20 C       -5.5340    -7.6270     0.3440 C.3   1 <1>   0.1630 
 21 C       -6.6770    -8.6320     0.2280 C.ar  1 <1>  -0.1430 
 22 C       -7.7280    -8.6150     1.1360 C.ar  1 <1>   0.1600 
 23 C       -6.6800    -9.5910    -0.7670 C.ar  1 <1>  -0.1500 
 24 N       -8.7390    -9.4720     1.1480 N.ar  1 <1>  -0.6200 
 25 C       -7.7330   -10.4800    -0.7800 C.ar  1 <1>  -0.1500 
 26 C       -8.7180   -10.3790     0.1870 C.ar  1 <1>   0.1600 
 27 H       -0.6240     1.0410     2.0050 H     1 <1>   0.1500 
 28 H       -2.4660    -0.0590    -2.3110 H     1 <1>   0.1500 
 29 H       -0.9050    -2.7140    -0.5160 H     1 <1>   0.0800 
 30 H       -1.8900    -2.3230    -1.8910 H     1 <1>   0.0800 
 31 H       -2.2260     2.3280    -1.7230 H     1 <1>   0.1500 
 32 H       -1.3190     3.3700     1.7130 H     1 <1>   0.0800 
 33 H       -2.0020     3.9080     0.2080 H     1 <1>   0.0800 
 34 H       -1.8340    -4.6550    -0.2080 H     1 <1>   0.0800 
 35 H       -3.1690    -4.6760    -1.3240 H     1 <1>   0.0800 
 36 H       -4.5100    -2.7160    -1.6210 H     1 <1>   0.0800 
 37 H       -4.1830    -1.2770    -0.6990 H     1 <1>   0.0800 
 38 H        0.9260     3.2380     0.6520 H     1 <1>   0.0800 
 39 H        0.2610     4.8500     0.5230 H     1 <1>   0.0800 
 40 H        0.2390     3.7800    -0.8600 H     1 <1>   0.0800 
 41 H       -3.5100    -4.6650     1.6920 H     1 <1>   0.0800 
 42 H       -3.3100    -6.1380     0.7840 H     1 <1>   0.0800 
 43 H       -6.2280    -1.9920     0.1050 H     1 <1>   0.0800 
 44 H       -5.0900    -2.4250     1.3420 H     1 <1>   0.0800 
 45 H       -5.0600    -7.7770     1.2970 H     1 <1>   0.0800 
 46 H       -4.8050    -7.8300    -0.4190 H     1 <1>   0.0800 
 47 H       -7.7390    -7.8510     1.8960 H     1 <1>   0.1500 
 48 H       -5.9000    -9.6510    -1.5060 H     1 <1>   0.1500 
 49 H       -7.7930   -11.2470    -1.5300 H     1 <1>   0.1500 
 50 H       -9.5340   -11.0810     0.1680 H     1 <1>   0.1500 
@<TRIPOS>BOND
  1   1   2  ar  
  2   1   3  ar  
  3   2   4  ar  
  4   2   5  1   
  5   3   6  ar  
  6   3  27  1   
  7   4   7  ar  
  8   4  28  1   
  9   5   8  1   
 10   5  29  1   
 11   5  30  1   
 12   6   7  ar  
 13   6   9  1   
 14   7  31  1   
 15   8  10  1   
 16   8  11  1   
 17   9  12  1   
 18   9  32  1   
 19   9  33  1   
 20  10  13  1   
 21  10  34  1   
 22  10  35  1   
 23  11  14  1   
 24  11  36  1   
 25  11  37  1   
 26  12  38  1   
 27  12  39  1   
 28  12  40  1   
 29  13  15  1   
 30  13  41  1   
 31  13  42  1   
 32  14  16  1   
 33  14  43  1   
 34  14  44  1   
 35  15  16  1   
 36  15  17  1   
 37  16  18  2   
 38  17  19  2   
 39  17  20  1   
 40  18  19  1   
 41  20  21  1   
 42  20  45  1   
 43  20  46  1   
 44  21  22  ar  
 45  21  23  ar  
 46  22  24  ar  
 47  22  47  1   
 48  23  25  ar  
 49  23  48  1   
 50  24  26  ar  
 51  25  26  ar  
 52  25  49  1   
 53  26  50  1   
@<TRIPOS>SUBSTRUCTURE
  1 ****  16 GROUP 4 **** **** 0

# MOE 2024.06 (io_trps.svl 2023.06)
