@<TRIPOS>MOLECULE
NONAME
52 55 1 0 0 
SMALL
USER_CHARGES


@<TRIPOS>ATOM
  1 O        0.4910    -0.4470     1.6830 O.2   1 <1>  -0.5700 
  2 C        1.0320    -1.2970     1.0120 C.2   1 <1>   0.5690 
  3 N        1.7480    -1.0130    -0.1440 N.am  1 <1>  -0.4770 
  4 C        0.9080    -2.7390     1.5360 C.3   1 <1>   0.1710 
  5 C        1.9070     0.2790    -0.7290 C.ar  1 <1>   0.1170 
  6 C        2.5880    -2.1100    -0.7280 C.3   1 <1>   0.1400 
  7 N        0.1860    -3.7050     0.6420 N.3   1 <1>  -0.8100 
  8 C        3.0420     0.5630    -1.5030 C.ar  1 <1>   0.0820 
  9 C        0.9730     1.3030    -0.5750 C.ar  1 <1>  -0.1500 
 10 C        3.3820    -1.6920    -1.9700 C.3   1 <1>   0.1200 
 11 C        0.6430    -5.0900     0.9060 C.3   1 <1>   0.2540 
 12 C       -1.2890    -3.6000     0.7850 C.3   1 <1>   0.1100 
 13 O        3.9400    -0.4090    -1.7940 O.3   1 <1>  -0.3630 
 14 C        3.2660     1.8230    -2.0260 C.ar  1 <1>  -0.1500 
 15 C        1.1870     2.5630    -1.1110 C.ar  1 <1>  -0.1500 
 16 C        2.0180    -5.3570     0.2930 C.ar  1 <1>   0.1670 
 17 C       -1.8910    -2.3360     0.1470 C.3   1 <1>   0.2000 
 18 C        2.3380     2.8290    -1.8290 C.ar  1 <1>  -0.1500 
 19 N        3.0750    -5.2780     1.0930 N.ar  1 <1>  -0.6200 
 20 C        2.0960    -5.6600    -1.0590 C.ar  1 <1>  -0.1500 
 21 O       -3.2760    -2.4480     0.1480 O.3   1 <1>  -0.5600 
 22 C       -1.5430    -2.1310    -1.3240 C.3   1 <1>  -0.1600 
 23 C        4.2470    -5.5150     0.5240 C.ar  1 <1>   0.1600 
 24 C        3.3230    -5.9000    -1.6390 C.ar  1 <1>  -0.1500 
 25 C       -3.8140    -1.5640    -0.7790 C.3   1 <1>   0.1200 
 26 C       -2.7680    -1.4240    -1.8820 C.3   1 <1>  -0.1600 
 27 C        4.4240    -5.8230    -0.8140 C.ar  1 <1>  -0.1500 
 28 H        0.4180    -2.7090     2.4930 H     1 <1>   0.0800 
 29 H        1.9070    -3.0840     1.7220 H     1 <1>   0.0800 
 30 H        1.9540    -2.9290    -1.0090 H     1 <1>   0.0800 
 31 H        3.2800    -2.4600     0.0170 H     1 <1>   0.0800 
 32 H        0.0650     1.1310    -0.0310 H     1 <1>   0.1500 
 33 H        2.7370    -1.6570    -2.8300 H     1 <1>   0.0800 
 34 H        4.1820    -2.3850    -2.1590 H     1 <1>   0.0800 
 35 H       -0.0500    -5.7880     0.4690 H     1 <1>   0.0800 
 36 H        0.6710    -5.2780     1.9660 H     1 <1>   0.0800 
 37 H       -1.5610    -3.6320     1.8260 H     1 <1>   0.0800 
 38 H       -1.7470    -4.4410     0.2950 H     1 <1>   0.0800 
 39 H        4.1600     2.0080    -2.5940 H     1 <1>   0.1500 
 40 H        0.4540     3.3370    -0.9640 H     1 <1>   0.1500 
 41 H       -1.6480    -1.4610     0.7230 H     1 <1>   0.0800 
 42 H        2.5080     3.8110    -2.2360 H     1 <1>   0.1500 
 43 H        1.1990    -5.7010    -1.6510 H     1 <1>   0.1500 
 44 H       -1.4090    -3.0850    -1.8020 H     1 <1>   0.0800 
 45 H       -0.6460    -1.5510    -1.4400 H     1 <1>   0.0800 
 46 H        5.1150    -5.4620     1.1590 H     1 <1>   0.1500 
 47 H        3.4160    -6.1390    -2.6850 H     1 <1>   0.1500 
 48 H       -3.9830    -0.6230    -0.2820 H     1 <1>   0.0800 
 49 H       -4.7440    -1.9650    -1.1410 H     1 <1>   0.0800 
 50 H       -3.1060    -1.8890    -2.7910 H     1 <1>   0.0800 
 51 H       -2.5700    -0.3840    -2.0700 H     1 <1>   0.0800 
 52 H        5.4110    -6.0030    -1.2000 H     1 <1>   0.1500 
@<TRIPOS>BOND
  1   1   2  2   
  2   2   3  am  
  3   2   4  1   
  4   3   5  1   
  5   3   6  1   
  6   4   7  1   
  7   4  28  1   
  8   4  29  1   
  9   5   8  ar  
 10   5   9  ar  
 11   6  10  1   
 12   6  30  1   
 13   6  31  1   
 14   7  11  1   
 15   7  12  1   
 16   8  13  1   
 17   8  14  ar  
 18   9  15  ar  
 19   9  32  1   
 20  10  13  1   
 21  10  33  1   
 22  10  34  1   
 23  11  16  1   
 24  11  35  1   
 25  11  36  1   
 26  12  17  1   
 27  12  37  1   
 28  12  38  1   
 29  14  18  ar  
 30  14  39  1   
 31  15  18  ar  
 32  15  40  1   
 33  16  19  ar  
 34  16  20  ar  
 35  17  21  1   
 36  17  22  1   
 37  17  41  1   
 38  18  42  1   
 39  19  23  ar  
 40  20  24  ar  
 41  20  43  1   
 42  21  25  1   
 43  22  26  1   
 44  22  44  1   
 45  22  45  1   
 46  23  27  ar  
 47  23  46  1   
 48  24  27  ar  
 49  24  47  1   
 50  25  26  1   
 51  25  48  1   
 52  25  49  1   
 53  26  50  1   
 54  26  51  1   
 55  27  52  1   
@<TRIPOS>SUBSTRUCTURE
  1 ****   3 GROUP 4 **** **** 0

# MOE 2024.06 (io_trps.svl 2023.06)
