@<TRIPOS>MOLECULE
NONAME
40 43 1 0 0 
SMALL
USER_CHARGES


@<TRIPOS>ATOM
  1 CL       2.0350     0.7400    -1.5370 Cl    1 <1>  -0.1770 
  2 C        2.4200    -0.3570    -0.2290 C.ar  1 <1>   0.1770 
  3 C        2.8640     0.1720     0.9800 C.ar  1 <1>   0.0860 
  4 C        2.2800    -1.7250    -0.4380 C.ar  1 <1>  -0.1440 
  5 C        3.1720    -0.7510     1.9740 C.ar  1 <1>   0.1900 
  6 C        2.9950     1.5890     1.1920 C.2   1 <1>   0.5440 
  7 C        2.5950    -2.6040     0.5900 C.ar  1 <1>  -0.1500 
  8 C        1.7880    -2.2700    -1.7720 C.3   1 <1>  -0.0970 
  9 F        3.6180    -0.3240     3.1230 F     1 <1>  -0.1900 
 10 C        3.0450    -2.1160     1.8040 C.ar  1 <1>  -0.1500 
 11 O        2.0980     2.1850     1.7550 O.2   1 <1>  -0.5700 
 12 N        4.1070     2.2880     0.7780 N.am  1 <1>  -0.6600 
 13 C        4.1420     3.7800     0.9060 C.3   1 <1>   0.3210 
 14 C        5.3420     1.6500     0.2230 C.3   1 <1>   0.1400 
 15 C        4.9540     4.4110    -0.2140 C.2   1 <1>  -0.1810 
 16 C        5.6330     2.1710    -1.1880 C.3   1 <1>   0.0210 
 17 C        5.2020     5.7030    -0.5250 C.2   1 <1>  -0.2370 
 18 C        5.6440     3.6800    -1.1710 C.2   1 <1>   0.1080 
 19 N        6.0010     5.6850    -1.6120 N.pl3 1 <1>   0.3000 
 20 C        4.7440     6.9870     0.1370 C.3   1 <1>  -0.0150 
 21 N        6.2810     4.4290    -2.0140 N.2   1 <1>  -0.7070 
 22 C        3.3260     7.1490     0.5860 C.3   1 <1>  -0.2000 
 23 C        3.8280     7.9080    -0.6040 C.3   1 <1>  -0.2000 
 24 H        2.4910    -3.6680     0.4510 H     1 <1>   0.1500 
 25 H        0.8110    -1.8760    -1.9920 H     1 <1>   0.0800 
 26 H        1.7230    -3.3430    -1.7540 H     1 <1>   0.0800 
 27 H        2.4610    -1.9830    -2.5600 H     1 <1>   0.0800 
 28 H        3.2940    -2.7840     2.6100 H     1 <1>   0.1500 
 29 H        4.5760     4.0410     1.8550 H     1 <1>   0.0800 
 30 H        3.1410     4.1730     0.8730 H     1 <1>   0.0800 
 31 H        5.2510     0.5790     0.1970 H     1 <1>   0.0800 
 32 H        6.1710     1.8960     0.8650 H     1 <1>   0.0800 
 33 H        4.8770     1.8300    -1.8720 H     1 <1>   0.0800 
 34 H        6.5870     1.8090    -1.5250 H     1 <1>   0.0800 
 35 H        6.3650     6.5120    -2.0980 H     1 <1>   0.2700 
 36 H        5.5100     7.4360     0.7470 H     1 <1>   0.1000 
 37 H        3.1330     7.6810     1.5010 H     1 <1>   0.1000 
 38 H        2.6150     6.3610     0.4090 H     1 <1>   0.1000 
 39 H        3.4720     7.6180    -1.5770 H     1 <1>   0.1000 
 40 H        3.9740     8.9700    -0.5140 H     1 <1>   0.1000 
@<TRIPOS>BOND
  1   1   2  1   
  2   2   3  ar  
  3   2   4  ar  
  4   3   5  ar  
  5   3   6  1   
  6   4   7  ar  
  7   4   8  1   
  8   5   9  1   
  9   5  10  ar  
 10   6  11  2   
 11   6  12  am  
 12   7  10  ar  
 13   7  24  1   
 14   8  25  1   
 15   8  26  1   
 16   8  27  1   
 17  10  28  1   
 18  12  13  1   
 19  12  14  1   
 20  13  15  1   
 21  13  29  1   
 22  13  30  1   
 23  14  16  1   
 24  14  31  1   
 25  14  32  1   
 26  15  17  2   
 27  15  18  1   
 28  16  18  1   
 29  16  33  1   
 30  16  34  1   
 31  17  19  1   
 32  17  20  1   
 33  18  21  2   
 34  19  21  1   
 35  19  35  1   
 36  20  22  1   
 37  20  23  1   
 38  20  36  1   
 39  22  23  1   
 40  22  37  1   
 41  22  38  1   
 42  23  39  1   
 43  23  40  1   
@<TRIPOS>SUBSTRUCTURE
  1 ****  12 GROUP 4 **** **** 0

# MOE 2024.06 (io_trps.svl 2023.06)
