@<TRIPOS>MOLECULE
NONAME
55 57 1 0 0 
SMALL
USER_CHARGES


@<TRIPOS>ATOM
  1 O        1.4010    -1.5770     1.8920 O.3   1 <1>  -0.3630 
  2 C        0.7960    -2.2960     0.9120 C.ar  1 <1>   0.0830 
  3 C        0.8030    -0.4430     2.4800 C.3   1 <1>   0.0400 
  4 C        1.5450    -3.3450     0.3210 C.ar  1 <1>   0.0000 
  5 C       -0.4830    -2.0340     0.4870 C.ar  1 <1>  -0.1500 
  6 C        0.9640    -4.1140    -0.7200 C.ar  1 <1>   0.0000 
  7 C        2.8650    -3.6410     0.7300 C.ar  1 <1>  -0.1500 
  8 C       -1.0650    -2.8150    -0.5100 C.ar  1 <1>  -0.1500 
  9 C       -0.3840    -3.8540    -1.0920 C.ar  1 <1>  -0.1440 
 10 C        1.7810    -5.0960    -1.3360 C.ar  1 <1>  -0.1500 
 11 C        3.6060    -4.6190     0.1310 C.ar  1 <1>  -0.1500 
 12 C       -1.1190    -4.6940    -2.1440 C.3   1 <1>   0.2530 
 13 C        3.0580    -5.3500    -0.9220 C.ar  1 <1>  -0.1500 
 14 N       -1.8840    -5.8250    -1.5560 N.3   1 <1>  -0.8100 
 15 C       -0.9730    -6.7870    -0.8960 C.3   1 <1>   0.2900 
 16 C       -3.0110    -5.3650    -0.7100 C.3   1 <1>   0.1100 
 17 C       -1.7130    -8.0430    -0.4920 C.2   1 <1>  -0.3320 
 18 C       -4.1660    -6.3880    -0.7000 C.3   1 <1>   0.3430 
 19 N       -1.7080    -8.5490     0.7560 N.pl3 1 <1>   0.0330 
 20 C       -2.4910    -8.8630    -1.2320 C.2   1 <1>   0.0770 
 21 N       -5.4670    -5.8460    -0.1880 N.4   1 <1>  -0.9590 
 22 C       -2.5270    -9.6220     0.7040 C.2   1 <1>   0.0060 
 23 N       -3.0320    -9.8290    -0.4680 N.2   1 <1>  -0.5650 
 24 C       -6.3850    -6.9980     0.0770 C.3   1 <1>   0.2630 
 25 C       -6.0940    -4.8930    -1.1550 C.3   1 <1>   0.2630 
 26 C       -2.8080   -10.4990     1.9050 C.3   1 <1>  -0.0600 
 27 H        1.4960    -0.0320     3.1920 H     1 <1>   0.0800 
 28 H       -0.1000    -0.7440     2.9820 H     1 <1>   0.0800 
 29 H        0.5960     0.2810     1.7110 H     1 <1>   0.0800 
 30 H       -1.0670    -1.2360     0.9040 H     1 <1>   0.1500 
 31 H        3.2960    -3.0720     1.5350 H     1 <1>   0.1500 
 32 H       -2.0700    -2.5740    -0.8070 H     1 <1>   0.1500 
 33 H        1.4050    -5.6640    -2.1620 H     1 <1>   0.1500 
 34 H        4.6110    -4.8290     0.4540 H     1 <1>   0.1500 
 35 H       -0.4360    -5.0670    -2.8850 H     1 <1>   0.0800 
 36 H       -1.8030    -4.0570    -2.6780 H     1 <1>   0.0800 
 37 H        3.6580    -6.1040    -1.4010 H     1 <1>   0.1500 
 38 H       -0.5170    -6.3320    -0.0320 H     1 <1>   0.0800 
 39 H       -0.1940    -7.0720    -1.5810 H     1 <1>   0.0800 
 40 H       -3.3870    -4.4460    -1.1180 H     1 <1>   0.0800 
 41 H       -2.6630    -5.1790     0.2920 H     1 <1>   0.0800 
 42 H       -3.8770    -7.2170    -0.0780 H     1 <1>   0.0800 
 43 H       -4.3020    -6.7590    -1.7020 H     1 <1>   0.0800 
 44 H       -1.1840    -8.2170     1.5720 H     1 <1>   0.2700 
 45 H       -2.7050    -8.7930    -2.2860 H     1 <1>   0.1500 
 46 H       -5.2870    -5.3640     0.7050 H     1 <1>   0.4500 
 47 H       -6.5880    -7.5330    -0.8370 H     1 <1>   0.0800 
 48 H       -7.3190    -6.6490     0.4890 H     1 <1>   0.0800 
 49 H       -5.9340    -7.6820     0.7780 H     1 <1>   0.0800 
 50 H       -6.2690    -5.3820    -2.1000 H     1 <1>   0.0800 
 51 H       -5.4500    -4.0450    -1.3210 H     1 <1>   0.0800 
 52 H       -7.0360    -4.5360    -0.7720 H     1 <1>   0.0800 
 53 H       -3.2420    -9.9210     2.6990 H     1 <1>   0.0800 
 54 H       -1.8960   -10.9510     2.2510 H     1 <1>   0.0800 
 55 H       -3.4930   -11.2830     1.6320 H     1 <1>   0.0800 
@<TRIPOS>BOND
  1   1   2  1   
  2   1   3  1   
  3   2   4  ar  
  4   2   5  ar  
  5   3  27  1   
  6   3  28  1   
  7   3  29  1   
  8   4   6  ar  
  9   4   7  ar  
 10   5   8  ar  
 11   5  30  1   
 12   6   9  ar  
 13   6  10  ar  
 14   7  11  ar  
 15   7  31  1   
 16   8   9  ar  
 17   8  32  1   
 18   9  12  1   
 19  10  13  ar  
 20  10  33  1   
 21  11  13  ar  
 22  11  34  1   
 23  12  14  1   
 24  12  35  1   
 25  12  36  1   
 26  13  37  1   
 27  14  15  1   
 28  14  16  1   
 29  15  17  1   
 30  15  38  1   
 31  15  39  1   
 32  16  18  1   
 33  16  40  1   
 34  16  41  1   
 35  17  19  1   
 36  17  20  2   
 37  18  21  1   
 38  18  42  1   
 39  18  43  1   
 40  19  22  1   
 41  19  44  1   
 42  20  23  1   
 43  20  45  1   
 44  21  24  1   
 45  21  25  1   
 46  21  46  1   
 47  22  23  2   
 48  22  26  1   
 49  24  47  1   
 50  24  48  1   
 51  24  49  1   
 52  25  50  1   
 53  25  51  1   
 54  25  52  1   
 55  26  53  1   
 56  26  54  1   
 57  26  55  1   
@<TRIPOS>SUBSTRUCTURE
  1 ****  15 GROUP 4 **** **** 0

# MOE 2024.06 (io_trps.svl 2023.06)
