@<TRIPOS>MOLECULE
NONAME
48 50 1 0 0 
SMALL
USER_CHARGES


@<TRIPOS>ATOM
  1 O       -1.1010     0.3730     1.7680 O.2   1 <1>  -0.5700 
  2 C       -1.8750     0.9280     1.0230 C.2   1 <1>   0.5690 
  3 N       -3.0480     0.3110     0.6490 N.am  1 <1>  -0.6600 
  4 C       -1.4540     2.3250     0.5430 C.3   1 <1>  -0.0190 
  5 C       -3.3440    -1.0770     1.1470 C.3   1 <1>   0.1400 
  6 C       -4.0980     0.8850    -0.2610 C.3   1 <1>   0.1400 
  7 C       -2.4510     3.4520     0.8920 C.3   1 <1>  -0.1600 
  8 C       -1.0140     2.3470    -0.9420 C.3   1 <1>  -0.1600 
  9 C       -4.8510    -1.3510     1.3060 C.3   1 <1>   0.2090 
 10 C       -4.9470    -0.1980    -0.9470 C.3   1 <1>   0.2090 
 11 C       -1.8730     4.8500     0.5880 C.3   1 <1>   0.2000 
 12 C       -1.1570     3.7310    -1.6020 C.3   1 <1>  -0.1600 
 13 N       -5.6270    -1.0780     0.0540 N.pl3 1 <1>  -0.8380 
 14 O       -2.9520     5.7010     0.2850 O.3   1 <1>  -0.5600 
 15 C       -0.8700     4.8500    -0.5980 C.3   1 <1>   0.2000 
 16 C       -6.5120    -2.0420    -0.4010 C.ar  1 <1>   0.4100 
 17 C       -3.6110     6.2380     1.3900 C.3   1 <1>   0.0400 
 18 O       -0.9550     6.0540    -1.2660 O.3   1 <1>  -0.6800 
 19 N       -6.3690    -2.4570    -1.6550 N.ar  1 <1>  -0.6200 
 20 C       -7.4990    -2.5350     0.4520 C.ar  1 <1>  -0.1500 
 21 C       -7.2190    -3.3850    -2.0610 C.ar  1 <1>   0.1600 
 22 C       -8.3760    -3.5000     0.0170 C.ar  1 <1>  -0.1500 
 23 C       -8.2220    -3.9340    -1.2830 C.ar  1 <1>  -0.1500 
 24 H       -0.5690     2.5570     1.1100 H     1 <1>   0.0800 
 25 H       -2.9340    -1.7900     0.4530 H     1 <1>   0.0800 
 26 H       -2.8670    -1.2370     2.0980 H     1 <1>   0.0800 
 27 H       -4.7570     1.5080     0.3170 H     1 <1>   0.0800 
 28 H       -3.6470     1.4910    -1.0220 H     1 <1>   0.0800 
 29 H       -2.7040     3.3900     1.9350 H     1 <1>   0.0800 
 30 H       -3.3480     3.3310     0.3180 H     1 <1>   0.0800 
 31 H        0.0190     2.0430    -0.9840 H     1 <1>   0.0800 
 32 H       -1.5640     1.6270    -1.5200 H     1 <1>   0.0800 
 33 H       -5.2350    -0.7290     2.0960 H     1 <1>   0.0800 
 34 H       -4.9850    -2.3780     1.5980 H     1 <1>   0.0800 
 35 H       -4.3160    -0.7950    -1.5830 H     1 <1>   0.0800 
 36 H       -5.6950     0.2680    -1.5650 H     1 <1>   0.0800 
 37 H       -1.3570     5.2340     1.4520 H     1 <1>   0.0800 
 38 H       -2.1620     3.8470    -1.9700 H     1 <1>   0.0800 
 39 H       -0.4800     3.8040    -2.4350 H     1 <1>   0.0800 
 40 H        0.1380     4.7460    -0.2320 H     1 <1>   0.0800 
 41 H       -4.4040     6.8710     1.0320 H     1 <1>   0.0800 
 42 H       -2.9170     6.8220     1.9690 H     1 <1>   0.0800 
 43 H       -4.0260     5.4430     1.9850 H     1 <1>   0.0800 
 44 H       -1.8690     6.3810    -1.1050 H     1 <1>   0.4000 
 45 H       -7.5680    -2.1430     1.4470 H     1 <1>   0.1500 
 46 H       -7.1080    -3.7290    -3.0750 H     1 <1>   0.1500 
 47 H       -9.1460    -3.8960     0.6560 H     1 <1>   0.1500 
 48 H       -8.8720    -4.6870    -1.6890 H     1 <1>   0.1500 
@<TRIPOS>BOND
  1   1   2  2   
  2   2   3  am  
  3   2   4  1   
  4   3   5  1   
  5   3   6  1   
  6   4   7  1   
  7   4   8  1   
  8   4  24  1   
  9   5   9  1   
 10   5  25  1   
 11   5  26  1   
 12   6  10  1   
 13   6  27  1   
 14   6  28  1   
 15   7  11  1   
 16   7  29  1   
 17   7  30  1   
 18   8  12  1   
 19   8  31  1   
 20   8  32  1   
 21   9  13  1   
 22   9  33  1   
 23   9  34  1   
 24  10  13  1   
 25  10  35  1   
 26  10  36  1   
 27  11  14  1   
 28  11  15  1   
 29  11  37  1   
 30  12  15  1   
 31  12  38  1   
 32  12  39  1   
 33  13  16  1   
 34  14  17  1   
 35  15  18  1   
 36  15  40  1   
 37  16  19  ar  
 38  16  20  ar  
 39  17  41  1   
 40  17  42  1   
 41  17  43  1   
 42  18  44  1   
 43  19  21  ar  
 44  20  22  ar  
 45  20  45  1   
 46  21  23  ar  
 47  21  46  1   
 48  22  23  ar  
 49  22  47  1   
 50  23  48  1   
@<TRIPOS>SUBSTRUCTURE
  1 ****   6 GROUP 4 **** **** 0

# MOE 2024.06 (io_trps.svl 2023.06)
