@<TRIPOS>MOLECULE
NONAME
45 46 1 0 0 
SMALL
USER_CHARGES


@<TRIPOS>ATOM
  1 O       -2.0480     0.4030    -1.8540 O.2   1 <1>  -0.5700 
  2 C       -2.7290     1.1640    -1.2030 C.2   1 <1>   0.5690 
  3 N       -4.0380     0.8780    -0.9150 N.am  1 <1>  -0.6600 
  4 C       -2.0920     2.4420    -0.6750 C.3   1 <1>  -0.0990 
  5 C       -4.6670    -0.3620    -1.4430 C.3   1 <1>   0.3200 
  6 C       -4.9060     1.6930    -0.0100 C.3   1 <1>   0.1400 
  7 C       -0.5890     2.5650    -0.9640 C.3   1 <1>  -0.0170 
  8 C       -4.2860    -1.5240    -0.5510 C.2   1 <1>  -0.3320 
  9 C       -4.8670     1.1450     1.4210 C.3   1 <1>   0.1200 
 10 C       -0.0440     3.8370    -0.3240 C.ar  1 <1>  -0.1440 
 11 N       -3.0120    -1.9270    -0.4190 N.pl3 1 <1>   0.0330 
 12 C       -5.0260    -2.3430     0.2280 C.2   1 <1>   0.0770 
 13 O       -5.5430     2.0200     2.2600 O.3   1 <1>  -0.6800 
 14 C        0.5020     3.8600     0.9580 C.ar  1 <1>  -0.1440 
 15 C       -0.1120     5.0130    -1.0570 C.ar  1 <1>  -0.1500 
 16 C       -3.0530    -2.9670     0.4410 C.2   1 <1>   0.0070 
 17 N       -4.2460    -3.2460     0.8520 N.2   1 <1>  -0.5650 
 18 C        0.9660     5.0590     1.4790 C.ar  1 <1>  -0.1500 
 19 C        0.6150     2.6060     1.8150 C.3   1 <1>  -0.0970 
 20 C        0.3520     6.2040    -0.5290 C.ar  1 <1>  -0.1500 
 21 C       -1.8140    -3.7210     0.8710 C.3   1 <1>  -0.0600 
 22 C        0.8910     6.2270     0.7420 C.ar  1 <1>  -0.1500 
 23 H       -2.2370     2.4830     0.3870 H     1 <1>   0.0800 
 24 H       -2.5960     3.2810    -1.1170 H     1 <1>   0.0800 
 25 H       -4.3200    -0.5470    -2.4460 H     1 <1>   0.0800 
 26 H       -5.7370    -0.2550    -1.4760 H     1 <1>   0.0800 
 27 H       -5.9200     1.6710    -0.3690 H     1 <1>   0.0800 
 28 H       -4.5810     2.7170    -0.0120 H     1 <1>   0.0800 
 29 H       -0.4290     2.5960    -2.0280 H     1 <1>   0.0800 
 30 H       -0.0680     1.7000    -0.5950 H     1 <1>   0.0800 
 31 H       -3.8560     1.0460     1.7770 H     1 <1>   0.0800 
 32 H       -5.3610     0.1910     1.4740 H     1 <1>   0.0800 
 33 H       -2.2000    -1.4960    -0.8810 H     1 <1>   0.2700 
 34 H       -6.0920    -2.3340     0.3800 H     1 <1>   0.1500 
 35 H       -5.0070     2.8150     2.4490 H     1 <1>   0.4000 
 36 H       -0.5300     5.0090    -2.0490 H     1 <1>   0.1500 
 37 H        1.3930     5.0940     2.4650 H     1 <1>   0.1500 
 38 H       -0.3390     2.1190     1.8950 H     1 <1>   0.0800 
 39 H        0.9520     2.8460     2.8070 H     1 <1>   0.0800 
 40 H        1.3220     1.9260     1.3740 H     1 <1>   0.0800 
 41 H        0.2930     7.1100    -1.1070 H     1 <1>   0.1500 
 42 H       -1.1280    -3.0540     1.3590 H     1 <1>   0.0800 
 43 H       -1.3370    -4.1620     0.0150 H     1 <1>   0.0800 
 44 H       -2.0860    -4.5020     1.5570 H     1 <1>   0.0800 
 45 H        1.2540     7.1500     1.1570 H     1 <1>   0.1500 
@<TRIPOS>BOND
  1   1   2  2   
  2   2   3  am  
  3   2   4  1   
  4   3   5  1   
  5   3   6  1   
  6   4   7  1   
  7   4  23  1   
  8   4  24  1   
  9   5   8  1   
 10   5  25  1   
 11   5  26  1   
 12   6   9  1   
 13   6  27  1   
 14   6  28  1   
 15   7  10  1   
 16   7  29  1   
 17   7  30  1   
 18   8  11  1   
 19   8  12  2   
 20   9  13  1   
 21   9  31  1   
 22   9  32  1   
 23  10  14  ar  
 24  10  15  ar  
 25  11  16  1   
 26  11  33  1   
 27  12  17  1   
 28  12  34  1   
 29  13  35  1   
 30  14  18  ar  
 31  14  19  1   
 32  15  20  ar  
 33  15  36  1   
 34  16  17  2   
 35  16  21  1   
 36  18  22  ar  
 37  18  37  1   
 38  19  38  1   
 39  19  39  1   
 40  19  40  1   
 41  20  22  ar  
 42  20  41  1   
 43  21  42  1   
 44  21  43  1   
 45  21  44  1   
 46  22  45  1   
@<TRIPOS>SUBSTRUCTURE
  1 ****   2 GROUP 4 **** **** 0

# MOE 2024.06 (io_trps.svl 2023.06)
