@<TRIPOS>MOLECULE
NONAME
55 59 1 0 0 
SMALL
USER_CHARGES


@<TRIPOS>ATOM
  1 F        1.6290     0.2890    -1.6010 F     1 <1>  -0.1900 
  2 C        2.2070     1.2790    -0.9510 C.ar  1 <1>   0.1900 
  3 C        3.2150     1.0620    -0.0090 C.ar  1 <1>   0.4100 
  4 C        1.7940     2.5560    -1.2080 C.ar  1 <1>   0.1600 
  5 N        3.7330     2.0970     0.6270 N.ar  1 <1>  -0.6200 
  6 N        3.7240    -0.1920     0.3260 N.pl3 1 <1>  -0.8380 
  7 N        2.3240     3.5920    -0.5880 N.ar  1 <1>  -0.6200 
  8 C        3.2640     3.2890     0.3010 C.ar  1 <1>   0.7200 
  9 C        3.8110    -1.3170    -0.6340 C.3   1 <1>   0.2090 
 10 C        4.7000    -0.3740     1.4280 C.3   1 <1>   0.2090 
 11 N        3.8570     4.3010     0.9720 N.pl3 1 <1>  -0.8690 
 12 C        5.0240    -2.1260    -0.1900 C.3   1 <1>  -0.1600 
 13 C        5.1710    -1.8160     1.2960 C.3   1 <1>  -0.1600 
 14 C        4.1850     5.5970     0.3490 C.3   1 <1>   0.2890 
 15 C        5.7050     5.6820    -0.0080 C.3   1 <1>   0.0000 
 16 C        3.6720     6.6660     1.3170 C.3   1 <1>  -0.2400 
 17 C        6.0290     7.0440    -0.6780 C.3   1 <1>  -0.1600 
 18 C        6.6310     5.5250     1.2310 C.3   1 <1>  -0.1600 
 19 C        6.0720     4.5630    -1.0220 C.3   1 <1>  -0.1600 
 20 C        7.5080     7.1050    -1.0790 C.3   1 <1>   0.2800 
 21 C        8.1180     5.6020     0.8270 C.3   1 <1>  -0.0800 
 22 C        7.5530     4.6320    -1.4350 C.3   1 <1>  -0.0800 
 23 O        7.7570     8.3200    -1.6690 O.3   1 <1>  -0.6800 
 24 C        8.3960     6.9640     0.1640 C.3   1 <1>  -0.1600 
 25 C        7.8300     5.9980    -2.0880 C.3   1 <1>  -0.1600 
 26 C        8.4300     4.4770    -0.1780 C.3   1 <1>  -0.1600 
 27 H        1.0180     2.7350    -1.9300 H     1 <1>   0.1500 
 28 H        3.9280    -0.9630    -1.6440 H     1 <1>   0.0800 
 29 H        2.9160    -1.9120    -0.5570 H     1 <1>   0.0800 
 30 H        4.2360    -0.1890     2.3820 H     1 <1>   0.0800 
 31 H        5.5270     0.3030     1.2910 H     1 <1>   0.0800 
 32 H        4.5950     3.9410     1.5710 H     1 <1>   0.4000 
 33 H        5.8890    -1.7750    -0.7230 H     1 <1>   0.0800 
 34 H        4.8950    -3.1770    -0.3800 H     1 <1>   0.0800 
 35 H        4.5170    -2.4480     1.8700 H     1 <1>   0.0800 
 36 H        6.1800    -1.9390     1.6470 H     1 <1>   0.0800 
 37 H        3.6290     5.7020    -0.5680 H     1 <1>   0.0800 
 38 H        4.1870     6.6200     2.2580 H     1 <1>   0.0800 
 39 H        2.6230     6.5070     1.4920 H     1 <1>   0.0800 
 40 H        3.7840     7.6480     0.9010 H     1 <1>   0.0800 
 41 H        5.8240     7.8490     0.0020 H     1 <1>   0.0800 
 42 H        5.4160     7.1700    -1.5540 H     1 <1>   0.0800 
 43 H        6.4510     4.5800     1.7110 H     1 <1>   0.0800 
 44 H        6.4280     6.2980     1.9500 H     1 <1>   0.0800 
 45 H        5.4500     4.6450    -1.8970 H     1 <1>   0.0800 
 46 H        5.8890     3.5940    -0.5920 H     1 <1>   0.0800 
 47 H        8.7380     5.4890     1.7010 H     1 <1>   0.0800 
 48 H        7.7740     3.8430    -2.1340 H     1 <1>   0.0800 
 49 H        7.5890     9.0320    -1.0270 H     1 <1>   0.4000 
 50 H        8.1880     7.7540     0.8640 H     1 <1>   0.0800 
 51 H        9.4320     7.0220    -0.1200 H     1 <1>   0.0800 
 52 H        8.8630     6.0590    -2.3800 H     1 <1>   0.0800 
 53 H        7.2200     6.1130    -2.9660 H     1 <1>   0.0800 
 54 H        8.2460     3.5190     0.2770 H     1 <1>   0.0800 
 55 H        9.4700     4.5130    -0.4540 H     1 <1>   0.0800 
@<TRIPOS>BOND
  1   1   2  1   
  2   2   3  ar  
  3   2   4  ar  
  4   3   5  ar  
  5   3   6  1   
  6   4   7  ar  
  7   4  27  1   
  8   5   8  ar  
  9   6   9  1   
 10   6  10  1   
 11   7   8  ar  
 12   8  11  1   
 13   9  12  1   
 14   9  28  1   
 15   9  29  1   
 16  10  13  1   
 17  10  30  1   
 18  10  31  1   
 19  11  14  1   
 20  11  32  1   
 21  12  13  1   
 22  12  33  1   
 23  12  34  1   
 24  13  35  1   
 25  13  36  1   
 26  14  15  1   
 27  14  16  1   
 28  14  37  1   
 29  15  17  1   
 30  15  18  1   
 31  15  19  1   
 32  16  38  1   
 33  16  39  1   
 34  16  40  1   
 35  17  20  1   
 36  17  41  1   
 37  17  42  1   
 38  18  21  1   
 39  18  43  1   
 40  18  44  1   
 41  19  22  1   
 42  19  45  1   
 43  19  46  1   
 44  20  23  1   
 45  20  24  1   
 46  20  25  1   
 47  21  24  1   
 48  21  26  1   
 49  21  47  1   
 50  22  25  1   
 51  22  26  1   
 52  22  48  1   
 53  23  49  1   
 54  24  50  1   
 55  24  51  1   
 56  25  52  1   
 57  25  53  1   
 58  26  54  1   
 59  26  55  1   
@<TRIPOS>SUBSTRUCTURE
  1 ****  19 GROUP 4 **** **** 0

# MOE 2024.06 (io_trps.svl 2023.06)
