@<TRIPOS>MOLECULE
NONAME
51 53 1 0 0 
SMALL
USER_CHARGES


@<TRIPOS>ATOM
  1 O       -4.3490     2.7080    -1.2930 O.2   1 <1>  -0.5700 
  2 C       -3.1730     2.4710    -1.1680 C.2   1 <1>   0.5690 
  3 N       -2.6540     1.2520    -1.4570 N.am  1 <1>  -0.7300 
  4 C       -2.2450     3.5660    -0.6660 C.3   1 <1>   0.0440 
  5 C       -3.4120     0.0610    -1.8920 C.3   1 <1>   0.2200 
  6 C       -0.8820     3.0200    -0.2500 C.ar  1 <1>  -0.1440 
  7 C       -3.3590    -0.9840    -0.7920 C.3   1 <1>  -0.0800 
  8 C       -2.6690    -0.6350    -3.0320 C.3   1 <1>   0.1200 
  9 C        0.1770     3.0140    -1.1440 C.ar  1 <1>  -0.1500 
 10 C       -0.7000     2.4900     1.0170 C.ar  1 <1>  -0.1500 
 11 C       -2.0090    -1.6490    -1.0680 C.3   1 <1>   0.1200 
 12 C       -4.5320    -1.9780    -0.8980 C.3   1 <1>  -0.0160 
 13 O       -1.8000    -1.5620    -2.4470 O.3   1 <1>  -0.5600 
 14 C        1.3980     2.4770    -0.7770 C.ar  1 <1>  -0.1500 
 15 C        0.5220     1.9530     1.3810 C.ar  1 <1>  -0.1500 
 16 C       -4.4830    -3.0180     0.2110 C.ar  1 <1>  -0.1440 
 17 C        1.5830     1.9370     0.4870 C.ar  1 <1>  -0.1440 
 18 C       -4.0620    -4.3130    -0.0170 C.ar  1 <1>  -0.1500 
 19 C       -4.8610    -2.7190     1.5040 C.ar  1 <1>  -0.1500 
 20 C        2.9350     1.3400     0.8700 C.3   1 <1>   0.0630 
 21 C       -4.0350    -5.2190     1.0300 C.ar  1 <1>   0.1600 
 22 C       -4.7970    -3.7000     2.4800 C.ar  1 <1>   0.1600 
 23 C        2.8020    -0.1550     1.1780 C.3   1 <1>  -0.2400 
 24 C        3.5490     2.0880     2.0580 C.3   1 <1>  -0.2400 
 25 N       -4.3910    -4.9430     2.2740 N.ar  1 <1>  -0.6200 
 26 H       -1.6510     1.1020    -1.3010 H     1 <1>   0.3700 
 27 H       -2.1300     4.2960    -1.4450 H     1 <1>   0.0800 
 28 H       -2.7120     4.0530     0.1710 H     1 <1>   0.0800 
 29 H       -4.4150     0.3390    -2.1700 H     1 <1>   0.0800 
 30 H       -3.3740    -0.5290     0.1830 H     1 <1>   0.0800 
 31 H       -2.1070     0.0550    -3.6370 H     1 <1>   0.0800 
 32 H       -3.3560    -1.1840    -3.6510 H     1 <1>   0.0800 
 33 H        0.0570     3.4230    -2.1320 H     1 <1>   0.1500 
 34 H       -1.5100     2.4860     1.7250 H     1 <1>   0.1500 
 35 H       -1.9690    -2.6810    -0.7680 H     1 <1>   0.0800 
 36 H       -1.2140    -1.1070    -0.5850 H     1 <1>   0.0800 
 37 H       -4.5170    -2.4710    -1.8540 H     1 <1>   0.0800 
 38 H       -5.4610    -1.4400    -0.8250 H     1 <1>   0.0800 
 39 H        2.2060     2.4800    -1.4870 H     1 <1>   0.1500 
 40 H        0.6420     1.5440     2.3680 H     1 <1>   0.1500 
 41 H       -3.7520    -4.6250    -0.9980 H     1 <1>   0.1500 
 42 H       -5.2040    -1.7340     1.7620 H     1 <1>   0.1500 
 43 H        3.6080     1.4440     0.0360 H     1 <1>   0.0800 
 44 H       -3.7030    -6.2240     0.8330 H     1 <1>   0.1500 
 45 H       -5.0950    -3.4490     3.4830 H     1 <1>   0.1500 
 46 H        2.1760    -0.3160     2.0370 H     1 <1>   0.0800 
 47 H        3.7690    -0.5830     1.3720 H     1 <1>   0.0800 
 48 H        2.3660    -0.6630     0.3360 H     1 <1>   0.0800 
 49 H        2.9430     1.9740     2.9390 H     1 <1>   0.0800 
 50 H        3.6250     3.1360     1.8280 H     1 <1>   0.0800 
 51 H        4.5340     1.7110     2.2670 H     1 <1>   0.0800 
@<TRIPOS>BOND
  1   1   2  2   
  2   2   3  am  
  3   2   4  1   
  4   3   5  1   
  5   3  26  1   
  6   4   6  1   
  7   4  27  1   
  8   4  28  1   
  9   5   7  1   
 10   5   8  1   
 11   5  29  1   
 12   6   9  ar  
 13   6  10  ar  
 14   7  11  1   
 15   7  12  1   
 16   7  30  1   
 17   8  13  1   
 18   8  31  1   
 19   8  32  1   
 20   9  14  ar  
 21   9  33  1   
 22  10  15  ar  
 23  10  34  1   
 24  11  13  1   
 25  11  35  1   
 26  11  36  1   
 27  12  16  1   
 28  12  37  1   
 29  12  38  1   
 30  14  17  ar  
 31  14  39  1   
 32  15  17  ar  
 33  15  40  1   
 34  16  18  ar  
 35  16  19  ar  
 36  17  20  1   
 37  18  21  ar  
 38  18  41  1   
 39  19  22  ar  
 40  19  42  1   
 41  20  23  1   
 42  20  24  1   
 43  20  43  1   
 44  21  25  ar  
 45  21  44  1   
 46  22  25  ar  
 47  22  45  1   
 48  23  46  1   
 49  23  47  1   
 50  23  48  1   
 51  24  49  1   
 52  24  50  1   
 53  24  51  1   
@<TRIPOS>SUBSTRUCTURE
  1 ****  11 GROUP 4 **** **** 0

# MOE 2024.06 (io_trps.svl 2023.06)
