@<TRIPOS>MOLECULE
NONAME
41 42 1 0 0 
SMALL
USER_CHARGES


@<TRIPOS>ATOM
  1 O       -0.1500     0.7070    -0.5320 O.2   1 <1>  -0.5700 
  2 C       -0.0670     1.9120    -0.5370 C.2   1 <1>   0.5690 
  3 N       -0.8430     2.7040     0.2680 N.am  1 <1>  -0.6600 
  4 C        0.9360     2.5610    -1.4950 C.3   1 <1>   0.1810 
  5 C       -0.7290     4.1990     0.2190 C.3   1 <1>   0.3640 
  6 C       -1.7290     2.1400     1.3290 C.3   1 <1>   0.0600 
  7 O        1.2850     3.8730    -1.1180 O.3   1 <1>  -0.5600 
  8 C       -2.1060     4.8790     0.2130 C.ar  1 <1>  -0.1440 
  9 C        0.1650     4.7180    -0.9340 C.3   1 <1>   0.2610 
 10 C       -3.1400     4.5750    -0.6790 C.ar  1 <1>  -0.1440 
 11 C       -2.3130     5.8680     1.1690 C.ar  1 <1>  -0.1500 
 12 C        0.6140     6.1450    -0.6190 C.2   1 <1>   0.5690 
 13 C       -4.3400     5.2660    -0.5880 C.ar  1 <1>  -0.1500 
 14 C       -3.0420     3.5010    -1.7580 C.3   1 <1>  -0.0960 
 15 C       -3.5120     6.5480     1.2480 C.ar  1 <1>  -0.1500 
 16 O       -0.0170     7.0810    -1.0530 O.2   1 <1>  -0.5700 
 17 N        1.7050     6.3400     0.1690 N.am  1 <1>  -0.7300 
 18 C       -4.5300     6.2470     0.3660 C.ar  1 <1>  -0.1500 
 19 C        2.2080     7.6760     0.6250 C.3   1 <1>   0.2010 
 20 C        1.3030     8.3560     1.6580 C.2   1 <1>   0.5690 
 21 O        1.7390     8.6440     2.7440 O.2   1 <1>  -0.5700 
 22 N        0.0200     8.6290     1.3480 N.am  1 <1>  -0.8000 
 23 H        0.5220     2.5870    -2.4870 H     1 <1>   0.0800 
 24 H        1.8370     1.9750    -1.5130 H     1 <1>   0.0800 
 25 H       -0.2350     4.4820     1.1320 H     1 <1>   0.0800 
 26 H       -1.4480     2.5370     2.2890 H     1 <1>   0.0800 
 27 H       -1.6460     1.0670     1.3640 H     1 <1>   0.0800 
 28 H       -2.7540     2.3970     1.1300 H     1 <1>   0.0800 
 29 H       -0.3850     4.7480    -1.8550 H     1 <1>   0.0800 
 30 H       -1.5350     6.1250     1.8680 H     1 <1>   0.1500 
 31 H       -5.1470     5.0430    -1.2640 H     1 <1>   0.1500 
 32 H       -3.8440     3.5960    -2.4680 H     1 <1>   0.0800 
 33 H       -3.1090     2.5250    -1.3130 H     1 <1>   0.0800 
 34 H       -2.1220     3.5710    -2.3030 H     1 <1>   0.0800 
 35 H       -3.6550     7.3110     1.9940 H     1 <1>   0.1500 
 36 H        2.2780     5.5260     0.4150 H     1 <1>   0.3700 
 37 H       -5.4670     6.7730     0.4210 H     1 <1>   0.1500 
 38 H        3.1880     7.5580     1.0520 H     1 <1>   0.0800 
 39 H        2.2930     8.3270    -0.2270 H     1 <1>   0.0800 
 40 H       -0.5960     9.1010     2.0080 H     1 <1>   0.3700 
 41 H       -0.3800     8.3400     0.4420 H     1 <1>   0.3700 
@<TRIPOS>BOND
  1   1   2  2   
  2   2   3  am  
  3   2   4  1   
  4   3   5  1   
  5   3   6  1   
  6   4   7  1   
  7   4  23  1   
  8   4  24  1   
  9   5   8  1   
 10   5   9  1   
 11   5  25  1   
 12   6  26  1   
 13   6  27  1   
 14   6  28  1   
 15   7   9  1   
 16   8  10  ar  
 17   8  11  ar  
 18   9  12  1   
 19   9  29  1   
 20  10  13  ar  
 21  10  14  1   
 22  11  15  ar  
 23  11  30  1   
 24  12  16  2   
 25  12  17  am  
 26  13  18  ar  
 27  13  31  1   
 28  14  32  1   
 29  14  33  1   
 30  14  34  1   
 31  15  18  ar  
 32  15  35  1   
 33  17  19  1   
 34  17  36  1   
 35  18  37  1   
 36  19  20  1   
 37  19  38  1   
 38  19  39  1   
 39  20  21  2   
 40  20  22  am  
 41  22  40  1   
 42  22  41  1   
@<TRIPOS>SUBSTRUCTURE
  1 ****   5 GROUP 4 **** **** 0

# MOE 2024.06 (io_trps.svl 2023.06)
