@<TRIPOS>MOLECULE
NONAME
42 44 1 0 0 
SMALL
USER_CHARGES


@<TRIPOS>ATOM
  1 O        3.7640    -1.5840     0.5640 O.2   1 <1>  -0.5700 
  2 C        2.6030    -1.6490     0.8880 C.2   1 <1>   0.5690 
  3 N        1.7910    -0.5510     0.9230 N.am  1 <1>  -0.4940 
  4 C        2.0420    -3.0140     1.2810 C.3   1 <1>   0.2370 
  5 C        2.0870     0.8030     0.7350 C.2   1 <1>   0.2500 
  6 N        0.6690    -3.1570     0.7250 N.pl3 1 <1>   0.0480 
  7 C        2.0860    -3.2310     2.8050 C.3   1 <1>  -0.2400 
  8 N        1.4410     1.7110     1.3950 N.2   1 <1>  -0.3380 
  9 N        2.9970     1.3430    -0.1060 N.pl3 1 <1>   0.3340 
 10 C        0.3110    -3.2830    -0.5830 C.2   1 <1>   0.0060 
 11 C       -0.5030    -3.0790     1.3910 C.2   1 <1>  -0.3020 
 12 N        1.9240     2.8960     1.0250 N.2   1 <1>  -0.3380 
 13 C        2.8450     2.6780     0.1340 C.2   1 <1>   0.3120 
 14 C        3.8660     0.9280    -1.1090 C.2   1 <1>  -0.1810 
 15 N       -0.9720    -3.2900    -0.7620 N.2   1 <1>  -0.5650 
 16 C        1.3080    -3.3850    -1.7440 C.3   1 <1>   0.1000 
 17 C       -1.4840    -3.1670     0.4720 C.2   1 <1>   0.0770 
 18 N        3.5800     3.6440    -0.5180 N.2   1 <1>  -0.5760 
 19 C        4.5790     1.8770    -1.7650 C.2   1 <1>  -0.1360 
 20 C        1.3140    -2.0820    -2.5510 C.3   1 <1>  -0.2400 
 21 C        0.9660    -4.5700    -2.6550 C.3   1 <1>  -0.2400 
 22 C        4.4080     3.2480    -1.4210 C.2   1 <1>   0.3750 
 23 C        5.2340     4.2780    -2.1590 C.3   1 <1>  -0.1790 
 24 H        0.8320    -0.7050     1.2460 H     1 <1>   0.3700 
 25 H        2.6560    -3.7690     0.8260 H     1 <1>   0.0800 
 26 H        1.5400    -2.4620     3.3220 H     1 <1>   0.0800 
 27 H        3.1070    -3.1970     3.1420 H     1 <1>   0.0800 
 28 H        1.6810    -4.1960     3.0580 H     1 <1>   0.0800 
 29 H       -0.5950    -2.9710     2.4560 H     1 <1>   0.1500 
 30 H        3.9310    -0.1230    -1.3170 H     1 <1>   0.1500 
 31 H        2.3010    -3.5500    -1.3670 H     1 <1>   0.0800 
 32 H       -2.5500    -3.1470     0.6320 H     1 <1>   0.1500 
 33 H        5.2760     1.6300    -2.5450 H     1 <1>   0.1500 
 34 H        0.3370    -1.9030    -2.9660 H     1 <1>   0.0800 
 35 H        2.0260    -2.1400    -3.3540 H     1 <1>   0.0800 
 36 H        1.5700    -1.2520    -1.9200 H     1 <1>   0.0800 
 37 H       -0.0060    -4.4330    -3.0960 H     1 <1>   0.0800 
 38 H        0.9520    -5.4800    -2.0840 H     1 <1>   0.0800 
 39 H        1.6920    -4.6650    -3.4420 H     1 <1>   0.0800 
 40 H        6.2800     4.0880    -2.0030 H     1 <1>   0.0800 
 41 H        5.0070     5.2650    -1.7960 H     1 <1>   0.0800 
 42 H        5.0160     4.2390    -3.2100 H     1 <1>   0.0800 
@<TRIPOS>BOND
  1   1   2  2   
  2   2   3  am  
  3   2   4  1   
  4   3   5  1   
  5   3  24  1   
  6   4   6  1   
  7   4   7  1   
  8   4  25  1   
  9   5   8  2   
 10   5   9  1   
 11   6  10  1   
 12   6  11  1   
 13   7  26  1   
 14   7  27  1   
 15   7  28  1   
 16   8  12  1   
 17   9  13  1   
 18   9  14  1   
 19  10  15  2   
 20  10  16  1   
 21  11  17  2   
 22  11  29  1   
 23  12  13  2   
 24  13  18  1   
 25  14  19  2   
 26  14  30  1   
 27  15  17  1   
 28  16  20  1   
 29  16  21  1   
 30  16  31  1   
 31  17  32  1   
 32  18  22  2   
 33  19  22  1   
 34  19  33  1   
 35  20  34  1   
 36  20  35  1   
 37  20  36  1   
 38  21  37  1   
 39  21  38  1   
 40  21  39  1   
 41  22  23  1   
 42  23  40  1   
 43  23  41  1   
 44  23  42  1   
@<TRIPOS>SUBSTRUCTURE
  1 ****   3 GROUP 4 **** **** 0

# MOE 2024.06 (io_trps.svl 2023.06)
