@<TRIPOS>MOLECULE
NONAME
26 27 1 0 0 
SMALL
USER_CHARGES


@<TRIPOS>ATOM
  1 O        0.3140    -0.2770    -0.4610 O.3   1 <1>  -0.5600 
  2 C        1.0510    -0.7110     0.6640 C.3   1 <1>   0.2000 
  3 C        0.0460    -1.3570    -1.3150 C.3   1 <1>   0.1200 
  4 C        1.3250    -2.2000     0.4780 C.3   1 <1>   0.2000 
  5 C        2.4440    -0.0740     0.7090 C.3   1 <1>   0.2000 
  6 C        0.2520    -2.6500    -0.5160 C.3   1 <1>   0.2800 
  7 O        2.6160    -2.2880    -0.0650 O.3   1 <1>  -0.5600 
  8 O        2.5540     0.8830    -0.2890 O.3   1 <1>  -0.6800 
  9 C        3.3950    -1.2380     0.4240 C.3   1 <1>   0.1200 
 10 O       -0.9540    -2.9050     0.1690 O.3   1 <1>  -0.5600 
 11 C        0.6200    -3.8370    -1.4250 C.3   1 <1>  -0.2400 
 12 C       -1.0820    -4.0930     0.8940 C.3   1 <1>   0.0400 
 13 H        0.4690    -0.5250     1.5480 H     1 <1>   0.0800 
 14 H       -0.9560    -1.2740    -1.6960 H     1 <1>   0.0800 
 15 H        0.7510    -1.3020    -2.1250 H     1 <1>   0.0800 
 16 H        1.3180    -2.7430     1.4040 H     1 <1>   0.0800 
 17 H        2.6650     0.3860     1.6550 H     1 <1>   0.0800 
 18 H        1.7200     0.8120    -0.8140 H     1 <1>   0.4000 
 19 H        3.8620    -1.5750     1.3330 H     1 <1>   0.0800 
 20 H        4.1460    -0.9850    -0.3040 H     1 <1>   0.0800 
 21 H        1.4460    -3.5690    -2.0590 H     1 <1>   0.0800 
 22 H       -0.2140    -4.1010    -2.0490 H     1 <1>   0.0800 
 23 H        0.9280    -4.6850    -0.8420 H     1 <1>   0.0800 
 24 H       -1.9770    -4.0240     1.4870 H     1 <1>   0.0800 
 25 H       -0.2330    -4.2300     1.5390 H     1 <1>   0.0800 
 26 H       -1.1760    -4.9190     0.2110 H     1 <1>   0.0800 
@<TRIPOS>BOND
  1   1   2  1   
  2   1   3  1   
  3   2   4  1   
  4   2   5  1   
  5   2  13  1   
  6   3   6  1   
  7   3  14  1   
  8   3  15  1   
  9   4   6  1   
 10   4   7  1   
 11   4  16  1   
 12   5   8  1   
 13   5   9  1   
 14   5  17  1   
 15   6  10  1   
 16   6  11  1   
 17   7   9  1   
 18   8  18  1   
 19   9  19  1   
 20   9  20  1   
 21  10  12  1   
 22  11  21  1   
 23  11  22  1   
 24  11  23  1   
 25  12  24  1   
 26  12  25  1   
 27  12  26  1   
@<TRIPOS>SUBSTRUCTURE
  1 ****   4 GROUP 4 **** **** 0

# MOE 2024.06 (io_trps.svl 2023.06)
