@<TRIPOS>MOLECULE
NONAME
47 50 1 0 0 
SMALL
USER_CHARGES


@<TRIPOS>ATOM
  1 O       -1.3770     0.9400    -1.8930 O.2   1 <1>  -0.5700 
  2 C       -1.4750     1.5480    -0.8420 C.2   1 <1>   0.7160 
  3 N       -2.3160     1.0440     0.1310 N.am  1 <1>  -0.6600 
  4 C       -0.7200     2.7660    -0.6630 C.2   1 <1>  -0.0860 
  5 C       -2.7820    -0.3730     0.0420 C.3   1 <1>   0.1400 
  6 C       -2.8960     1.8920     1.2120 C.3   1 <1>   0.1400 
  7 C       -0.3360     3.6120    -1.7070 C.2   1 <1>   0.1390 
  8 C       -0.1950     3.3800     0.4370 C.2   1 <1>  -0.3020 
  9 C       -4.0210    -0.5050    -0.8580 C.3   1 <1>   0.1400 
 10 C       -4.4020     1.6870     1.4270 C.3   1 <1>  -0.1600 
 11 N        0.3350     4.6460    -1.3060 N.2   1 <1>  -0.7070 
 12 N        0.4260     4.4960     0.0260 N.pl3 1 <1>   0.3000 
 13 N       -5.2530     0.0290    -0.1950 N.am  1 <1>  -0.6600 
 14 C       -5.2030     1.4810     0.1370 C.3   1 <1>   0.1400 
 15 C       -6.3570    -0.7190     0.1630 C.2   1 <1>   0.5690 
 16 O       -7.2270    -0.2330     0.8510 O.2   1 <1>  -0.5700 
 17 C       -6.5020    -2.1870    -0.2730 C.3   1 <1>   0.1240 
 18 C       -7.9110    -2.7530    -0.3010 C.ar  1 <1>  -0.1430 
 19 C       -5.7680    -3.1640     0.6710 C.3   1 <1>  -0.1600 
 20 C       -7.9420    -4.0290     0.2090 C.ar  1 <1>  -0.1430 
 21 C       -9.0690    -2.1580    -0.7720 C.ar  1 <1>  -0.1500 
 22 C       -6.5770    -4.4720     0.6680 C.3   1 <1>  -0.0170 
 23 C       -9.1240    -4.7440     0.2600 C.ar  1 <1>  -0.1500 
 24 C      -10.2590    -2.8670    -0.7250 C.ar  1 <1>  -0.1500 
 25 C      -10.2870    -4.1560    -0.2130 C.ar  1 <1>  -0.1500 
 26 H       -2.9920    -0.7620     1.0230 H     1 <1>   0.0800 
 27 H       -1.9900    -0.9690    -0.3790 H     1 <1>   0.0800 
 28 H       -2.7470     2.9280     0.9620 H     1 <1>   0.0800 
 29 H       -2.3730     1.6970     2.1330 H     1 <1>   0.0800 
 30 H       -0.5750     3.4230    -2.7410 H     1 <1>   0.1500 
 31 H       -0.2290     3.0720     1.4660 H     1 <1>   0.1500 
 32 H       -4.1380    -1.5420    -1.1010 H     1 <1>   0.0800 
 33 H       -3.8530     0.0210    -1.7820 H     1 <1>   0.0800 
 34 H       -4.7790     2.5660     1.9200 H     1 <1>   0.0800 
 35 H       -4.5770     0.8650     2.0980 H     1 <1>   0.0800 
 36 H        0.9270     5.1740     0.6140 H     1 <1>   0.2700 
 37 H       -4.7690     2.0350    -0.6780 H     1 <1>   0.0800 
 38 H       -6.2040     1.8530     0.2800 H     1 <1>   0.0800 
 39 H       -6.1270    -2.2950    -1.2730 H     1 <1>   0.0800 
 40 H       -5.7880    -2.7580     1.6680 H     1 <1>   0.0800 
 41 H       -4.7460    -3.3250     0.3790 H     1 <1>   0.0800 
 42 H       -9.0450    -1.1560    -1.1620 H     1 <1>   0.1500 
 43 H       -6.6140    -4.9170     1.6460 H     1 <1>   0.0800 
 44 H       -6.1710    -5.1730    -0.0400 H     1 <1>   0.0800 
 45 H       -9.1430    -5.7420     0.6610 H     1 <1>   0.1500 
 46 H      -11.1650    -2.4120    -1.0850 H     1 <1>   0.1500 
 47 H      -11.2150    -4.6990    -0.1790 H     1 <1>   0.1500 
@<TRIPOS>BOND
  1   1   2  2   
  2   2   3  am  
  3   2   4  1   
  4   3   5  1   
  5   3   6  1   
  6   4   7  1   
  7   4   8  2   
  8   5   9  1   
  9   5  26  1   
 10   5  27  1   
 11   6  10  1   
 12   6  28  1   
 13   6  29  1   
 14   7  11  2   
 15   7  30  1   
 16   8  12  1   
 17   8  31  1   
 18   9  13  1   
 19   9  32  1   
 20   9  33  1   
 21  10  14  1   
 22  10  34  1   
 23  10  35  1   
 24  11  12  1   
 25  12  36  1   
 26  13  14  1   
 27  13  15  am  
 28  14  37  1   
 29  14  38  1   
 30  15  16  2   
 31  15  17  1   
 32  17  18  1   
 33  17  19  1   
 34  17  39  1   
 35  18  20  ar  
 36  18  21  ar  
 37  19  22  1   
 38  19  40  1   
 39  19  41  1   
 40  20  22  1   
 41  20  23  ar  
 42  21  24  ar  
 43  21  42  1   
 44  22  43  1   
 45  22  44  1   
 46  23  25  ar  
 47  23  45  1   
 48  24  25  ar  
 49  24  46  1   
 50  25  47  1   
@<TRIPOS>SUBSTRUCTURE
  1 ****  13 GROUP 4 **** **** 0

# MOE 2024.06 (io_trps.svl 2023.06)
