@<TRIPOS>MOLECULE
NONAME
25 26 1 0 0 
SMALL
USER_CHARGES


@<TRIPOS>ATOM
  1 O       -4.9670     2.5730    -0.2800 O.co2 1 <1>  -0.9000 
  2 C       -4.1290     1.6530    -0.3390 C.2   1 <1>   1.0320 
  3 O       -2.9380     1.9290    -0.5400 O.co2 1 <1>  -0.9000 
  4 C       -4.5490     0.2770    -0.1860 C.2   1 <1>  -0.3840 
  5 N       -5.8350    -0.1120     0.0660 N.pl3 1 <1>   0.0480 
  6 C       -3.7850    -0.8570    -0.2710 C.2   1 <1>  -0.1500 
  7 C       -5.8680    -1.4710     0.1210 C.2   1 <1>  -0.3320 
  8 C       -7.0290     0.7580     0.1160 C.3   1 <1>   0.0960 
  9 C       -4.6150    -1.9590    -0.0800 C.2   1 <1>  -0.1500 
 10 C       -7.1510    -2.2170     0.3690 C.3   1 <1>   0.5230 
 11 C       -8.3000    -0.0610     0.3610 C.3   1 <1>   0.3430 
 12 N       -8.2300    -1.4230    -0.2720 N.4   1 <1>  -0.9590 
 13 C       -9.5390    -2.1350    -0.2600 C.3   1 <1>   0.2630 
 14 H       -2.7240    -0.8780    -0.4580 H     1 <1>   0.1500 
 15 H       -7.1010     1.2820    -0.8200 H     1 <1>   0.0800 
 16 H       -6.8990     1.4900     0.8930 H     1 <1>   0.0800 
 17 H       -4.2770    -2.9810    -0.1000 H     1 <1>   0.1500 
 18 H       -7.3250    -2.3040     1.4290 H     1 <1>   0.0800 
 19 H       -7.0880    -3.2030    -0.0630 H     1 <1>   0.0800 
 20 H       -9.1420     0.4900    -0.0250 H     1 <1>   0.0800 
 21 H       -8.4370    -0.1660     1.4250 H     1 <1>   0.0800 
 22 H       -7.8970    -1.2860    -1.2390 H     1 <1>   0.4500 
 23 H       -9.8700    -2.2960     0.7530 H     1 <1>   0.0800 
 24 H       -9.4490    -3.0910    -0.7520 H     1 <1>   0.0800 
 25 H      -10.2840    -1.5530    -0.7790 H     1 <1>   0.0800 
@<TRIPOS>BOND
  1   1   2  ar  
  2   2   3  ar  
  3   2   4  1   
  4   4   5  1   
  5   4   6  2   
  6   5   7  1   
  7   5   8  1   
  8   6   9  1   
  9   6  14  1   
 10   7   9  2   
 11   7  10  1   
 12   8  11  1   
 13   8  15  1   
 14   8  16  1   
 15   9  17  1   
 16  10  12  1   
 17  10  18  1   
 18  10  19  1   
 19  11  12  1   
 20  11  20  1   
 21  11  21  1   
 22  12  13  1   
 23  12  22  1   
 24  13  23  1   
 25  13  24  1   
 26  13  25  1   
@<TRIPOS>SUBSTRUCTURE
  1 ****   5 GROUP 4 **** **** 0

# MOE 2024.06 (io_trps.svl 2023.06)
