@<TRIPOS>MOLECULE
NONAME
48 49 1 0 0 
SMALL
USER_CHARGES


@<TRIPOS>ATOM
  1 O        0.5010     2.4870     2.1520 O.3   1 <1>  -0.3630 
  2 C        0.3270     3.2040     1.0230 C.ar  1 <1>   0.3920 
  3 C        0.2080     1.1110     2.2450 C.3   1 <1>   0.0400 
  4 N        0.6010     4.4790     1.1370 N.ar  1 <1>  -0.6200 
  5 C       -0.1010     2.6470    -0.1610 C.ar  1 <1>  -0.1500 
  6 C        0.4320     5.1910     0.0410 C.ar  1 <1>   0.7200 
  7 C       -0.2290     3.4970    -1.2370 C.ar  1 <1>   0.3920 
  8 N        0.0380     4.7760    -1.1500 N.ar  1 <1>  -0.6200 
  9 N        0.7260     6.5010     0.1970 N.pl3 1 <1>  -0.8690 
 10 O       -0.6320     3.0860    -2.4560 O.3   1 <1>  -0.3630 
 11 C        1.1750     7.3860    -0.8840 C.3   1 <1>   0.2890 
 12 C       -1.0230     1.7590    -2.7320 C.3   1 <1>   0.0400 
 13 C        2.6220     7.0580    -1.3150 C.3   1 <1>  -0.1600 
 14 C        0.9390     8.8220    -0.4330 C.3   1 <1>  -0.2400 
 15 C        3.8400     7.4130    -0.4120 C.3   1 <1>   0.1430 
 16 C        4.0670     8.9410    -0.3030 C.ar  1 <1>  -0.1430 
 17 C        5.0970     6.8140    -1.0710 C.3   1 <1>  -0.2400 
 18 C        3.7130     6.7220     0.9590 C.3   1 <1>  -0.2400 
 19 C        4.2050     9.7020    -1.4600 C.ar  1 <1>  -0.1500 
 20 C        4.1530     9.6070     0.9180 C.ar  1 <1>  -0.1500 
 21 C        4.4070    11.0700    -1.4060 C.ar  1 <1>  -0.1500 
 22 C        4.3540    10.9760     0.9770 C.ar  1 <1>  -0.1500 
 23 C        4.4800    11.7110    -0.1850 C.ar  1 <1>  -0.1500 
 24 H        0.4140     0.7950     3.2520 H     1 <1>   0.0800 
 25 H        0.8360     0.5710     1.5590 H     1 <1>   0.0800 
 26 H       -0.8330     0.9580     2.0220 H     1 <1>   0.0800 
 27 H       -0.3210     1.6060    -0.2430 H     1 <1>   0.1500 
 28 H        1.1500     6.6840     1.1020 H     1 <1>   0.4000 
 29 H        0.5410     7.2110    -1.7390 H     1 <1>   0.0800 
 30 H       -1.3200     1.7090    -3.7650 H     1 <1>   0.0800 
 31 H       -1.8560     1.5010    -2.1020 H     1 <1>   0.0800 
 32 H       -0.1880     1.1040    -2.5620 H     1 <1>   0.0800 
 33 H        2.7630     7.5300    -2.2680 H     1 <1>   0.0800 
 34 H        2.6500     6.0020    -1.5200 H     1 <1>   0.0800 
 35 H        1.4510     9.0280     0.4870 H     1 <1>   0.0800 
 36 H       -0.1140     8.9850    -0.2880 H     1 <1>   0.0800 
 37 H        1.2860     9.5060    -1.1850 H     1 <1>   0.0800 
 38 H        5.2210     7.1780    -2.0740 H     1 <1>   0.0800 
 39 H        5.0330     5.7410    -1.1110 H     1 <1>   0.0800 
 40 H        5.9730     7.0820    -0.5080 H     1 <1>   0.0800 
 41 H        2.9190     7.1540     1.5380 H     1 <1>   0.0800 
 42 H        4.6260     6.8180     1.5180 H     1 <1>   0.0800 
 43 H        3.5060     5.6730     0.8360 H     1 <1>   0.0800 
 44 H        4.1610     9.2370    -2.4280 H     1 <1>   0.1500 
 45 H        4.0660     9.0830     1.8500 H     1 <1>   0.1500 
 46 H        4.5080    11.6350    -2.3170 H     1 <1>   0.1500 
 47 H        4.4140    11.4680     1.9320 H     1 <1>   0.1500 
 48 H        4.6370    12.7750    -0.1400 H     1 <1>   0.1500 
@<TRIPOS>BOND
  1   1   2  1   
  2   1   3  1   
  3   2   4  ar  
  4   2   5  ar  
  5   3  24  1   
  6   3  25  1   
  7   3  26  1   
  8   4   6  ar  
  9   5   7  ar  
 10   5  27  1   
 11   6   8  ar  
 12   6   9  1   
 13   7   8  ar  
 14   7  10  1   
 15   9  11  1   
 16   9  28  1   
 17  10  12  1   
 18  11  13  1   
 19  11  14  1   
 20  11  29  1   
 21  12  30  1   
 22  12  31  1   
 23  12  32  1   
 24  13  15  1   
 25  13  33  1   
 26  13  34  1   
 27  14  35  1   
 28  14  36  1   
 29  14  37  1   
 30  15  16  1   
 31  15  17  1   
 32  15  18  1   
 33  16  19  ar  
 34  16  20  ar  
 35  17  38  1   
 36  17  39  1   
 37  17  40  1   
 38  18  41  1   
 39  18  42  1   
 40  18  43  1   
 41  19  21  ar  
 42  19  44  1   
 43  20  22  ar  
 44  20  45  1   
 45  21  23  ar  
 46  21  46  1   
 47  22  23  ar  
 48  22  47  1   
 49  23  48  1   
@<TRIPOS>SUBSTRUCTURE
  1 ****   9 GROUP 4 **** **** 0

# MOE 2024.06 (io_trps.svl 2023.06)
