@<TRIPOS>MOLECULE
NONAME
55 56 1 0 0 
SMALL
USER_CHARGES


@<TRIPOS>ATOM
  1 F       -0.9170    -0.6730    -1.2590 F     1 <1>  -0.1900 
  2 C       -2.0630    -0.2340    -0.8050 C.ar  1 <1>   0.1900 
  3 C       -2.7100     0.8730    -1.3670 C.ar  1 <1>   0.0820 
  4 C       -2.6060    -0.9240     0.2620 C.ar  1 <1>  -0.1500 
  5 O       -2.2770     1.6330    -2.4140 O.3   1 <1>  -0.3630 
  6 C       -3.9220     1.2570    -0.8170 C.ar  1 <1>  -0.1500 
  7 C       -3.8180    -0.5150     0.7870 C.ar  1 <1>  -0.1500 
  8 C       -1.0350     1.4310    -3.0500 C.3   1 <1>   0.0400 
  9 C       -4.5020     0.5800     0.2570 C.ar  1 <1>   0.0530 
 10 C       -5.7610     1.0200     0.8010 C.2   1 <1>   0.0870 
 11 O       -5.9390     2.2900     1.0590 O.3   1 <1>  -0.0190 
 12 C       -6.9130     0.3770     1.1410 C.2   1 <1>  -0.0860 
 13 N       -7.1170     2.5490     1.5590 N.2   1 <1>  -0.4100 
 14 C       -7.7220     1.4160     1.6220 C.2   1 <1>   0.3720 
 15 C       -7.2840    -1.0010     1.0290 C.2   1 <1>   0.7160 
 16 N       -9.0270     1.2790     2.1220 N.pl3 1 <1>  -0.8210 
 17 O       -6.5290    -1.8400     0.5690 O.2   1 <1>  -0.5700 
 18 N       -8.5220    -1.4180     1.4130 N.am  1 <1>  -0.7300 
 19 C      -10.0110     2.1350     1.3990 C.3   1 <1>   0.1290 
 20 C       -9.0950     1.5280     3.5890 C.3   1 <1>   0.1290 
 21 C       -9.0230    -2.8020     1.4580 C.3   1 <1>   0.1400 
 22 C       -9.9470    -3.0450     0.2580 C.3   1 <1>  -0.1600 
 23 C       -9.8970    -4.5060    -0.2250 C.3   1 <1>   0.4230 
 24 N       -8.8770    -4.7240    -1.3020 N.4   1 <1>  -0.9590 
 25 C      -11.2620    -4.9050    -0.7890 C.3   1 <1>  -0.2400 
 26 C       -8.6190    -6.1800    -1.5400 C.3   1 <1>   0.2630 
 27 C       -7.5580    -4.0360    -1.0910 C.3   1 <1>   0.2630 
 28 H       -2.0830    -1.7690     0.6740 H     1 <1>   0.1500 
 29 H       -4.4280     2.1070    -1.2360 H     1 <1>   0.1500 
 30 H       -4.2410    -1.0480     1.6200 H     1 <1>   0.1500 
 31 H       -0.9240     2.1810    -3.8120 H     1 <1>   0.0800 
 32 H       -1.0260     0.4530    -3.4990 H     1 <1>   0.0800 
 33 H       -0.2480     1.5300    -2.3230 H     1 <1>   0.0800 
 34 H       -9.1250    -0.6640     1.7870 H     1 <1>   0.3700 
 35 H       -9.9080     1.9940     0.3360 H     1 <1>   0.0800 
 36 H       -9.8380     3.1740     1.6250 H     1 <1>   0.0800 
 37 H      -11.0130     1.8720     1.6880 H     1 <1>   0.0800 
 38 H       -8.3680     0.9190     4.0990 H     1 <1>   0.0800 
 39 H      -10.0750     1.2820     3.9620 H     1 <1>   0.0800 
 40 H       -8.8860     2.5640     3.8010 H     1 <1>   0.0800 
 41 H       -9.5570    -2.9590     2.3810 H     1 <1>   0.0800 
 42 H       -8.1850    -3.4780     1.4500 H     1 <1>   0.0800 
 43 H       -9.7190    -2.3800    -0.5570 H     1 <1>   0.0800 
 44 H      -10.9420    -2.8050     0.5890 H     1 <1>   0.0800 
 45 H       -9.6740    -5.1390     0.6190 H     1 <1>   0.0800 
 46 H       -9.2830    -4.3290    -2.1620 H     1 <1>   0.4500 
 47 H      -11.5190    -4.3020    -1.6410 H     1 <1>   0.0800 
 48 H      -12.0210    -4.7600    -0.0400 H     1 <1>   0.0800 
 49 H      -11.2920    -5.9440    -1.0620 H     1 <1>   0.0800 
 50 H       -8.2310    -6.6410    -0.6460 H     1 <1>   0.0800 
 51 H       -7.8990    -6.3070    -2.3320 H     1 <1>   0.0800 
 52 H       -9.5260    -6.6870    -1.8240 H     1 <1>   0.0800 
 53 H       -7.1060    -4.3500    -0.1640 H     1 <1>   0.0800 
 54 H       -7.6920    -2.9670    -1.0580 H     1 <1>   0.0800 
 55 H       -6.8800    -4.2620    -1.8970 H     1 <1>   0.0800 
@<TRIPOS>BOND
  1   1   2  1   
  2   2   3  ar  
  3   2   4  ar  
  4   3   5  1   
  5   3   6  ar  
  6   4   7  ar  
  7   4  28  1   
  8   5   8  1   
  9   6   9  ar  
 10   6  29  1   
 11   7   9  ar  
 12   7  30  1   
 13   8  31  1   
 14   8  32  1   
 15   8  33  1   
 16   9  10  1   
 17  10  11  1   
 18  10  12  2   
 19  11  13  1   
 20  12  14  1   
 21  12  15  1   
 22  13  14  2   
 23  14  16  1   
 24  15  17  2   
 25  15  18  am  
 26  16  19  1   
 27  16  20  1   
 28  18  21  1   
 29  18  34  1   
 30  19  35  1   
 31  19  36  1   
 32  19  37  1   
 33  20  38  1   
 34  20  39  1   
 35  20  40  1   
 36  21  22  1   
 37  21  41  1   
 38  21  42  1   
 39  22  23  1   
 40  22  43  1   
 41  22  44  1   
 42  23  24  1   
 43  23  25  1   
 44  23  45  1   
 45  24  26  1   
 46  24  27  1   
 47  24  46  1   
 48  25  47  1   
 49  25  48  1   
 50  25  49  1   
 51  26  50  1   
 52  26  51  1   
 53  26  52  1   
 54  27  53  1   
 55  27  54  1   
 56  27  55  1   
@<TRIPOS>SUBSTRUCTURE
  1 ****  17 GROUP 4 **** **** 0

# MOE 2024.06 (io_trps.svl 2023.06)
