@<TRIPOS>MOLECULE
NONAME
63 66 1 0 0 
SMALL
USER_CHARGES


@<TRIPOS>ATOM
  1 O        1.1330    -0.6020    -1.0950 O.3   1 <1>  -0.5600 
  2 C        2.4370    -0.1060    -1.2720 C.3   1 <1>   0.2000 
  3 C        0.1550     0.3670    -0.8770 C.3   1 <1>   0.1200 
  4 C        2.8800     0.7680    -0.0650 C.3   1 <1>   0.5660 
  5 C        3.3910    -1.2980    -1.4520 C.3   1 <1>   0.1200 
  6 C        0.4670     1.1300     0.4200 C.3   1 <1>   0.3430 
  7 N        1.8350     1.7490     0.3950 N.4   1 <1>  -0.9590 
  8 C        4.1690     1.5100    -0.4120 C.ar  1 <1>  -0.1440 
  9 O        3.6650    -1.8870    -0.2190 O.3   1 <1>  -0.6800 
 10 C        2.1810     2.3160     1.7210 C.3   1 <1>   0.4870 
 11 C        4.2030     2.5180    -1.3700 C.ar  1 <1>  -0.1500 
 12 C        5.3520     1.1330     0.2100 C.ar  1 <1>  -0.1500 
 13 C        2.6590     3.7410     1.5150 C.ar  1 <1>  -0.1440 
 14 C        5.4020     3.1170    -1.7150 C.ar  1 <1>  -0.1500 
 15 C        6.5500     1.7350    -0.1320 C.ar  1 <1>  -0.1500 
 16 C        3.9910     4.0690     1.7180 C.ar  1 <1>  -0.1500 
 17 C        1.7650     4.7330     1.1370 C.ar  1 <1>  -0.1500 
 18 C        6.5770     2.7190    -1.1040 C.ar  1 <1>  -0.1500 
 19 C        4.4320     5.3720     1.5460 C.ar  1 <1>  -0.1440 
 20 C        2.1980     6.0340     0.9590 C.ar  1 <1>  -0.1500 
 21 C        3.5340     6.3610     1.1650 C.ar  1 <1>   0.0820 
 22 C        5.8840     5.7290     1.7970 C.3   1 <1>   0.4860 
 23 O        4.0210     7.6200     1.0140 O.3   1 <1>  -0.3630 
 24 N        6.6760     5.4700     0.5670 N.4   1 <1>  -0.9590 
 25 C        3.1580     8.7310     0.8670 C.3   1 <1>   0.0400 
 26 C        8.1380     5.5590     0.7850 C.3   1 <1>   0.3430 
 27 C        6.3570     6.4300    -0.5150 C.3   1 <1>   0.3430 
 28 C        8.7210     5.8650    -0.5900 C.3   1 <1>  -0.1600 
 29 C        7.5530     6.3530    -1.4510 C.3   1 <1>  -0.1600 
 30 H        2.4370     0.4740    -2.1780 H     1 <1>   0.0800 
 31 H        0.1150     1.0260    -1.7270 H     1 <1>   0.0800 
 32 H       -0.7910    -0.1410    -0.7900 H     1 <1>   0.0800 
 33 H        3.0880     0.0930     0.7480 H     1 <1>   0.0800 
 34 H        4.3270    -0.9740    -1.8760 H     1 <1>   0.0800 
 35 H        2.9480    -2.0350    -2.1010 H     1 <1>   0.0800 
 36 H        0.3970     0.4310     1.2390 H     1 <1>   0.0800 
 37 H       -0.2800     1.8920     0.5720 H     1 <1>   0.0800 
 38 H        1.8550     2.5300    -0.2670 H     1 <1>   0.4500 
 39 H        4.0670    -2.7730    -0.3440 H     1 <1>   0.4000 
 40 H        1.3160     2.3270     2.3640 H     1 <1>   0.0800 
 41 H        2.9500     1.7290     2.1970 H     1 <1>   0.0800 
 42 H        3.3090     2.8360    -1.8780 H     1 <1>   0.1500 
 43 H        5.3570     0.3450     0.9470 H     1 <1>   0.1500 
 44 H        5.4200     3.8760    -2.4790 H     1 <1>   0.1500 
 45 H        7.4650     1.4160     0.3410 H     1 <1>   0.1500 
 46 H        4.6910     3.3060     2.0170 H     1 <1>   0.1500 
 47 H        0.7220     4.5120     0.9860 H     1 <1>   0.1500 
 48 H        7.5160     3.1550    -1.3990 H     1 <1>   0.1500 
 49 H        1.4810     6.7800     0.6660 H     1 <1>   0.1500 
 50 H        6.2590     5.1300     2.6100 H     1 <1>   0.0800 
 51 H        5.9630     6.7670     2.0790 H     1 <1>   0.0800 
 52 H        6.4360     4.5290     0.2240 H     1 <1>   0.4500 
 53 H        3.7560     9.6250     0.8630 H     1 <1>   0.0800 
 54 H        2.4730     8.7580     1.6970 H     1 <1>   0.0800 
 55 H        2.6270     8.6470    -0.0650 H     1 <1>   0.0800 
 56 H        8.3600     6.3770     1.4530 H     1 <1>   0.0800 
 57 H        8.5380     4.6450     1.1930 H     1 <1>   0.0800 
 58 H        5.4330     6.1780    -1.0120 H     1 <1>   0.0800 
 59 H        6.2790     7.4260    -0.1080 H     1 <1>   0.0800 
 60 H        9.4870     6.6170    -0.5040 H     1 <1>   0.0800 
 61 H        9.1640     4.9800    -1.0130 H     1 <1>   0.0800 
 62 H        7.3500     5.6530    -2.2430 H     1 <1>   0.0800 
 63 H        7.7510     7.3150    -1.8910 H     1 <1>   0.0800 
@<TRIPOS>BOND
  1   1   2  1   
  2   1   3  1   
  3   2   4  1   
  4   2   5  1   
  5   2  30  1   
  6   3   6  1   
  7   3  31  1   
  8   3  32  1   
  9   4   7  1   
 10   4   8  1   
 11   4  33  1   
 12   5   9  1   
 13   5  34  1   
 14   5  35  1   
 15   6   7  1   
 16   6  36  1   
 17   6  37  1   
 18   7  10  1   
 19   7  38  1   
 20   8  11  ar  
 21   8  12  ar  
 22   9  39  1   
 23  10  13  1   
 24  10  40  1   
 25  10  41  1   
 26  11  14  ar  
 27  11  42  1   
 28  12  15  ar  
 29  12  43  1   
 30  13  16  ar  
 31  13  17  ar  
 32  14  18  ar  
 33  14  44  1   
 34  15  18  ar  
 35  15  45  1   
 36  16  19  ar  
 37  16  46  1   
 38  17  20  ar  
 39  17  47  1   
 40  18  48  1   
 41  19  21  ar  
 42  19  22  1   
 43  20  21  ar  
 44  20  49  1   
 45  21  23  1   
 46  22  24  1   
 47  22  50  1   
 48  22  51  1   
 49  23  25  1   
 50  24  26  1   
 51  24  27  1   
 52  24  52  1   
 53  25  53  1   
 54  25  54  1   
 55  25  55  1   
 56  26  28  1   
 57  26  56  1   
 58  26  57  1   
 59  27  29  1   
 60  27  58  1   
 61  27  59  1   
 62  28  29  1   
 63  28  60  1   
 64  28  61  1   
 65  29  62  1   
 66  29  63  1   
@<TRIPOS>SUBSTRUCTURE
  1 ****  11 GROUP 4 **** **** 0

# MOE 2024.06 (io_trps.svl 2023.06)
