@<TRIPOS>MOLECULE
NONAME
50 52 1 0 0 
SMALL
USER_CHARGES


@<TRIPOS>ATOM
  1 F       -0.3040    -0.9640     1.3660 F     1 <1>  -0.1900 
  2 C       -0.7330    -2.1740     1.1430 C.ar  1 <1>   0.1900 
  3 C       -1.8020    -2.6530     1.8750 C.ar  1 <1>  -0.1500 
  4 C       -0.1070    -2.9400     0.1800 C.ar  1 <1>  -0.1500 
  5 C       -2.2470    -3.9400     1.6320 C.ar  1 <1>  -0.1500 
  6 C       -0.5670    -4.2250    -0.0510 C.ar  1 <1>  -0.1500 
  7 C       -1.6420    -4.7600     0.6710 C.ar  1 <1>   0.0860 
  8 C       -2.1270    -6.1120     0.4420 C.2   1 <1>   0.5440 
  9 O       -3.2690    -6.4170     0.7300 O.2   1 <1>  -0.5700 
 10 N       -1.3180    -7.0760    -0.0980 N.am  1 <1>  -0.7300 
 11 C       -1.7080    -8.4900    -0.3190 C.3   1 <1>   0.1400 
 12 C       -2.3500    -8.6380    -1.6970 C.3   1 <1>  -0.0990 
 13 C       -2.9860   -10.0090    -1.8360 C.2   1 <1>   0.5690 
 14 O       -2.2970   -10.8710    -2.3280 O.2   1 <1>  -0.5700 
 15 N       -4.2740   -10.2550    -1.4180 N.am  1 <1>  -0.6600 
 16 C       -5.0820    -9.2600    -0.6490 C.3   1 <1>   0.2200 
 17 C       -4.9060   -11.5790    -1.7040 C.3   1 <1>   0.0600 
 18 C       -5.8510    -9.8190     0.5450 C.3   1 <1>  -0.1600 
 19 C       -6.1600    -8.5840    -1.4840 C.3   1 <1>  -0.1600 
 20 C       -6.8530    -8.7050     0.8740 C.3   1 <1>  -0.0800 
 21 C       -7.0620    -7.9170    -0.4340 C.3   1 <1>  -0.0800 
 22 C       -6.3090    -7.7100     1.9100 C.3   1 <1>  -0.1600 
 23 C       -6.6560    -6.4630    -0.1480 C.3   1 <1>  -0.1600 
 24 C       -6.6300    -6.3250     1.3680 C.3   1 <1>   0.2000 
 25 O       -5.6310    -5.4510     1.7300 O.3   1 <1>  -0.6800 
 26 H       -2.2720    -2.0300     2.6150 H     1 <1>   0.1500 
 27 H        0.7190    -2.5300    -0.3740 H     1 <1>   0.1500 
 28 H       -3.0830    -4.3200     2.1970 H     1 <1>   0.1500 
 29 H       -0.0880    -4.8150    -0.8110 H     1 <1>   0.1500 
 30 H       -0.3390    -6.8580    -0.2870 H     1 <1>   0.3700 
 31 H       -0.8410    -9.1260    -0.2470 H     1 <1>   0.0800 
 32 H       -2.4020    -8.7900     0.4490 H     1 <1>   0.0800 
 33 H       -1.5940    -8.5340    -2.4540 H     1 <1>   0.0800 
 34 H       -3.0870    -7.8760    -1.8610 H     1 <1>   0.0800 
 35 H       -4.4440    -8.4880    -0.2610 H     1 <1>   0.0800 
 36 H       -5.9280   -11.4500    -2.0090 H     1 <1>   0.0800 
 37 H       -4.8700   -12.1950    -0.8220 H     1 <1>   0.0800 
 38 H       -4.3820   -12.0870    -2.4960 H     1 <1>   0.0800 
 39 H       -6.4050   -10.6970     0.2690 H     1 <1>   0.0800 
 40 H       -5.1990   -10.0500     1.3690 H     1 <1>   0.0800 
 41 H       -5.7460    -7.8800    -2.1830 H     1 <1>   0.0800 
 42 H       -6.7300    -9.3220    -2.0180 H     1 <1>   0.0800 
 43 H       -7.7870    -9.1170     1.2190 H     1 <1>   0.0800 
 44 H       -8.0950    -7.9560    -0.7370 H     1 <1>   0.0800 
 45 H       -5.2430    -7.8210     2.0110 H     1 <1>   0.0800 
 46 H       -6.7690    -7.8600     2.8700 H     1 <1>   0.0800 
 47 H       -7.3570    -5.7730    -0.5800 H     1 <1>   0.0800 
 48 H       -5.6760    -6.2630    -0.5460 H     1 <1>   0.0800 
 49 H       -7.5730    -5.9650     1.7450 H     1 <1>   0.0800 
 50 H       -4.7710    -5.7970     1.3770 H     1 <1>   0.4000 
@<TRIPOS>BOND
  1   1   2  1   
  2   2   3  ar  
  3   2   4  ar  
  4   3   5  ar  
  5   3  26  1   
  6   4   6  ar  
  7   4  27  1   
  8   5   7  ar  
  9   5  28  1   
 10   6   7  ar  
 11   6  29  1   
 12   7   8  1   
 13   8   9  2   
 14   8  10  am  
 15  10  11  1   
 16  10  30  1   
 17  11  12  1   
 18  11  31  1   
 19  11  32  1   
 20  12  13  1   
 21  12  33  1   
 22  12  34  1   
 23  13  14  2   
 24  13  15  am  
 25  15  16  1   
 26  15  17  1   
 27  16  18  1   
 28  16  19  1   
 29  16  35  1   
 30  17  36  1   
 31  17  37  1   
 32  17  38  1   
 33  18  20  1   
 34  18  39  1   
 35  18  40  1   
 36  19  21  1   
 37  19  41  1   
 38  19  42  1   
 39  20  21  1   
 40  20  22  1   
 41  20  43  1   
 42  21  23  1   
 43  21  44  1   
 44  22  24  1   
 45  22  45  1   
 46  22  46  1   
 47  23  24  1   
 48  23  47  1   
 49  23  48  1   
 50  24  25  1   
 51  24  49  1   
 52  25  50  1   
@<TRIPOS>SUBSTRUCTURE
  1 ****   9 GROUP 4 **** **** 0

# MOE 2024.06 (io_trps.svl 2023.06)
