@<TRIPOS>MOLECULE
NONAME
53 55 1 0 0 
SMALL
USER_CHARGES


@<TRIPOS>ATOM
  1 O       -1.3760     0.0570    -0.9550 O.co2 1 <1>  -0.9000 
  2 C       -2.3790     0.1170    -0.2420 C.2   1 <1>   0.9060 
  3 O       -2.4000     0.6380     0.8770 O.co2 1 <1>  -0.9000 
  4 C       -3.5920    -0.7180    -0.6450 C.3   1 <1>   0.2370 
  5 N       -3.5130    -2.1650    -0.1760 N.4   1 <1>  -0.9590 
  6 C       -3.2780    -2.2330     1.3190 C.3   1 <1>   0.4230 
  7 C       -2.5140    -2.9070    -0.9860 C.3   1 <1>   0.3430 
  8 C       -1.7960    -2.3350     1.7670 C.3   1 <1>   0.1200 
  9 C       -4.1070    -3.4290     1.8630 C.3   1 <1>   0.2090 
 10 C       -2.1850    -4.2940    -0.4140 C.3   1 <1>  -0.0800 
 11 O       -1.3520    -3.6640     1.7790 O.3   1 <1>  -0.5600 
 12 N       -4.5340    -4.3900     0.7620 N.pl3 1 <1>  -0.8380 
 13 C       -0.9920    -4.2010     0.5530 C.3   1 <1>   0.1200 
 14 C       -3.3740    -5.1390     0.1240 C.3   1 <1>   0.2090 
 15 C       -5.8250    -4.8070     0.5900 C.ar  1 <1>   0.4100 
 16 N       -6.0140    -6.0010     0.0650 N.ar  1 <1>  -0.6200 
 17 C       -6.9260    -4.0000     0.9500 C.ar  1 <1>  -0.1500 
 18 C       -7.2510    -6.4560    -0.0820 C.ar  1 <1>   0.7710 
 19 C       -8.1850    -4.4790     0.7990 C.ar  1 <1>   0.2180 
 20 N       -8.3140    -5.7240     0.2860 N.ar  1 <1>  -0.1790 
 21 N       -7.4540    -7.6910    -0.6180 N.pl3 1 <1>  -0.8380 
 22 C       -9.4400    -3.6960     1.1660 C.3   1 <1>  -0.0170 
 23 C       -6.3110    -8.6330    -0.8650 C.3   1 <1>   0.1290 
 24 C       -8.7590    -8.2690    -1.0740 C.3   1 <1>   0.1290 
 25 C      -10.2790    -3.3460    -0.0700 C.3   1 <1>  -0.2400 
 26 H       -3.6730    -0.6780    -1.7150 H     1 <1>   0.0800 
 27 H       -4.4550    -0.2420    -0.2170 H     1 <1>   0.0800 
 28 H       -4.3940    -2.6810    -0.3040 H     1 <1>   0.4500 
 29 H       -3.6630    -1.3280     1.7600 H     1 <1>   0.0800 
 30 H       -2.8990    -3.0230    -1.9850 H     1 <1>   0.0800 
 31 H       -1.6050    -2.3280    -1.0560 H     1 <1>   0.0800 
 32 H       -1.7240    -1.9800     2.7790 H     1 <1>   0.0800 
 33 H       -1.1380    -1.7290     1.1670 H     1 <1>   0.0800 
 34 H       -4.9580    -3.0330     2.3810 H     1 <1>   0.0800 
 35 H       -3.5500    -3.9700     2.6080 H     1 <1>   0.0800 
 36 H       -1.7900    -4.8500    -1.2450 H     1 <1>   0.0800 
 37 H       -0.1970    -3.6010     0.1390 H     1 <1>   0.0800 
 38 H       -0.6010    -5.1850     0.7470 H     1 <1>   0.0800 
 39 H       -3.0010    -5.8570     0.8350 H     1 <1>   0.0800 
 40 H       -3.7440    -5.7040    -0.7140 H     1 <1>   0.0800 
 41 H       -6.7600    -3.0130     1.3300 H     1 <1>   0.1500 
 42 H       -9.2140    -6.1710     0.1640 H     1 <1>   0.4570 
 43 H      -10.0350    -4.2640     1.8610 H     1 <1>   0.0800 
 44 H       -9.1600    -2.7810     1.6610 H     1 <1>   0.0800 
 45 H       -6.6050    -9.6430    -0.6350 H     1 <1>   0.0800 
 46 H       -5.4600    -8.3930    -0.2500 H     1 <1>   0.0800 
 47 H       -6.0150    -8.5840    -1.8990 H     1 <1>   0.0800 
 48 H       -8.6190    -8.7840    -2.0110 H     1 <1>   0.0800 
 49 H       -9.5030    -7.5090    -1.2310 H     1 <1>   0.0800 
 50 H       -9.1190    -8.9790    -0.3480 H     1 <1>   0.0800 
 51 H      -10.6450    -4.2290    -0.5630 H     1 <1>   0.0800 
 52 H       -9.7000    -2.7700    -0.7710 H     1 <1>   0.0800 
 53 H      -11.1300    -2.7540     0.2240 H     1 <1>   0.0800 
@<TRIPOS>BOND
  1   1   2  ar  
  2   2   3  ar  
  3   2   4  1   
  4   4   5  1   
  5   4  26  1   
  6   4  27  1   
  7   5   6  1   
  8   5   7  1   
  9   5  28  1   
 10   6   8  1   
 11   6   9  1   
 12   6  29  1   
 13   7  10  1   
 14   7  30  1   
 15   7  31  1   
 16   8  11  1   
 17   8  32  1   
 18   8  33  1   
 19   9  12  1   
 20   9  34  1   
 21   9  35  1   
 22  10  13  1   
 23  10  14  1   
 24  10  36  1   
 25  11  13  1   
 26  12  14  1   
 27  12  15  1   
 28  13  37  1   
 29  13  38  1   
 30  14  39  1   
 31  14  40  1   
 32  15  16  ar  
 33  15  17  ar  
 34  16  18  ar  
 35  17  19  ar  
 36  17  41  1   
 37  18  20  ar  
 38  18  21  1   
 39  19  20  ar  
 40  19  22  1   
 41  20  42  1   
 42  21  23  1   
 43  21  24  1   
 44  22  25  1   
 45  22  43  1   
 46  22  44  1   
 47  23  45  1   
 48  23  46  1   
 49  23  47  1   
 50  24  48  1   
 51  24  49  1   
 52  24  50  1   
 53  25  51  1   
 54  25  52  1   
 55  25  53  1   
@<TRIPOS>SUBSTRUCTURE
  1 ****  12 GROUP 4 **** **** 0

# MOE 2024.06 (io_trps.svl 2023.06)
