@<TRIPOS>MOLECULE
NONAME
56 58 1 0 0 
SMALL
USER_CHARGES


@<TRIPOS>ATOM
  1 CL       1.7090     1.2500     2.8200 Cl    1 <1>  -0.1770 
  2 C        2.4000     0.1010     1.6960 C.ar  1 <1>   0.1770 
  3 C        3.3640     0.4980     0.7780 C.ar  1 <1>   0.0820 
  4 C        1.9510    -1.2060     1.7590 C.ar  1 <1>  -0.1500 
  5 O        3.7820     1.7890     0.7730 O.3   1 <1>  -0.3630 
  6 C        3.8700    -0.4550    -0.1160 C.ar  1 <1>   0.0830 
  7 C        2.4650    -2.1530     0.8850 C.ar  1 <1>  -0.1440 
  8 C        4.8280     2.0990     1.6640 C.3   1 <1>   0.1200 
  9 O        4.7890    -0.2190    -1.0910 O.3   1 <1>  -0.3630 
 10 C        3.4260    -1.7660    -0.0380 C.ar  1 <1>  -0.1500 
 11 C        1.9820    -3.5910     0.9270 C.3   1 <1>   0.4860 
 12 C        5.1710     3.5760     1.4950 C.3   1 <1>  -0.2400 
 13 C        4.8740     1.0340    -1.7330 C.3   1 <1>   0.1200 
 14 N        1.1220    -3.8410    -0.2650 N.4   1 <1>  -0.9590 
 15 C        5.5900     0.8350    -3.0650 C.3   1 <1>  -0.2400 
 16 C       -0.1280    -3.0120    -0.2300 C.3   1 <1>   0.4230 
 17 C        0.9250    -5.3110    -0.4720 C.3   1 <1>   0.2630 
 18 C       -1.1640    -3.5110     0.7810 C.3   1 <1>  -0.1600 
 19 C       -0.8600    -3.0520    -1.5700 C.3   1 <1>  -0.1600 
 20 C       -2.1210    -4.4470     0.0230 C.3   1 <1>  -0.0800 
 21 C       -1.9340    -4.1490    -1.4720 C.3   1 <1>  -0.0800 
 22 C       -3.6070    -4.2080     0.3360 C.3   1 <1>  -0.1600 
 23 C       -3.3120    -3.7310    -2.0120 C.3   1 <1>  -0.1600 
 24 C       -4.1530    -3.3490    -0.7990 C.3   1 <1>   0.2000 
 25 O       -3.9100    -2.0270    -0.5010 O.3   1 <1>  -0.6800 
 26 H        1.2080    -1.4580     2.4970 H     1 <1>   0.1500 
 27 H        4.4980     1.8970     2.6690 H     1 <1>   0.0800 
 28 H        5.6750     1.4780     1.4260 H     1 <1>   0.0800 
 29 H        3.8570    -2.4760    -0.7240 H     1 <1>   0.1500 
 30 H        1.4320    -3.7730     1.8350 H     1 <1>   0.0800 
 31 H        2.8370    -4.2470     0.9100 H     1 <1>   0.0800 
 32 H        4.3120     4.1810     1.7250 H     1 <1>   0.0800 
 33 H        5.4890     3.7710     0.4870 H     1 <1>   0.0800 
 34 H        5.9670     3.8430     2.1650 H     1 <1>   0.0800 
 35 H        3.8780     1.4150    -1.8860 H     1 <1>   0.0800 
 36 H        5.4320     1.7040    -1.1040 H     1 <1>   0.0800 
 37 H        1.6610    -3.4800    -1.0630 H     1 <1>   0.4500 
 38 H        5.0350     0.1560    -3.6880 H     1 <1>   0.0800 
 39 H        6.5790     0.4460    -2.8990 H     1 <1>   0.0800 
 40 H        5.6730     1.7770    -3.5760 H     1 <1>   0.0800 
 41 H        0.1360    -1.9890    -0.0070 H     1 <1>   0.0800 
 42 H        0.3600    -5.7340     0.3420 H     1 <1>   0.0800 
 43 H        1.8770    -5.8130    -0.5290 H     1 <1>   0.0800 
 44 H        0.3920    -5.4910    -1.3910 H     1 <1>   0.0800 
 45 H       -0.7300    -3.9900     1.6380 H     1 <1>   0.0800 
 46 H       -1.7110    -2.6530     1.1310 H     1 <1>   0.0800 
 47 H       -1.3380    -2.0980    -1.7080 H     1 <1>   0.0800 
 48 H       -0.1980    -3.2070    -2.4030 H     1 <1>   0.0800 
 49 H       -1.8730    -5.4740     0.2330 H     1 <1>   0.0800 
 50 H       -1.6030    -5.0340    -1.9900 H     1 <1>   0.0800 
 51 H       -3.7880    -3.7710     1.3030 H     1 <1>   0.0800 
 52 H       -4.1180    -5.1540     0.3020 H     1 <1>   0.0800 
 53 H       -3.7720    -4.5910    -2.4680 H     1 <1>   0.0800 
 54 H       -3.2760    -2.9480    -2.7500 H     1 <1>   0.0800 
 55 H       -5.2130    -3.4730    -0.9560 H     1 <1>   0.0800 
 56 H       -2.9550    -1.8810    -0.4200 H     1 <1>   0.4000 
@<TRIPOS>BOND
  1   1   2  1   
  2   2   3  ar  
  3   2   4  ar  
  4   3   5  1   
  5   3   6  ar  
  6   4   7  ar  
  7   4  26  1   
  8   5   8  1   
  9   6   9  1   
 10   6  10  ar  
 11   7  10  ar  
 12   7  11  1   
 13   8  12  1   
 14   8  27  1   
 15   8  28  1   
 16   9  13  1   
 17  10  29  1   
 18  11  14  1   
 19  11  30  1   
 20  11  31  1   
 21  12  32  1   
 22  12  33  1   
 23  12  34  1   
 24  13  15  1   
 25  13  35  1   
 26  13  36  1   
 27  14  16  1   
 28  14  17  1   
 29  14  37  1   
 30  15  38  1   
 31  15  39  1   
 32  15  40  1   
 33  16  18  1   
 34  16  19  1   
 35  16  41  1   
 36  17  42  1   
 37  17  43  1   
 38  17  44  1   
 39  18  20  1   
 40  18  45  1   
 41  18  46  1   
 42  19  21  1   
 43  19  47  1   
 44  19  48  1   
 45  20  21  1   
 46  20  22  1   
 47  20  49  1   
 48  21  23  1   
 49  21  50  1   
 50  22  24  1   
 51  22  51  1   
 52  22  52  1   
 53  23  24  1   
 54  23  53  1   
 55  23  54  1   
 56  24  25  1   
 57  24  55  1   
 58  25  56  1   
@<TRIPOS>SUBSTRUCTURE
  1 ****   7 GROUP 4 **** **** 0

# MOE 2024.06 (io_trps.svl 2023.06)
