@<TRIPOS>MOLECULE
NONAME
49 51 1 0 0 
SMALL
USER_CHARGES


@<TRIPOS>ATOM
  1 O       -0.9930    -0.1710     0.6180 O.2   1 <1>  -0.5700 
  2 C       -1.6440     0.6950     0.0590 C.2   1 <1>   0.7160 
  3 N       -2.7660     0.2870    -0.6300 N.am  1 <1>  -0.6600 
  4 C       -1.2730     2.0890     0.1470 C.2   1 <1>  -0.0860 
  5 C       -2.8960    -1.1370    -1.0350 C.3   1 <1>   0.1400 
  6 C       -4.0690     0.9770    -0.4290 C.3   1 <1>   0.1400 
  7 C       -0.5910     2.7630     1.1170 C.2   1 <1>  -0.0400 
  8 C       -1.5530     3.0790    -0.8200 C.2   1 <1>  -0.1500 
  9 C       -3.6430    -1.9080     0.0760 C.3   1 <1>   0.4230 
 10 C       -4.8430     0.2320     0.6680 C.3   1 <1>  -0.1600 
 11 O       -0.4640     4.0310     0.8100 O.3   1 <1>  -0.2800 
 12 C        0.0100     2.2990     2.4280 C.3   1 <1>  -0.0600 
 13 C       -1.0370     4.2320    -0.3540 C.2   1 <1>  -0.0400 
 14 N       -3.6630    -3.4180    -0.1230 N.4   1 <1>  -0.9590 
 15 C       -5.0410    -1.2860     0.3780 C.3   1 <1>   0.0000 
 16 C       -1.0180     5.6260    -0.9390 C.3   1 <1>  -0.0600 
 17 C       -4.7040    -4.1280     0.6890 C.3   1 <1>   0.3430 
 18 C       -3.7160    -3.8850    -1.5470 C.3   1 <1>   0.2630 
 19 C       -5.6380    -1.9620     1.6490 C.3   1 <1>  -0.1600 
 20 C       -5.9900    -1.4840    -0.8390 C.3   1 <1>   0.1200 
 21 C       -5.0380    -3.3470     1.9580 C.3   1 <1>  -0.1600 
 22 O       -7.1680    -0.7720    -0.6920 O.3   1 <1>  -0.6800 
 23 H       -3.4180    -1.1820    -1.9730 H     1 <1>   0.0800 
 24 H       -1.9140    -1.5570    -1.1740 H     1 <1>   0.0800 
 25 H       -3.9160     1.9990    -0.1250 H     1 <1>   0.0800 
 26 H       -4.6250     0.9860    -1.3520 H     1 <1>   0.0800 
 27 H       -2.0750     2.9090    -1.7440 H     1 <1>   0.1500 
 28 H       -3.0610    -1.7330     0.9670 H     1 <1>   0.0800 
 29 H       -4.2940     0.3600     1.5860 H     1 <1>   0.0800 
 30 H       -5.7910     0.7200     0.8120 H     1 <1>   0.0800 
 31 H       -0.1780     1.2550     2.5940 H     1 <1>   0.0800 
 32 H       -0.4160     2.8610     3.2390 H     1 <1>   0.0800 
 33 H        1.0720     2.4610     2.4140 H     1 <1>   0.0800 
 34 H       -2.7540    -3.7280     0.2560 H     1 <1>   0.4500 
 35 H       -1.5200     5.6390    -1.8890 H     1 <1>   0.0800 
 36 H       -0.0010     5.9480    -1.0750 H     1 <1>   0.0800 
 37 H       -1.5120     6.3070    -0.2700 H     1 <1>   0.0800 
 38 H       -5.6070    -4.2370     0.1090 H     1 <1>   0.0800 
 39 H       -4.3560    -5.1160     0.9480 H     1 <1>   0.0800 
 40 H       -4.6260    -3.5540    -2.0200 H     1 <1>   0.0800 
 41 H       -3.6810    -4.9620    -1.5880 H     1 <1>   0.0800 
 42 H       -2.8770    -3.5000    -2.1040 H     1 <1>   0.0800 
 43 H       -5.4800    -1.3440     2.5170 H     1 <1>   0.0800 
 44 H       -6.7050    -2.0600     1.5480 H     1 <1>   0.0800 
 45 H       -6.2550    -2.5180    -0.9690 H     1 <1>   0.0800 
 46 H       -5.5400    -1.1320    -1.7490 H     1 <1>   0.0800 
 47 H       -5.7400    -3.9110     2.5480 H     1 <1>   0.0800 
 48 H       -4.1450    -3.2400     2.5510 H     1 <1>   0.0800 
 49 H       -7.6880    -1.0670     0.0810 H     1 <1>   0.4000 
@<TRIPOS>BOND
  1   1   2  2   
  2   2   3  am  
  3   2   4  1   
  4   3   5  1   
  5   3   6  1   
  6   4   7  2   
  7   4   8  1   
  8   5   9  1   
  9   5  23  1   
 10   5  24  1   
 11   6  10  1   
 12   6  25  1   
 13   6  26  1   
 14   7  11  1   
 15   7  12  1   
 16   8  13  2   
 17   8  27  1   
 18   9  14  1   
 19   9  15  1   
 20   9  28  1   
 21  10  15  1   
 22  10  29  1   
 23  10  30  1   
 24  11  13  1   
 25  12  31  1   
 26  12  32  1   
 27  12  33  1   
 28  13  16  1   
 29  14  17  1   
 30  14  18  1   
 31  14  34  1   
 32  15  19  1   
 33  15  20  1   
 34  16  35  1   
 35  16  36  1   
 36  16  37  1   
 37  17  21  1   
 38  17  38  1   
 39  17  39  1   
 40  18  40  1   
 41  18  41  1   
 42  18  42  1   
 43  19  21  1   
 44  19  43  1   
 45  19  44  1   
 46  20  22  1   
 47  20  45  1   
 48  20  46  1   
 49  21  47  1   
 50  21  48  1   
 51  22  49  1   
@<TRIPOS>SUBSTRUCTURE
  1 ****   3 GROUP 4 **** **** 0

# MOE 2024.06 (io_trps.svl 2023.06)
