@<TRIPOS>MOLECULE
NONAME
48 51 1 0 0 
SMALL
USER_CHARGES


@<TRIPOS>ATOM
  1 O        1.3250    -1.0780     2.5620 O.2   1 <1>  -0.5700 
  2 C        1.9100    -1.3640     1.5250 C.2   1 <1>   0.5650 
  3 N        2.9610    -0.5730     0.9880 N.pl3 1 <1>   0.5610 
  4 C        1.5480    -2.5330     0.7950 C.2   1 <1>  -0.1360 
  5 N        3.5350     0.5920     1.4460 N.2   1 <1>  -0.7070 
  6 C        3.5710    -0.9490    -0.1830 C.2   1 <1>  -0.0680 
  7 C        2.1560    -2.9050    -0.3670 C.2   1 <1>  -0.0380 
  8 C        4.4470     0.8910     0.5790 C.2   1 <1>   0.1080 
  9 N        3.1720    -2.1120    -0.8610 N.pl3 1 <1>  -0.5840 
 10 C        4.5220    -0.0290    -0.4610 C.2   1 <1>  -0.1500 
 11 C        1.8280    -4.1460    -1.2110 C.3   1 <1>   0.2480 
 12 C        5.3170     2.1180     0.7200 C.3   1 <1>  -0.0590 
 13 N        0.7540    -5.0260    -0.7210 N.3   1 <1>  -0.8100 
 14 C        1.0750    -5.7540     0.5230 C.3   1 <1>   0.2530 
 15 C       -0.6060    -4.4580    -0.8010 C.3   1 <1>   0.1100 
 16 C        0.6260    -7.2040     0.4290 C.ar  1 <1>  -0.1430 
 17 C       -1.6440    -5.5290    -1.1650 C.3   1 <1>  -0.1600 
 18 C       -0.6880    -7.5470     0.7170 C.ar  1 <1>   0.0830 
 19 C        1.5200    -8.1960     0.0570 C.ar  1 <1>  -0.1500 
 20 C       -2.4140    -6.1120     0.0350 C.3   1 <1>   0.1200 
 21 O       -1.5460    -6.5530     1.0550 O.3   1 <1>  -0.3630 
 22 C       -1.1140    -8.8760     0.6540 C.ar  1 <1>   0.0830 
 23 C        1.1100    -9.5150    -0.0140 C.ar  1 <1>  -0.1500 
 24 O       -2.4150    -9.1560     0.9580 O.3   1 <1>  -0.3630 
 25 C       -0.1990    -9.8580     0.2840 C.ar  1 <1>  -0.1500 
 26 C       -2.8790   -10.4840     1.0490 C.3   1 <1>   0.0400 
 27 H        0.7560    -3.0980     1.2380 H     1 <1>   0.1500 
 28 H        3.6560    -2.3530    -1.7370 H     1 <1>   0.4000 
 29 H        5.1980     0.0070    -1.2950 H     1 <1>   0.1500 
 30 H        2.7230    -4.7360    -1.3070 H     1 <1>   0.0800 
 31 H        1.5650    -3.8200    -2.2030 H     1 <1>   0.0800 
 32 H        5.8650     2.0650     1.6430 H     1 <1>   0.0800 
 33 H        4.6980     2.9960     0.7340 H     1 <1>   0.0800 
 34 H        6.0100     2.1880    -0.0980 H     1 <1>   0.0800 
 35 H        0.6030    -5.2840     1.3680 H     1 <1>   0.0800 
 36 H        2.1370    -5.7370     0.6950 H     1 <1>   0.0800 
 37 H       -0.6220    -3.7130    -1.5780 H     1 <1>   0.0800 
 38 H       -0.8790    -3.9760     0.1210 H     1 <1>   0.0800 
 39 H       -1.1800    -6.3190    -1.7300 H     1 <1>   0.0800 
 40 H       -2.3740    -5.0770    -1.8110 H     1 <1>   0.0800 
 41 H        2.5380    -7.9410    -0.1800 H     1 <1>   0.1500 
 42 H       -3.0250    -6.9430    -0.2710 H     1 <1>   0.0800 
 43 H       -3.0490    -5.3600     0.4690 H     1 <1>   0.0800 
 44 H        1.8110   -10.2780    -0.3040 H     1 <1>   0.1500 
 45 H       -0.4820   -10.8900     0.2180 H     1 <1>   0.1500 
 46 H       -3.9090   -10.4570     1.3540 H     1 <1>   0.0800 
 47 H       -2.2930   -11.0090     1.7830 H     1 <1>   0.0800 
 48 H       -2.7960   -10.9500     0.0830 H     1 <1>   0.0800 
@<TRIPOS>BOND
  1   1   2  2   
  2   2   3  1   
  3   2   4  1   
  4   3   5  1   
  5   3   6  1   
  6   4   7  2   
  7   4  27  1   
  8   5   8  2   
  9   6   9  1   
 10   6  10  2   
 11   7   9  1   
 12   7  11  1   
 13   8  10  1   
 14   8  12  1   
 15   9  28  1   
 16  10  29  1   
 17  11  13  1   
 18  11  30  1   
 19  11  31  1   
 20  12  32  1   
 21  12  33  1   
 22  12  34  1   
 23  13  14  1   
 24  13  15  1   
 25  14  16  1   
 26  14  35  1   
 27  14  36  1   
 28  15  17  1   
 29  15  37  1   
 30  15  38  1   
 31  16  18  ar  
 32  16  19  ar  
 33  17  20  1   
 34  17  39  1   
 35  17  40  1   
 36  18  21  1   
 37  18  22  ar  
 38  19  23  ar  
 39  19  41  1   
 40  20  21  1   
 41  20  42  1   
 42  20  43  1   
 43  22  24  1   
 44  22  25  ar  
 45  23  25  ar  
 46  23  44  1   
 47  24  26  1   
 48  25  45  1   
 49  26  46  1   
 50  26  47  1   
 51  26  48  1   
@<TRIPOS>SUBSTRUCTURE
  1 ****  13 GROUP 4 **** **** 0

# MOE 2024.06 (io_trps.svl 2023.06)
