@<TRIPOS>MOLECULE
NONAME
47 49 1 0 0 
SMALL
USER_CHARGES


@<TRIPOS>ATOM
  1 O       -1.0200    -0.2170     1.8260 O.3   1 <1>  -0.5600 
  2 C       -0.2940    -1.1810     1.0990 C.3   1 <1>   0.2800 
  3 C       -1.8420     0.6570     1.1250 C.3   1 <1>   0.1200 
  4 C       -1.0690    -1.6390    -0.1970 C.3   1 <1>   0.2000 
  5 C        1.0950    -0.5750     0.8230 C.3   1 <1>  -0.1600 
  6 C       -0.0770    -2.3400     2.0880 C.3   1 <1>  -0.1600 
  7 C       -2.9990    -0.1100     0.4640 C.3   1 <1>  -0.1600 
  8 O       -0.6730    -0.8910    -1.3210 O.3   1 <1>  -0.6800 
  9 C       -2.6110    -1.5190    -0.0300 C.3   1 <1>   0.2800 
 10 C        2.0470    -1.6100     0.2230 C.3   1 <1>   0.2090 
 11 C        0.8870    -3.4010     1.5550 C.3   1 <1>   0.2090 
 12 O       -3.0290    -2.4320     0.9180 O.3   1 <1>  -0.6800 
 13 C       -3.3880    -1.9000    -1.2960 C.3   1 <1>  -0.2400 
 14 N        2.1750    -2.7830     1.1340 N.pl3 1 <1>  -0.8210 
 15 C        3.2210    -3.6740     0.8710 C.2   1 <1>   0.5990 
 16 N        3.2780    -4.8890     1.2680 N.2   1 <1>  -0.4100 
 17 N        4.2800    -3.3090     0.1580 N.2   1 <1>  -0.5650 
 18 O        4.4040    -5.3830     0.8260 O.3   1 <1>  -0.0190 
 19 C        4.9490    -4.3850     0.1760 C.2   1 <1>   0.2980 
 20 C        6.2980    -4.5960    -0.4860 C.3   1 <1>   0.0200 
 21 C        7.4120    -4.8050     0.5510 C.3   1 <1>  -0.1600 
 22 C        8.7770    -5.0000    -0.1180 C.3   1 <1>  -0.2400 
 23 H       -2.2240     1.3800     1.8250 H     1 <1>   0.0800 
 24 H       -1.2410     1.1740     0.3970 H     1 <1>   0.0800 
 25 H       -0.8260    -2.6580    -0.4340 H     1 <1>   0.0800 
 26 H        1.0260     0.2640     0.1590 H     1 <1>   0.0800 
 27 H        1.5230    -0.2250     1.7450 H     1 <1>   0.0800 
 28 H        0.3360    -1.9520     3.0020 H     1 <1>   0.0800 
 29 H       -1.0080    -2.8100     2.3330 H     1 <1>   0.0800 
 30 H       -3.3300     0.4860    -0.3670 H     1 <1>   0.0800 
 31 H       -3.8240    -0.1660     1.1520 H     1 <1>   0.0800 
 32 H       -0.8440     0.0550    -1.1610 H     1 <1>   0.4000 
 33 H        3.0100    -1.1480     0.0860 H     1 <1>   0.0800 
 34 H        1.6950    -1.9410    -0.7400 H     1 <1>   0.0800 
 35 H        0.4550    -3.9280     0.7220 H     1 <1>   0.0800 
 36 H        1.0720    -4.1170     2.3380 H     1 <1>   0.0800 
 37 H       -3.9840    -2.3240     1.0790 H     1 <1>   0.4000 
 38 H       -3.1460    -1.2310    -2.1020 H     1 <1>   0.0800 
 39 H       -4.4480    -1.8480    -1.1270 H     1 <1>   0.0800 
 40 H       -3.1240    -2.8960    -1.6050 H     1 <1>   0.0800 
 41 H        6.2340    -5.4500    -1.1350 H     1 <1>   0.0800 
 42 H        6.5240    -3.7330    -1.0870 H     1 <1>   0.0800 
 43 H        7.4530    -3.9480     1.2030 H     1 <1>   0.0800 
 44 H        7.1850    -5.6680     1.1540 H     1 <1>   0.0800 
 45 H        9.0370    -4.1360    -0.7060 H     1 <1>   0.0800 
 46 H        8.7650    -5.8650    -0.7580 H     1 <1>   0.0800 
 47 H        9.5360    -5.1420     0.6310 H     1 <1>   0.0800 
@<TRIPOS>BOND
  1   1   2  1   
  2   1   3  1   
  3   2   4  1   
  4   2   5  1   
  5   2   6  1   
  6   3   7  1   
  7   3  23  1   
  8   3  24  1   
  9   4   8  1   
 10   4   9  1   
 11   4  25  1   
 12   5  10  1   
 13   5  26  1   
 14   5  27  1   
 15   6  11  1   
 16   6  28  1   
 17   6  29  1   
 18   7   9  1   
 19   7  30  1   
 20   7  31  1   
 21   8  32  1   
 22   9  12  1   
 23   9  13  1   
 24  10  14  1   
 25  10  33  1   
 26  10  34  1   
 27  11  14  1   
 28  11  35  1   
 29  11  36  1   
 30  12  37  1   
 31  13  38  1   
 32  13  39  1   
 33  13  40  1   
 34  14  15  1   
 35  15  16  2   
 36  15  17  1   
 37  16  18  1   
 38  17  19  2   
 39  18  19  1   
 40  19  20  1   
 41  20  21  1   
 42  20  41  1   
 43  20  42  1   
 44  21  22  1   
 45  21  43  1   
 46  21  44  1   
 47  22  45  1   
 48  22  46  1   
 49  22  47  1   
@<TRIPOS>SUBSTRUCTURE
  1 ****  14 GROUP 4 **** **** 0

# MOE 2024.06 (io_trps.svl 2023.06)
