@<TRIPOS>MOLECULE
NONAME
47 49 1 0 0 
SMALL
USER_CHARGES


@<TRIPOS>ATOM
  1 CL       1.8860    -2.1370     0.7220 Cl    1 <1>  -0.1770 
  2 C        1.0150    -3.6300     0.4820 C.ar  1 <1>   0.1770 
  3 C        1.5510    -4.6010    -0.3440 C.ar  1 <1>  -0.1500 
  4 C       -0.1970    -3.8180     1.1230 C.ar  1 <1>  -0.1500 
  5 C        0.8580    -5.7850    -0.5360 C.ar  1 <1>  -0.1500 
  6 C       -0.8880    -5.0030     0.9310 C.ar  1 <1>  -0.1500 
  7 C       -0.3630    -5.9840     0.0940 C.ar  1 <1>   0.0830 
  8 O       -1.0060    -7.1600    -0.1180 O.3   1 <1>  -0.1650 
  9 C       -2.3510    -7.2230    -0.2860 C.ar  1 <1>   0.0830 
 10 C       -3.0120    -8.3430     0.1920 C.ar  1 <1>  -0.1500 
 11 C       -3.0650    -6.2230    -0.9340 C.ar  1 <1>  -0.1500 
 12 C       -4.3840    -8.4700     0.0340 C.ar  1 <1>  -0.1430 
 13 C       -4.4350    -6.3400    -1.0830 C.ar  1 <1>  -0.1500 
 14 C       -5.0940    -7.4580    -0.5990 C.ar  1 <1>  -0.1500 
 15 C       -5.0960    -9.7070     0.5440 C.3   1 <1>   0.4860 
 16 N       -5.4070   -10.5840    -0.6200 N.4   1 <1>  -0.9590 
 17 C       -4.1430   -11.1950    -1.1710 C.3   1 <1>   0.3430 
 18 C       -6.4590   -11.5880    -0.2940 C.3   1 <1>   0.3430 
 19 C       -4.0070   -12.7010    -0.8980 C.3   1 <1>  -0.0800 
 20 C       -5.9650   -12.6360     0.7170 C.3   1 <1>  -0.1600 
 21 C       -4.5000   -13.0550     0.5110 C.3   1 <1>   0.2000 
 22 C       -2.5580   -13.1440    -1.1270 C.3   1 <1>   0.1200 
 23 O       -3.7240   -12.3740     1.4330 O.3   1 <1>  -0.6800 
 24 O       -2.1850   -12.7350    -2.3960 O.3   1 <1>  -0.6800 
 25 H        2.4970    -4.4300    -0.8270 H     1 <1>   0.1500 
 26 H       -0.5870    -3.0470     1.7630 H     1 <1>   0.1500 
 27 H        1.2590    -6.5540    -1.1720 H     1 <1>   0.1500 
 28 H       -1.8260    -5.1650     1.4320 H     1 <1>   0.1500 
 29 H       -2.4350    -9.1050     0.6870 H     1 <1>   0.1500 
 30 H       -2.5570    -5.3580    -1.3240 H     1 <1>   0.1500 
 31 H       -4.9870    -5.5580    -1.5770 H     1 <1>   0.1500 
 32 H       -6.1620    -7.5210    -0.7220 H     1 <1>   0.1500 
 33 H       -6.0060    -9.4100     1.0400 H     1 <1>   0.0800 
 34 H       -4.4750   -10.2250     1.2550 H     1 <1>   0.0800 
 35 H       -5.7580    -9.9460    -1.3450 H     1 <1>   0.4500 
 36 H       -4.0930   -11.0380    -2.2370 H     1 <1>   0.0800 
 37 H       -3.2880   -10.6990    -0.7420 H     1 <1>   0.0800 
 38 H       -7.3410   -11.0990     0.0900 H     1 <1>   0.0800 
 39 H       -6.7380   -12.0980    -1.2030 H     1 <1>   0.0800 
 40 H       -4.6120   -13.2350    -1.6090 H     1 <1>   0.0800 
 41 H       -6.5850   -13.5050     0.5920 H     1 <1>   0.0800 
 42 H       -6.1250   -12.2870     1.7220 H     1 <1>   0.0800 
 43 H       -4.3780   -14.1110     0.6980 H     1 <1>   0.0800 
 44 H       -2.4670   -14.2170    -1.0730 H     1 <1>   0.0800 
 45 H       -1.8890   -12.6890    -0.4150 H     1 <1>   0.0800 
 46 H       -3.7460   -12.8260     2.3040 H     1 <1>   0.4000 
 47 H       -1.2810   -13.0460    -2.6130 H     1 <1>   0.4000 
@<TRIPOS>BOND
  1   1   2  1   
  2   2   3  ar  
  3   2   4  ar  
  4   3   5  ar  
  5   3  25  1   
  6   4   6  ar  
  7   4  26  1   
  8   5   7  ar  
  9   5  27  1   
 10   6   7  ar  
 11   6  28  1   
 12   7   8  1   
 13   8   9  1   
 14   9  10  ar  
 15   9  11  ar  
 16  10  12  ar  
 17  10  29  1   
 18  11  13  ar  
 19  11  30  1   
 20  12  14  ar  
 21  12  15  1   
 22  13  14  ar  
 23  13  31  1   
 24  14  32  1   
 25  15  16  1   
 26  15  33  1   
 27  15  34  1   
 28  16  17  1   
 29  16  18  1   
 30  16  35  1   
 31  17  19  1   
 32  17  36  1   
 33  17  37  1   
 34  18  20  1   
 35  18  38  1   
 36  18  39  1   
 37  19  21  1   
 38  19  22  1   
 39  19  40  1   
 40  20  21  1   
 41  20  41  1   
 42  20  42  1   
 43  21  23  1   
 44  21  43  1   
 45  22  24  1   
 46  22  44  1   
 47  22  45  1   
 48  23  46  1   
 49  24  47  1   
@<TRIPOS>SUBSTRUCTURE
  1 ****  10 GROUP 4 **** **** 0

# MOE 2024.06 (io_trps.svl 2023.06)
