@<TRIPOS>MOLECULE
NONAME
53 55 1 0 0 
SMALL
USER_CHARGES


@<TRIPOS>ATOM
  1 S        0.1090    -0.1090     0.8150 S.3   1 <1>  -0.0800 
  2 C       -1.5370     0.3960     0.5460 C.2   1 <1>  -0.1400 
  3 C        0.6400     1.1030    -0.3270 C.2   1 <1>   0.1980 
  4 C       -1.5390     1.3950    -0.3520 C.2   1 <1>   0.0460 
  5 C       -2.6210    -0.3220     1.3210 C.3   1 <1>   0.3200 
  6 N       -0.3010     1.7860    -0.8390 N.2   1 <1>  -0.5650 
  7 C        2.1230     1.2170    -0.5850 C.3   1 <1>  -0.0600 
  8 C       -2.7520     2.1350    -0.8910 C.3   1 <1>   0.0210 
  9 N       -2.6970    -1.7080     0.8310 N.am  1 <1>  -0.7300 
 10 C       -2.8270     3.5610    -0.3350 C.3   1 <1>  -0.2400 
 11 C       -3.7850    -2.5160     0.9600 C.2   1 <1>   0.7150 
 12 O       -4.7650    -2.0760     1.5340 O.2   1 <1>  -0.5700 
 13 C       -3.7720    -3.8610     0.4250 C.2   1 <1>   0.0550 
 14 O       -4.7620    -4.7030     0.7040 O.3   1 <1>  -0.2800 
 15 C       -2.8850    -4.5100    -0.3820 C.2   1 <1>  -0.1500 
 16 C       -4.5460    -5.8510     0.1050 C.2   1 <1>  -0.0400 
 17 C       -3.3880    -5.7960    -0.5890 C.2   1 <1>  -0.1500 
 18 C       -5.5610    -6.9700     0.2750 C.3   1 <1>   0.5230 
 19 N       -6.9050    -6.4940    -0.1620 N.4   1 <1>  -0.9590 
 20 C       -7.5760    -5.6890     0.9050 C.3   1 <1>   0.3430 
 21 C       -7.7630    -7.6110    -0.6430 C.3   1 <1>   0.3430 
 22 C       -8.8770    -5.0990     0.3610 C.3   1 <1>  -0.1600 
 23 C       -9.0660    -7.0510    -1.2150 C.3   1 <1>  -0.1600 
 24 C       -9.8110    -6.1870    -0.1870 C.3   1 <1>  -0.0800 
 25 C      -11.0600    -5.5590    -0.8140 C.3   1 <1>  -0.2400 
 26 H       -3.5700     0.1670     1.1840 H     1 <1>   0.0800 
 27 H       -2.3830    -0.3220     2.3710 H     1 <1>   0.0800 
 28 H        2.4980     0.2890    -0.9730 H     1 <1>   0.0800 
 29 H        2.6350     1.4550     0.3290 H     1 <1>   0.0800 
 30 H        2.3060     1.9970    -1.3020 H     1 <1>   0.0800 
 31 H       -3.6500     1.6050    -0.6330 H     1 <1>   0.0800 
 32 H       -2.6880     2.1690    -1.9650 H     1 <1>   0.0800 
 33 H       -1.8490    -2.0410     0.3750 H     1 <1>   0.3700 
 34 H       -2.8900     3.5390     0.7380 H     1 <1>   0.0800 
 35 H       -3.6910     4.0680    -0.7260 H     1 <1>   0.0800 
 36 H       -1.9470     4.1120    -0.6170 H     1 <1>   0.0800 
 37 H       -1.9680    -4.1310    -0.7990 H     1 <1>   0.1500 
 38 H       -2.9120    -6.5540    -1.1900 H     1 <1>   0.1500 
 39 H       -5.5920    -7.2820     1.3060 H     1 <1>   0.0800 
 40 H       -5.2510    -7.8080    -0.3270 H     1 <1>   0.0800 
 41 H       -6.7370    -5.8490    -0.9450 H     1 <1>   0.4500 
 42 H       -6.9370    -4.8850     1.2330 H     1 <1>   0.0800 
 43 H       -7.7930    -6.3140     1.7550 H     1 <1>   0.0800 
 44 H       -7.9890    -8.2770     0.1750 H     1 <1>   0.0800 
 45 H       -7.2500    -8.1720    -1.4080 H     1 <1>   0.0800 
 46 H       -8.6440    -4.3810    -0.4070 H     1 <1>   0.0800 
 47 H       -9.3720    -4.5670     1.1550 H     1 <1>   0.0800 
 48 H       -9.6960    -7.8720    -1.5140 H     1 <1>   0.0800 
 49 H       -8.8470    -6.4750    -2.0970 H     1 <1>   0.0800 
 50 H      -10.1260    -6.8150     0.6310 H     1 <1>   0.0800 
 51 H      -10.7990    -4.9170    -1.6370 H     1 <1>   0.0800 
 52 H      -11.5930    -4.9750    -0.0830 H     1 <1>   0.0800 
 53 H      -11.7240    -6.3250    -1.1760 H     1 <1>   0.0800 
@<TRIPOS>BOND
  1   1   2  1   
  2   1   3  1   
  3   2   4  2   
  4   2   5  1   
  5   3   6  2   
  6   3   7  1   
  7   4   6  1   
  8   4   8  1   
  9   5   9  1   
 10   5  26  1   
 11   5  27  1   
 12   7  28  1   
 13   7  29  1   
 14   7  30  1   
 15   8  10  1   
 16   8  31  1   
 17   8  32  1   
 18   9  11  am  
 19   9  33  1   
 20  10  34  1   
 21  10  35  1   
 22  10  36  1   
 23  11  12  2   
 24  11  13  1   
 25  13  14  1   
 26  13  15  2   
 27  14  16  1   
 28  15  17  1   
 29  15  37  1   
 30  16  17  2   
 31  16  18  1   
 32  17  38  1   
 33  18  19  1   
 34  18  39  1   
 35  18  40  1   
 36  19  20  1   
 37  19  21  1   
 38  19  41  1   
 39  20  22  1   
 40  20  42  1   
 41  20  43  1   
 42  21  23  1   
 43  21  44  1   
 44  21  45  1   
 45  22  24  1   
 46  22  46  1   
 47  22  47  1   
 48  23  24  1   
 49  23  48  1   
 50  23  49  1   
 51  24  25  1   
 52  24  50  1   
 53  25  51  1   
 54  25  52  1   
 55  25  53  1   
@<TRIPOS>SUBSTRUCTURE
  1 ****  11 GROUP 4 **** **** 0

# MOE 2024.06 (io_trps.svl 2023.06)
