@<TRIPOS>MOLECULE
NONAME
51 54 1 0 0 
SMALL
USER_CHARGES


@<TRIPOS>ATOM
  1 O       -0.5650    -0.7830    -0.2750 O.co2 1 <1>  -0.9000 
  2 C       -1.3150    -0.1440    -1.0370 C.2   1 <1>   0.9790 
  3 O       -1.0570    -0.1270    -2.2550 O.co2 1 <1>  -0.9000 
  4 C       -2.4780     0.5180    -0.5290 C.ar  1 <1>  -0.1790 
  5 C       -2.4830     1.8290    -0.0640 C.ar  1 <1>   0.1000 
  6 C       -3.6730    -0.2160    -0.5130 C.ar  1 <1>   0.1600 
  7 N       -1.3610     2.6410    -0.0530 N.pl3 1 <1>  -0.8380 
  8 C       -3.7190     2.3060     0.4000 C.ar  1 <1>   0.0000 
  9 N       -4.8400     0.2090    -0.0900 N.ar  1 <1>  -0.5670 
 10 C       -0.2250     2.1980     0.7940 C.3   1 <1>   0.2090 
 11 C       -0.9340     3.1880    -1.3730 C.3   1 <1>   0.2090 
 12 C       -4.8180     1.4810     0.3610 C.ar  1 <1>   0.1050 
 13 C       -4.2160     3.5030     0.9530 C.2   1 <1>   0.1080 
 14 C        0.5970     3.4220     1.2110 C.3   1 <1>  -0.1600 
 15 C        0.3910     3.9570    -1.2570 C.3   1 <1>  -0.1600 
 16 N       -5.8550     2.2040     0.8640 N.pl3 1 <1>   0.3140 
 17 N       -5.4780     3.4540     1.2290 N.2   1 <1>  -0.7070 
 18 C       -3.3710     4.7290     1.2080 C.3   1 <1>  -0.0590 
 19 C        0.5750     4.5480     0.1540 C.3   1 <1>   0.1000 
 20 C       -7.2330     1.7280     1.0160 C.3   1 <1>   0.0160 
 21 C        1.8070     5.4390     0.2810 C.2   1 <1>   0.2980 
 22 O        1.9420     6.1400     1.3800 O.3   1 <1>  -0.0190 
 23 N        2.7410     5.5850    -0.5740 N.2   1 <1>  -0.5650 
 24 N        3.0570     6.7820     1.2120 N.2   1 <1>  -0.4100 
 25 C        3.5150     6.4500     0.0690 C.2   1 <1>   0.3350 
 26 C        4.8170     6.9470    -0.5620 C.3   1 <1>   0.1010 
 27 C        5.9380     5.9170    -0.3650 C.3   1 <1>  -0.2400 
 28 C        5.2560     8.3140    -0.0130 C.3   1 <1>  -0.2400 
 29 H       -3.6180    -1.2250    -0.8870 H     1 <1>   0.1500 
 30 H        0.3950     1.5250     0.2250 H     1 <1>   0.0800 
 31 H       -0.5870     1.6630     1.6570 H     1 <1>   0.0800 
 32 H       -1.7060     3.8480    -1.7250 H     1 <1>   0.0800 
 33 H       -0.8310     2.3890    -2.0890 H     1 <1>   0.0800 
 34 H        1.6070     3.0950     1.3810 H     1 <1>   0.0800 
 35 H        0.2170     3.8010     2.1410 H     1 <1>   0.0800 
 36 H        0.4120     4.7350    -1.9980 H     1 <1>   0.0800 
 37 H        1.2030     3.2840    -1.4720 H     1 <1>   0.0800 
 38 H       -2.5470     4.4670     1.8450 H     1 <1>   0.0800 
 39 H       -3.9590     5.4920     1.6830 H     1 <1>   0.0800 
 40 H       -2.9910     5.1010     0.2760 H     1 <1>   0.0800 
 41 H       -0.2830     5.1680     0.3480 H     1 <1>   0.0800 
 42 H       -7.6040     1.4250     0.0550 H     1 <1>   0.0800 
 43 H       -7.8400     2.5200     1.4120 H     1 <1>   0.0800 
 44 H       -7.2380     0.8900     1.6870 H     1 <1>   0.0800 
 45 H        4.6400     7.0560    -1.6180 H     1 <1>   0.0800 
 46 H        6.1340     5.7770     0.6830 H     1 <1>   0.0800 
 47 H        6.8410     6.2440    -0.8500 H     1 <1>   0.0800 
 48 H        5.6450     4.9720    -0.7870 H     1 <1>   0.0800 
 49 H        5.4660     8.2460     1.0400 H     1 <1>   0.0800 
 50 H        4.4720     9.0360    -0.1590 H     1 <1>   0.0800 
 51 H        6.1390     8.6580    -0.5220 H     1 <1>   0.0800 
@<TRIPOS>BOND
  1   1   2  ar  
  2   2   3  ar  
  3   2   4  1   
  4   4   5  ar  
  5   4   6  ar  
  6   5   7  1   
  7   5   8  ar  
  8   6   9  ar  
  9   6  29  1   
 10   7  10  1   
 11   7  11  1   
 12   8  12  ar  
 13   8  13  1   
 14   9  12  ar  
 15  10  14  1   
 16  10  30  1   
 17  10  31  1   
 18  11  15  1   
 19  11  32  1   
 20  11  33  1   
 21  12  16  1   
 22  13  17  2   
 23  13  18  1   
 24  14  19  1   
 25  14  34  1   
 26  14  35  1   
 27  15  19  1   
 28  15  36  1   
 29  15  37  1   
 30  16  17  1   
 31  16  20  1   
 32  18  38  1   
 33  18  39  1   
 34  18  40  1   
 35  19  21  1   
 36  19  41  1   
 37  20  42  1   
 38  20  43  1   
 39  20  44  1   
 40  21  22  1   
 41  21  23  2   
 42  22  24  1   
 43  23  25  1   
 44  24  25  2   
 45  25  26  1   
 46  26  27  1   
 47  26  28  1   
 48  26  45  1   
 49  27  46  1   
 50  27  47  1   
 51  27  48  1   
 52  28  49  1   
 53  28  50  1   
 54  28  51  1   
@<TRIPOS>SUBSTRUCTURE
  1 ****   7 GROUP 4 **** **** 0

# MOE 2024.06 (io_trps.svl 2023.06)
