@<TRIPOS>MOLECULE
NONAME
52 53 1 0 0 
SMALL
USER_CHARGES


@<TRIPOS>ATOM
  1 F       -0.3480     0.9690    -0.6410 F     1 <1>  -0.1900 
  2 C       -1.6300     1.1150    -0.4200 C.ar  1 <1>   0.1900 
  3 C       -2.3470     2.2120    -0.9110 C.ar  1 <1>   0.0830 
  4 C       -2.2400     0.1280     0.3300 C.ar  1 <1>  -0.1500 
  5 O       -1.8610     3.2450    -1.6580 O.3   1 <1>  -0.3630 
  6 C       -3.7000     2.2760    -0.6200 C.ar  1 <1>  -0.1500 
  7 C       -3.5920     0.2250     0.6030 C.ar  1 <1>  -0.1500 
  8 C       -0.5190     3.3190    -2.0860 C.3   1 <1>   0.0400 
  9 C       -4.3520     1.2960     0.1310 C.ar  1 <1>   0.0530 
 10 C       -5.7610     1.4110     0.4160 C.2   1 <1>   0.0870 
 11 O       -6.2580     2.5840     0.7180 O.3   1 <1>  -0.0190 
 12 C       -6.7910     0.5210     0.4620 C.2   1 <1>  -0.0860 
 13 N       -7.5370     2.5490     0.9730 N.2   1 <1>  -0.4100 
 14 C       -7.8840     1.3190     0.8280 C.2   1 <1>   0.3720 
 15 C       -6.8270    -0.8880     0.1990 C.2   1 <1>   0.7160 
 16 N       -9.2070     0.8770     0.9990 N.pl3 1 <1>  -0.8210 
 17 O       -5.9040    -1.4560    -0.3530 O.2   1 <1>  -0.5700 
 18 N       -7.9140    -1.6170     0.5650 N.am  1 <1>  -0.7300 
 19 C       -9.9100     1.4950     2.1590 C.3   1 <1>   0.1290 
 20 C      -10.0100     0.9960    -0.2490 C.3   1 <1>   0.1290 
 21 C       -8.1630    -3.0440     0.3200 C.3   1 <1>   0.2200 
 22 C       -9.3440    -3.1300    -0.6610 C.3   1 <1>  -0.1600 
 23 C       -8.4160    -3.7240     1.6780 C.3   1 <1>  -0.1600 
 24 C       -9.7050    -4.5600    -1.0880 C.3   1 <1>  -0.1600 
 25 C       -7.8340    -5.1440     1.7530 C.3   1 <1>  -0.2400 
 26 C      -10.7780    -4.5530    -2.1800 C.3   1 <1>  -0.2400 
 27 H       -1.6640    -0.7030     0.6930 H     1 <1>   0.1500 
 28 H       -4.2630     3.1140    -0.9900 H     1 <1>   0.1500 
 29 H       -4.0660    -0.5430     1.1890 H     1 <1>   0.1500 
 30 H       -0.4050     4.2110    -2.6740 H     1 <1>   0.0800 
 31 H       -0.2940     2.4550    -2.6860 H     1 <1>   0.0800 
 32 H        0.1220     3.3680    -1.2240 H     1 <1>   0.0800 
 33 H       -8.6970    -1.0650     0.9430 H     1 <1>   0.3700 
 34 H       -9.2750     1.4640     3.0290 H     1 <1>   0.0800 
 35 H      -10.8150     0.9540     2.3730 H     1 <1>   0.0800 
 36 H      -10.1510     2.5230     1.9460 H     1 <1>   0.0800 
 37 H       -9.5000     0.5080    -1.0620 H     1 <1>   0.0800 
 38 H      -10.1500     2.0340    -0.5000 H     1 <1>   0.0800 
 39 H      -10.9710     0.5300    -0.1160 H     1 <1>   0.0800 
 40 H       -7.2870    -3.4750    -0.1390 H     1 <1>   0.0800 
 41 H       -9.0790    -2.5720    -1.5430 H     1 <1>   0.0800 
 42 H      -10.2090    -2.6670    -0.2200 H     1 <1>   0.0800 
 43 H       -9.4710    -3.7530     1.8860 H     1 <1>   0.0800 
 44 H       -7.9460    -3.1490     2.4580 H     1 <1>   0.0800 
 45 H      -10.0790    -5.1110    -0.2430 H     1 <1>   0.0800 
 46 H       -8.8260    -5.0600    -1.4590 H     1 <1>   0.0800 
 47 H       -8.2700    -5.7890     1.0130 H     1 <1>   0.0800 
 48 H       -8.0230    -5.5650     2.7240 H     1 <1>   0.0800 
 49 H       -6.7690    -5.1160     1.5970 H     1 <1>   0.0800 
 50 H      -11.6730    -4.0710    -1.8270 H     1 <1>   0.0800 
 51 H      -11.0230    -5.5630    -2.4610 H     1 <1>   0.0800 
 52 H      -10.4250    -4.0340    -3.0530 H     1 <1>   0.0800 
@<TRIPOS>BOND
  1   1   2  1   
  2   2   3  ar  
  3   2   4  ar  
  4   3   5  1   
  5   3   6  ar  
  6   4   7  ar  
  7   4  27  1   
  8   5   8  1   
  9   6   9  ar  
 10   6  28  1   
 11   7   9  ar  
 12   7  29  1   
 13   8  30  1   
 14   8  31  1   
 15   8  32  1   
 16   9  10  1   
 17  10  11  1   
 18  10  12  2   
 19  11  13  1   
 20  12  14  1   
 21  12  15  1   
 22  13  14  2   
 23  14  16  1   
 24  15  17  2   
 25  15  18  am  
 26  16  19  1   
 27  16  20  1   
 28  18  21  1   
 29  18  33  1   
 30  19  34  1   
 31  19  35  1   
 32  19  36  1   
 33  20  37  1   
 34  20  38  1   
 35  20  39  1   
 36  21  22  1   
 37  21  23  1   
 38  21  40  1   
 39  22  24  1   
 40  22  41  1   
 41  22  42  1   
 42  23  25  1   
 43  23  43  1   
 44  23  44  1   
 45  24  26  1   
 46  24  45  1   
 47  24  46  1   
 48  25  47  1   
 49  25  48  1   
 50  25  49  1   
 51  26  50  1   
 52  26  51  1   
 53  26  52  1   
@<TRIPOS>SUBSTRUCTURE
  1 ****  12 GROUP 4 **** **** 0

# MOE 2024.06 (io_trps.svl 2023.06)
