@<TRIPOS>MOLECULE
NONAME
54 56 1 0 0 
SMALL
USER_CHARGES


@<TRIPOS>ATOM
  1 O       -2.9500     0.9780    -2.3650 O.2   1 <1>  -0.5700 
  2 C       -2.3570     0.3480    -1.5220 C.2   1 <1>   0.5690 
  3 N       -2.5020    -0.9920    -1.3970 N.am  1 <1>  -0.7300 
  4 C       -1.4180     1.0680    -0.5570 C.3   1 <1>  -0.0190 
  5 C       -3.4620    -1.8050    -2.1640 C.3   1 <1>   0.2840 
  6 C       -1.9210     2.4710    -0.1610 C.3   1 <1>  -0.1600 
  7 C        0.0150     1.1490    -1.1300 C.3   1 <1>  -0.1600 
  8 C       -4.5460    -2.2850    -1.2150 C.ar  1 <1>  -0.1440 
  9 C       -1.0500     3.1040     0.9460 C.3   1 <1>   0.2000 
 10 C        0.9050     2.1940    -0.4250 C.3   1 <1>  -0.1600 
 11 C       -4.5310    -3.5730    -0.6930 C.ar  1 <1>   0.0820 
 12 C       -5.5650    -1.4190    -0.8510 C.ar  1 <1>  -0.1500 
 13 O       -0.9830     4.4920     0.7280 O.3   1 <1>  -0.5600 
 14 C        0.3900     2.5260     0.9790 C.3   1 <1>   0.2000 
 15 O       -3.5330    -4.4190    -1.0350 O.3   1 <1>  -0.3630 
 16 C       -5.5390    -3.9920     0.1650 C.ar  1 <1>  -0.1500 
 17 C       -6.5640    -1.8330     0.0140 C.ar  1 <1>  -0.1500 
 18 C       -2.1220     5.2070     1.0940 C.3   1 <1>   0.0400 
 19 O        1.2410     3.4560     1.5390 O.3   1 <1>  -0.6800 
 20 C       -2.6720    -4.8670    -0.0090 C.3   1 <1>   0.2630 
 21 C       -6.5520    -3.1210     0.5210 C.ar  1 <1>  -0.1500 
 22 C       -1.7230    -3.7450     0.3930 C.ar  1 <1>  -0.1440 
 23 C       -2.0290    -2.9150     1.4610 C.ar  1 <1>  -0.1500 
 24 C       -0.5370    -3.5520    -0.2990 C.ar  1 <1>  -0.1500 
 25 C       -1.1490    -1.9180     1.8470 C.ar  1 <1>  -0.1500 
 26 C        0.3420    -2.5540     0.0850 C.ar  1 <1>  -0.1500 
 27 C        0.0400    -1.7420     1.1630 C.ar  1 <1>  -0.1500 
 28 H       -2.0220    -1.5090    -0.6510 H     1 <1>   0.3700 
 29 H       -1.3930     0.4810     0.3420 H     1 <1>   0.0800 
 30 H       -3.9040    -1.2180    -2.9520 H     1 <1>   0.0800 
 31 H       -2.9470    -2.6330    -2.6180 H     1 <1>   0.0800 
 32 H       -2.9380     2.4020     0.1800 H     1 <1>   0.0800 
 33 H       -1.9010     3.0950    -1.0380 H     1 <1>   0.0800 
 34 H        0.4710     0.1780    -1.0580 H     1 <1>   0.0800 
 35 H       -0.0350     1.4000    -2.1770 H     1 <1>   0.0800 
 36 H       -1.4940     2.9290     1.9110 H     1 <1>   0.0800 
 37 H        0.9020     3.0990    -1.0090 H     1 <1>   0.0800 
 38 H        1.9160     1.8310    -0.3700 H     1 <1>   0.0800 
 39 H       -5.5780    -0.4150    -1.2430 H     1 <1>   0.1500 
 40 H        0.4230     1.6410     1.5900 H     1 <1>   0.0800 
 41 H       -5.5380    -4.9960     0.5470 H     1 <1>   0.1500 
 42 H       -7.3510    -1.1520     0.2890 H     1 <1>   0.1500 
 43 H       -1.9360     6.2500     0.9070 H     1 <1>   0.0800 
 44 H       -2.3160     5.0570     2.1420 H     1 <1>   0.0800 
 45 H       -2.9600     4.8810     0.5020 H     1 <1>   0.0800 
 46 H        0.8790     4.3350     1.2830 H     1 <1>   0.4000 
 47 H       -3.2580    -5.2020     0.8270 H     1 <1>   0.0800 
 48 H       -2.1180    -5.7030    -0.3970 H     1 <1>   0.0800 
 49 H       -7.3340    -3.4430     1.1870 H     1 <1>   0.1500 
 50 H       -2.9540    -3.0430     1.9970 H     1 <1>   0.1500 
 51 H       -0.2920    -4.1810    -1.1380 H     1 <1>   0.1500 
 52 H       -1.3900    -1.2860     2.6850 H     1 <1>   0.1500 
 53 H        1.2650    -2.4150    -0.4530 H     1 <1>   0.1500 
 54 H        0.7320    -0.9740     1.4690 H     1 <1>   0.1500 
@<TRIPOS>BOND
  1   1   2  2   
  2   2   3  am  
  3   2   4  1   
  4   3   5  1   
  5   3  28  1   
  6   4   6  1   
  7   4   7  1   
  8   4  29  1   
  9   5   8  1   
 10   5  30  1   
 11   5  31  1   
 12   6   9  1   
 13   6  32  1   
 14   6  33  1   
 15   7  10  1   
 16   7  34  1   
 17   7  35  1   
 18   8  11  ar  
 19   8  12  ar  
 20   9  13  1   
 21   9  14  1   
 22   9  36  1   
 23  10  14  1   
 24  10  37  1   
 25  10  38  1   
 26  11  15  1   
 27  11  16  ar  
 28  12  17  ar  
 29  12  39  1   
 30  13  18  1   
 31  14  19  1   
 32  14  40  1   
 33  15  20  1   
 34  16  21  ar  
 35  16  41  1   
 36  17  21  ar  
 37  17  42  1   
 38  18  43  1   
 39  18  44  1   
 40  18  45  1   
 41  19  46  1   
 42  20  22  1   
 43  20  47  1   
 44  20  48  1   
 45  21  49  1   
 46  22  23  ar  
 47  22  24  ar  
 48  23  25  ar  
 49  23  50  1   
 50  24  26  ar  
 51  24  51  1   
 52  25  27  ar  
 53  25  52  1   
 54  26  27  ar  
 55  26  53  1   
 56  27  54  1   
@<TRIPOS>SUBSTRUCTURE
  1 ****   3 GROUP 4 **** **** 0

# MOE 2024.06 (io_trps.svl 2023.06)
