@<TRIPOS>MOLECULE
NONAME
46 47 1 0 0 
SMALL
USER_CHARGES


@<TRIPOS>ATOM
  1 O       -0.7540     0.3550    -1.9680 O.2   1 <1>  -0.5700 
  2 C       -1.3070     0.8320    -0.9950 C.2   1 <1>   0.5440 
  3 N       -1.9700     0.0000    -0.1170 N.am  1 <1>  -0.6600 
  4 C       -1.2630     2.2630    -0.7890 C.ar  1 <1>   0.0860 
  5 C       -2.0560    -1.4600    -0.3890 C.3   1 <1>   0.3200 
  6 C       -2.5360     0.4840     1.1840 C.3   1 <1>   0.1400 
  7 C       -0.3200     2.8450     0.0550 C.ar  1 <1>  -0.1500 
  8 C       -2.1810     3.0990    -1.4200 C.ar  1 <1>  -0.1500 
  9 C       -3.3250    -1.7440    -1.1690 C.2   1 <1>  -0.3320 
 10 C       -3.9100     1.1540     1.0310 C.3   1 <1>   0.1200 
 11 C       -0.2960     4.2090     0.2840 C.ar  1 <1>  -0.1430 
 12 C       -2.1820     4.4660    -1.2080 C.ar  1 <1>  -0.1430 
 13 N       -4.3870    -2.4500    -0.7290 N.pl3 1 <1>   0.0480 
 14 C       -3.6190    -1.3510    -2.4270 C.2   1 <1>   0.0770 
 15 O       -4.8290     0.2560     0.5210 O.3   1 <1>  -0.6800 
 16 C       -1.2260     5.0220    -0.3620 C.ar  1 <1>   0.0830 
 17 C        0.7390     4.7940     1.2340 C.3   1 <1>  -0.0970 
 18 C       -3.2290     5.3280    -1.8990 C.3   1 <1>  -0.0970 
 19 C       -5.2640    -2.4210    -1.7570 C.2   1 <1>   0.0360 
 20 C       -4.5930    -3.0770     0.5890 C.3   1 <1>   0.0160 
 21 N       -4.8430    -1.7730    -2.7940 N.2   1 <1>  -0.5650 
 22 O       -1.2080     6.3540    -0.1530 O.3   1 <1>  -0.3620 
 23 C       -0.4220     7.1190    -1.0380 C.3   1 <1>   0.0400 
 24 H       -2.0370    -2.0110     0.5340 H     1 <1>   0.0800 
 25 H       -1.2070    -1.7790    -0.9710 H     1 <1>   0.0800 
 26 H       -1.8570     1.1940     1.6210 H     1 <1>   0.0800 
 27 H       -2.6230    -0.3340     1.8770 H     1 <1>   0.0800 
 28 H        0.3990     2.2050     0.5340 H     1 <1>   0.1500 
 29 H       -2.9040     2.6530    -2.0800 H     1 <1>   0.1500 
 30 H       -3.8580     2.0010     0.3700 H     1 <1>   0.0800 
 31 H       -4.2720     1.4860     1.9880 H     1 <1>   0.0800 
 32 H       -2.9980    -0.7720    -3.0940 H     1 <1>   0.1500 
 33 H       -4.4880    -0.1170    -0.3280 H     1 <1>   0.4000 
 34 H        1.1700     4.0290     1.8540 H     1 <1>   0.0800 
 35 H        0.2810     5.5280     1.8740 H     1 <1>   0.0800 
 36 H        1.5250     5.2660     0.6740 H     1 <1>   0.0800 
 37 H       -4.0580     4.7310    -2.2330 H     1 <1>   0.0800 
 38 H       -2.7950     5.8200    -2.7500 H     1 <1>   0.0800 
 39 H       -3.6040     6.0730    -1.2200 H     1 <1>   0.0800 
 40 H       -6.2260    -2.8970    -1.6990 H     1 <1>   0.1500 
 41 H       -3.8350    -3.8210     0.7520 H     1 <1>   0.0800 
 42 H       -5.5620    -3.5400     0.6200 H     1 <1>   0.0800 
 43 H       -4.5360    -2.3240     1.3530 H     1 <1>   0.0800 
 44 H       -0.5020     8.1520    -0.7520 H     1 <1>   0.0800 
 45 H       -0.7880     6.9830    -2.0390 H     1 <1>   0.0800 
 46 H        0.6010     6.7940    -0.9690 H     1 <1>   0.0800 
@<TRIPOS>BOND
  1   1   2  2   
  2   2   3  am  
  3   2   4  1   
  4   3   5  1   
  5   3   6  1   
  6   4   7  ar  
  7   4   8  ar  
  8   5   9  1   
  9   5  24  1   
 10   5  25  1   
 11   6  10  1   
 12   6  26  1   
 13   6  27  1   
 14   7  11  ar  
 15   7  28  1   
 16   8  12  ar  
 17   8  29  1   
 18   9  13  1   
 19   9  14  2   
 20  10  15  1   
 21  10  30  1   
 22  10  31  1   
 23  11  16  ar  
 24  11  17  1   
 25  12  16  ar  
 26  12  18  1   
 27  13  19  1   
 28  13  20  1   
 29  14  21  1   
 30  14  32  1   
 31  15  33  1   
 32  16  22  1   
 33  17  34  1   
 34  17  35  1   
 35  17  36  1   
 36  18  37  1   
 37  18  38  1   
 38  18  39  1   
 39  19  21  2   
 40  19  40  1   
 41  20  41  1   
 42  20  42  1   
 43  20  43  1   
 44  22  23  1   
 45  23  44  1   
 46  23  45  1   
 47  23  46  1   
@<TRIPOS>SUBSTRUCTURE
  1 ****   2 GROUP 4 **** **** 0

# MOE 2024.06 (io_trps.svl 2023.06)
