@<TRIPOS>MOLECULE
NONAME
51 54 1 0 0 
SMALL
USER_CHARGES


@<TRIPOS>ATOM
  1 O        1.1780    -0.4510    -1.2380 O.co2 1 <1>  -0.9000 
  2 C        1.9300    -0.1610    -0.3100 C.2   1 <1>   0.9060 
  3 O        1.6560    -0.4530     0.8650 O.co2 1 <1>  -0.9000 
  4 C        3.2720     0.5240    -0.6310 C.3   1 <1>  -0.1060 
  5 C        3.9930     0.9340     0.6680 C.3   1 <1>   0.4230 
  6 C        2.9870     1.7830    -1.5080 C.3   1 <1>  -0.1600 
  7 C        4.2050    -0.4700    -1.3610 C.3   1 <1>  -0.1600 
  8 N        4.1780    -0.2500     1.5700 N.4   1 <1>  -0.9590 
  9 C        3.3010     2.1750     1.2590 C.3   1 <1>   0.1400 
 10 C        3.7540     3.0480    -1.0960 C.3   1 <1>   0.1400 
 11 C        4.5250    -1.6750    -0.4550 C.3   1 <1>  -0.1600 
 12 C        5.0490    -1.2740     0.9310 C.3   1 <1>   0.3430 
 13 C        4.5870     0.0660     2.9630 C.3   1 <1>   0.2630 
 14 N        3.5930     3.3500     0.3680 N.am  1 <1>  -0.6600 
 15 C        3.8810     4.5750     0.9250 C.2   1 <1>   0.5690 
 16 O        3.7930     4.7530     2.1180 O.2   1 <1>  -0.5700 
 17 C        4.3310     5.7640     0.0890 C.3   1 <1>   0.1570 
 18 N        5.5860     5.4810    -0.6420 N.pl3 1 <1>   0.0480 
 19 C        6.7520     4.9610    -0.1230 C.ar  1 <1>  -0.1520 
 20 C        5.7490     5.5890    -1.9970 C.2   1 <1>  -0.3020 
 21 C        7.6370     4.7350    -1.1730 C.ar  1 <1>   0.0000 
 22 C        7.1270     4.6660     1.1930 C.ar  1 <1>  -0.1500 
 23 C        6.9780     5.1450    -2.3490 C.2   1 <1>  -0.1500 
 24 C        8.9030     4.2000    -0.9170 C.ar  1 <1>  -0.1500 
 25 C        8.3750     4.1400     1.4330 C.ar  1 <1>  -0.1500 
 26 C        9.2640     3.9050     0.3770 C.ar  1 <1>  -0.1500 
 27 H        4.9800     1.2670     0.3960 H     1 <1>   0.0800 
 28 H        1.9390     2.0270    -1.4510 H     1 <1>   0.0800 
 29 H        3.1800     1.5650    -2.5440 H     1 <1>   0.0800 
 30 H        3.7220    -0.8220    -2.2590 H     1 <1>   0.0800 
 31 H        5.1180     0.0240    -1.6470 H     1 <1>   0.0800 
 32 H        3.1940    -0.6360     1.5890 H     1 <1>   0.4500 
 33 H        3.6740     2.3760     2.2440 H     1 <1>   0.0800 
 34 H        2.2360     2.0260     1.3180 H     1 <1>   0.0800 
 35 H        3.3960     3.8760    -1.6830 H     1 <1>   0.0800 
 36 H        4.8010     2.9120    -1.3130 H     1 <1>   0.0800 
 37 H        5.2530    -2.3010    -0.9390 H     1 <1>   0.0800 
 38 H        3.6370    -2.2710    -0.3270 H     1 <1>   0.0800 
 39 H        6.0450    -0.8760     0.8290 H     1 <1>   0.0800 
 40 H        5.0970    -2.1510     1.5560 H     1 <1>   0.0800 
 41 H        5.5340     0.5810     2.9680 H     1 <1>   0.0800 
 42 H        4.6780    -0.8420     3.5360 H     1 <1>   0.0800 
 43 H        3.8460     0.6890     3.4350 H     1 <1>   0.0800 
 44 H        4.4990     6.6060     0.7340 H     1 <1>   0.0800 
 45 H        3.5590     6.0180    -0.6110 H     1 <1>   0.0800 
 46 H        4.9780     5.9780    -2.6390 H     1 <1>   0.1500 
 47 H        6.4490     4.8560     2.0070 H     1 <1>   0.1500 
 48 H        7.4160     5.0990    -3.3310 H     1 <1>   0.1500 
 49 H        9.5780     4.0330    -1.7370 H     1 <1>   0.1500 
 50 H        8.6850     3.9120     2.4380 H     1 <1>   0.1500 
 51 H       10.2370     3.4980     0.5900 H     1 <1>   0.1500 
@<TRIPOS>BOND
  1   1   2  ar  
  2   2   3  ar  
  3   2   4  1   
  4   4   5  1   
  5   4   6  1   
  6   4   7  1   
  7   5   8  1   
  8   5   9  1   
  9   5  27  1   
 10   6  10  1   
 11   6  28  1   
 12   6  29  1   
 13   7  11  1   
 14   7  30  1   
 15   7  31  1   
 16   8  12  1   
 17   8  13  1   
 18   8  32  1   
 19   9  14  1   
 20   9  33  1   
 21   9  34  1   
 22  10  14  1   
 23  10  35  1   
 24  10  36  1   
 25  11  12  1   
 26  11  37  1   
 27  11  38  1   
 28  12  39  1   
 29  12  40  1   
 30  13  41  1   
 31  13  42  1   
 32  13  43  1   
 33  14  15  am  
 34  15  16  2   
 35  15  17  1   
 36  17  18  1   
 37  17  44  1   
 38  17  45  1   
 39  18  19  1   
 40  18  20  1   
 41  19  21  ar  
 42  19  22  ar  
 43  20  23  2   
 44  20  46  1   
 45  21  23  1   
 46  21  24  ar  
 47  22  25  ar  
 48  22  47  1   
 49  23  48  1   
 50  24  26  ar  
 51  24  49  1   
 52  25  26  ar  
 53  25  50  1   
 54  26  51  1   
@<TRIPOS>SUBSTRUCTURE
  1 ****  14 GROUP 4 **** **** 0

# MOE 2024.06 (io_trps.svl 2023.06)
