@<TRIPOS>MOLECULE
NONAME
21 22 1 0 0 
SMALL
USER_CHARGES


@<TRIPOS>ATOM
  1 O       -4.7480    -7.6810     0.2840 O.co2 1 <1>  -0.9000 
  2 C       -5.6550    -6.8400     0.0720 C.2   1 <1>   1.0330 
  3 O       -6.8200    -7.2630    -0.0200 O.co2 1 <1>  -0.9000 
  4 C       -5.2720    -5.4190    -0.0680 C.2   1 <1>   0.0560 
  5 N       -6.0230    -4.3390    -0.2590 N.2   1 <1>  -0.7070 
  6 C       -3.9290    -5.0180    -0.0080 C.2   1 <1>  -0.1810 
  7 N       -5.1880    -3.2930    -0.3110 N.pl3 1 <1>   0.3000 
  8 C       -3.9070    -3.6840    -0.1570 C.2   1 <1>  -0.3320 
  9 C       -2.7200    -5.9030     0.1900 C.3   1 <1>   0.5240 
 10 C       -2.6340    -2.8630    -0.1420 C.3   1 <1>   0.0200 
 11 N       -1.5250    -5.1290    -0.2620 N.4   1 <1>  -0.9060 
 12 C       -1.4640    -3.7510     0.3370 C.3   1 <1>   0.3430 
 13 H       -5.5360    -2.3370    -0.4500 H     1 <1>   0.2700 
 14 H       -2.8270    -6.8040    -0.3950 H     1 <1>   0.0800 
 15 H       -2.6430    -6.1790     1.2290 H     1 <1>   0.0800 
 16 H       -2.7390    -2.0230     0.5230 H     1 <1>   0.0800 
 17 H       -2.4320    -2.4880    -1.1300 H     1 <1>   0.0800 
 18 H       -1.6390    -5.0450    -1.2770 H     1 <1>   0.4500 
 19 H       -0.6860    -5.6800    -0.0670 H     1 <1>   0.4500 
 20 H       -1.5160    -3.8360     1.4110 H     1 <1>   0.0800 
 21 H       -0.5300    -3.2760     0.0830 H     1 <1>   0.0800 
@<TRIPOS>BOND
  1   1   2  ar  
  2   2   3  ar  
  3   2   4  1   
  4   4   5  2   
  5   4   6  1   
  6   5   7  1   
  7   6   8  2   
  8   6   9  1   
  9   7   8  1   
 10   7  13  1   
 11   8  10  1   
 12   9  11  1   
 13   9  14  1   
 14   9  15  1   
 15  10  12  1   
 16  10  16  1   
 17  10  17  1   
 18  11  12  1   
 19  11  18  1   
 20  11  19  1   
 21  12  20  1   
 22  12  21  1   
@<TRIPOS>SUBSTRUCTURE
  1 ****   6 GROUP 4 **** **** 0

# MOE 2024.06 (io_trps.svl 2023.06)
