@<TRIPOS>MOLECULE
NONAME
43 44 1 0 0 
SMALL
USER_CHARGES


@<TRIPOS>ATOM
  1 S        0.1440     0.1760     0.3360 S.o2  1 <1>   1.3330 
  2 O       -0.3160     1.5450     0.2850 O.2   1 <1>  -0.6500 
  3 O        0.0750    -0.5520     1.5840 O.2   1 <1>  -0.6500 
  4 N       -0.7200    -0.7150    -0.8230 N.am  1 <1>  -0.8490 
  5 C        1.8160     0.1360    -0.3120 C.3   1 <1>  -0.0550 
  6 C       -0.6520    -2.1660    -0.6100 C.3   1 <1>   0.1160 
  7 C       -2.1210    -0.2920    -0.9170 C.3   1 <1>   0.1160 
  8 C        2.8350     0.9140     0.5450 C.3   1 <1>  -0.0800 
  9 C        4.1680     1.0410    -0.1740 C.3   1 <1>   0.2890 
 10 C        3.2440     0.1330     1.7940 C.3   1 <1>   0.1200 
 11 N        4.9100     2.2010     0.3750 N.pl3 1 <1>  -0.8690 
 12 C        4.8730    -0.2600     0.2130 C.3   1 <1>   0.1200 
 13 O        4.2730    -0.7190     1.3920 O.3   1 <1>  -0.5600 
 14 C        4.8970     3.4750    -0.1510 C.ar  1 <1>   0.4100 
 15 N        4.2790     3.6520    -1.3050 N.ar  1 <1>  -0.6200 
 16 C        5.5030     4.5520     0.4880 C.ar  1 <1>   0.1900 
 17 C        4.2890     4.8890    -1.7780 C.ar  1 <1>   0.4700 
 18 F        6.1150     4.3650     1.6380 F     1 <1>  -0.1900 
 19 C        5.4550     5.7970    -0.0910 C.ar  1 <1>   0.1670 
 20 N        4.8370     5.9730    -1.2490 N.ar  1 <1>  -0.6200 
 21 C        6.0930     7.0260     0.5450 C.3   1 <1>  -0.0170 
 22 C        7.4530     7.3440    -0.0900 C.3   1 <1>  -0.2400 
 23 H        2.1370    -0.8820    -0.4130 H     1 <1>   0.0800 
 24 H        1.7950     0.5710    -1.2930 H     1 <1>   0.0800 
 25 H       -1.1360    -2.6810    -1.4220 H     1 <1>   0.0800 
 26 H       -1.1380    -2.4340     0.3150 H     1 <1>   0.0800 
 27 H        0.3730    -2.4890    -0.5660 H     1 <1>   0.0800 
 28 H       -2.6350    -0.8660    -1.6690 H     1 <1>   0.0800 
 29 H       -2.1740     0.7480    -1.1930 H     1 <1>   0.0800 
 30 H       -2.6160    -0.4230     0.0310 H     1 <1>   0.0800 
 31 H        2.4310     1.8810     0.7900 H     1 <1>   0.0800 
 32 H        4.0690     1.1320    -1.2420 H     1 <1>   0.0800 
 33 H        2.4510    -0.4520     2.2260 H     1 <1>   0.0800 
 34 H        3.6420     0.7960     2.5420 H     1 <1>   0.0800 
 35 H        5.2950     2.0730     1.3160 H     1 <1>   0.4000 
 36 H        5.9270    -0.1190     0.3770 H     1 <1>   0.0800 
 37 H        4.7190    -1.0120    -0.5400 H     1 <1>   0.0800 
 38 H        3.7840     5.0330    -2.7190 H     1 <1>   0.1500 
 39 H        5.4330     7.8660     0.4140 H     1 <1>   0.0800 
 40 H        6.2200     6.8770     1.6020 H     1 <1>   0.0800 
 41 H        7.3340     7.5260    -1.1440 H     1 <1>   0.0800 
 42 H        8.1290     6.5180     0.0450 H     1 <1>   0.0800 
 43 H        7.8790     8.2200     0.3660 H     1 <1>   0.0800 
@<TRIPOS>BOND
  1   1   2  2   
  2   1   3  2   
  3   1   4  am  
  4   1   5  1   
  5   4   6  1   
  6   4   7  1   
  7   5   8  1   
  8   5  23  1   
  9   5  24  1   
 10   6  25  1   
 11   6  26  1   
 12   6  27  1   
 13   7  28  1   
 14   7  29  1   
 15   7  30  1   
 16   8   9  1   
 17   8  10  1   
 18   8  31  1   
 19   9  11  1   
 20   9  12  1   
 21   9  32  1   
 22  10  13  1   
 23  10  33  1   
 24  10  34  1   
 25  11  14  1   
 26  11  35  1   
 27  12  13  1   
 28  12  36  1   
 29  12  37  1   
 30  14  15  ar  
 31  14  16  ar  
 32  15  17  ar  
 33  16  18  1   
 34  16  19  ar  
 35  17  20  ar  
 36  17  38  1   
 37  19  20  ar  
 38  19  21  1   
 39  21  22  1   
 40  21  39  1   
 41  21  40  1   
 42  22  41  1   
 43  22  42  1   
 44  22  43  1   
@<TRIPOS>SUBSTRUCTURE
  1 ****   8 GROUP 4 **** **** 0

# MOE 2024.06 (io_trps.svl 2023.06)
