@<TRIPOS>MOLECULE
NONAME
58 61 1 0 0 
SMALL
USER_CHARGES


@<TRIPOS>ATOM
  1 O       -0.9430    -0.7850     0.8220 O.3   1 <1>  -0.5600 
  2 C       -2.0410    -1.6510     0.7990 C.3   1 <1>   0.1200 
  3 C        0.2840    -1.4240     1.0080 C.3   1 <1>   0.1200 
  4 C       -1.9060    -2.6600    -0.3530 C.3   1 <1>   0.2090 
  5 C        0.5530    -2.4240    -0.1340 C.3   1 <1>   0.2090 
  6 N       -0.5880    -3.3950    -0.2810 N.pl3 1 <1>  -0.8380 
  7 C       -0.5260    -4.7540    -0.2920 C.ar  1 <1>   0.7710 
  8 N       -1.6410    -5.4560    -0.1700 N.ar  1 <1>  -0.6200 
  9 N        0.6680    -5.3550    -0.4340 N.ar  1 <1>  -0.1790 
 10 C       -1.5740    -6.7730    -0.1940 C.ar  1 <1>   0.4100 
 11 C        0.7990    -6.7020    -0.4420 C.ar  1 <1>   0.2180 
 12 N       -2.7400    -7.4650    -0.0990 N.pl3 1 <1>  -0.8380 
 13 C       -0.3350    -7.4320    -0.3150 C.ar  1 <1>  -0.1500 
 14 C        2.1880    -7.3120    -0.5870 C.3   1 <1>  -0.0170 
 15 C       -4.0130    -6.8590     0.4310 C.3   1 <1>   0.2090 
 16 C       -3.0140    -8.8210    -0.6850 C.3   1 <1>   0.2090 
 17 C        2.8360    -6.9630    -1.9330 C.3   1 <1>  -0.2400 
 18 C       -4.7120    -7.7820     1.4520 C.3   1 <1>   0.2090 
 19 C       -3.6650    -9.7680     0.3450 C.3   1 <1>   0.2090 
 20 N       -4.8980    -9.1830     0.9520 N.pl3 1 <1>  -0.8380 
 21 C       -6.0970    -9.4830     0.3210 C.ar  1 <1>   0.4100 
 22 N       -6.3870    -8.7250    -0.7290 N.ar  1 <1>  -0.6200 
 23 C       -6.9360   -10.5360     0.7540 C.ar  1 <1>   0.1670 
 24 C       -7.5210    -9.0620    -1.3120 C.ar  1 <1>   0.1670 
 25 N       -8.0660   -10.8740     0.1640 N.ar  1 <1>  -0.6200 
 26 C       -6.5620   -11.3700     1.9680 C.3   1 <1>  -0.0970 
 27 C       -8.3330   -10.1040    -0.8790 C.ar  1 <1>   0.1600 
 28 C       -7.9090    -8.2320    -2.5180 C.3   1 <1>  -0.0970 
 29 H       -2.9270    -1.0540     0.6660 H     1 <1>   0.0800 
 30 H       -2.1060    -2.1580     1.7450 H     1 <1>   0.0800 
 31 H        0.2710    -1.9220     1.9620 H     1 <1>   0.0800 
 32 H        1.0460    -0.6640     1.0260 H     1 <1>   0.0800 
 33 H       -1.9620    -2.1260    -1.2860 H     1 <1>   0.0800 
 34 H       -2.7470    -3.3300    -0.3210 H     1 <1>   0.0800 
 35 H        1.4790    -2.9280     0.0730 H     1 <1>   0.0800 
 36 H        0.6710    -1.8700    -1.0510 H     1 <1>   0.0800 
 37 H        1.4590    -4.7420    -0.5710 H     1 <1>   0.4570 
 38 H       -0.3090    -8.5040    -0.2930 H     1 <1>   0.1500 
 39 H        2.1160    -8.3840    -0.5090 H     1 <1>   0.0800 
 40 H        2.8180    -6.9760     0.2180 H     1 <1>   0.0800 
 41 H       -4.6830    -6.6750    -0.3900 H     1 <1>   0.0800 
 42 H       -3.8180    -5.9160     0.9100 H     1 <1>   0.0800 
 43 H       -2.1190    -9.2710    -1.0690 H     1 <1>   0.0800 
 44 H       -3.6930    -8.7070    -1.5120 H     1 <1>   0.0800 
 45 H        2.2150    -7.2930    -2.7490 H     1 <1>   0.0800 
 46 H        3.7880    -7.4610    -2.0180 H     1 <1>   0.0800 
 47 H        3.0050    -5.9050    -2.0310 H     1 <1>   0.0800 
 48 H       -5.6730    -7.3640     1.6990 H     1 <1>   0.0800 
 49 H       -4.1270    -7.8110     2.3530 H     1 <1>   0.0800 
 50 H       -2.9580    -9.9830     1.1260 H     1 <1>   0.0800 
 51 H       -3.9130   -10.6960    -0.1410 H     1 <1>   0.0800 
 52 H       -6.0460   -10.7730     2.6970 H     1 <1>   0.0800 
 53 H       -5.9270   -12.1800     1.6620 H     1 <1>   0.0800 
 54 H       -7.4460   -11.7740     2.4260 H     1 <1>   0.0800 
 55 H       -9.2420   -10.3150    -1.4130 H     1 <1>   0.1500 
 56 H       -7.1400    -8.3020    -3.2650 H     1 <1>   0.0800 
 57 H       -8.0130    -7.2020    -2.2260 H     1 <1>   0.0800 
 58 H       -8.8370    -8.5690    -2.9410 H     1 <1>   0.0800 
@<TRIPOS>BOND
  1   1   2  1   
  2   1   3  1   
  3   2   4  1   
  4   2  29  1   
  5   2  30  1   
  6   3   5  1   
  7   3  31  1   
  8   3  32  1   
  9   4   6  1   
 10   4  33  1   
 11   4  34  1   
 12   5   6  1   
 13   5  35  1   
 14   5  36  1   
 15   6   7  1   
 16   7   8  ar  
 17   7   9  ar  
 18   8  10  ar  
 19   9  11  ar  
 20   9  37  1   
 21  10  12  1   
 22  10  13  ar  
 23  11  13  ar  
 24  11  14  1   
 25  12  15  1   
 26  12  16  1   
 27  13  38  1   
 28  14  17  1   
 29  14  39  1   
 30  14  40  1   
 31  15  18  1   
 32  15  41  1   
 33  15  42  1   
 34  16  19  1   
 35  16  43  1   
 36  16  44  1   
 37  17  45  1   
 38  17  46  1   
 39  17  47  1   
 40  18  20  1   
 41  18  48  1   
 42  18  49  1   
 43  19  20  1   
 44  19  50  1   
 45  19  51  1   
 46  20  21  1   
 47  21  22  ar  
 48  21  23  ar  
 49  22  24  ar  
 50  23  25  ar  
 51  23  26  1   
 52  24  27  ar  
 53  24  28  1   
 54  25  27  ar  
 55  26  52  1   
 56  26  53  1   
 57  26  54  1   
 58  27  55  1   
 59  28  56  1   
 60  28  57  1   
 61  28  58  1   
@<TRIPOS>SUBSTRUCTURE
  1 ****  12 GROUP 4 **** **** 0

# MOE 2024.06 (io_trps.svl 2023.06)
