@<TRIPOS>MOLECULE
NONAME
50 52 1 0 0 
SMALL
USER_CHARGES


@<TRIPOS>ATOM
  1 O       -0.8320    -0.2280     1.1510 O.2   1 <1>  -0.5700 
  2 C       -1.6490     0.5040     0.6490 C.2   1 <1>   0.5690 
  3 N       -2.8990     0.0790     0.3360 N.am  1 <1>  -0.7300 
  4 C       -1.2650     1.9530     0.3580 C.3   1 <1>  -0.0190 
  5 C       -3.4030    -1.2970     0.5250 C.3   1 <1>   0.2350 
  6 C       -2.1940     2.9510     1.0770 C.3   1 <1>  -0.1600 
  7 C       -1.2000     2.2380    -1.1630 C.3   1 <1>  -0.1600 
  8 C       -3.9040    -1.9110    -0.8030 C.3   1 <1>  -0.1900 
  9 C       -1.7200     4.4100     0.9130 C.3   1 <1>   0.2000 
 10 C       -1.3430     3.7310    -1.5210 C.3   1 <1>  -0.1600 
 11 C       -3.2230    -1.5650    -2.0950 C.3   1 <1>  -0.2000 
 12 C       -4.6210    -1.0750    -1.8220 C.3   1 <1>  -0.2000 
 13 C       -4.3210    -3.3860    -0.6240 C.3   1 <1>   0.1910 
 14 O       -2.8600     5.2320     0.8690 O.3   1 <1>  -0.5600 
 15 C       -0.8810     4.6330    -0.3740 C.3   1 <1>   0.2000 
 16 N       -5.2700    -3.5730     0.4980 N.pl3 1 <1>   0.0480 
 17 C       -3.4020     5.5570     2.1120 C.3   1 <1>   0.0400 
 18 O       -1.0160     5.9440    -0.7810 O.3   1 <1>  -0.6800 
 19 C       -6.6080    -3.3510     0.5530 C.2   1 <1>   0.0060 
 20 C       -4.9500    -4.0210     1.7270 C.2   1 <1>  -0.3020 
 21 N       -7.1310    -3.6180     1.7040 N.2   1 <1>  -0.5650 
 22 C       -7.4340    -2.8360    -0.6070 C.3   1 <1>  -0.0600 
 23 C       -6.0920    -4.0410     2.4450 C.2   1 <1>   0.0770 
 24 H       -3.5520     0.7190    -0.1130 H     1 <1>   0.3700 
 25 H       -0.2760     2.0930     0.7590 H     1 <1>   0.0800 
 26 H       -2.6200    -1.9140     0.9330 H     1 <1>   0.0800 
 27 H       -4.2070    -1.2660     1.2410 H     1 <1>   0.0800 
 28 H       -2.2330     2.7090     2.1240 H     1 <1>   0.0800 
 29 H       -3.1850     2.8540     0.6700 H     1 <1>   0.0800 
 30 H       -0.2570     1.8710    -1.5320 H     1 <1>   0.0800 
 31 H       -1.9720     1.6960    -1.6800 H     1 <1>   0.0800 
 32 H       -1.1120     4.7010     1.7530 H     1 <1>   0.0800 
 33 H       -2.3780     3.9450    -1.7240 H     1 <1>   0.0800 
 34 H       -0.7730     3.9460    -2.4080 H     1 <1>   0.0800 
 35 H       -2.4130    -0.8560    -2.0970 H     1 <1>   0.1000 
 36 H       -3.0870    -2.3260    -2.8440 H     1 <1>   0.1000 
 37 H       -5.4170    -1.5000    -2.4090 H     1 <1>   0.1000 
 38 H       -4.7680    -0.0230    -1.6520 H     1 <1>   0.1000 
 39 H       -3.4470    -3.9790    -0.4260 H     1 <1>   0.0800 
 40 H       -4.7740    -3.7590    -1.5240 H     1 <1>   0.0800 
 41 H        0.1630     4.4540    -0.1770 H     1 <1>   0.0800 
 42 H       -4.2590     6.1860     1.9480 H     1 <1>   0.0800 
 43 H       -2.6690     6.0900     2.6910 H     1 <1>   0.0800 
 44 H       -3.7070     4.6580     2.6190 H     1 <1>   0.0800 
 45 H       -1.9170     6.2200    -0.4980 H     1 <1>   0.4000 
 46 H       -3.9540    -4.2960     2.0230 H     1 <1>   0.1500 
 47 H       -8.4800    -2.9530    -0.3840 H     1 <1>   0.0800 
 48 H       -7.2130    -3.3870    -1.5020 H     1 <1>   0.0800 
 49 H       -7.2350    -1.7930    -0.7620 H     1 <1>   0.0800 
 50 H       -6.2250    -4.3420     3.4710 H     1 <1>   0.1500 
@<TRIPOS>BOND
  1   1   2  2   
  2   2   3  am  
  3   2   4  1   
  4   3   5  1   
  5   3  24  1   
  6   4   6  1   
  7   4   7  1   
  8   4  25  1   
  9   5   8  1   
 10   5  26  1   
 11   5  27  1   
 12   6   9  1   
 13   6  28  1   
 14   6  29  1   
 15   7  10  1   
 16   7  30  1   
 17   7  31  1   
 18   8  11  1   
 19   8  12  1   
 20   8  13  1   
 21   9  14  1   
 22   9  15  1   
 23   9  32  1   
 24  10  15  1   
 25  10  33  1   
 26  10  34  1   
 27  11  12  1   
 28  11  35  1   
 29  11  36  1   
 30  12  37  1   
 31  12  38  1   
 32  13  16  1   
 33  13  39  1   
 34  13  40  1   
 35  14  17  1   
 36  15  18  1   
 37  15  41  1   
 38  16  19  1   
 39  16  20  1   
 40  17  42  1   
 41  17  43  1   
 42  17  44  1   
 43  18  45  1   
 44  19  21  2   
 45  19  22  1   
 46  20  23  2   
 47  20  46  1   
 48  21  23  1   
 49  22  47  1   
 50  22  48  1   
 51  22  49  1   
 52  23  50  1   
@<TRIPOS>SUBSTRUCTURE
  1 ****   3 GROUP 4 **** **** 0

# MOE 2024.06 (io_trps.svl 2023.06)
