@<TRIPOS>MOLECULE
NONAME
29 28 1 0 0 
SMALL
USER_CHARGES


@<TRIPOS>ATOM
  1 N       -3.9530     0.4500    -0.0010 N.4   1 <1>  -0.8530 
  2 C       -5.1560    -0.4120     0.0020 C.3   1 <1>   0.3430 
  3 C       -6.4020     0.4710    -0.0010 C.3   1 <1>  -0.1600 
  4 C       -7.6750    -0.3860     0.0020 C.3   1 <1>  -0.1600 
  5 C       -8.9310     0.4930    -0.0010 C.3   1 <1>  -0.1600 
  6 C      -10.2030    -0.3640     0.0020 C.3   1 <1>  -0.1600 
  7 C      -11.4600     0.5140    -0.0010 C.3   1 <1>  -0.1600 
  8 C      -12.7320    -0.3430     0.0010 C.3   1 <1>  -0.1600 
  9 C      -13.9870     0.5350    -0.0020 C.3   1 <1>  -0.2400 
 10 H       -3.0950    -0.1130     0.0010 H     1 <1>   0.4500 
 11 H       -3.9400     1.0560     0.8270 H     1 <1>   0.4500 
 12 H       -3.9400     1.0500    -0.8330 H     1 <1>   0.4500 
 13 H       -5.1610    -1.0400     0.8800 H     1 <1>   0.0800 
 14 H       -5.1610    -1.0470    -0.8710 H     1 <1>   0.0800 
 15 H       -6.4080     1.0940    -0.8790 H     1 <1>   0.0800 
 16 H       -6.4080     1.1000     0.8730 H     1 <1>   0.0800 
 17 H       -7.6910    -1.0160     0.8770 H     1 <1>   0.0800 
 18 H       -7.6910    -1.0230    -0.8680 H     1 <1>   0.0800 
 19 H       -8.9330     1.1220    -0.8750 H     1 <1>   0.0800 
 20 H       -8.9330     1.1290     0.8690 H     1 <1>   0.0800 
 21 H      -10.2130    -0.9930     0.8760 H     1 <1>   0.0800 
 22 H      -10.2130    -0.9990    -0.8670 H     1 <1>   0.0800 
 23 H      -11.4580     1.1430    -0.8750 H     1 <1>   0.0800 
 24 H      -11.4580     1.1500     0.8680 H     1 <1>   0.0800 
 25 H      -12.7430    -0.9720     0.8750 H     1 <1>   0.0800 
 26 H      -12.7420    -0.9780    -0.8680 H     1 <1>   0.0800 
 27 H      -14.0080     1.1640     0.8710 H     1 <1>   0.0800 
 28 H      -14.8670    -0.0830     0.0000 H     1 <1>   0.0800 
 29 H      -14.0080     1.1570    -0.8790 H     1 <1>   0.0800 
@<TRIPOS>BOND
  1   1   2  1   
  2   1  10  1   
  3   1  11  1   
  4   1  12  1   
  5   2   3  1   
  6   2  13  1   
  7   2  14  1   
  8   3   4  1   
  9   3  15  1   
 10   3  16  1   
 11   4   5  1   
 12   4  17  1   
 13   4  18  1   
 14   5   6  1   
 15   5  19  1   
 16   5  20  1   
 17   6   7  1   
 18   6  21  1   
 19   6  22  1   
 20   7   8  1   
 21   7  23  1   
 22   7  24  1   
 23   8   9  1   
 24   8  25  1   
 25   8  26  1   
 26   9  27  1   
 27   9  28  1   
 28   9  29  1   
@<TRIPOS>SUBSTRUCTURE
  1 ****   5 GROUP 4 **** **** 0

# MOE 2024.06 (io_trps.svl 2023.06)
