@<TRIPOS>MOLECULE
NONAME
40 43 1 0 0 
SMALL
USER_CHARGES


@<TRIPOS>ATOM
  1 S       -1.2660     0.7550    -0.8450 S.3   1 <1>  -0.0800 
  2 C       -0.6570     2.2290    -0.1220 C.2   1 <1>  -0.1400 
  3 C        0.3180     0.4100    -1.5220 C.2   1 <1>  -0.1100 
  4 C        0.6450     2.4120    -0.3770 C.2   1 <1>  -0.1810 
  5 C       -1.5270     3.1610     0.6780 C.3   1 <1>   0.0200 
  6 C        1.2060     1.3690    -1.1890 C.2   1 <1>  -0.1500 
  7 C        1.3930     3.6320     0.1720 C.3   1 <1>   0.4610 
  8 C       -0.7880     4.5060     0.7660 C.3   1 <1>   0.1200 
  9 O        0.5670     4.3140     1.0970 O.3   1 <1>  -0.5600 
 10 C        1.7780     4.6100    -0.9630 C.3   1 <1>  -0.1600 
 11 C        2.6100     3.1720     0.9860 C.3   1 <1>  -0.1600 
 12 C        3.2850     4.8530    -1.0600 C.3   1 <1>   0.1400 
 13 C        3.4760     4.3590     1.4200 C.3   1 <1>   0.1400 
 14 N        3.8000     5.2630     0.2750 N.am  1 <1>  -0.6600 
 15 C        4.4460     6.4640     0.5230 C.2   1 <1>   0.7160 
 16 O        5.0670     6.5590     1.5700 O.2   1 <1>  -0.5700 
 17 C        4.4330     7.6010    -0.3940 C.2   1 <1>   0.1410 
 18 N        3.3680     7.9730    -1.1770 N.2   1 <1>  -0.5650 
 19 C        5.4230     8.5010    -0.6210 C.2   1 <1>  -0.0400 
 20 C        3.7830     9.0210    -1.7830 C.2   1 <1>   0.3280 
 21 O        5.0070     9.3740    -1.4870 O.3   1 <1>  -0.2800 
 22 C        6.8290     8.6470    -0.0700 C.3   1 <1>  -0.0600 
 23 H        0.4180    -0.4870    -2.1060 H     1 <1>   0.1500 
 24 H       -1.6900     2.7590     1.6610 H     1 <1>   0.0800 
 25 H       -2.4780     3.2980     0.1950 H     1 <1>   0.0800 
 26 H        2.2390     1.3840    -1.4860 H     1 <1>   0.1500 
 27 H       -1.2280     5.1260     1.5260 H     1 <1>   0.0800 
 28 H       -0.8390     5.0230    -0.1760 H     1 <1>   0.0800 
 29 H        1.3030     5.5620    -0.8130 H     1 <1>   0.0800 
 30 H        1.4380     4.2240    -1.9060 H     1 <1>   0.0800 
 31 H        3.2150     2.5000     0.4070 H     1 <1>   0.0800 
 32 H        2.2730     2.6300     1.8500 H     1 <1>   0.0800 
 33 H        3.4940     5.5910    -1.8110 H     1 <1>   0.0800 
 34 H        3.7830     3.9470    -1.3610 H     1 <1>   0.0800 
 35 H        4.3910     4.0030     1.8630 H     1 <1>   0.0800 
 36 H        2.9460     4.9300     2.1640 H     1 <1>   0.0800 
 37 H        3.2320     9.6160    -2.4910 H     1 <1>   0.1500 
 38 H        7.0680     7.8410     0.5980 H     1 <1>   0.0800 
 39 H        6.9110     9.5750     0.4660 H     1 <1>   0.0800 
 40 H        7.5370     8.6480    -0.8780 H     1 <1>   0.0800 
@<TRIPOS>BOND
  1   1   2  1   
  2   1   3  1   
  3   2   4  2   
  4   2   5  1   
  5   3   6  2   
  6   3  23  1   
  7   4   6  1   
  8   4   7  1   
  9   5   8  1   
 10   5  24  1   
 11   5  25  1   
 12   6  26  1   
 13   7   9  1   
 14   7  10  1   
 15   7  11  1   
 16   8   9  1   
 17   8  27  1   
 18   8  28  1   
 19  10  12  1   
 20  10  29  1   
 21  10  30  1   
 22  11  13  1   
 23  11  31  1   
 24  11  32  1   
 25  12  14  1   
 26  12  33  1   
 27  12  34  1   
 28  13  14  1   
 29  13  35  1   
 30  13  36  1   
 31  14  15  am  
 32  15  16  2   
 33  15  17  1   
 34  17  18  1   
 35  17  19  2   
 36  18  20  2   
 37  19  21  1   
 38  19  22  1   
 39  20  21  1   
 40  20  37  1   
 41  22  38  1   
 42  22  39  1   
 43  22  40  1   
@<TRIPOS>SUBSTRUCTURE
  1 ****  10 GROUP 4 **** **** 0

# MOE 2024.06 (io_trps.svl 2023.06)
