@<TRIPOS>MOLECULE
NONAME
55 57 1 0 0 
SMALL
USER_CHARGES


@<TRIPOS>ATOM
  1 O        0.5660     0.1070    -1.9730 O.3   1 <1>  -0.3630 
  2 C        0.8520    -0.8890    -1.1020 C.ar  1 <1>   0.0830 
  3 C        1.4900     0.3590    -3.0060 C.3   1 <1>   0.1200 
  4 C        1.1200    -0.5820     0.2320 C.ar  1 <1>   0.0830 
  5 C        0.8640    -2.2030    -1.5390 C.ar  1 <1>  -0.1500 
  6 C        1.8200     1.8540    -2.9740 C.3   1 <1>   0.3430 
  7 O        1.1240     0.7330     0.5950 O.3   1 <1>  -0.3630 
  8 C        1.3980    -1.6180     1.1180 C.ar  1 <1>  -0.1500 
  9 C        1.1510    -3.2210    -0.6480 C.ar  1 <1>  -0.1500 
 10 N        2.2300     2.2760    -1.5960 N.4   1 <1>  -0.8520 
 11 C        1.2230     1.1050     1.9560 C.3   1 <1>   0.0400 
 12 C        1.4200    -2.9330     0.6800 C.ar  1 <1>  -0.1430 
 13 C        1.5700     3.4900    -1.0580 C.3   1 <1>   0.2960 
 14 C        3.7080     2.3670    -1.4680 C.3   1 <1>   0.5240 
 15 C        1.7300    -4.0550     1.6570 C.3   1 <1>  -0.0970 
 16 C        0.1280     3.7550    -1.3240 C.3   1 <1>  -0.2000 
 17 C        1.1850     4.6190    -1.9550 C.3   1 <1>  -0.2000 
 18 C        4.1120     2.3980    -0.0100 C.2   1 <1>  -0.1810 
 19 C        4.4240     1.2810     0.7600 C.2   1 <1>   0.1080 
 20 C        4.2840     3.4520     0.8240 C.2   1 <1>  -0.3320 
 21 N        4.7250     1.6020     1.9740 N.2   1 <1>  -0.7070 
 22 C        4.4640    -0.1640     0.3100 C.3   1 <1>  -0.0590 
 23 N        4.6480     2.9390     2.0220 N.pl3 1 <1>   0.3140 
 24 C        4.1530     4.9470     0.5650 C.3   1 <1>  -0.0600 
 25 C        4.9680     3.6690     3.2560 C.3   1 <1>   0.0160 
 26 H        1.0310     0.0860    -3.9400 H     1 <1>   0.0800 
 27 H        2.3760    -0.2340    -2.8560 H     1 <1>   0.0800 
 28 H        0.6380    -2.4340    -2.5640 H     1 <1>   0.1500 
 29 H        0.9380     2.3890    -3.2800 H     1 <1>   0.0800 
 30 H        2.5980     2.0770    -3.6840 H     1 <1>   0.0800 
 31 H        1.6060    -1.4220     2.1530 H     1 <1>   0.1500 
 32 H        1.1570    -4.2420    -0.9920 H     1 <1>   0.1500 
 33 H        1.9130     1.5220    -0.9500 H     1 <1>   0.4500 
 34 H        1.1740     2.1760     2.0200 H     1 <1>   0.0800 
 35 H        2.1640     0.7640     2.3510 H     1 <1>   0.0800 
 36 H        0.4020     0.6680     2.4980 H     1 <1>   0.0800 
 37 H        1.9060     3.7190    -0.0580 H     1 <1>   0.1000 
 38 H        4.0610     3.2610    -1.9550 H     1 <1>   0.0800 
 39 H        4.1730     1.5180    -1.9380 H     1 <1>   0.0800 
 40 H        2.4370    -3.7250     2.3970 H     1 <1>   0.0800 
 41 H        2.1490    -4.9010     1.1420 H     1 <1>   0.0800 
 42 H        0.8280    -4.3640     2.1530 H     1 <1>   0.0800 
 43 H       -0.4650     4.1820    -0.5340 H     1 <1>   0.1000 
 44 H       -0.4420     3.0680    -1.9240 H     1 <1>   0.1000 
 45 H        1.3210     4.5610    -3.0200 H     1 <1>   0.1000 
 46 H        1.2830     5.6270    -1.5900 H     1 <1>   0.1000 
 47 H        3.8240    -0.3350    -0.5320 H     1 <1>   0.0800 
 48 H        4.1480    -0.7990     1.1180 H     1 <1>   0.0800 
 49 H        5.4730    -0.4280     0.0510 H     1 <1>   0.0800 
 50 H        3.9380     5.1440    -0.4690 H     1 <1>   0.0800 
 51 H        5.0750     5.4450     0.8120 H     1 <1>   0.0800 
 52 H        3.3660     5.3630     1.1680 H     1 <1>   0.0800 
 53 H        4.1360     4.2880     3.5310 H     1 <1>   0.0800 
 54 H        5.8410     4.2730     3.0920 H     1 <1>   0.0800 
 55 H        5.1660     2.9630     4.0420 H     1 <1>   0.0800 
@<TRIPOS>BOND
  1   1   2  1   
  2   1   3  1   
  3   2   4  ar  
  4   2   5  ar  
  5   3   6  1   
  6   3  26  1   
  7   3  27  1   
  8   4   7  1   
  9   4   8  ar  
 10   5   9  ar  
 11   5  28  1   
 12   6  10  1   
 13   6  29  1   
 14   6  30  1   
 15   7  11  1   
 16   8  12  ar  
 17   8  31  1   
 18   9  12  ar  
 19   9  32  1   
 20  10  13  1   
 21  10  14  1   
 22  10  33  1   
 23  11  34  1   
 24  11  35  1   
 25  11  36  1   
 26  12  15  1   
 27  13  16  1   
 28  13  17  1   
 29  13  37  1   
 30  14  18  1   
 31  14  38  1   
 32  14  39  1   
 33  15  40  1   
 34  15  41  1   
 35  15  42  1   
 36  16  17  1   
 37  16  43  1   
 38  16  44  1   
 39  17  45  1   
 40  17  46  1   
 41  18  19  1   
 42  18  20  2   
 43  19  21  2   
 44  19  22  1   
 45  20  23  1   
 46  20  24  1   
 47  21  23  1   
 48  22  47  1   
 49  22  48  1   
 50  22  49  1   
 51  23  25  1   
 52  24  50  1   
 53  24  51  1   
 54  24  52  1   
 55  25  53  1   
 56  25  54  1   
 57  25  55  1   
@<TRIPOS>SUBSTRUCTURE
  1 ****   7 GROUP 4 **** **** 0

# MOE 2024.06 (io_trps.svl 2023.06)
