@<TRIPOS>MOLECULE
NONAME
49 52 1 0 0 
SMALL
USER_CHARGES


@<TRIPOS>ATOM
  1 O       -1.9760     0.9890    -1.5560 O.2   1 <1>  -0.5700 
  2 C       -1.8460     0.8160    -0.3700 C.2   1 <1>   0.5690 
  3 N       -1.8170    -0.4270     0.1670 N.am  1 <1>  -0.7300 
  4 C       -1.7010     2.0280     0.5260 C.3   1 <1>   0.0690 
  5 C       -1.9020    -1.6940    -0.6020 C.3   1 <1>   0.2200 
  6 C       -0.5600     2.9340     0.0800 C.2   1 <1>   0.1820 
  7 C       -3.2510    -2.3750    -0.3970 C.3   1 <1>  -0.0800 
  8 C       -0.9820    -2.7110     0.0560 C.3   1 <1>   0.1200 
  9 N       -0.1730     4.0470     0.8090 N.pl3 1 <1>  -0.6290 
 10 C        0.2360     2.8570    -1.0090 C.2   1 <1>   0.2000 
 11 C       -3.0510    -3.1590     0.9070 C.3   1 <1>   0.1200 
 12 C       -4.4830    -1.4510    -0.4020 C.3   1 <1>  -0.0170 
 13 O       -1.6820    -3.1180     1.1900 O.3   1 <1>  -0.5600 
 14 C        0.8580     4.6240     0.1410 C.cat 1 <1>   0.7910 
 15 C       -0.6340     4.6090     1.9800 C.2   1 <1>   0.2290 
 16 N        1.1150     3.9050    -0.9620 N.pl3 1 <1>  -0.7000 
 17 C       -5.7660    -2.2590    -0.2960 C.ar  1 <1>  -0.1440 
 18 C        1.4830     5.7940     0.6270 C.2   1 <1>  -0.1290 
 19 C       -0.0500     5.7400     2.4720 C.2   1 <1>  -0.1500 
 20 C       -6.3320    -2.8680    -1.3980 C.ar  1 <1>  -0.1500 
 21 C       -6.4320    -2.4300     0.9020 C.ar  1 <1>  -0.1500 
 22 C        1.0250     6.3470     1.7940 C.2   1 <1>  -0.1500 
 23 C        2.6430     6.4270    -0.1340 C.3   1 <1>  -0.1020 
 24 C       -7.4980    -3.6000    -1.2530 C.ar  1 <1>   0.1600 
 25 C       -7.5940    -3.1830     0.9380 C.ar  1 <1>   0.1600 
 26 N       -8.1420    -3.7750    -0.1100 N.ar  1 <1>  -0.6200 
 27 H       -1.7360    -0.5950     1.1760 H     1 <1>   0.3700 
 28 H       -2.6220     2.5800     0.4990 H     1 <1>   0.0800 
 29 H       -1.5250     1.7060     1.5350 H     1 <1>   0.0800 
 30 H       -1.6670    -1.5340    -1.6420 H     1 <1>   0.0800 
 31 H       -3.3750    -3.0960    -1.1860 H     1 <1>   0.0800 
 32 H       -0.0310    -2.2990     0.3420 H     1 <1>   0.0800 
 33 H       -0.8380    -3.5710    -0.5750 H     1 <1>   0.0800 
 34 H        0.2320     2.1320    -1.8100 H     1 <1>   0.1500 
 35 H       -3.3550    -4.1870     0.8010 H     1 <1>   0.0800 
 36 H       -3.5710    -2.7100     1.7350 H     1 <1>   0.0800 
 37 H       -4.4980    -0.8800    -1.3150 H     1 <1>   0.0800 
 38 H       -4.4360    -0.7540     0.4150 H     1 <1>   0.0800 
 39 H       -1.4600     4.1370     2.4890 H     1 <1>   0.1500 
 40 H        1.8380     4.1260    -1.6490 H     1 <1>   0.4500 
 41 H       -0.4000     6.1880     3.3870 H     1 <1>   0.1500 
 42 H       -5.8780    -2.7800    -2.3680 H     1 <1>   0.1500 
 43 H       -6.0630    -1.9850     1.8080 H     1 <1>   0.1500 
 44 H        1.4630     7.2400     2.2120 H     1 <1>   0.1500 
 45 H        3.4640     5.7350    -0.2120 H     1 <1>   0.0800 
 46 H        2.9970     7.3080     0.3720 H     1 <1>   0.0800 
 47 H        2.3310     6.7140    -1.1230 H     1 <1>   0.0800 
 48 H       -7.9250    -4.0670    -2.1240 H     1 <1>   0.1500 
 49 H       -8.1000    -3.3060     1.8810 H     1 <1>   0.1500 
@<TRIPOS>BOND
  1   1   2  2   
  2   2   3  am  
  3   2   4  1   
  4   3   5  1   
  5   3  27  1   
  6   4   6  1   
  7   4  28  1   
  8   4  29  1   
  9   5   7  1   
 10   5   8  1   
 11   5  30  1   
 12   6   9  1   
 13   6  10  2   
 14   7  11  1   
 15   7  12  1   
 16   7  31  1   
 17   8  13  1   
 18   8  32  1   
 19   8  33  1   
 20   9  14  ar  
 21   9  15  1   
 22  10  16  1   
 23  10  34  1   
 24  11  13  1   
 25  11  35  1   
 26  11  36  1   
 27  12  17  1   
 28  12  37  1   
 29  12  38  1   
 30  14  16  ar  
 31  14  18  1   
 32  15  19  2   
 33  15  39  1   
 34  16  40  1   
 35  17  20  ar  
 36  17  21  ar  
 37  18  22  2   
 38  18  23  1   
 39  19  22  1   
 40  19  41  1   
 41  20  24  ar  
 42  20  42  1   
 43  21  25  ar  
 44  21  43  1   
 45  22  44  1   
 46  23  45  1   
 47  23  46  1   
 48  23  47  1   
 49  24  26  ar  
 50  24  48  1   
 51  25  26  ar  
 52  25  49  1   
@<TRIPOS>SUBSTRUCTURE
  1 ****   2 GROUP 4 **** **** 0

# MOE 2024.06 (io_trps.svl 2023.06)
