@<TRIPOS>MOLECULE
NONAME
55 57 1 0 0 
SMALL
USER_CHARGES


@<TRIPOS>ATOM
  1 N        0.2540    -0.2940    -0.2800 N.ar  1 <1>  -0.6200 
  2 C        1.2760     0.5120    -0.0270 C.ar  1 <1>   0.7710 
  3 C        0.4890    -1.5840    -0.3410 C.ar  1 <1>   0.4100 
  4 N        2.5200     0.0420     0.1680 N.ar  1 <1>  -0.1790 
  5 N        1.0660     1.8490     0.0390 N.pl3 1 <1>  -0.8380 
  6 N       -0.5930    -2.3340    -0.6020 N.pl3 1 <1>  -0.8690 
  7 C        1.7760    -2.1210    -0.1540 C.ar  1 <1>  -0.1500 
  8 C        2.8060    -1.2800     0.1060 C.ar  1 <1>   0.2170 
  9 C        2.0600     2.9400     0.2400 C.3   1 <1>   0.2090 
 10 C       -0.2960     2.4300    -0.1340 C.3   1 <1>   0.2090 
 11 C       -0.7570    -3.8090    -0.6820 C.3   1 <1>   0.2090 
 12 C        4.2420    -1.7410     0.3270 C.3   1 <1>  -0.0170 
 13 C        1.3140     4.2210    -0.1040 C.3   1 <1>  -0.1600 
 14 C       -0.1460     3.9080     0.1970 C.3   1 <1>  -0.1600 
 15 C       -2.1050    -4.2140    -0.0670 C.3   1 <1>   0.1100 
 16 C        5.1950    -1.2000    -0.7470 C.3   1 <1>  -0.2400 
 17 N       -2.3490    -5.6720    -0.1580 N.3   1 <1>  -0.8100 
 18 C       -1.5790    -6.4400     0.8570 C.3   1 <1>   0.1100 
 19 C       -3.7980    -5.9660    -0.0210 C.3   1 <1>   0.1100 
 20 C       -1.8910    -7.9590     0.8280 C.3   1 <1>   0.3430 
 21 C       -4.1170    -7.4800    -0.1140 C.3   1 <1>   0.3430 
 22 N       -2.8670    -8.2960    -0.2610 N.4   1 <1>  -0.9590 
 23 C       -3.1280    -9.7590    -0.3930 C.3   1 <1>   0.2630 
 24 H        3.2260     0.7390     0.3590 H     1 <1>   0.4570 
 25 H       -1.4410    -1.7980    -0.8180 H     1 <1>   0.4000 
 26 H        1.9170    -3.1810    -0.2290 H     1 <1>   0.1500 
 27 H        2.9200     2.8230    -0.3970 H     1 <1>   0.0800 
 28 H        2.3610     2.9660     1.2750 H     1 <1>   0.0800 
 29 H       -1.0110     1.9550     0.5180 H     1 <1>   0.0800 
 30 H       -0.6090     2.3060    -1.1580 H     1 <1>   0.0800 
 31 H        0.0400    -4.2960    -0.1540 H     1 <1>   0.0800 
 32 H       -0.7340    -4.1090    -1.7150 H     1 <1>   0.0800 
 33 H        4.2780    -2.8170     0.3090 H     1 <1>   0.0800 
 34 H        4.5780    -1.4280     1.3020 H     1 <1>   0.0800 
 35 H        1.4330     4.4290    -1.1540 H     1 <1>   0.0800 
 36 H        1.6760     5.0630     0.4600 H     1 <1>   0.0800 
 37 H       -0.3480     4.0560     1.2440 H     1 <1>   0.0800 
 38 H       -0.8240     4.5160    -0.3770 H     1 <1>   0.0800 
 39 H       -2.8750    -3.6960    -0.6130 H     1 <1>   0.0800 
 40 H       -2.1470    -3.8940     0.9610 H     1 <1>   0.0800 
 41 H        4.8700    -1.5060    -1.7270 H     1 <1>   0.0800 
 42 H        6.1850    -1.5940    -0.5870 H     1 <1>   0.0800 
 43 H        5.2560    -0.1270    -0.7200 H     1 <1>   0.0800 
 44 H       -1.7930    -6.0620     1.8430 H     1 <1>   0.0800 
 45 H       -0.5250    -6.3080     0.6850 H     1 <1>   0.0800 
 46 H       -4.3420    -5.4550    -0.7980 H     1 <1>   0.0800 
 47 H       -4.1600    -5.5910     0.9220 H     1 <1>   0.0800 
 48 H       -2.2920    -8.2540     1.7830 H     1 <1>   0.0800 
 49 H       -0.9720    -8.5020     0.6780 H     1 <1>   0.0800 
 50 H       -4.7630    -7.6470    -0.9610 H     1 <1>   0.0800 
 51 H       -4.6530    -7.7810     0.7700 H     1 <1>   0.0800 
 52 H       -2.4260    -7.9230    -1.1180 H     1 <1>   0.4500 
 53 H       -3.5890   -10.1400     0.5030 H     1 <1>   0.0800 
 54 H       -2.2050   -10.2900    -0.5600 H     1 <1>   0.0800 
 55 H       -3.7850    -9.9460    -1.2270 H     1 <1>   0.0800 
@<TRIPOS>BOND
  1   1   2  ar  
  2   1   3  ar  
  3   2   4  ar  
  4   2   5  1   
  5   3   6  1   
  6   3   7  ar  
  7   4   8  ar  
  8   4  24  1   
  9   5   9  1   
 10   5  10  1   
 11   6  11  1   
 12   6  25  1   
 13   7   8  ar  
 14   7  26  1   
 15   8  12  1   
 16   9  13  1   
 17   9  27  1   
 18   9  28  1   
 19  10  14  1   
 20  10  29  1   
 21  10  30  1   
 22  11  15  1   
 23  11  31  1   
 24  11  32  1   
 25  12  16  1   
 26  12  33  1   
 27  12  34  1   
 28  13  14  1   
 29  13  35  1   
 30  13  36  1   
 31  14  37  1   
 32  14  38  1   
 33  15  17  1   
 34  15  39  1   
 35  15  40  1   
 36  16  41  1   
 37  16  42  1   
 38  16  43  1   
 39  17  18  1   
 40  17  19  1   
 41  18  20  1   
 42  18  44  1   
 43  18  45  1   
 44  19  21  1   
 45  19  46  1   
 46  19  47  1   
 47  20  22  1   
 48  20  48  1   
 49  20  49  1   
 50  21  22  1   
 51  21  50  1   
 52  21  51  1   
 53  22  23  1   
 54  22  52  1   
 55  23  53  1   
 56  23  54  1   
 57  23  55  1   
@<TRIPOS>SUBSTRUCTURE
  1 ****   6 GROUP 4 **** **** 0

# MOE 2024.06 (io_trps.svl 2023.06)
