@<TRIPOS>MOLECULE
NONAME
48 51 1 0 0 
SMALL
USER_CHARGES


@<TRIPOS>ATOM
  1 S        0.2500    -0.3440     1.0960 S.3   1 <1>  -0.0800 
  2 C        1.2000     0.9870     1.7330 C.ar  1 <1>   0.2970 
  3 C        0.5860     0.1040    -0.5910 C.2   1 <1>  -0.1920 
  4 N        1.3440     1.1960     3.0260 N.ar  1 <1>  -0.5670 
  5 C        1.7320     1.7330     0.7100 C.ar  1 <1>   0.0000 
  6 C        1.3940     1.2030    -0.5920 C.2   1 <1>  -0.1810 
  7 C       -0.0220    -0.7190    -1.6220 C.2   1 <1>   1.0320 
  8 C        2.0870     2.2520     3.2800 C.ar  1 <1>   0.4700 
  9 C        2.4790     2.8390     1.1440 C.ar  1 <1>   0.4100 
 10 C        1.9420     1.8480    -1.8570 C.3   1 <1>  -0.0590 
 11 O       -0.0760    -0.3270    -2.8030 O.co2 1 <1>  -0.9000 
 12 O       -0.5080    -1.8330    -1.3560 O.co2 1 <1>  -0.9000 
 13 N        2.6620     3.0890     2.4310 N.ar  1 <1>  -0.6200 
 14 N        3.0340     3.7490     0.2760 N.pl3 1 <1>  -0.8380 
 15 C        2.2450     4.9680    -0.0360 C.3   1 <1>   0.2090 
 16 C        4.4710     4.0960     0.3840 C.3   1 <1>   0.2090 
 17 C        3.2690     6.0780    -0.2690 C.3   1 <1>   0.0640 
 18 C        4.5110     5.6140     0.4890 C.3   1 <1>  -0.1600 
 19 C        2.7680     7.4650     0.1520 C.ar  1 <1>  -0.1440 
 20 C        2.6550     8.5090    -0.7650 C.ar  1 <1>   0.0820 
 21 C        2.4060     7.6930     1.4750 C.ar  1 <1>  -0.1500 
 22 O        2.9620     8.2780    -2.0680 O.3   1 <1>  -0.3630 
 23 C        2.2220     9.7720    -0.3410 C.ar  1 <1>   0.0820 
 24 C        1.9480     8.9320     1.8860 C.ar  1 <1>  -0.1500 
 25 C        1.8820     8.2980    -2.9750 C.3   1 <1>   0.0400 
 26 O        2.1400    10.8380    -1.1750 O.3   1 <1>  -0.3630 
 27 C        1.8570     9.9710     0.9780 C.ar  1 <1>  -0.1500 
 28 C        3.3640    11.3500    -1.6530 C.3   1 <1>   0.0400 
 29 H        2.2460     2.4680     4.3220 H     1 <1>   0.1500 
 30 H        1.7840     1.2250    -2.7170 H     1 <1>   0.0800 
 31 H        2.9990     2.0080    -1.7620 H     1 <1>   0.0800 
 32 H        1.4540     2.7880    -2.0290 H     1 <1>   0.0800 
 33 H        1.6070     5.2020     0.7990 H     1 <1>   0.0800 
 34 H        1.6380     4.8170    -0.9100 H     1 <1>   0.0800 
 35 H        4.9730     3.7680    -0.5100 H     1 <1>   0.0800 
 36 H        4.9290     3.6280     1.2400 H     1 <1>   0.0800 
 37 H        3.5070     6.0600    -1.3160 H     1 <1>   0.0800 
 38 H        5.4140     6.0210     0.0720 H     1 <1>   0.0800 
 39 H        4.4540     5.8830     1.5270 H     1 <1>   0.0800 
 40 H        2.4760     6.9000     2.2010 H     1 <1>   0.1500 
 41 H        1.6670     9.0890     2.9130 H     1 <1>   0.1500 
 42 H        2.2430     7.9800    -3.9360 H     1 <1>   0.0800 
 43 H        1.4910     9.2970    -3.0420 H     1 <1>   0.0800 
 44 H        1.1210     7.6220    -2.6240 H     1 <1>   0.0800 
 45 H        1.5070    10.9390     1.2880 H     1 <1>   0.1500 
 46 H        3.1590    12.2430    -2.2140 H     1 <1>   0.0800 
 47 H        3.8340    10.6180    -2.2860 H     1 <1>   0.0800 
 48 H        3.9970    11.5780    -0.8130 H     1 <1>   0.0800 
@<TRIPOS>BOND
  1   1   2  1   
  2   1   3  1   
  3   2   4  ar  
  4   2   5  ar  
  5   3   6  2   
  6   3   7  1   
  7   4   8  ar  
  8   5   6  1   
  9   5   9  ar  
 10   6  10  1   
 11   7  11  ar  
 12   7  12  ar  
 13   8  13  ar  
 14   8  29  1   
 15   9  13  ar  
 16   9  14  1   
 17  10  30  1   
 18  10  31  1   
 19  10  32  1   
 20  14  15  1   
 21  14  16  1   
 22  15  17  1   
 23  15  33  1   
 24  15  34  1   
 25  16  18  1   
 26  16  35  1   
 27  16  36  1   
 28  17  18  1   
 29  17  19  1   
 30  17  37  1   
 31  18  38  1   
 32  18  39  1   
 33  19  20  ar  
 34  19  21  ar  
 35  20  22  1   
 36  20  23  ar  
 37  21  24  ar  
 38  21  40  1   
 39  22  25  1   
 40  23  26  1   
 41  23  27  ar  
 42  24  27  ar  
 43  24  41  1   
 44  25  42  1   
 45  25  43  1   
 46  25  44  1   
 47  26  28  1   
 48  27  45  1   
 49  28  46  1   
 50  28  47  1   
 51  28  48  1   
@<TRIPOS>SUBSTRUCTURE
  1 ****  15 GROUP 4 **** **** 0

# MOE 2024.06 (io_trps.svl 2023.06)
