@<TRIPOS>MOLECULE
NONAME
53 56 1 0 0 
SMALL
USER_CHARGES


@<TRIPOS>ATOM
  1 S        0.0680    -0.2240     1.9880 S.o2  1 <1>   1.4470 
  2 O        0.4140     0.9290     2.7920 O.2   1 <1>  -0.6500 
  3 O       -0.6110    -1.3400     2.6100 O.2   1 <1>  -0.6500 
  4 N       -0.9350     0.3400     0.7430 N.am  1 <1>  -0.8490 
  5 C        1.5230    -0.8380     1.0960 C.ar  1 <1>  -0.0090 
  6 C       -2.3100     0.5530     1.2240 C.3   1 <1>   0.1960 
  7 C       -0.4090     1.5580     0.1200 C.3   1 <1>   0.1960 
  8 C        2.8040    -0.4060     1.4220 C.ar  1 <1>  -0.1500 
  9 C        1.3890    -1.7530     0.0590 C.ar  1 <1>  -0.1500 
 10 C       -3.2860     0.9220     0.0800 C.3   1 <1>   0.0000 
 11 C       -1.2720     1.9530    -1.0810 C.3   1 <1>  -0.1600 
 12 C        3.9190    -0.8620     0.7400 C.ar  1 <1>   0.0830 
 13 C        2.4940    -2.2340    -0.6240 C.ar  1 <1>  -0.1500 
 14 C       -4.6910     1.1450     0.6760 C.3   1 <1>   0.2000 
 15 C       -2.7370     2.1570    -0.6710 C.3   1 <1>  -0.1600 
 16 C       -3.5010    -0.2820    -0.8550 C.3   1 <1>  -0.1600 
 17 O        5.1150    -0.3270     1.0980 O.3   1 <1>  -0.3630 
 18 C        3.7650    -1.8100    -0.2820 C.ar  1 <1>   0.0830 
 19 O       -5.4800     1.8590    -0.2320 O.3   1 <1>  -0.5600 
 20 C       -5.2840    -0.2610     0.8340 C.3   1 <1>  -0.1600 
 21 C       -4.5660    -1.1570    -0.1850 C.3   1 <1>  -0.1600 
 22 C        6.0690    -0.1020     0.0830 C.3   1 <1>   0.1200 
 23 O        4.8030    -2.3710    -0.9550 O.3   1 <1>  -0.3630 
 24 C       -6.5480     2.5550     0.3290 C.3   1 <1>   0.0400 
 25 C        6.8630    -1.3820    -0.1860 C.3   1 <1>  -0.1600 
 26 C        5.9860    -2.6350    -0.2330 C.3   1 <1>   0.1200 
 27 H       -2.6590    -0.3460     1.7030 H     1 <1>   0.0800 
 28 H       -2.3070     1.3360     1.9640 H     1 <1>   0.0800 
 29 H       -0.3950     2.3640     0.8370 H     1 <1>   0.0800 
 30 H        0.6000     1.3900    -0.2170 H     1 <1>   0.0800 
 31 H        2.9410     0.3070     2.2160 H     1 <1>   0.1500 
 32 H        0.4040    -2.0960    -0.2140 H     1 <1>   0.1500 
 33 H       -0.8900     2.8620    -1.5100 H     1 <1>   0.0800 
 34 H       -1.2020     1.1840    -1.8300 H     1 <1>   0.0800 
 35 H        2.3750    -2.9500    -1.4180 H     1 <1>   0.1500 
 36 H       -4.6480     1.6860     1.6070 H     1 <1>   0.0800 
 37 H       -3.3310     2.3590    -1.5460 H     1 <1>   0.0800 
 38 H       -2.8060     3.0170    -0.0280 H     1 <1>   0.0800 
 39 H       -3.8920     0.0660    -1.7960 H     1 <1>   0.0800 
 40 H       -2.5940    -0.8290    -1.0440 H     1 <1>   0.0800 
 41 H       -5.0750    -0.6230     1.8250 H     1 <1>   0.0800 
 42 H       -6.3490    -0.2710     0.6840 H     1 <1>   0.0800 
 43 H       -4.1020    -1.9880     0.3180 H     1 <1>   0.0800 
 44 H       -5.2550    -1.5350    -0.9200 H     1 <1>   0.0800 
 45 H        5.5500     0.2250    -0.8030 H     1 <1>   0.0800 
 46 H        6.7220     0.6860     0.4120 H     1 <1>   0.0800 
 47 H       -7.0890     3.0330    -0.4680 H     1 <1>   0.0800 
 48 H       -6.1670     3.3010     1.0050 H     1 <1>   0.0800 
 49 H       -7.1950     1.8690     0.8460 H     1 <1>   0.0800 
 50 H        7.3840    -1.2780    -1.1210 H     1 <1>   0.0800 
 51 H        7.6070    -1.5050     0.5800 H     1 <1>   0.0800 
 52 H        5.7140    -2.9550     0.7590 H     1 <1>   0.0800 
 53 H        6.5020    -3.4390    -0.7270 H     1 <1>   0.0800 
@<TRIPOS>BOND
  1   1   2  2   
  2   1   3  2   
  3   1   4  am  
  4   1   5  1   
  5   4   6  1   
  6   4   7  1   
  7   5   8  ar  
  8   5   9  ar  
  9   6  10  1   
 10   6  27  1   
 11   6  28  1   
 12   7  11  1   
 13   7  29  1   
 14   7  30  1   
 15   8  12  ar  
 16   8  31  1   
 17   9  13  ar  
 18   9  32  1   
 19  10  14  1   
 20  10  15  1   
 21  10  16  1   
 22  11  15  1   
 23  11  33  1   
 24  11  34  1   
 25  12  17  1   
 26  12  18  ar  
 27  13  18  ar  
 28  13  35  1   
 29  14  19  1   
 30  14  20  1   
 31  14  36  1   
 32  15  37  1   
 33  15  38  1   
 34  16  21  1   
 35  16  39  1   
 36  16  40  1   
 37  17  22  1   
 38  18  23  1   
 39  19  24  1   
 40  20  21  1   
 41  20  41  1   
 42  20  42  1   
 43  21  43  1   
 44  21  44  1   
 45  22  25  1   
 46  22  45  1   
 47  22  46  1   
 48  23  26  1   
 49  24  47  1   
 50  24  48  1   
 51  24  49  1   
 52  25  26  1   
 53  25  50  1   
 54  25  51  1   
 55  26  52  1   
 56  26  53  1   
@<TRIPOS>SUBSTRUCTURE
  1 ****   4 GROUP 4 **** **** 0

# MOE 2024.06 (io_trps.svl 2023.06)
