@<TRIPOS>MOLECULE
NONAME
50 52 1 0 0 
SMALL
USER_CHARGES


@<TRIPOS>ATOM
  1 F       -0.2290    -0.7740     1.1520 F     1 <1>  -0.1900 
  2 C       -1.3220    -0.8710     0.4410 C.ar  1 <1>   0.1900 
  3 C       -2.0720     0.2680     0.1890 C.ar  1 <1>  -0.1440 
  4 C       -1.6820    -2.1210    -0.0250 C.ar  1 <1>  -0.1500 
  5 C       -3.2330     0.1220    -0.5590 C.ar  1 <1>  -0.1500 
  6 C       -1.6300     1.6210     0.7340 C.3   1 <1>   0.2640 
  7 C       -2.8410    -2.2450    -0.7720 C.ar  1 <1>  -0.1500 
  8 C       -3.6130    -1.1240    -1.0350 C.ar  1 <1>  -0.1500 
  9 O       -2.0260     2.6520    -0.1470 O.3   1 <1>  -0.3620 
 10 C       -1.7690     3.9520     0.1170 C.ar  1 <1>   0.0830 
 11 C       -1.0750     4.3960     1.2400 C.ar  1 <1>  -0.1500 
 12 C       -2.2370     4.8820    -0.7970 C.ar  1 <1>  -0.1500 
 13 C       -0.8580     5.7490     1.4270 C.ar  1 <1>  -0.1500 
 14 C       -2.0160     6.2320    -0.6010 C.ar  1 <1>  -0.1500 
 15 C       -1.3130     6.6970     0.5090 C.ar  1 <1>   0.0860 
 16 C       -1.0740     8.1140     0.6960 C.2   1 <1>   0.5440 
 17 O       -2.0220     8.8770     0.7100 O.2   1 <1>  -0.5700 
 18 N        0.2030     8.6200     0.8460 N.am  1 <1>  -0.6600 
 19 C        0.4400    10.0640     1.1440 C.3   1 <1>   0.1400 
 20 C        1.4240     7.8240     0.5190 C.3   1 <1>   0.1400 
 21 C        1.0850    10.7990    -0.0590 C.3   1 <1>   0.0000 
 22 C        2.5890     8.7220     0.0730 C.3   1 <1>  -0.1600 
 23 C        2.0880     9.8740    -0.8100 C.3   1 <1>  -0.1600 
 24 C        1.8030    12.0450     0.5140 C.3   1 <1>   0.1200 
 25 C       -0.0310    11.2330    -1.0330 C.3   1 <1>  -0.2400 
 26 O        2.3060    12.8580    -0.4930 O.3   1 <1>  -0.6800 
 27 H       -1.0680    -2.9760     0.1940 H     1 <1>   0.1500 
 28 H       -3.8480     0.9800    -0.7760 H     1 <1>   0.1500 
 29 H       -0.5590     1.6620     0.8260 H     1 <1>   0.0800 
 30 H       -2.0890     1.7980     1.6900 H     1 <1>   0.0800 
 31 H       -3.1430    -3.2080    -1.1460 H     1 <1>   0.1500 
 32 H       -4.5150    -1.2200    -1.6160 H     1 <1>   0.1500 
 33 H       -0.7020     3.7080     1.9750 H     1 <1>   0.1500 
 34 H       -2.7780     4.5390    -1.6610 H     1 <1>   0.1500 
 35 H       -0.3300     6.0890     2.3010 H     1 <1>   0.1500 
 36 H       -2.3910     6.9480    -1.3130 H     1 <1>   0.1500 
 37 H        1.0940    10.1150     1.9970 H     1 <1>   0.0800 
 38 H       -0.4780    10.5520     1.4250 H     1 <1>   0.0800 
 39 H        1.1900     7.1430    -0.2820 H     1 <1>   0.0800 
 40 H        1.7190     7.2470     1.3780 H     1 <1>   0.0800 
 41 H        3.3020     8.1270    -0.4700 H     1 <1>   0.0800 
 42 H        3.0930     9.1150     0.9390 H     1 <1>   0.0800 
 43 H        2.9270    10.4290    -1.1870 H     1 <1>   0.0800 
 44 H        1.5980     9.4330    -1.6620 H     1 <1>   0.0800 
 45 H        2.6260    11.7510     1.1420 H     1 <1>   0.0800 
 46 H        1.1200    12.6410     1.0950 H     1 <1>   0.0800 
 47 H       -0.6020    10.3790    -1.3540 H     1 <1>   0.0800 
 48 H        0.3800    11.7130    -1.9030 H     1 <1>   0.0800 
 49 H       -0.7030    11.9210    -0.5530 H     1 <1>   0.0800 
 50 H        2.7870    12.3220    -1.1520 H     1 <1>   0.4000 
@<TRIPOS>BOND
  1   1   2  1   
  2   2   3  ar  
  3   2   4  ar  
  4   3   5  ar  
  5   3   6  1   
  6   4   7  ar  
  7   4  27  1   
  8   5   8  ar  
  9   5  28  1   
 10   6   9  1   
 11   6  29  1   
 12   6  30  1   
 13   7   8  ar  
 14   7  31  1   
 15   8  32  1   
 16   9  10  1   
 17  10  11  ar  
 18  10  12  ar  
 19  11  13  ar  
 20  11  33  1   
 21  12  14  ar  
 22  12  34  1   
 23  13  15  ar  
 24  13  35  1   
 25  14  15  ar  
 26  14  36  1   
 27  15  16  1   
 28  16  17  2   
 29  16  18  am  
 30  18  19  1   
 31  18  20  1   
 32  19  21  1   
 33  19  37  1   
 34  19  38  1   
 35  20  22  1   
 36  20  39  1   
 37  20  40  1   
 38  21  23  1   
 39  21  24  1   
 40  21  25  1   
 41  22  23  1   
 42  22  41  1   
 43  22  42  1   
 44  23  43  1   
 45  23  44  1   
 46  24  26  1   
 47  24  45  1   
 48  24  46  1   
 49  25  47  1   
 50  25  48  1   
 51  25  49  1   
 52  26  50  1   
@<TRIPOS>SUBSTRUCTURE
  1 ****  13 GROUP 4 **** **** 0

# MOE 2024.06 (io_trps.svl 2023.06)
