@<TRIPOS>MOLECULE
NONAME
40 43 1 0 0 
SMALL
USER_CHARGES


@<TRIPOS>ATOM
  1 S       -1.2040     0.8830    -2.0190 S.3   1 <1>  -0.0800 
  2 C       -2.4700     1.4280    -0.9510 C.2   1 <1>   0.2280 
  3 C       -1.8250    -0.7280    -1.8770 C.2   1 <1>  -0.1100 
  4 N       -3.2550     0.5110    -0.5510 N.2   1 <1>  -0.5650 
  5 C       -2.9120    -0.7540    -1.0730 C.2   1 <1>   0.1410 
  6 C       -3.6420    -1.9810    -0.7460 C.2   1 <1>   0.7160 
  7 O       -3.0150    -3.0270    -0.7310 O.2   1 <1>  -0.5700 
  8 N       -5.0020    -2.0420    -0.4800 N.am  1 <1>  -0.6600 
  9 C       -5.9900    -0.9820    -0.8610 C.3   1 <1>   0.1400 
 10 C       -5.6400    -3.2800     0.0550 C.3   1 <1>   0.1400 
 11 C       -6.8770    -0.5880     0.3360 C.3   1 <1>   0.1440 
 12 C       -6.5380    -2.9400     1.2520 C.3   1 <1>  -0.1600 
 13 C       -7.8710     0.4600    -0.1300 C.ar  1 <1>   0.1670 
 14 C       -7.5650    -1.8470     0.9050 C.3   1 <1>  -0.1600 
 15 C       -6.0790     0.1770     1.4260 C.3   1 <1>  -0.1600 
 16 N       -8.9210     0.2360    -0.8890 N.ar  1 <1>  -0.6200 
 17 C       -7.5380     1.7010     0.3240 C.ar  1 <1>  -0.1430 
 18 C       -6.2800     1.6770     1.1550 C.3   1 <1>  -0.0170 
 19 C       -9.6370     1.3160    -1.1660 C.ar  1 <1>   0.4770 
 20 C       -8.3510     2.7510    -0.0250 C.ar  1 <1>   0.1600 
 21 N       -9.4160     2.5660    -0.7780 N.ar  1 <1>  -0.6200 
 22 C      -10.8580     1.0980    -2.0270 C.3   1 <1>  -0.0970 
 23 H       -2.4900     2.4780    -0.7160 H     1 <1>   0.1500 
 24 H       -1.3200    -1.5190    -2.4010 H     1 <1>   0.1500 
 25 H       -6.6220    -1.3730    -1.6400 H     1 <1>   0.0800 
 26 H       -5.5070    -0.1110    -1.2610 H     1 <1>   0.0800 
 27 H       -4.8940    -3.9920     0.3660 H     1 <1>   0.0800 
 28 H       -6.2270    -3.7340    -0.7250 H     1 <1>   0.0800 
 29 H       -5.9170    -2.6180     2.0700 H     1 <1>   0.0800 
 30 H       -7.0540    -3.8290     1.5670 H     1 <1>   0.0800 
 31 H       -8.2460    -2.2340     0.1670 H     1 <1>   0.0800 
 32 H       -8.1460    -1.5920     1.7740 H     1 <1>   0.0800 
 33 H       -5.0380    -0.0910     1.4440 H     1 <1>   0.0800 
 34 H       -6.4950    -0.0420     2.3940 H     1 <1>   0.0800 
 35 H       -5.4590     2.0700     0.5810 H     1 <1>   0.0800 
 36 H       -6.3890     2.2340     2.0690 H     1 <1>   0.0800 
 37 H       -8.1300     3.7490     0.3110 H     1 <1>   0.1500 
 38 H      -10.7030     0.2620    -2.6830 H     1 <1>   0.0800 
 39 H      -11.0540     1.9730    -2.6170 H     1 <1>   0.0800 
 40 H      -11.7030     0.9010    -1.3960 H     1 <1>   0.0800 
@<TRIPOS>BOND
  1   1   2  1   
  2   1   3  1   
  3   2   4  2   
  4   2  23  1   
  5   3   5  2   
  6   3  24  1   
  7   4   5  1   
  8   5   6  1   
  9   6   7  2   
 10   6   8  am  
 11   8   9  1   
 12   8  10  1   
 13   9  11  1   
 14   9  25  1   
 15   9  26  1   
 16  10  12  1   
 17  10  27  1   
 18  10  28  1   
 19  11  13  1   
 20  11  14  1   
 21  11  15  1   
 22  12  14  1   
 23  12  29  1   
 24  12  30  1   
 25  13  16  ar  
 26  13  17  ar  
 27  14  31  1   
 28  14  32  1   
 29  15  18  1   
 30  15  33  1   
 31  15  34  1   
 32  16  19  ar  
 33  17  18  1   
 34  17  20  ar  
 35  18  35  1   
 36  18  36  1   
 37  19  21  ar  
 38  19  22  1   
 39  20  21  ar  
 40  20  37  1   
 41  22  38  1   
 42  22  39  1   
 43  22  40  1   
@<TRIPOS>SUBSTRUCTURE
  1 ****   9 GROUP 4 **** **** 0

# MOE 2024.06 (io_trps.svl 2023.06)
