@<TRIPOS>MOLECULE
NONAME
42 43 1 0 0 
SMALL
USER_CHARGES


@<TRIPOS>ATOM
  1 O        3.7770    -1.0990    -1.3290 O.2   1 <1>  -0.5700 
  2 C        2.6270    -1.4320    -1.1700 C.2   1 <1>   0.5690 
  3 N        1.6140    -0.5330    -1.0850 N.am  1 <1>  -0.7300 
  4 C        2.2830    -2.9220    -1.0550 C.3   1 <1>   0.1710 
  5 C        1.7440     0.9390    -1.1570 C.3   1 <1>   0.1400 
  6 N        0.9970    -3.2100    -0.3480 N.3   1 <1>  -0.8100 
  7 C        1.6940     1.5330     0.2500 C.3   1 <1>  -0.0170 
  8 C        0.5540    -4.5940    -0.6190 C.3   1 <1>   0.2900 
  9 C        1.1320    -2.9600     1.1000 C.3   1 <1>   0.0300 
 10 C        1.7910     3.0490     0.1860 C.ar  1 <1>  -0.1440 
 11 C       -0.8290    -4.8720    -0.0560 C.2   1 <1>  -0.0400 
 12 C        0.6460     3.8300     0.2230 C.ar  1 <1>  -0.1500 
 13 C        3.0300     3.6620     0.0860 C.ar  1 <1>  -0.1500 
 14 O       -0.9630    -5.3160     1.1660 O.3   1 <1>  -0.0190 
 15 C       -2.0540    -4.7630    -0.5900 C.2   1 <1>  -0.1500 
 16 C        0.7400     5.2100     0.1610 C.ar  1 <1>  -0.1500 
 17 C        3.1250     5.0420     0.0240 C.ar  1 <1>  -0.1500 
 18 N       -2.2120    -5.5060     1.4790 N.2   1 <1>  -0.4100 
 19 C       -2.8930    -5.1800     0.4390 C.2   1 <1>   0.1080 
 20 C        1.9790     5.8170     0.0620 C.ar  1 <1>  -0.1500 
 21 C       -4.4020    -5.2450     0.3570 C.3   1 <1>  -0.0590 
 22 H        0.6890    -0.9250    -0.8730 H     1 <1>   0.3700 
 23 H        3.0950    -3.4230    -0.5570 H     1 <1>   0.0800 
 24 H        2.2310    -3.3000    -2.0600 H     1 <1>   0.0800 
 25 H        0.9450     1.3400    -1.7570 H     1 <1>   0.0800 
 26 H        2.6790     1.1970    -1.6250 H     1 <1>   0.0800 
 27 H        2.5160     1.1460     0.8270 H     1 <1>   0.0800 
 28 H        0.7770     1.2480     0.7320 H     1 <1>   0.0800 
 29 H        1.2580    -5.3000    -0.2120 H     1 <1>   0.0800 
 30 H        0.5100    -4.7410    -1.6840 H     1 <1>   0.0800 
 31 H        1.5170    -1.9700     1.2780 H     1 <1>   0.0800 
 32 H        1.7990    -3.6770     1.5490 H     1 <1>   0.0800 
 33 H        0.1710    -3.0280     1.5810 H     1 <1>   0.0800 
 34 H       -0.3230     3.3700     0.2990 H     1 <1>   0.1500 
 35 H        3.9270     3.0670     0.0550 H     1 <1>   0.1500 
 36 H       -2.3510    -4.4350    -1.5690 H     1 <1>   0.1500 
 37 H       -0.1520     5.8110     0.1900 H     1 <1>   0.1500 
 38 H        4.0900     5.5110    -0.0530 H     1 <1>   0.1500 
 39 H        2.0530     6.8890     0.0140 H     1 <1>   0.1500 
 40 H       -4.7960    -4.2780     0.1070 H     1 <1>   0.0800 
 41 H       -4.8080    -5.5530     1.3030 H     1 <1>   0.0800 
 42 H       -4.6950    -5.9550    -0.3950 H     1 <1>   0.0800 
@<TRIPOS>BOND
  1   1   2  2   
  2   2   3  am  
  3   2   4  1   
  4   3   5  1   
  5   3  22  1   
  6   4   6  1   
  7   4  23  1   
  8   4  24  1   
  9   5   7  1   
 10   5  25  1   
 11   5  26  1   
 12   6   8  1   
 13   6   9  1   
 14   7  10  1   
 15   7  27  1   
 16   7  28  1   
 17   8  11  1   
 18   8  29  1   
 19   8  30  1   
 20   9  31  1   
 21   9  32  1   
 22   9  33  1   
 23  10  12  ar  
 24  10  13  ar  
 25  11  14  1   
 26  11  15  2   
 27  12  16  ar  
 28  12  34  1   
 29  13  17  ar  
 30  13  35  1   
 31  14  18  1   
 32  15  19  1   
 33  15  36  1   
 34  16  20  ar  
 35  16  37  1   
 36  17  20  ar  
 37  17  38  1   
 38  18  19  2   
 39  19  21  1   
 40  20  39  1   
 41  21  40  1   
 42  21  41  1   
 43  21  42  1   
@<TRIPOS>SUBSTRUCTURE
  1 ****   3 GROUP 4 **** **** 0

# MOE 2024.06 (io_trps.svl 2023.06)
