@<TRIPOS>MOLECULE
NONAME
35 36 1 0 0 
SMALL
USER_CHARGES


@<TRIPOS>ATOM
  1 O        0.1760    -0.2090     0.1420 O.2   1 <1>  -0.5700 
  2 C        1.2640    -0.7070    -0.0770 C.2   1 <1>   0.7150 
  3 N        2.3700     0.0870    -0.2270 N.am  1 <1>  -0.4940 
  4 C        1.4320    -2.1290    -0.1750 C.2   1 <1>  -0.2370 
  5 C        2.5370     1.4920    -0.1800 C.2   1 <1>  -0.0880 
  6 N        0.5280    -3.0550     0.2490 N.pl3 1 <1>   0.3140 
  7 C        2.4700    -2.8530    -0.6830 C.2   1 <1>  -0.1500 
  8 N        1.6850     2.4480    -0.6500 N.pl3 1 <1>   0.3140 
  9 C        3.6070     2.1550     0.3230 C.2   1 <1>  -0.1810 
 10 N        0.9540    -4.3090     0.0380 N.2   1 <1>  -0.7070 
 11 C       -0.7780    -2.8260     0.8920 C.3   1 <1>   0.0160 
 12 C        2.1160    -4.1790    -0.5230 C.2   1 <1>   0.1390 
 13 N        2.1860     3.6870    -0.4630 N.2   1 <1>  -0.7070 
 14 C        0.4180     2.2810    -1.3730 C.3   1 <1>   0.0160 
 15 C        3.3270     3.5040     0.1200 C.2   1 <1>   0.1080 
 16 C        4.8550     1.5870     0.9780 C.3   1 <1>  -0.0590 
 17 C        4.2200     4.6690     0.5120 C.3   1 <1>   0.0210 
 18 C        5.2070     5.0120    -0.6090 C.3   1 <1>  -0.2400 
 19 H        3.2390    -0.4400    -0.2350 H     1 <1>   0.3700 
 20 H        3.3850    -2.5080    -1.1290 H     1 <1>   0.1500 
 21 H       -0.6440    -2.2100     1.7610 H     1 <1>   0.0800 
 22 H       -1.2030    -3.7700     1.1800 H     1 <1>   0.0800 
 23 H       -1.4320    -2.3350     0.1960 H     1 <1>   0.0800 
 24 H        2.7200    -5.0200    -0.8230 H     1 <1>   0.1500 
 25 H        0.4670     1.4010    -1.9850 H     1 <1>   0.0800 
 26 H        0.2490     3.1420    -1.9910 H     1 <1>   0.0800 
 27 H       -0.3790     2.1880    -0.6600 H     1 <1>   0.0800 
 28 H        4.8050     0.5160     1.0340 H     1 <1>   0.0800 
 29 H        4.9500     1.9750     1.9760 H     1 <1>   0.0800 
 30 H        5.7240     1.8650     0.4100 H     1 <1>   0.0800 
 31 H        4.7540     4.4290     1.4120 H     1 <1>   0.0800 
 32 H        3.5980     5.5230     0.7150 H     1 <1>   0.0800 
 33 H        5.8420     4.1710    -0.8180 H     1 <1>   0.0800 
 34 H        5.8160     5.8500    -0.3230 H     1 <1>   0.0800 
 35 H        4.6640     5.2640    -1.5030 H     1 <1>   0.0800 
@<TRIPOS>BOND
  1   1   2  2   
  2   2   3  am  
  3   2   4  1   
  4   3   5  1   
  5   3  19  1   
  6   4   6  1   
  7   4   7  2   
  8   5   8  1   
  9   5   9  2   
 10   6  10  1   
 11   6  11  1   
 12   7  12  1   
 13   7  20  1   
 14   8  13  1   
 15   8  14  1   
 16   9  15  1   
 17   9  16  1   
 18  10  12  2   
 19  11  21  1   
 20  11  22  1   
 21  11  23  1   
 22  12  24  1   
 23  13  15  2   
 24  14  25  1   
 25  14  26  1   
 26  14  27  1   
 27  15  17  1   
 28  16  28  1   
 29  16  29  1   
 30  16  30  1   
 31  17  18  1   
 32  17  31  1   
 33  17  32  1   
 34  18  33  1   
 35  18  34  1   
 36  18  35  1   
@<TRIPOS>SUBSTRUCTURE
  1 ****   3 GROUP 4 **** **** 0

# MOE 2024.06 (io_trps.svl 2023.06)
