@<TRIPOS>MOLECULE
NONAME
50 51 1 0 0 
SMALL
USER_CHARGES


@<TRIPOS>ATOM
  1 O       -3.4690     0.8500    -1.3510 O.2   1 <1>  -0.5700 
  2 C       -2.4930     0.8080    -0.6420 C.2   1 <1>   0.5690 
  3 N       -1.9140    -0.3740    -0.3050 N.am  1 <1>  -0.7300 
  4 C       -1.8810     2.0990    -0.0970 C.3   1 <1>  -0.0190 
  5 C       -2.3760    -1.6950    -0.8010 C.3   1 <1>   0.1400 
  6 C       -2.9190     3.2270     0.0820 C.3   1 <1>  -0.1600 
  7 C       -0.7090     2.5730    -0.9890 C.3   1 <1>  -0.1600 
  8 C       -3.6020    -2.1590    -0.0170 C.3   1 <1>   0.1200 
  9 C       -2.3170     4.4710     0.7700 C.3   1 <1>   0.2000 
 10 C       -0.3540     4.0630    -0.8100 C.3   1 <1>  -0.1600 
 11 O       -3.9920    -3.4210    -0.5090 O.3   1 <1>  -0.3620 
 12 O       -2.9410     5.6170     0.2450 O.3   1 <1>  -0.5600 
 13 C       -0.7840     4.5880     0.5630 C.3   1 <1>   0.2000 
 14 C       -5.2170    -3.8460    -0.1290 C.ar  1 <1>   0.0820 
 15 C       -4.2200     5.8770     0.7350 C.3   1 <1>   0.0400 
 16 O       -0.4130     5.9130     0.6500 O.3   1 <1>  -0.6800 
 17 C       -6.3450    -3.4320    -0.8360 C.ar  1 <1>  -0.1440 
 18 C       -5.3350    -4.7050     0.9610 C.ar  1 <1>  -0.1440 
 19 C       -7.5950    -3.8610    -0.4200 C.ar  1 <1>  -0.1500 
 20 C       -6.2360    -2.5260    -2.0560 C.3   1 <1>  -0.0970 
 21 C       -6.5940    -5.1220     1.3580 C.ar  1 <1>  -0.1500 
 22 C       -4.1070    -5.1900     1.7170 C.3   1 <1>  -0.0970 
 23 C       -7.7200    -4.6990     0.6730 C.ar  1 <1>  -0.1500 
 24 H       -1.0820    -0.3840     0.2860 H     1 <1>   0.3700 
 25 H       -1.4910     1.8710     0.8790 H     1 <1>   0.0800 
 26 H       -2.6390    -1.6090    -1.8420 H     1 <1>   0.0800 
 27 H       -1.5830    -2.4150    -0.6980 H     1 <1>   0.0800 
 28 H       -3.7470     2.8630     0.6640 H     1 <1>   0.0800 
 29 H       -3.2890     3.5000    -0.8920 H     1 <1>   0.0800 
 30 H        0.1550     1.9700    -0.7720 H     1 <1>   0.0800 
 31 H       -0.9600     2.4110    -2.0250 H     1 <1>   0.0800 
 32 H       -4.4140    -1.4670    -0.1530 H     1 <1>   0.0800 
 33 H       -3.3780    -2.2620     1.0290 H     1 <1>   0.0800 
 34 H       -2.5010     4.4340     1.8310 H     1 <1>   0.0800 
 35 H       -0.8650     4.6340    -1.5660 H     1 <1>   0.0800 
 36 H        0.7050     4.2020    -0.9410 H     1 <1>   0.0800 
 37 H       -0.2590     4.0490     1.3320 H     1 <1>   0.0800 
 38 H       -4.5740     6.7840     0.2780 H     1 <1>   0.0800 
 39 H       -4.1740     6.0050     1.8030 H     1 <1>   0.0800 
 40 H       -4.8770     5.0650     0.4770 H     1 <1>   0.0800 
 41 H       -1.1820     6.4270     0.3120 H     1 <1>   0.4000 
 42 H       -8.4780    -3.5460    -0.9470 H     1 <1>   0.1500 
 43 H       -7.1070    -2.6190    -2.6780 H     1 <1>   0.0800 
 44 H       -5.3760    -2.7920    -2.6430 H     1 <1>   0.0800 
 45 H       -6.1420    -1.5000    -1.7470 H     1 <1>   0.0800 
 46 H       -6.7080    -5.7790     2.2020 H     1 <1>   0.1500 
 47 H       -4.3520    -6.0210     2.3540 H     1 <1>   0.0800 
 48 H       -3.7120    -4.3950     2.3220 H     1 <1>   0.0800 
 49 H       -3.3510    -5.5090     1.0220 H     1 <1>   0.0800 
 50 H       -8.6950    -5.0260     0.9890 H     1 <1>   0.1500 
@<TRIPOS>BOND
  1   1   2  2   
  2   2   3  am  
  3   2   4  1   
  4   3   5  1   
  5   3  24  1   
  6   4   6  1   
  7   4   7  1   
  8   4  25  1   
  9   5   8  1   
 10   5  26  1   
 11   5  27  1   
 12   6   9  1   
 13   6  28  1   
 14   6  29  1   
 15   7  10  1   
 16   7  30  1   
 17   7  31  1   
 18   8  11  1   
 19   8  32  1   
 20   8  33  1   
 21   9  12  1   
 22   9  13  1   
 23   9  34  1   
 24  10  13  1   
 25  10  35  1   
 26  10  36  1   
 27  11  14  1   
 28  12  15  1   
 29  13  16  1   
 30  13  37  1   
 31  14  17  ar  
 32  14  18  ar  
 33  15  38  1   
 34  15  39  1   
 35  15  40  1   
 36  16  41  1   
 37  17  19  ar  
 38  17  20  1   
 39  18  21  ar  
 40  18  22  1   
 41  19  23  ar  
 42  19  42  1   
 43  20  43  1   
 44  20  44  1   
 45  20  45  1   
 46  21  23  ar  
 47  21  46  1   
 48  22  47  1   
 49  22  48  1   
 50  22  49  1   
 51  23  50  1   
@<TRIPOS>SUBSTRUCTURE
  1 ****   2 GROUP 4 **** **** 0

# MOE 2024.06 (io_trps.svl 2023.06)
