@<TRIPOS>MOLECULE
NONAME
53 56 1 0 0 
SMALL
USER_CHARGES


@<TRIPOS>ATOM
  1 O       -0.4320    -0.2910     0.4240 O.2   1 <1>  -0.5700 
  2 C       -1.5510    -0.0760     0.0030 C.2   1 <1>   0.5440 
  3 N       -2.1620    -1.0450    -0.7570 N.am  1 <1>  -0.6600 
  4 C       -2.2310     1.1590     0.3430 C.ar  1 <1>   0.0860 
  5 C       -1.8990    -2.4910    -0.5460 C.3   1 <1>   0.1400 
  6 C       -3.4010    -0.8790    -1.5620 C.3   1 <1>   0.1400 
  7 C       -3.4300     1.1290     1.0480 C.ar  1 <1>  -0.1500 
  8 C       -1.7100     2.4040     0.0030 C.ar  1 <1>  -0.1500 
  9 C       -3.2800    -3.1320    -0.6890 C.3   1 <1>   0.2200 
 10 C       -3.8840    -2.3060    -1.8180 C.3   1 <1>  -0.1600 
 11 C       -4.1100     2.2930     1.3810 C.ar  1 <1>   0.0830 
 12 C       -2.3700     3.5720     0.3410 C.ar  1 <1>  -0.1500 
 13 N       -4.0410    -2.8670     0.5550 N.am  1 <1>  -0.7300 
 14 O       -5.2990     2.2740     2.0430 O.3   1 <1>  -0.3630 
 15 C       -3.5720     3.5270     1.0300 C.ar  1 <1>  -0.1430 
 16 C       -5.0810    -3.5010     1.1390 C.2   1 <1>   0.5690 
 17 C       -6.2110     1.2000     1.8960 C.3   1 <1>   0.1200 
 18 C       -4.2870     4.8200     1.3950 C.3   1 <1>  -0.0970 
 19 O       -5.5250    -3.0650     2.1710 O.2   1 <1>  -0.5700 
 20 C       -5.6930    -4.7650     0.5570 C.3   1 <1>  -0.0990 
 21 C       -6.8280     1.2470     0.4930 C.3   1 <1>   0.0960 
 22 C       -6.7660    -4.5520    -0.5330 C.3   1 <1>  -0.1600 
 23 N       -7.1370    -0.0990    -0.0230 N.pl3 1 <1>   0.3140 
 24 C       -7.9260    -3.6240    -0.1190 C.3   1 <1>   0.0210 
 25 N       -7.1050    -0.3670    -1.3320 N.2   1 <1>  -0.4180 
 26 C       -7.4550    -1.2100     0.6450 C.2   1 <1>  -0.3020 
 27 C       -7.5960    -2.1520    -0.2970 C.2   1 <1>   0.0460 
 28 N       -7.3950    -1.6090    -1.5020 N.2   1 <1>  -0.2270 
 29 H       -1.4610    -2.6830     0.4190 H     1 <1>   0.0800 
 30 H       -1.2360    -2.8420    -1.3180 H     1 <1>   0.0800 
 31 H       -3.1930    -0.3640    -2.4840 H     1 <1>   0.0800 
 32 H       -4.1470    -0.3380    -1.0080 H     1 <1>   0.0800 
 33 H       -3.8040     0.1680     1.3380 H     1 <1>   0.1500 
 34 H       -0.7740     2.4460    -0.5270 H     1 <1>   0.1500 
 35 H       -3.2320    -4.1850    -0.9060 H     1 <1>   0.0800 
 36 H       -3.4900    -2.6420    -2.7600 H     1 <1>   0.0800 
 37 H       -4.9510    -2.3680    -1.8580 H     1 <1>   0.0800 
 38 H       -1.9380     4.5180     0.0650 H     1 <1>   0.1500 
 39 H       -3.7200    -2.0290     1.0390 H     1 <1>   0.3700 
 40 H       -6.9790     1.3300     2.6370 H     1 <1>   0.0800 
 41 H       -5.7020     0.2750     2.0970 H     1 <1>   0.0800 
 42 H       -4.4190     4.8730     2.4610 H     1 <1>   0.0800 
 43 H       -5.2530     4.8490     0.9250 H     1 <1>   0.0800 
 44 H       -3.7240     5.6790     1.0780 H     1 <1>   0.0800 
 45 H       -6.1380    -5.3080     1.3710 H     1 <1>   0.0800 
 46 H       -4.9080    -5.3840     0.1660 H     1 <1>   0.0800 
 47 H       -6.1440     1.7050    -0.1980 H     1 <1>   0.0800 
 48 H       -7.7350     1.8200     0.5090 H     1 <1>   0.0800 
 49 H       -7.1800    -5.5150    -0.7750 H     1 <1>   0.0800 
 50 H       -6.3100    -4.1750    -1.4300 H     1 <1>   0.0800 
 51 H       -8.2030    -3.8130     0.9030 H     1 <1>   0.0800 
 52 H       -8.7820    -3.8400    -0.7340 H     1 <1>   0.0800 
 53 H       -7.5450    -1.2840     1.7130 H     1 <1>   0.1500 
@<TRIPOS>BOND
  1   1   2  2   
  2   2   3  am  
  3   2   4  1   
  4   3   5  1   
  5   3   6  1   
  6   4   7  ar  
  7   4   8  ar  
  8   5   9  1   
  9   5  29  1   
 10   5  30  1   
 11   6  10  1   
 12   6  31  1   
 13   6  32  1   
 14   7  11  ar  
 15   7  33  1   
 16   8  12  ar  
 17   8  34  1   
 18   9  10  1   
 19   9  13  1   
 20   9  35  1   
 21  10  36  1   
 22  10  37  1   
 23  11  14  1   
 24  11  15  ar  
 25  12  15  ar  
 26  12  38  1   
 27  13  16  am  
 28  13  39  1   
 29  14  17  1   
 30  15  18  1   
 31  16  19  2   
 32  16  20  1   
 33  17  21  1   
 34  17  40  1   
 35  17  41  1   
 36  18  42  1   
 37  18  43  1   
 38  18  44  1   
 39  20  22  1   
 40  20  45  1   
 41  20  46  1   
 42  21  23  1   
 43  21  47  1   
 44  21  48  1   
 45  22  24  1   
 46  22  49  1   
 47  22  50  1   
 48  23  25  1   
 49  23  26  1   
 50  24  27  1   
 51  24  51  1   
 52  24  52  1   
 53  25  28  2   
 54  26  27  2   
 55  26  53  1   
 56  27  28  1   
@<TRIPOS>SUBSTRUCTURE
  1 ****   7 GROUP 4 **** **** 0

# MOE 2024.06 (io_trps.svl 2023.06)
