@<TRIPOS>MOLECULE
NONAME
49 51 1 0 0 
SMALL
USER_CHARGES


@<TRIPOS>ATOM
  1 O        0.1520    -0.4600     1.5560 O.2   1 <1>  -0.5700 
  2 C        0.1240    -1.6270     1.2460 C.2   1 <1>   0.5690 
  3 N        1.1610    -2.2350     0.5600 N.am  1 <1>  -0.4770 
  4 C       -1.1160    -2.4260     1.6660 C.3   1 <1>   0.2010 
  5 C        2.3120    -1.5490     0.1350 C.ar  1 <1>   0.1170 
  6 C        1.0420    -3.6460     0.1010 C.3   1 <1>   0.1400 
  7 N       -1.1600    -3.8660     1.2150 N.am  1 <1>  -0.6600 
  8 C        3.5720    -1.9360     0.5780 C.ar  1 <1>  -0.1500 
  9 C        2.2150    -0.4830    -0.7500 C.ar  1 <1>  -0.1500 
 10 C        0.1820    -4.4910     1.0480 C.3   1 <1>   0.1400 
 11 C       -2.3690    -4.4790     1.0140 C.2   1 <1>   0.5690 
 12 C        4.7120    -1.2880     0.1350 C.ar  1 <1>  -0.1440 
 13 C        3.3470     0.1750    -1.2000 C.ar  1 <1>  -0.1440 
 14 O       -3.4050    -3.8890     1.2010 O.2   1 <1>  -0.5700 
 15 C       -2.4340    -5.9330     0.5500 C.3   1 <1>  -0.0990 
 16 C        4.5930    -0.2350    -0.7570 C.ar  1 <1>  -0.1500 
 17 C        6.0870    -1.7130     0.6180 C.3   1 <1>  -0.0970 
 18 C        3.2330     1.3390    -2.1670 C.3   1 <1>  -0.0970 
 19 C       -3.8650    -6.4810     0.3760 C.3   1 <1>  -0.1600 
 20 C       -3.8600    -7.9410    -0.0940 C.3   1 <1>   0.0960 
 21 N       -5.2380    -8.4400    -0.2680 N.pl3 1 <1>   0.0480 
 22 C       -5.9510    -9.2260     0.5720 C.2   1 <1>   0.0360 
 23 C       -6.0580    -8.2310    -1.3140 C.2   1 <1>  -0.3020 
 24 N       -7.1340    -9.5230     0.1410 N.2   1 <1>  -0.5650 
 25 C       -7.2040    -8.8950    -1.0480 C.2   1 <1>   0.0770 
 26 H       -1.9770    -1.9050     1.2860 H     1 <1>   0.0800 
 27 H       -1.1750    -2.4030     2.7390 H     1 <1>   0.0800 
 28 H        2.0220    -4.0860     0.0320 H     1 <1>   0.0800 
 29 H        0.6080    -3.6540    -0.8830 H     1 <1>   0.0800 
 30 H        3.6510    -2.7460     1.2780 H     1 <1>   0.1500 
 31 H        1.2400    -0.1720    -1.0780 H     1 <1>   0.1500 
 32 H        0.6660    -4.5540     2.0080 H     1 <1>   0.0800 
 33 H        0.1030    -5.4860     0.6520 H     1 <1>   0.0800 
 34 H       -1.9160    -6.5350     1.2730 H     1 <1>   0.0800 
 35 H       -1.9190    -6.0040    -0.3900 H     1 <1>   0.0800 
 36 H        5.4750     0.2720    -1.1050 H     1 <1>   0.1500 
 37 H        6.0120    -2.4480     1.3990 H     1 <1>   0.0800 
 38 H        6.6190    -0.8610     1.0020 H     1 <1>   0.0800 
 39 H        6.6460    -2.1330    -0.1990 H     1 <1>   0.0800 
 40 H        2.2070     1.6300    -2.2980 H     1 <1>   0.0800 
 41 H        3.6390     1.0610    -3.1230 H     1 <1>   0.0800 
 42 H        3.7790     2.1840    -1.7880 H     1 <1>   0.0800 
 43 H       -4.3890    -5.8750    -0.3450 H     1 <1>   0.0800 
 44 H       -4.3880    -6.4100     1.3150 H     1 <1>   0.0800 
 45 H       -3.3580    -8.5620     0.6260 H     1 <1>   0.0800 
 46 H       -3.3490    -8.0270    -1.0360 H     1 <1>   0.0800 
 47 H       -5.5520    -9.5650     1.5110 H     1 <1>   0.1500 
 48 H       -5.7930    -7.6370    -2.1690 H     1 <1>   0.1500 
 49 H       -8.0900    -8.9540    -1.6580 H     1 <1>   0.1500 
@<TRIPOS>BOND
  1   1   2  2   
  2   2   3  am  
  3   2   4  1   
  4   3   5  1   
  5   3   6  1   
  6   4   7  1   
  7   4  26  1   
  8   4  27  1   
  9   5   8  ar  
 10   5   9  ar  
 11   6  10  1   
 12   6  28  1   
 13   6  29  1   
 14   7  10  1   
 15   7  11  am  
 16   8  12  ar  
 17   8  30  1   
 18   9  13  ar  
 19   9  31  1   
 20  10  32  1   
 21  10  33  1   
 22  11  14  2   
 23  11  15  1   
 24  12  16  ar  
 25  12  17  1   
 26  13  16  ar  
 27  13  18  1   
 28  15  19  1   
 29  15  34  1   
 30  15  35  1   
 31  16  36  1   
 32  17  37  1   
 33  17  38  1   
 34  17  39  1   
 35  18  40  1   
 36  18  41  1   
 37  18  42  1   
 38  19  20  1   
 39  19  43  1   
 40  19  44  1   
 41  20  21  1   
 42  20  45  1   
 43  20  46  1   
 44  21  22  1   
 45  21  23  1   
 46  22  24  2   
 47  22  47  1   
 48  23  25  2   
 49  23  48  1   
 50  24  25  1   
 51  25  49  1   
@<TRIPOS>SUBSTRUCTURE
  1 ****   7 GROUP 4 **** **** 0

# MOE 2024.06 (io_trps.svl 2023.06)
