@<TRIPOS>MOLECULE
NONAME
44 46 1 0 0 
SMALL
USER_CHARGES


@<TRIPOS>ATOM
  1 S       -0.0660     0.2540    -0.3350 S.o2  1 <1>   1.4470 
  2 O        1.2240     0.7070    -0.7910 O.2   1 <1>  -0.6500 
  3 O       -0.7830     0.9700     0.6890 O.2   1 <1>  -0.6500 
  4 N       -1.0170     0.4820    -1.6690 N.am  1 <1>  -0.9780 
  5 C       -0.1020    -1.5410    -0.0600 C.ar  1 <1>  -0.0090 
  6 C        0.8040    -2.3860    -0.6900 C.ar  1 <1>  -0.1500 
  7 C       -1.0500    -2.1240     0.7730 C.ar  1 <1>  -0.1500 
  8 C        0.7650    -3.7550    -0.4950 C.ar  1 <1>  -0.1500 
  9 C       -1.0890    -3.4930     0.9700 C.ar  1 <1>  -0.1500 
 10 C       -0.1880    -4.3430     0.3320 C.ar  1 <1>   0.0860 
 11 C       -0.2250    -5.7820     0.5200 C.2   1 <1>   0.5440 
 12 O        0.7860    -6.3720     0.8460 O.2   1 <1>  -0.5700 
 13 N       -1.3770    -6.5090     0.3250 N.am  1 <1>  -0.6600 
 14 C       -2.5520    -6.0510    -0.4620 C.3   1 <1>   0.1400 
 15 C       -1.4290    -7.9830     0.5100 C.3   1 <1>   0.1400 
 16 C       -3.5410    -7.2120    -0.3780 C.3   1 <1>   0.2000 
 17 C       -2.6410    -8.4500    -0.3060 C.3   1 <1>  -0.0800 
 18 O       -4.2500    -7.0830     0.8070 O.3   1 <1>  -0.6800 
 19 C       -3.3210    -9.7150     0.2520 C.3   1 <1>   0.0200 
 20 C       -2.4380   -10.9500     0.1760 C.2   1 <1>  -0.0400 
 21 O       -2.8610   -12.0550     0.7320 O.3   1 <1>  -0.0190 
 22 C       -1.2370   -11.2020    -0.3680 C.2   1 <1>  -0.1500 
 23 N       -2.0080   -13.0280     0.5930 N.2   1 <1>  -0.4100 
 24 C       -1.0190   -12.5440    -0.0660 C.2   1 <1>   0.1080 
 25 C        0.2120   -13.3310    -0.4550 C.3   1 <1>  -0.0590 
 26 H       -0.3940     0.9600    -2.3160 H     1 <1>   0.4200 
 27 H       -1.6880     1.1800    -1.3560 H     1 <1>   0.4200 
 28 H        1.5550    -1.9640    -1.3390 H     1 <1>   0.1500 
 29 H       -1.7640    -1.4940     1.2790 H     1 <1>   0.1500 
 30 H        1.4850    -4.3880    -0.9860 H     1 <1>   0.1500 
 31 H       -1.8250    -3.9140     1.6330 H     1 <1>   0.1500 
 32 H       -2.9790    -5.1440    -0.0730 H     1 <1>   0.0800 
 33 H       -2.2510    -5.8990    -1.4840 H     1 <1>   0.0800 
 34 H       -0.5190    -8.4450     0.1680 H     1 <1>   0.0800 
 35 H       -1.5610    -8.1990     1.5570 H     1 <1>   0.0800 
 36 H       -4.2410    -7.2350    -1.1960 H     1 <1>   0.0800 
 37 H       -2.3010    -8.6590    -1.3050 H     1 <1>   0.0800 
 38 H       -3.6170    -6.9310     1.5370 H     1 <1>   0.4000 
 39 H       -4.2230    -9.9090    -0.3020 H     1 <1>   0.0800 
 40 H       -3.5990    -9.5610     1.2790 H     1 <1>   0.0800 
 41 H       -0.5680   -10.5640    -0.9140 H     1 <1>   0.1500 
 42 H        0.3210   -13.3340    -1.5240 H     1 <1>   0.0800 
 43 H        0.1220   -14.3460    -0.1120 H     1 <1>   0.0800 
 44 H        1.0840   -12.8900    -0.0090 H     1 <1>   0.0800 
@<TRIPOS>BOND
  1   1   2  2   
  2   1   3  2   
  3   1   4  am  
  4   1   5  1   
  5   4  26  1   
  6   4  27  1   
  7   5   6  ar  
  8   5   7  ar  
  9   6   8  ar  
 10   6  28  1   
 11   7   9  ar  
 12   7  29  1   
 13   8  10  ar  
 14   8  30  1   
 15   9  10  ar  
 16   9  31  1   
 17  10  11  1   
 18  11  12  2   
 19  11  13  am  
 20  13  14  1   
 21  13  15  1   
 22  14  16  1   
 23  14  32  1   
 24  14  33  1   
 25  15  17  1   
 26  15  34  1   
 27  15  35  1   
 28  16  17  1   
 29  16  18  1   
 30  16  36  1   
 31  17  19  1   
 32  17  37  1   
 33  18  38  1   
 34  19  20  1   
 35  19  39  1   
 36  19  40  1   
 37  20  21  1   
 38  20  22  2   
 39  21  23  1   
 40  22  24  1   
 41  22  41  1   
 42  23  24  2   
 43  24  25  1   
 44  25  42  1   
 45  25  43  1   
 46  25  44  1   
@<TRIPOS>SUBSTRUCTURE
  1 ****  13 GROUP 4 **** **** 0

# MOE 2024.06 (io_trps.svl 2023.06)
