@<TRIPOS>MOLECULE
NONAME
35 36 1 0 0 
SMALL
USER_CHARGES


@<TRIPOS>ATOM
  1 S        1.0660     2.4000     1.9760 S.3   1 <1>  -0.4600 
  2 C        2.6830     3.2170     2.0050 C.3   1 <1>   0.0700 
  3 C        0.8500     2.0240     0.2160 C.3   1 <1>   0.0700 
  4 C        3.7060     2.3170     1.3000 C.3   1 <1>   0.3430 
  5 C        2.0830     1.2620    -0.2900 C.3   1 <1>   0.3430 
  6 N        3.3430     2.0650    -0.1380 N.4   1 <1>  -0.9590 
  7 C        4.4980     1.4550    -0.8750 C.3   1 <1>   0.3430 
  8 C        5.2160     2.4880    -1.7620 C.3   1 <1>   0.1400 
  9 N        5.5760     3.7230    -1.0040 N.am  1 <1>  -0.4200 
 10 C        4.7150     4.7960    -0.9680 C.2   1 <1>   0.6900 
 11 C        6.7920     3.7990    -0.3540 C.2   1 <1>   0.6160 
 12 O        3.5450     4.6560    -1.2680 O.2   1 <1>  -0.5700 
 13 N        5.1660     5.9950    -0.4960 N.am  1 <1>  -0.5390 
 14 O        7.4260     2.7780    -0.1700 O.2   1 <1>  -0.5700 
 15 C        7.2290     5.0670     0.1290 C.2   1 <1>  -0.1360 
 16 C        6.4250     6.1500     0.0500 C.2   1 <1>  -0.0290 
 17 C        6.8040     7.5380     0.5270 C.3   1 <1>  -0.1020 
 18 H        2.9420     3.3660     3.0380 H     1 <1>   0.0800 
 19 H        2.5830     4.1690     1.5140 H     1 <1>   0.0800 
 20 H        0.7120     2.9540    -0.3070 H     1 <1>   0.0800 
 21 H       -0.0400     1.4250     0.1290 H     1 <1>   0.0800 
 22 H        3.7720     1.3800     1.8290 H     1 <1>   0.0800 
 23 H        4.6710     2.7940     1.3490 H     1 <1>   0.0800 
 24 H        1.9320     1.0230    -1.3290 H     1 <1>   0.0800 
 25 H        2.1720     0.3370     0.2570 H     1 <1>   0.0800 
 26 H        3.1660     2.9970    -0.5710 H     1 <1>   0.4500 
 27 H        4.1510     0.6510    -1.5030 H     1 <1>   0.0800 
 28 H        5.2070     1.0390    -0.1770 H     1 <1>   0.0800 
 29 H        4.5850     2.7480    -2.5950 H     1 <1>   0.0800 
 30 H        6.1090     2.0430    -2.1690 H     1 <1>   0.0800 
 31 H        4.5110     6.7780    -0.5660 H     1 <1>   0.3700 
 32 H        8.2160     5.1010     0.5520 H     1 <1>   0.1500 
 33 H        6.1240     7.8680     1.2920 H     1 <1>   0.0800 
 34 H        6.7690     8.2340    -0.2930 H     1 <1>   0.0800 
 35 H        7.8000     7.5410     0.9320 H     1 <1>   0.0800 
@<TRIPOS>BOND
  1   1   2  1   
  2   1   3  1   
  3   2   4  1   
  4   2  18  1   
  5   2  19  1   
  6   3   5  1   
  7   3  20  1   
  8   3  21  1   
  9   4   6  1   
 10   4  22  1   
 11   4  23  1   
 12   5   6  1   
 13   5  24  1   
 14   5  25  1   
 15   6   7  1   
 16   6  26  1   
 17   7   8  1   
 18   7  27  1   
 19   7  28  1   
 20   8   9  1   
 21   8  29  1   
 22   8  30  1   
 23   9  10  am  
 24   9  11  am  
 25  10  12  2   
 26  10  13  am  
 27  11  14  2   
 28  11  15  1   
 29  13  16  1   
 30  13  31  1   
 31  15  16  2   
 32  15  32  1   
 33  16  17  1   
 34  17  33  1   
 35  17  34  1   
 36  17  35  1   
@<TRIPOS>SUBSTRUCTURE
  1 ****   9 GROUP 4 **** **** 0

# MOE 2024.06 (io_trps.svl 2023.06)
