@<TRIPOS>MOLECULE
NONAME
51 53 1 0 0 
SMALL
USER_CHARGES


@<TRIPOS>ATOM
  1 O       -2.4460    -1.5460    -2.3270 O.3   1 <1>  -0.8290 
  2 C       -1.9030    -1.9970    -1.2870 C.ar  1 <1>   0.1390 
  3 N       -0.7810    -1.3830    -0.8440 N.ar  1 <1>  -0.3100 
  4 C       -2.4750    -3.0890    -0.6180 C.ar  1 <1>  -0.1440 
  5 N       -0.1700    -1.8230     0.2320 N.ar  1 <1>  -0.3100 
  6 C       -1.8250    -3.5400     0.4980 C.ar  1 <1>  -0.1500 
  7 C       -3.7680    -3.7280    -1.1130 C.3   1 <1>   0.0450 
  8 C       -0.6770    -2.8660     0.8640 C.ar  1 <1>   0.3920 
  9 C       -4.9870    -3.3510    -0.2760 C.2   1 <1>   0.5690 
 10 O        0.0110    -3.2600     1.9430 O.3   1 <1>  -0.5320 
 11 O       -5.8770    -4.1630    -0.1450 O.2   1 <1>  -0.5700 
 12 N       -5.1550    -2.1130     0.2860 N.am  1 <1>  -0.6600 
 13 C       -5.9940    -1.9500     1.5120 C.3   1 <1>   0.1400 
 14 C       -4.7810    -0.8760    -0.4620 C.3   1 <1>   0.1400 
 15 C       -7.4630    -1.5770     1.1860 C.3   1 <1>   0.4230 
 16 C       -5.9550     0.0990    -0.6490 C.3   1 <1>  -0.0800 
 17 N       -7.7240    -1.7300    -0.2970 N.4   1 <1>  -0.9590 
 18 C       -7.8590    -0.1990     1.7800 C.3   1 <1>   0.1200 
 19 C       -6.2070     1.0150     0.5640 C.3   1 <1>   0.1200 
 20 C       -7.2350    -0.5940    -1.1570 C.3   1 <1>   0.3430 
 21 C       -9.1160    -2.1000    -0.6410 C.3   1 <1>   0.3430 
 22 O       -7.5340     0.9070     0.9830 O.3   1 <1>  -0.5600 
 23 C       -9.4090    -3.5370    -0.2070 C.3   1 <1>  -0.1600 
 24 C      -10.7990    -3.9760    -0.6840 C.3   1 <1>  -0.1600 
 25 C      -11.0940    -5.4160    -0.2570 C.3   1 <1>  -0.2400 
 26 H       -2.1720    -4.3720     1.0770 H     1 <1>   0.1500 
 27 H       -3.6520    -4.7950    -1.0860 H     1 <1>   0.0800 
 28 H       -3.9520    -3.4590    -2.1360 H     1 <1>   0.0800 
 29 H        0.7860    -2.6750     1.9970 H     1 <1>   0.4500 
 30 H       -5.9980    -2.8810     2.0530 H     1 <1>   0.0800 
 31 H       -5.5390    -1.2270     2.1640 H     1 <1>   0.0800 
 32 H       -3.9330    -0.4000     0.0030 H     1 <1>   0.0800 
 33 H       -4.4870    -1.1610    -1.4520 H     1 <1>   0.0800 
 34 H       -8.0560    -2.3050     1.7110 H     1 <1>   0.0800 
 35 H       -5.6390     0.7610    -1.4360 H     1 <1>   0.0800 
 36 H       -7.1080    -2.5340    -0.5350 H     1 <1>   0.4500 
 37 H       -7.4060    -0.0590     2.7460 H     1 <1>   0.0800 
 38 H       -8.9250    -0.1740     1.9190 H     1 <1>   0.0800 
 39 H       -6.0550     2.0410     0.2740 H     1 <1>   0.0800 
 40 H       -5.5450     0.8080     1.3880 H     1 <1>   0.0800 
 41 H       -7.0510    -0.9660    -2.1510 H     1 <1>   0.0800 
 42 H       -8.0080     0.1540    -1.2250 H     1 <1>   0.0800 
 43 H       -9.8080    -1.4170    -0.1740 H     1 <1>   0.0800 
 44 H       -9.2470    -2.0330    -1.7090 H     1 <1>   0.0800 
 45 H       -8.6710    -4.1970    -0.6320 H     1 <1>   0.0800 
 46 H       -9.3720    -3.6220     0.8630 H     1 <1>   0.0800 
 47 H      -11.5540    -3.3270    -0.2710 H     1 <1>   0.0800 
 48 H      -10.8560    -3.9130    -1.7590 H     1 <1>   0.0800 
 49 H      -11.0750    -5.5080     0.8150 H     1 <1>   0.0800 
 50 H      -10.3680    -6.0920    -0.6750 H     1 <1>   0.0800 
 51 H      -12.0690    -5.7110    -0.6050 H     1 <1>   0.0800 
@<TRIPOS>BOND
  1   1   2  1   
  2   2   3  ar  
  3   2   4  ar  
  4   3   5  ar  
  5   4   6  ar  
  6   4   7  1   
  7   5   8  ar  
  8   6   8  ar  
  9   6  26  1   
 10   7   9  1   
 11   7  27  1   
 12   7  28  1   
 13   8  10  1   
 14   9  11  2   
 15   9  12  am  
 16  10  29  1   
 17  12  13  1   
 18  12  14  1   
 19  13  15  1   
 20  13  30  1   
 21  13  31  1   
 22  14  16  1   
 23  14  32  1   
 24  14  33  1   
 25  15  17  1   
 26  15  18  1   
 27  15  34  1   
 28  16  19  1   
 29  16  20  1   
 30  16  35  1   
 31  17  20  1   
 32  17  21  1   
 33  17  36  1   
 34  18  22  1   
 35  18  37  1   
 36  18  38  1   
 37  19  22  1   
 38  19  39  1   
 39  19  40  1   
 40  20  41  1   
 41  20  42  1   
 42  21  23  1   
 43  21  43  1   
 44  21  44  1   
 45  23  24  1   
 46  23  45  1   
 47  23  46  1   
 48  24  25  1   
 49  24  47  1   
 50  24  48  1   
 51  25  49  1   
 52  25  50  1   
 53  25  51  1   
@<TRIPOS>SUBSTRUCTURE
  1 ****  12 GROUP 4 **** **** 0

# MOE 2024.06 (io_trps.svl 2023.06)
