@<TRIPOS>MOLECULE
NONAME
50 53 1 0 0 
SMALL
USER_CHARGES


@<TRIPOS>ATOM
  1 O        0.1340     1.0040     2.0860 O.2   1 <1>  -0.5700 
  2 C       -0.1460     1.6130     1.0720 C.2   1 <1>   0.7160 
  3 N       -1.4290     1.5520     0.5730 N.am  1 <1>  -0.6600 
  4 C        0.8630     2.3840     0.4040 C.2   1 <1>  -0.0860 
  5 C       -1.7690     2.0290    -0.8040 C.3   1 <1>   0.1400 
  6 C       -2.5620     1.0810     1.4160 C.3   1 <1>   0.1400 
  7 C        1.9910     1.9230    -0.2680 C.2   1 <1>   0.2350 
  8 C        0.9750     3.7190     0.2690 C.2   1 <1>  -0.0400 
  9 C       -3.2800     2.1970    -0.9960 C.3   1 <1>  -0.1600 
 10 C       -3.6550     2.1570     1.5090 C.3   1 <1>  -0.1600 
 11 N        2.6430     2.9400    -0.7330 N.2   1 <1>  -0.4100 
 12 C        2.4060     0.5440    -0.4450 C.ar  1 <1>   0.0540 
 13 O        2.0360     4.0580    -0.4160 O.3   1 <1>  -0.0190 
 14 C        0.0700     4.8160     0.7960 C.3   1 <1>  -0.0600 
 15 C       -3.9040     2.9300     0.1980 C.3   1 <1>   0.4180 
 16 C        3.7600     0.2120    -0.4190 C.ar  1 <1>  -0.1500 
 17 C        1.4980    -0.4950    -0.6560 C.ar  1 <1>  -0.1500 
 18 O       -3.2620     4.1770     0.3460 O.3   1 <1>  -0.5600 
 19 C       -5.4030     3.1310    -0.0150 C.2   1 <1>  -0.2880 
 20 C        4.1920    -1.0910    -0.5870 C.ar  1 <1>  -0.1500 
 21 C        1.9220    -1.8010    -0.8230 C.ar  1 <1>  -0.1500 
 22 C       -3.6780     5.2260    -0.4840 C.3   1 <1>   0.1200 
 23 C       -5.9870     4.3190    -0.1870 C.2   1 <1>  -0.2760 
 24 C        3.2710    -2.1030    -0.7880 C.ar  1 <1>  -0.1500 
 25 C       -5.1460     5.5800    -0.2120 C.3   1 <1>  -0.0220 
 26 C       -7.4820     4.5280    -0.3590 C.3   1 <1>  -0.1020 
 27 H       -1.3860     1.3310    -1.5290 H     1 <1>   0.0800 
 28 H       -1.3000     2.9810    -0.9780 H     1 <1>   0.0800 
 29 H       -2.2280     0.8270     2.4080 H     1 <1>   0.0800 
 30 H       -2.9670     0.1880     0.9710 H     1 <1>   0.0800 
 31 H       -3.7360     1.2300    -1.0980 H     1 <1>   0.0800 
 32 H       -3.4780     2.7300    -1.9070 H     1 <1>   0.0800 
 33 H       -3.4030     2.8510     2.2900 H     1 <1>   0.0800 
 34 H       -4.5570     1.6630     1.8170 H     1 <1>   0.0800 
 35 H       -0.7400     4.3990     1.3670 H     1 <1>   0.0800 
 36 H       -0.3390     5.3780    -0.0230 H     1 <1>   0.0800 
 37 H        0.6320     5.4790     1.4290 H     1 <1>   0.0800 
 38 H        4.4840     0.9930    -0.2640 H     1 <1>   0.1500 
 39 H        0.4460    -0.2880    -0.6940 H     1 <1>   0.1500 
 40 H       -5.9530     2.2070    -0.0070 H     1 <1>   0.1500 
 41 H        5.2430    -1.3180    -0.5610 H     1 <1>   0.1500 
 42 H        1.2010    -2.5860    -0.9790 H     1 <1>   0.1500 
 43 H       -3.5460     4.9290    -1.5090 H     1 <1>   0.0800 
 44 H       -3.0470     6.0740    -0.2850 H     1 <1>   0.0800 
 45 H        3.6020    -3.1180    -0.9170 H     1 <1>   0.1500 
 46 H       -5.4870     6.2420    -0.9880 H     1 <1>   0.0800 
 47 H       -5.2290     6.0930     0.7290 H     1 <1>   0.0800 
 48 H       -7.8580     5.1640     0.4230 H     1 <1>   0.0800 
 49 H       -8.0020     3.5880    -0.3140 H     1 <1>   0.0800 
 50 H       -7.6870     4.9860    -1.3100 H     1 <1>   0.0800 
@<TRIPOS>BOND
  1   1   2  2   
  2   2   3  am  
  3   2   4  1   
  4   3   5  1   
  5   3   6  1   
  6   4   7  1   
  7   4   8  2   
  8   5   9  1   
  9   5  27  1   
 10   5  28  1   
 11   6  10  1   
 12   6  29  1   
 13   6  30  1   
 14   7  11  2   
 15   7  12  1   
 16   8  13  1   
 17   8  14  1   
 18   9  15  1   
 19   9  31  1   
 20   9  32  1   
 21  10  15  1   
 22  10  33  1   
 23  10  34  1   
 24  11  13  1   
 25  12  16  ar  
 26  12  17  ar  
 27  14  35  1   
 28  14  36  1   
 29  14  37  1   
 30  15  18  1   
 31  15  19  1   
 32  16  20  ar  
 33  16  38  1   
 34  17  21  ar  
 35  17  39  1   
 36  18  22  1   
 37  19  23  2   
 38  19  40  1   
 39  20  24  ar  
 40  20  41  1   
 41  21  24  ar  
 42  21  42  1   
 43  22  25  1   
 44  22  43  1   
 45  22  44  1   
 46  23  25  1   
 47  23  26  1   
 48  24  45  1   
 49  25  46  1   
 50  25  47  1   
 51  26  48  1   
 52  26  49  1   
 53  26  50  1   
@<TRIPOS>SUBSTRUCTURE
  1 ****   3 GROUP 4 **** **** 0

# MOE 2024.06 (io_trps.svl 2023.06)
