@<TRIPOS>MOLECULE
NONAME
59 62 1 0 0 
SMALL
USER_CHARGES


@<TRIPOS>ATOM
  1 O        2.8790     2.3710     1.6510 O.co2 1 <1>  -0.9000 
  2 C        2.4580     1.2350     1.4190 C.2   1 <1>   0.9060 
  3 O        2.5620     0.3400     2.2620 O.co2 1 <1>  -0.9000 
  4 C        2.1980     0.8290    -0.0470 C.3   1 <1>  -0.1060 
  5 C        3.2790    -0.2280    -0.3520 C.3   1 <1>   0.4230 
  6 C        2.4170     2.0230    -1.0380 C.3   1 <1>  -0.1600 
  7 C        0.7690     0.2670    -0.2670 C.3   1 <1>  -0.1600 
  8 N        2.9920    -1.4960     0.4150 N.4   1 <1>  -0.9590 
  9 C        4.6960     0.3920    -0.0690 C.3   1 <1>   0.3430 
 10 C        3.8840     2.4340    -1.2820 C.3   1 <1>   0.3430 
 11 C        0.5570    -1.0960     0.4070 C.3   1 <1>  -0.1600 
 12 C        1.6690    -2.0890     0.0720 C.3   1 <1>   0.3430 
 13 C        4.0620    -2.5350     0.4380 C.3   1 <1>   0.2630 
 14 N        4.7450     1.9000    -0.1890 N.4   1 <1>  -0.9590 
 15 C        6.0980     2.5010    -0.0540 C.3   1 <1>   0.4860 
 16 C        6.0260     4.0100    -0.1440 C.ar  1 <1>  -0.1440 
 17 C        6.7590     4.6900    -1.0910 C.ar  1 <1>   0.1600 
 18 C        5.2340     4.7680     0.6930 C.ar  1 <1>   0.1600 
 19 N        6.7060     5.9910    -1.2170 N.ar  1 <1>  -0.6200 
 20 N        5.1660     6.0720     0.5850 N.ar  1 <1>  -0.6200 
 21 C        5.9040     6.6200    -0.3730 C.ar  1 <1>   0.7200 
 22 N        5.8570     7.9560    -0.5330 N.pl3 1 <1>  -0.8690 
 23 C        5.5010     8.8930     0.5430 C.3   1 <1>   0.3530 
 24 C        6.4310    10.0900     0.4470 C.ar  1 <1>  -0.1440 
 25 C        7.6950    10.0330     1.0140 C.ar  1 <1>  -0.1500 
 26 C        6.0310    11.2440    -0.2100 C.ar  1 <1>  -0.1500 
 27 C        8.5490    11.1190     0.9310 C.ar  1 <1>  -0.1500 
 28 C        6.8840    12.3310    -0.2930 C.ar  1 <1>  -0.1500 
 29 C        8.1430    12.2700     0.2780 C.ar  1 <1>  -0.1500 
 30 H        3.2270    -0.4580    -1.4020 H     1 <1>   0.0800 
 31 H        1.8840     2.8830    -0.6660 H     1 <1>   0.0800 
 32 H        1.9870     1.8020    -1.9990 H     1 <1>   0.0800 
 33 H        0.0450     0.9690     0.1160 H     1 <1>   0.0800 
 34 H        0.5770     0.1490    -1.3200 H     1 <1>   0.0800 
 35 H        2.8530    -1.1290     1.3990 H     1 <1>   0.4500 
 36 H        5.4070    -0.0480    -0.7470 H     1 <1>   0.0800 
 37 H        4.9750     0.1310     0.9400 H     1 <1>   0.0800 
 38 H        3.9380     3.5120    -1.3170 H     1 <1>   0.0800 
 39 H        4.2220     2.0510    -2.2310 H     1 <1>   0.0800 
 40 H       -0.3870    -1.5050     0.0930 H     1 <1>   0.0800 
 41 H        0.5020    -0.9740     1.4760 H     1 <1>   0.0800 
 42 H        1.6360    -2.3350    -0.9770 H     1 <1>   0.0800 
 43 H        1.5130    -2.9920     0.6400 H     1 <1>   0.0800 
 44 H        4.2470    -2.9080    -0.5570 H     1 <1>   0.0800 
 45 H        3.7590    -3.3600     1.0630 H     1 <1>   0.0800 
 46 H        4.9750    -2.1300     0.8400 H     1 <1>   0.0800 
 47 H        4.2290     2.2490     0.6650 H     1 <1>   0.4500 
 48 H        6.5230     2.2270     0.8990 H     1 <1>   0.0800 
 49 H        6.7420     2.1270    -0.8330 H     1 <1>   0.0800 
 50 H        7.4080     4.1630    -1.7700 H     1 <1>   0.1500 
 51 H        4.6350     4.3050     1.4640 H     1 <1>   0.1500 
 52 H        6.5780     8.3140    -1.1580 H     1 <1>   0.4000 
 53 H        4.4760     9.1990     0.4240 H     1 <1>   0.0800 
 54 H        5.6070     8.4240     1.5060 H     1 <1>   0.0800 
 55 H        8.0180     9.1380     1.5190 H     1 <1>   0.1500 
 56 H        5.0560    11.3000    -0.6620 H     1 <1>   0.1500 
 57 H        9.5280    11.0680     1.3730 H     1 <1>   0.1500 
 58 H        6.5680    13.2240    -0.8040 H     1 <1>   0.1500 
 59 H        8.8060    13.1140     0.2130 H     1 <1>   0.1500 
@<TRIPOS>BOND
  1   1   2  ar  
  2   2   3  ar  
  3   2   4  1   
  4   4   5  1   
  5   4   6  1   
  6   4   7  1   
  7   5   8  1   
  8   5   9  1   
  9   5  30  1   
 10   6  10  1   
 11   6  31  1   
 12   6  32  1   
 13   7  11  1   
 14   7  33  1   
 15   7  34  1   
 16   8  12  1   
 17   8  13  1   
 18   8  35  1   
 19   9  14  1   
 20   9  36  1   
 21   9  37  1   
 22  10  14  1   
 23  10  38  1   
 24  10  39  1   
 25  11  12  1   
 26  11  40  1   
 27  11  41  1   
 28  12  42  1   
 29  12  43  1   
 30  13  44  1   
 31  13  45  1   
 32  13  46  1   
 33  14  15  1   
 34  14  47  1   
 35  15  16  1   
 36  15  48  1   
 37  15  49  1   
 38  16  17  ar  
 39  16  18  ar  
 40  17  19  ar  
 41  17  50  1   
 42  18  20  ar  
 43  18  51  1   
 44  19  21  ar  
 45  20  21  ar  
 46  21  22  1   
 47  22  23  1   
 48  22  52  1   
 49  23  24  1   
 50  23  53  1   
 51  23  54  1   
 52  24  25  ar  
 53  24  26  ar  
 54  25  27  ar  
 55  25  55  1   
 56  26  28  ar  
 57  26  56  1   
 58  27  29  ar  
 59  27  57  1   
 60  28  29  ar  
 61  28  58  1   
 62  29  59  1   
@<TRIPOS>SUBSTRUCTURE
  1 ****  18 GROUP 4 **** **** 0

# MOE 2024.06 (io_trps.svl 2023.06)
