@<TRIPOS>MOLECULE
NONAME
48 50 1 0 0 
SMALL
USER_CHARGES


@<TRIPOS>ATOM
  1 O        0.1600    -0.3130    -1.4800 O.2   1 <1>  -0.5700 
  2 C       -0.6420     0.5450    -1.2030 C.2   1 <1>   0.5690 
  3 N       -1.9100     0.2450    -0.7920 N.am  1 <1>  -0.6600 
  4 C       -0.1930     1.9850    -1.2940 C.3   1 <1>  -0.0990 
  5 C       -2.9690     1.2130    -0.3980 C.3   1 <1>   0.1400 
  6 C       -2.3830    -1.1480    -0.6220 C.3   1 <1>   0.1400 
  7 C        0.2190     2.4860     0.0950 C.3   1 <1>   0.0960 
  8 C       -4.2020     0.3520    -0.1240 C.3   1 <1>   0.2000 
  9 C       -3.6610    -1.0370     0.2120 C.3   1 <1>  -0.0800 
 10 N       -0.2530     3.8660     0.3030 N.pl3 1 <1>   0.3140 
 11 O       -4.9500     0.8440     0.9340 O.3   1 <1>  -0.6800 
 12 C       -4.6770    -2.1560    -0.0590 C.3   1 <1>  -0.0160 
 13 N       -1.5240     4.1030     0.6800 N.2   1 <1>  -0.7070 
 14 C        0.4320     5.0190     0.1310 C.2   1 <1>  -0.3320 
 15 C       -4.0980    -3.5190     0.2860 C.ar  1 <1>  -0.1440 
 16 C       -1.6170     5.3920     0.7450 C.2   1 <1>   0.1080 
 17 C       -0.4250     6.0230     0.4130 C.2   1 <1>  -0.1500 
 18 C        1.8850     5.1190    -0.3020 C.3   1 <1>  -0.0600 
 19 C       -4.0930    -3.9960     1.5800 C.ar  1 <1>  -0.1500 
 20 C       -3.5470    -4.3480    -0.6710 C.ar  1 <1>  -0.1500 
 21 C       -2.8950     6.0930     1.1420 C.3   1 <1>  -0.0590 
 22 C       -3.5520    -5.2420     1.8500 C.ar  1 <1>   0.1600 
 23 C       -3.0300    -5.5770    -0.2960 C.ar  1 <1>   0.1600 
 24 N       -3.0190    -6.0440     0.9420 N.ar  1 <1>  -0.6200 
 25 H        0.6440     2.0510    -1.9640 H     1 <1>   0.0800 
 26 H       -0.9910     2.5780    -1.7020 H     1 <1>   0.0800 
 27 H       -2.6640     1.7330     0.4930 H     1 <1>   0.0800 
 28 H       -3.1630     1.9160    -1.1900 H     1 <1>   0.0800 
 29 H       -2.5900    -1.5630    -1.5930 H     1 <1>   0.0800 
 30 H       -1.6400    -1.7510    -0.1280 H     1 <1>   0.0800 
 31 H        1.2850     2.4440     0.2130 H     1 <1>   0.0800 
 32 H       -0.2280     1.8780     0.8610 H     1 <1>   0.0800 
 33 H       -4.8300     0.3240    -0.9990 H     1 <1>   0.0800 
 34 H       -3.3680    -1.0630     1.2470 H     1 <1>   0.0800 
 35 H       -4.3750     1.0170     1.7050 H     1 <1>   0.4000 
 36 H       -4.9770    -2.1390    -1.0920 H     1 <1>   0.0800 
 37 H       -5.5590    -1.9850     0.5350 H     1 <1>   0.0800 
 38 H       -0.2540     7.0840     0.3920 H     1 <1>   0.1500 
 39 H        2.1770     6.1510    -0.3810 H     1 <1>   0.0800 
 40 H        2.0210     4.6510    -1.2610 H     1 <1>   0.0800 
 41 H        2.5220     4.6380     0.4190 H     1 <1>   0.0800 
 42 H       -4.5050    -3.4110     2.3820 H     1 <1>   0.1500 
 43 H       -3.5130    -4.0530    -1.7040 H     1 <1>   0.1500 
 44 H       -2.7660     7.1580     1.1050 H     1 <1>   0.0800 
 45 H       -3.1670     5.8030     2.1400 H     1 <1>   0.0800 
 46 H       -3.6830     5.8090     0.4690 H     1 <1>   0.0800 
 47 H       -3.5570    -5.5980     2.8660 H     1 <1>   0.1500 
 48 H       -2.6030    -6.2100    -1.0550 H     1 <1>   0.1500 
@<TRIPOS>BOND
  1   1   2  2   
  2   2   3  am  
  3   2   4  1   
  4   3   5  1   
  5   3   6  1   
  6   4   7  1   
  7   4  25  1   
  8   4  26  1   
  9   5   8  1   
 10   5  27  1   
 11   5  28  1   
 12   6   9  1   
 13   6  29  1   
 14   6  30  1   
 15   7  10  1   
 16   7  31  1   
 17   7  32  1   
 18   8   9  1   
 19   8  11  1   
 20   8  33  1   
 21   9  12  1   
 22   9  34  1   
 23  10  13  1   
 24  10  14  1   
 25  11  35  1   
 26  12  15  1   
 27  12  36  1   
 28  12  37  1   
 29  13  16  2   
 30  14  17  2   
 31  14  18  1   
 32  15  19  ar  
 33  15  20  ar  
 34  16  17  1   
 35  16  21  1   
 36  17  38  1   
 37  18  39  1   
 38  18  40  1   
 39  18  41  1   
 40  19  22  ar  
 41  19  42  1   
 42  20  23  ar  
 43  20  43  1   
 44  21  44  1   
 45  21  45  1   
 46  21  46  1   
 47  22  24  ar  
 48  22  47  1   
 49  23  24  ar  
 50  23  48  1   
@<TRIPOS>SUBSTRUCTURE
  1 ****   3 GROUP 4 **** **** 0

# MOE 2024.06 (io_trps.svl 2023.06)
