@<TRIPOS>MOLECULE
NONAME
49 51 1 0 0 
SMALL
USER_CHARGES


@<TRIPOS>ATOM
  1 O       -2.0680     1.9280     1.5880 O.2   1 <1>  -0.5700 
  2 C       -2.2110     1.6150     0.4250 C.2   1 <1>   0.5690 
  3 N       -3.3890     1.0520    -0.0150 N.am  1 <1>  -0.6600 
  4 C       -1.0230     1.8470    -0.5450 C.3   1 <1>   0.2610 
  5 C       -4.5470     0.8510     0.8980 C.3   1 <1>   0.1400 
  6 C       -3.6070     0.4820    -1.3750 C.3   1 <1>   0.1400 
  7 O       -0.3770     0.6500    -0.8470 O.3   1 <1>  -0.6800 
  8 C        0.0560     2.8020    -0.0220 C.3   1 <1>  -0.2400 
  9 C       -4.8050    -0.6490     1.0540 C.3   1 <1>  -0.1600 
 10 C       -3.8560    -1.0230    -1.2490 C.3   1 <1>  -0.1600 
 11 C       -5.0270    -1.3350    -0.3050 C.3   1 <1>   0.4240 
 12 O       -6.1550    -0.7490    -0.9140 O.3   1 <1>  -0.5600 
 13 C       -5.1940    -2.8610    -0.1410 C.ar  1 <1>  -0.1430 
 14 C       -7.4100    -1.2320    -0.5470 C.3   1 <1>   0.1200 
 15 C       -6.3840    -3.4960    -0.4800 C.ar  1 <1>  -0.1430 
 16 C       -4.1490    -3.6330     0.3560 C.ar  1 <1>  -0.1500 
 17 C       -7.5390    -2.6770    -1.0190 C.3   1 <1>  -0.0170 
 18 C       -6.5230    -4.8670    -0.3240 C.ar  1 <1>  -0.1500 
 19 C       -4.2740    -5.0030     0.5030 C.ar  1 <1>   0.0830 
 20 C       -5.4830    -5.6260     0.1800 C.ar  1 <1>   0.0830 
 21 O       -3.1920    -5.6840     0.9540 O.3   1 <1>  -0.3630 
 22 O       -5.6980    -6.9550     0.3420 O.3   1 <1>  -0.3620 
 23 C       -2.5880    -6.5690     0.0370 C.3   1 <1>   0.0400 
 24 C       -5.6800    -7.4350     1.6680 C.3   1 <1>   0.0400 
 25 H       -1.4070     2.2450    -1.4660 H     1 <1>   0.0800 
 26 H       -4.3560     1.2890     1.8630 H     1 <1>   0.0800 
 27 H       -5.4140     1.3340     0.4800 H     1 <1>   0.0800 
 28 H       -4.4620     0.9580    -1.8240 H     1 <1>   0.0800 
 29 H       -2.7610     0.6460    -2.0160 H     1 <1>   0.0800 
 30 H       -0.0670     0.2430    -0.0140 H     1 <1>   0.4000 
 31 H        0.4890     2.4230     0.8870 H     1 <1>   0.0800 
 32 H       -0.3850     3.7590     0.1920 H     1 <1>   0.0800 
 33 H        0.8240     2.9380    -0.7610 H     1 <1>   0.0800 
 34 H       -5.6500    -0.8130     1.6950 H     1 <1>   0.0800 
 35 H       -3.9520    -1.0830     1.5420 H     1 <1>   0.0800 
 36 H       -2.9540    -1.4790    -0.8880 H     1 <1>   0.0800 
 37 H       -4.0640    -1.4410    -2.2170 H     1 <1>   0.0800 
 38 H       -7.5200    -1.1610     0.5200 H     1 <1>   0.0800 
 39 H       -8.1520    -0.6140    -1.0200 H     1 <1>   0.0800 
 40 H       -3.2140    -3.1820     0.6340 H     1 <1>   0.1500 
 41 H       -8.4740    -3.0800    -0.6740 H     1 <1>   0.0800 
 42 H       -7.5340    -2.7050    -2.0940 H     1 <1>   0.0800 
 43 H       -7.4410    -5.3590    -0.5870 H     1 <1>   0.1500 
 44 H       -1.7000    -6.9700     0.4910 H     1 <1>   0.0800 
 45 H       -2.3330    -6.0230    -0.8540 H     1 <1>   0.0800 
 46 H       -3.2720    -7.3640    -0.1950 H     1 <1>   0.0800 
 47 H       -5.9890    -8.4650     1.6560 H     1 <1>   0.0800 
 48 H       -6.3640    -6.8510     2.2580 H     1 <1>   0.0800 
 49 H       -4.6840    -7.3560     2.0640 H     1 <1>   0.0800 
@<TRIPOS>BOND
  1   1   2  2   
  2   2   3  am  
  3   2   4  1   
  4   3   5  1   
  5   3   6  1   
  6   4   7  1   
  7   4   8  1   
  8   4  25  1   
  9   5   9  1   
 10   5  26  1   
 11   5  27  1   
 12   6  10  1   
 13   6  28  1   
 14   6  29  1   
 15   7  30  1   
 16   8  31  1   
 17   8  32  1   
 18   8  33  1   
 19   9  11  1   
 20   9  34  1   
 21   9  35  1   
 22  10  11  1   
 23  10  36  1   
 24  10  37  1   
 25  11  12  1   
 26  11  13  1   
 27  12  14  1   
 28  13  15  ar  
 29  13  16  ar  
 30  14  17  1   
 31  14  38  1   
 32  14  39  1   
 33  15  17  1   
 34  15  18  ar  
 35  16  19  ar  
 36  16  40  1   
 37  17  41  1   
 38  17  42  1   
 39  18  20  ar  
 40  18  43  1   
 41  19  20  ar  
 42  19  21  1   
 43  20  22  1   
 44  21  23  1   
 45  22  24  1   
 46  23  44  1   
 47  23  45  1   
 48  23  46  1   
 49  24  47  1   
 50  24  48  1   
 51  24  49  1   
@<TRIPOS>SUBSTRUCTURE
  1 ****  11 GROUP 4 **** **** 0

# MOE 2024.06 (io_trps.svl 2023.06)
