@<TRIPOS>MOLECULE
NONAME
37 39 1 0 0 
SMALL
USER_CHARGES


@<TRIPOS>ATOM
  1 S        0.4860     0.0310     1.1320 S.3   1 <1>  -0.0800 
  2 C        0.8480    -0.9990    -0.2090 C.2   1 <1>   0.1980 
  3 C        0.6970     1.3630     0.0520 C.2   1 <1>   0.1980 
  4 N        1.0870    -0.3540    -1.2800 N.2   1 <1>  -0.3380 
  5 C        0.8430    -2.5040     0.0130 C.3   1 <1>   0.2900 
  6 N        0.9990     1.0050    -1.1300 N.2   1 <1>  -0.3380 
  7 C        0.5070     2.7590     0.5990 C.3   1 <1>  -0.0600 
  8 N       -0.5000    -3.0180     0.3600 N.3   1 <1>  -0.8100 
  9 C       -1.4950    -2.7600    -0.6880 C.3   1 <1>   0.1100 
 10 C       -0.5150    -4.4720     0.5680 C.3   1 <1>   0.1100 
 11 C       -2.6350    -3.7090    -0.3440 C.3   1 <1>   0.2000 
 12 C       -1.9140    -4.9650     0.1490 C.3   1 <1>  -0.0800 
 13 O       -3.3160    -3.1670     0.7280 O.3   1 <1>  -0.6800 
 14 C       -1.8530    -6.0390    -0.9530 C.3   1 <1>  -0.0170 
 15 C       -1.1780    -7.3130    -0.4690 C.ar  1 <1>   0.1670 
 16 N        0.1120    -7.4430    -0.7350 N.ar  1 <1>  -0.6200 
 17 C       -1.9230    -8.2720     0.2160 C.ar  1 <1>   0.1600 
 18 C        0.6010    -8.5840    -0.2780 C.ar  1 <1>   0.1600 
 19 N       -1.4340    -9.4120     0.6760 N.ar  1 <1>  -0.6200 
 20 C       -0.1470    -9.5360     0.4050 C.ar  1 <1>   0.1600 
 21 H        1.5260    -2.7360     0.8110 H     1 <1>   0.0800 
 22 H        1.1970    -2.9850    -0.8830 H     1 <1>   0.0800 
 23 H        0.6680     3.4800    -0.1820 H     1 <1>   0.0800 
 24 H        1.2090     2.9390     1.3920 H     1 <1>   0.0800 
 25 H       -0.4930     2.8700     0.9770 H     1 <1>   0.0800 
 26 H       -1.8160    -1.7310    -0.6940 H     1 <1>   0.0800 
 27 H       -1.0920    -3.0130    -1.6540 H     1 <1>   0.0800 
 28 H        0.2460    -4.9400    -0.0350 H     1 <1>   0.0800 
 29 H       -0.3210    -4.6970     1.6030 H     1 <1>   0.0800 
 30 H       -3.3290    -3.8710    -1.1510 H     1 <1>   0.0800 
 31 H       -2.4280    -5.3810     1.0000 H     1 <1>   0.0800 
 32 H       -2.6320    -2.8290     1.3460 H     1 <1>   0.4000 
 33 H       -1.3240    -5.6600    -1.8100 H     1 <1>   0.0800 
 34 H       -2.8520    -6.2770    -1.2710 H     1 <1>   0.0800 
 35 H       -2.9680    -8.0880     0.3920 H     1 <1>   0.1500 
 36 H        1.6450    -8.7770    -0.4520 H     1 <1>   0.1500 
 37 H        0.3410   -10.4350     0.7380 H     1 <1>   0.1500 
@<TRIPOS>BOND
  1   1   2  1   
  2   1   3  1   
  3   2   4  2   
  4   2   5  1   
  5   3   6  2   
  6   3   7  1   
  7   4   6  1   
  8   5   8  1   
  9   5  21  1   
 10   5  22  1   
 11   7  23  1   
 12   7  24  1   
 13   7  25  1   
 14   8   9  1   
 15   8  10  1   
 16   9  11  1   
 17   9  26  1   
 18   9  27  1   
 19  10  12  1   
 20  10  28  1   
 21  10  29  1   
 22  11  12  1   
 23  11  13  1   
 24  11  30  1   
 25  12  14  1   
 26  12  31  1   
 27  13  32  1   
 28  14  15  1   
 29  14  33  1   
 30  14  34  1   
 31  15  16  ar  
 32  15  17  ar  
 33  16  18  ar  
 34  17  19  ar  
 35  17  35  1   
 36  18  20  ar  
 37  18  36  1   
 38  19  20  ar  
 39  20  37  1   
@<TRIPOS>SUBSTRUCTURE
  1 ****  10 GROUP 4 **** **** 0

# MOE 2024.06 (io_trps.svl 2023.06)
