@<TRIPOS>MOLECULE
NONAME
51 54 1 0 0 
SMALL
USER_CHARGES


@<TRIPOS>ATOM
  1 F       -2.3220    -1.0720    -1.8060 F     1 <1>  -0.1900 
  2 C       -1.9600    -2.1080    -1.0920 C.ar  1 <1>   0.1900 
  3 C       -2.4650    -3.3450    -1.4100 C.ar  1 <1>  -0.1500 
  4 C       -1.0700    -1.8930    -0.0350 C.ar  1 <1>  -0.1500 
  5 C       -2.0590    -4.4240    -0.6290 C.ar  1 <1>   0.2270 
  6 C       -0.6700    -2.9630     0.7350 C.ar  1 <1>  -0.1500 
  7 N       -2.4030    -5.7380    -0.7250 N.2   1 <1>  -0.5650 
  8 C       -1.1770    -4.2290     0.4220 C.ar  1 <1>  -0.1520 
  9 C       -1.7540    -6.3080     0.2280 C.2   1 <1>   0.0060 
 10 N       -0.9920    -5.4590     0.9640 N.pl3 1 <1>   0.0330 
 11 C       -1.8360    -7.7920     0.5190 C.3   1 <1>   0.0200 
 12 C       -2.9420    -8.0720     1.5390 C.3   1 <1>  -0.0990 
 13 C       -3.2030    -9.5590     1.6380 C.2   1 <1>   0.5690 
 14 O       -2.5500   -10.1910     2.4330 O.2   1 <1>  -0.5700 
 15 N       -4.1280   -10.1510     0.8260 N.am  1 <1>  -0.6600 
 16 C       -4.9080    -9.5050    -0.2640 C.3   1 <1>   0.1400 
 17 C       -4.4210   -11.5990     0.8630 C.3   1 <1>   0.1400 
 18 C       -5.7490   -10.6250    -0.8960 C.3   1 <1>   0.2000 
 19 C       -5.0020   -11.9090    -0.5170 C.3   1 <1>  -0.0800 
 20 O       -7.0190   -10.6530    -0.3100 O.3   1 <1>  -0.5600 
 21 C       -5.8630   -13.1850    -0.5520 C.3   1 <1>   0.0200 
 22 C       -7.9560    -9.7930    -0.8790 C.3   1 <1>   0.0400 
 23 C       -5.0570   -14.4570    -0.3510 C.2   1 <1>  -0.0400 
 24 O       -5.6920   -15.5980    -0.2860 O.3   1 <1>  -0.0190 
 25 C       -3.7450   -14.7140    -0.2180 C.2   1 <1>  -0.1500 
 26 N       -4.8790   -16.6000    -0.1150 N.2   1 <1>  -0.4100 
 27 C       -3.6990   -16.0970    -0.0690 C.2   1 <1>   0.1080 
 28 C       -2.4360   -16.9060     0.1230 C.3   1 <1>  -0.0590 
 29 H       -3.1470    -3.4970    -2.2240 H     1 <1>   0.1500 
 30 H       -0.7140    -0.8970     0.1570 H     1 <1>   0.1500 
 31 H        0.0140    -2.8360     1.5570 H     1 <1>   0.1500 
 32 H       -0.4000    -5.6920     1.7650 H     1 <1>   0.2700 
 33 H       -2.0540    -8.3050    -0.4020 H     1 <1>   0.0800 
 34 H       -0.8920    -8.1590     0.8830 H     1 <1>   0.0800 
 35 H       -3.8420    -7.5570     1.2600 H     1 <1>   0.0800 
 36 H       -2.6450    -7.7060     2.5050 H     1 <1>   0.0800 
 37 H       -5.5290    -8.7170     0.1220 H     1 <1>   0.0800 
 38 H       -4.2270    -9.1060    -0.9940 H     1 <1>   0.0800 
 39 H       -3.5310   -12.1690     1.0700 H     1 <1>   0.0800 
 40 H       -5.1520   -11.7840     1.6320 H     1 <1>   0.0800 
 41 H       -5.8500   -10.5180    -1.9630 H     1 <1>   0.0800 
 42 H       -4.1810   -12.0240    -1.2030 H     1 <1>   0.0800 
 43 H       -6.3640   -13.2490    -1.5010 H     1 <1>   0.0800 
 44 H       -6.6200   -13.1340     0.2120 H     1 <1>   0.0800 
 45 H       -8.8790    -9.9000    -0.3360 H     1 <1>   0.0800 
 46 H       -8.1120   -10.0670    -1.9080 H     1 <1>   0.0800 
 47 H       -7.6100    -8.7780    -0.8050 H     1 <1>   0.0800 
 48 H       -2.9000   -14.0520    -0.2200 H     1 <1>   0.1500 
 49 H       -1.9280   -16.5830     1.0130 H     1 <1>   0.0800 
 50 H       -1.7870   -16.7760    -0.7230 H     1 <1>   0.0800 
 51 H       -2.6790   -17.9490     0.2190 H     1 <1>   0.0800 
@<TRIPOS>BOND
  1   1   2  1   
  2   2   3  ar  
  3   2   4  ar  
  4   3   5  ar  
  5   3  29  1   
  6   4   6  ar  
  7   4  30  1   
  8   5   7  1   
  9   5   8  ar  
 10   6   8  ar  
 11   6  31  1   
 12   7   9  2   
 13   8  10  1   
 14   9  10  1   
 15   9  11  1   
 16  10  32  1   
 17  11  12  1   
 18  11  33  1   
 19  11  34  1   
 20  12  13  1   
 21  12  35  1   
 22  12  36  1   
 23  13  14  2   
 24  13  15  am  
 25  15  16  1   
 26  15  17  1   
 27  16  18  1   
 28  16  37  1   
 29  16  38  1   
 30  17  19  1   
 31  17  39  1   
 32  17  40  1   
 33  18  19  1   
 34  18  20  1   
 35  18  41  1   
 36  19  21  1   
 37  19  42  1   
 38  20  22  1   
 39  21  23  1   
 40  21  43  1   
 41  21  44  1   
 42  22  45  1   
 43  22  46  1   
 44  22  47  1   
 45  23  24  1   
 46  23  25  2   
 47  24  26  1   
 48  25  27  1   
 49  25  48  1   
 50  26  27  2   
 51  27  28  1   
 52  28  49  1   
 53  28  50  1   
 54  28  51  1   
@<TRIPOS>SUBSTRUCTURE
  1 ****  15 GROUP 4 **** **** 0

# MOE 2024.06 (io_trps.svl 2023.06)
