@<TRIPOS>MOLECULE
NONAME
52 55 1 0 0 
SMALL
USER_CHARGES


@<TRIPOS>ATOM
  1 O        1.3780     4.4110    -1.3930 O.3   1 <1>  -0.0190 
  2 N        2.5410     4.7430    -1.8560 N.2   1 <1>  -0.4100 
  3 C        1.3930     3.2280    -0.8420 C.2   1 <1>  -0.0400 
  4 C        3.3050     3.7250    -1.6770 C.2   1 <1>   0.1080 
  5 C        2.6190     2.7100    -1.0150 C.2   1 <1>  -0.1500 
  6 C        0.1600     2.7120    -0.1230 C.3   1 <1>   0.0200 
  7 C        4.7500     3.6540    -2.1230 C.3   1 <1>  -0.0590 
  8 C       -0.2550     3.5950     1.0820 C.3   1 <1>  -0.0800 
  9 C       -0.9740     4.8840     0.6600 C.3   1 <1>   0.2000 
 10 C        0.9460     4.1000     1.8920 C.3   1 <1>   0.3430 
 11 O       -2.0280     5.1190     1.5330 O.3   1 <1>  -0.6800 
 12 C        0.0480     6.0260     0.7860 C.3   1 <1>   0.3430 
 13 N        1.3210     5.4000     1.2710 N.4   1 <1>  -0.9590 
 14 C        2.1870     6.2840     2.0980 C.3   1 <1>   0.4860 
 15 C        2.4240     7.5930     1.3800 C.ar  1 <1>  -0.1440 
 16 C        3.1260     7.6690     0.2000 C.ar  1 <1>   0.1600 
 17 C        1.9370     8.7740     1.8860 C.ar  1 <1>   0.1600 
 18 N        3.3160     8.8040    -0.4220 N.ar  1 <1>  -0.6200 
 19 N        2.1130     9.9180     1.2760 N.ar  1 <1>  -0.6200 
 20 C        2.8050     9.9100     0.1310 C.ar  1 <1>   0.6200 
 21 C        3.0110    11.1810    -0.5550 C.ar  1 <1>   0.0000 
 22 C        4.0460    11.3580    -1.4790 C.ar  1 <1>  -0.1500 
 23 C        2.1840    12.2850    -0.3230 C.ar  1 <1>  -0.1500 
 24 C        4.2520    12.5600    -2.1360 C.ar  1 <1>  -0.1440 
 25 C        2.3780    13.4890    -0.9720 C.ar  1 <1>  -0.1500 
 26 C        3.4110    13.6280    -1.8800 C.ar  1 <1>  -0.1500 
 27 C        5.3860    12.7050    -3.1330 C.3   1 <1>  -0.0970 
 28 H        3.0220     1.7570    -0.7220 H     1 <1>   0.1500 
 29 H       -0.6550     2.6280    -0.8220 H     1 <1>   0.0800 
 30 H        0.3740     1.7180     0.2310 H     1 <1>   0.0800 
 31 H        5.3810     3.3730    -1.3010 H     1 <1>   0.0800 
 32 H        5.0690     4.6100    -2.4990 H     1 <1>   0.0800 
 33 H        4.8510     2.9260    -2.9080 H     1 <1>   0.0800 
 34 H       -0.8950     2.9940     1.7060 H     1 <1>   0.0800 
 35 H       -1.3830     4.8360    -0.3360 H     1 <1>   0.0800 
 36 H        1.7640     3.3970     1.8700 H     1 <1>   0.0800 
 37 H        0.6430     4.2600     2.9150 H     1 <1>   0.0800 
 38 H       -1.8150     4.9390     2.4690 H     1 <1>   0.4000 
 39 H       -0.3160     6.7620     1.4840 H     1 <1>   0.0800 
 40 H        0.2080     6.4940    -0.1730 H     1 <1>   0.0800 
 41 H        1.8460     5.1740     0.4030 H     1 <1>   0.4500 
 42 H        1.7130     6.4760     3.0470 H     1 <1>   0.0800 
 43 H        3.1340     5.8020     2.2850 H     1 <1>   0.0800 
 44 H        3.5440     6.7870    -0.2570 H     1 <1>   0.1500 
 45 H        1.3860     8.7960     2.8120 H     1 <1>   0.1500 
 46 H        4.7050    10.5340    -1.6890 H     1 <1>   0.1500 
 47 H        1.3730    12.2020     0.3790 H     1 <1>   0.1500 
 48 H        1.7260    14.3210    -0.7720 H     1 <1>   0.1500 
 49 H        3.5560    14.5670    -2.3840 H     1 <1>   0.1500 
 50 H        5.7800    13.7050    -3.1090 H     1 <1>   0.0800 
 51 H        5.0270    12.4960    -4.1250 H     1 <1>   0.0800 
 52 H        6.1840    12.0220    -2.9020 H     1 <1>   0.0800 
@<TRIPOS>BOND
  1   1   2  1   
  2   1   3  1   
  3   2   4  2   
  4   3   5  2   
  5   3   6  1   
  6   4   5  1   
  7   4   7  1   
  8   5  28  1   
  9   6   8  1   
 10   6  29  1   
 11   6  30  1   
 12   7  31  1   
 13   7  32  1   
 14   7  33  1   
 15   8   9  1   
 16   8  10  1   
 17   8  34  1   
 18   9  11  1   
 19   9  12  1   
 20   9  35  1   
 21  10  13  1   
 22  10  36  1   
 23  10  37  1   
 24  11  38  1   
 25  12  13  1   
 26  12  39  1   
 27  12  40  1   
 28  13  14  1   
 29  13  41  1   
 30  14  15  1   
 31  14  42  1   
 32  14  43  1   
 33  15  16  ar  
 34  15  17  ar  
 35  16  18  ar  
 36  16  44  1   
 37  17  19  ar  
 38  17  45  1   
 39  18  20  ar  
 40  19  20  ar  
 41  20  21  1   
 42  21  22  ar  
 43  21  23  ar  
 44  22  24  ar  
 45  22  46  1   
 46  23  25  ar  
 47  23  47  1   
 48  24  26  ar  
 49  24  27  1   
 50  25  26  ar  
 51  25  48  1   
 52  26  49  1   
 53  27  50  1   
 54  27  51  1   
 55  27  52  1   
@<TRIPOS>SUBSTRUCTURE
  1 ****  16 GROUP 4 **** **** 0

# MOE 2024.06 (io_trps.svl 2023.06)
