@<TRIPOS>MOLECULE
NONAME
58 61 1 0 0 
SMALL
USER_CHARGES


@<TRIPOS>ATOM
  1 O       -0.6120     0.6550    -2.1480 O.2   1 <1>  -0.5700 
  2 C       -1.6360     1.0840    -1.6710 C.2   1 <1>   0.5690 
  3 N       -2.8120     0.3770    -1.7360 N.am  1 <1>  -0.6600 
  4 C       -1.6000     2.4390    -0.9770 C.3   1 <1>  -0.0990 
  5 C       -4.1150     0.8030    -1.1520 C.3   1 <1>   0.1400 
  6 C       -2.8820    -0.9500    -2.4110 C.3   1 <1>   0.1400 
  7 C       -0.2220     3.1170    -0.9930 C.3   1 <1>  -0.0160 
  8 C       -4.5510    -0.2290    -0.1100 C.3   1 <1>  -0.1600 
  9 C       -3.3150    -2.0090    -1.3940 C.3   1 <1>  -0.1600 
 10 C       -0.2870     4.4550    -0.2730 C.ar  1 <1>  -0.1440 
 11 C       -4.6410    -1.6430    -0.7100 C.3   1 <1>   0.4240 
 12 C       -0.0010     4.5370     1.0810 C.ar  1 <1>  -0.1500 
 13 C       -0.6400     5.6030    -0.9640 C.ar  1 <1>  -0.1500 
 14 O       -5.5950    -1.6140    -1.7460 O.3   1 <1>  -0.5600 
 15 C       -4.9960    -2.6880     0.3710 C.ar  1 <1>  -0.1430 
 16 C       -0.0670     5.7530     1.7410 C.ar  1 <1>  -0.1500 
 17 C       -0.7070     6.8190    -0.3080 C.ar  1 <1>  -0.1500 
 18 C       -6.9350    -1.7670    -1.3950 C.3   1 <1>   0.1200 
 19 C       -6.1810    -3.4150     0.3090 C.ar  1 <1>  -0.1430 
 20 C       -4.1330    -2.9190     1.4370 C.ar  1 <1>  -0.1500 
 21 C       -0.4220     6.9050     1.0450 C.ar  1 <1>   0.0830 
 22 C       -7.1420    -3.1720    -0.8380 C.3   1 <1>  -0.0170 
 23 C       -6.4890    -4.3520     1.2820 C.ar  1 <1>  -0.1500 
 24 C       -4.4410    -3.8520     2.4100 C.ar  1 <1>  -0.1500 
 25 O       -0.5100     8.1350     1.6130 O.3   1 <1>  -0.3630 
 26 C       -5.6170    -4.5760     2.3410 C.ar  1 <1>   0.0830 
 27 C       -0.2120     8.3360     2.9760 C.3   1 <1>   0.0400 
 28 O       -5.8430    -5.4740     3.3330 O.3   1 <1>  -0.3630 
 29 C       -7.0010    -6.2770     3.3460 C.3   1 <1>   0.0400 
 30 H       -1.9040     2.3060     0.0440 H     1 <1>   0.0800 
 31 H       -2.3050     3.0870    -1.4620 H     1 <1>   0.0800 
 32 H       -4.8480     0.8610    -1.9390 H     1 <1>   0.0800 
 33 H       -4.0470     1.7710    -0.6930 H     1 <1>   0.0800 
 34 H       -1.9280    -1.2200    -2.8290 H     1 <1>   0.0800 
 35 H       -3.5940    -0.8990    -3.2170 H     1 <1>   0.0800 
 36 H        0.0980     3.2660    -2.0100 H     1 <1>   0.0800 
 37 H        0.5030     2.4800    -0.5160 H     1 <1>   0.0800 
 38 H       -5.4960     0.0510     0.3140 H     1 <1>   0.0800 
 39 H       -3.8340    -0.2220     0.6890 H     1 <1>   0.0800 
 40 H       -2.5330    -2.1060    -0.6650 H     1 <1>   0.0800 
 41 H       -3.4210    -2.9600    -1.8810 H     1 <1>   0.0800 
 42 H        0.2740     3.6520     1.6270 H     1 <1>   0.1500 
 43 H       -0.8640     5.5560    -2.0160 H     1 <1>   0.1500 
 44 H        0.1610     5.7830     2.7890 H     1 <1>   0.1500 
 45 H       -0.9800     7.7110    -0.8410 H     1 <1>   0.1500 
 46 H       -7.5270    -1.6240    -2.2820 H     1 <1>   0.0800 
 47 H       -7.2010    -1.0200    -0.6680 H     1 <1>   0.0800 
 48 H       -3.2100    -2.3740     1.5230 H     1 <1>   0.1500 
 49 H       -6.9680    -3.8940    -1.6150 H     1 <1>   0.0800 
 50 H       -8.1580    -3.2730    -0.5010 H     1 <1>   0.0800 
 51 H       -7.4080    -4.9000     1.2030 H     1 <1>   0.1500 
 52 H       -3.7690    -4.0270     3.2310 H     1 <1>   0.1500 
 53 H       -0.3400     9.3800     3.1940 H     1 <1>   0.0800 
 54 H        0.8080     8.0460     3.1560 H     1 <1>   0.0800 
 55 H       -0.8910     7.7520     3.5720 H     1 <1>   0.0800 
 56 H       -6.9580    -6.9100     4.2130 H     1 <1>   0.0800 
 57 H       -7.0180    -6.8790     2.4540 H     1 <1>   0.0800 
 58 H       -7.8660    -5.6410     3.4000 H     1 <1>   0.0800 
@<TRIPOS>BOND
  1   1   2  2   
  2   2   3  am  
  3   2   4  1   
  4   3   5  1   
  5   3   6  1   
  6   4   7  1   
  7   4  30  1   
  8   4  31  1   
  9   5   8  1   
 10   5  32  1   
 11   5  33  1   
 12   6   9  1   
 13   6  34  1   
 14   6  35  1   
 15   7  10  1   
 16   7  36  1   
 17   7  37  1   
 18   8  11  1   
 19   8  38  1   
 20   8  39  1   
 21   9  11  1   
 22   9  40  1   
 23   9  41  1   
 24  10  12  ar  
 25  10  13  ar  
 26  11  14  1   
 27  11  15  1   
 28  12  16  ar  
 29  12  42  1   
 30  13  17  ar  
 31  13  43  1   
 32  14  18  1   
 33  15  19  ar  
 34  15  20  ar  
 35  16  21  ar  
 36  16  44  1   
 37  17  21  ar  
 38  17  45  1   
 39  18  22  1   
 40  18  46  1   
 41  18  47  1   
 42  19  22  1   
 43  19  23  ar  
 44  20  24  ar  
 45  20  48  1   
 46  21  25  1   
 47  22  49  1   
 48  22  50  1   
 49  23  26  ar  
 50  23  51  1   
 51  24  26  ar  
 52  24  52  1   
 53  25  27  1   
 54  26  28  1   
 55  27  53  1   
 56  27  54  1   
 57  27  55  1   
 58  28  29  1   
 59  29  56  1   
 60  29  57  1   
 61  29  58  1   
@<TRIPOS>SUBSTRUCTURE
  1 ****   8 GROUP 4 **** **** 0

# MOE 2024.06 (io_trps.svl 2023.06)
