@<TRIPOS>MOLECULE
NONAME
50 52 1 0 0 
SMALL
USER_CHARGES


@<TRIPOS>ATOM
  1 O       -1.6040     2.2560    -2.2890 O.2   1 <1>  -0.5700 
  2 C       -1.7010     2.3550    -1.0870 C.2   1 <1>   0.5690 
  3 N       -2.6000     1.5810    -0.3860 N.am  1 <1>  -0.6600 
  4 C       -0.8190     3.3990    -0.4180 C.3   1 <1>   0.0440 
  5 C       -3.4210     0.5470    -1.0860 C.3   1 <1>   0.1400 
  6 C       -2.8820     1.7270     1.0710 C.3   1 <1>   0.1400 
  7 C        0.3040     2.8060     0.4260 C.ar  1 <1>   0.1660 
  8 C       -4.9210     0.8690    -1.0350 C.3   1 <1>   0.1400 
  9 C       -4.1330     2.5900     1.2630 C.3   1 <1>  -0.1600 
 10 N        0.2470     3.1250     1.7130 N.ar  1 <1>  -0.6200 
 11 C        1.3110     2.0130    -0.1310 C.ar  1 <1>  -0.1430 
 12 N       -5.4830     0.6370     0.3340 N.am  1 <1>  -0.6600 
 13 C       -5.4550     1.8080     1.2650 C.3   1 <1>   0.1400 
 14 C        1.2020     2.6320     2.4820 C.ar  1 <1>   0.1600 
 15 C        2.2940     1.5070     0.6970 C.ar  1 <1>  -0.1500 
 16 C        1.3890     1.6730    -1.6150 C.3   1 <1>  -0.0970 
 17 C       -6.0500    -0.5470     0.7380 C.2   1 <1>   0.5690 
 18 C        2.2300     1.8280     2.0330 C.ar  1 <1>  -0.1500 
 19 O       -6.5250    -0.6840     1.8410 O.2   1 <1>  -0.5700 
 20 C       -6.1040    -1.7400    -0.2020 C.3   1 <1>  -0.0990 
 21 C       -6.6430    -3.0030     0.4870 C.3   1 <1>   0.0960 
 22 N       -6.6670    -4.1300    -0.4630 N.pl3 1 <1>   0.0480 
 23 C       -7.6350    -4.4850    -1.3090 C.2   1 <1>   0.0360 
 24 C       -5.7190    -5.0350    -0.7090 C.2   1 <1>   0.0370 
 25 N       -7.3030    -5.5120    -2.0120 N.2   1 <1>  -0.3380 
 26 N       -6.0740    -5.8640    -1.6270 N.2   1 <1>  -0.3380 
 27 H       -1.4400     4.0340     0.1850 H     1 <1>   0.0800 
 28 H       -0.3840     4.0250    -1.1740 H     1 <1>   0.0800 
 29 H       -3.2360    -0.4140    -0.6400 H     1 <1>   0.0800 
 30 H       -3.1260     0.4790    -2.1180 H     1 <1>   0.0800 
 31 H       -2.0550     2.1950     1.5670 H     1 <1>   0.0800 
 32 H       -3.0140     0.7580     1.5220 H     1 <1>   0.0800 
 33 H       -5.4330     0.2530    -1.7500 H     1 <1>   0.0800 
 34 H       -5.0790     1.8920    -1.3330 H     1 <1>   0.0800 
 35 H       -4.1630     3.3620     0.5150 H     1 <1>   0.0800 
 36 H       -4.0560     3.0870     2.2130 H     1 <1>   0.0800 
 37 H       -6.2640     2.4740     1.0140 H     1 <1>   0.0800 
 38 H       -5.6290     1.4650     2.2710 H     1 <1>   0.0800 
 39 H        1.1620     2.8830     3.5280 H     1 <1>   0.1500 
 40 H        3.0860     0.8850     0.3190 H     1 <1>   0.1500 
 41 H        1.1680     2.5340    -2.2200 H     1 <1>   0.0800 
 42 H        0.6890     0.8920    -1.8510 H     1 <1>   0.0800 
 43 H        2.3740     1.3330    -1.8790 H     1 <1>   0.0800 
 44 H        2.9710     1.4610     2.7200 H     1 <1>   0.1500 
 45 H       -5.1140    -1.9370    -0.5670 H     1 <1>   0.0800 
 46 H       -6.7450    -1.4900    -1.0270 H     1 <1>   0.0800 
 47 H       -7.6410    -2.8310     0.8490 H     1 <1>   0.0800 
 48 H       -6.0200    -3.2640     1.3240 H     1 <1>   0.0800 
 49 H       -8.5730    -3.9670    -1.3860 H     1 <1>   0.1500 
 50 H       -4.7740    -5.0570    -0.1960 H     1 <1>   0.1500 
@<TRIPOS>BOND
  1   1   2  2   
  2   2   3  am  
  3   2   4  1   
  4   3   5  1   
  5   3   6  1   
  6   4   7  1   
  7   4  27  1   
  8   4  28  1   
  9   5   8  1   
 10   5  29  1   
 11   5  30  1   
 12   6   9  1   
 13   6  31  1   
 14   6  32  1   
 15   7  10  ar  
 16   7  11  ar  
 17   8  12  1   
 18   8  33  1   
 19   8  34  1   
 20   9  13  1   
 21   9  35  1   
 22   9  36  1   
 23  10  14  ar  
 24  11  15  ar  
 25  11  16  1   
 26  12  13  1   
 27  12  17  am  
 28  13  37  1   
 29  13  38  1   
 30  14  18  ar  
 31  14  39  1   
 32  15  18  ar  
 33  15  40  1   
 34  16  41  1   
 35  16  42  1   
 36  16  43  1   
 37  17  19  2   
 38  17  20  1   
 39  18  44  1   
 40  20  21  1   
 41  20  45  1   
 42  20  46  1   
 43  21  22  1   
 44  21  47  1   
 45  21  48  1   
 46  22  23  1   
 47  22  24  1   
 48  23  25  2   
 49  23  49  1   
 50  24  26  2   
 51  24  50  1   
 52  25  26  1   
@<TRIPOS>SUBSTRUCTURE
  1 ****   5 GROUP 4 **** **** 0

# MOE 2024.06 (io_trps.svl 2023.06)
