@<TRIPOS>MOLECULE
NONAME
41 43 1 0 0 
SMALL
USER_CHARGES


@<TRIPOS>ATOM
  1 F        0.6800     1.8710     1.2290 F     1 <1>  -0.1900 
  2 C        1.8940     2.2650     1.5060 C.ar  1 <1>   0.1900 
  3 C        2.4330     1.9940     2.7500 C.ar  1 <1>   0.1600 
  4 C        2.6080     2.9440     0.5480 C.ar  1 <1>  -0.1500 
  5 N        3.6580     2.3610     3.1030 N.ar  1 <1>  -0.6200 
  6 C        3.8930     3.3490     0.8930 C.ar  1 <1>   0.0860 
  7 C        4.3460     3.0140     2.1740 C.ar  1 <1>   0.1600 
  8 C        4.7450     4.0850    -0.0190 C.2   1 <1>   0.5440 
  9 O        5.9560     4.0710     0.1050 O.2   1 <1>  -0.5700 
 10 N        4.2400     4.8880    -1.0150 N.am  1 <1>  -0.6600 
 11 C        4.9300     4.9920    -2.3470 C.3   1 <1>   0.1400 
 12 C        3.3230     6.0110    -0.6860 C.3   1 <1>   0.1400 
 13 C        6.2020     5.8720    -2.3180 C.3   1 <1>   0.3430 
 14 C        4.1050     7.1700    -0.0500 C.3   1 <1>  -0.1600 
 15 N        6.3120     6.6410    -1.0440 N.4   1 <1>  -0.9590 
 16 C        5.2800     7.7000    -0.8810 C.3   1 <1>   0.3430 
 17 C        7.6900     7.0760    -0.7250 C.3   1 <1>   0.5240 
 18 C        7.7260     7.3910     0.7520 C.2   1 <1>  -0.1810 
 19 C        7.7220     6.5210     1.7860 C.2   1 <1>  -0.0100 
 20 C        7.7550     8.6680     1.3340 C.2   1 <1>  -0.1500 
 21 O        7.7350     7.1650     2.9330 O.3   1 <1>  -0.2800 
 22 C        7.7590     8.4560     2.6670 C.2   1 <1>  -0.0100 
 23 H        1.8390     1.4600     3.4720 H     1 <1>   0.1500 
 24 H        2.1830     3.1420    -0.4200 H     1 <1>   0.1500 
 25 H        5.3460     3.3090     2.4470 H     1 <1>   0.1500 
 26 H        4.2430     5.3810    -3.0780 H     1 <1>   0.0800 
 27 H        5.2060     4.0030    -2.6740 H     1 <1>   0.0800 
 28 H        2.5660     5.6740     0.0040 H     1 <1>   0.0800 
 29 H        2.8210     6.3450    -1.5790 H     1 <1>   0.0800 
 30 H        6.2110     6.5350    -3.1670 H     1 <1>   0.0800 
 31 H        7.0520     5.2140    -2.4070 H     1 <1>   0.0800 
 32 H        4.4600     6.8790     0.9240 H     1 <1>   0.0800 
 33 H        3.4180     7.9830     0.1070 H     1 <1>   0.0800 
 34 H        6.0990     5.9170    -0.3280 H     1 <1>   0.4500 
 35 H        5.7050     8.5460    -0.3650 H     1 <1>   0.0800 
 36 H        4.9330     8.0360    -1.8450 H     1 <1>   0.0800 
 37 H        7.9670     7.9400    -1.3070 H     1 <1>   0.0800 
 38 H        8.3850     6.2770    -0.9300 H     1 <1>   0.0800 
 39 H        7.7050     5.4430     1.8040 H     1 <1>   0.1500 
 40 H        7.7770     9.6130     0.8190 H     1 <1>   0.1500 
 41 H        7.7800     9.1520     3.4900 H     1 <1>   0.1500 
@<TRIPOS>BOND
  1   1   2  1   
  2   2   3  ar  
  3   2   4  ar  
  4   3   5  ar  
  5   3  23  1   
  6   4   6  ar  
  7   4  24  1   
  8   5   7  ar  
  9   6   7  ar  
 10   6   8  1   
 11   7  25  1   
 12   8   9  2   
 13   8  10  am  
 14  10  11  1   
 15  10  12  1   
 16  11  13  1   
 17  11  26  1   
 18  11  27  1   
 19  12  14  1   
 20  12  28  1   
 21  12  29  1   
 22  13  15  1   
 23  13  30  1   
 24  13  31  1   
 25  14  16  1   
 26  14  32  1   
 27  14  33  1   
 28  15  16  1   
 29  15  17  1   
 30  15  34  1   
 31  16  35  1   
 32  16  36  1   
 33  17  18  1   
 34  17  37  1   
 35  17  38  1   
 36  18  19  2   
 37  18  20  1   
 38  19  21  1   
 39  19  39  1   
 40  20  22  2   
 41  20  40  1   
 42  21  22  1   
 43  22  41  1   
@<TRIPOS>SUBSTRUCTURE
  1 ****   8 GROUP 4 **** **** 0

# MOE 2024.06 (io_trps.svl 2023.06)
