@<TRIPOS>MOLECULE
NONAME
46 49 1 0 0 
SMALL
USER_CHARGES


@<TRIPOS>ATOM
  1 S        0.0140     0.3530     1.0450 S.3   1 <1>  -0.0800 
  2 C        1.5810    -0.1990     0.5010 C.2   1 <1>  -0.1400 
  3 C       -0.4580    -1.2890     1.4230 C.2   1 <1>  -0.1100 
  4 C        1.6880    -1.5330     0.5990 C.2   1 <1>  -0.1810 
  5 C        2.6140     0.7870     0.0030 C.3   1 <1>   0.0200 
  6 C        0.5160    -2.1880     1.1300 C.2   1 <1>  -0.0860 
  7 C        2.9630    -2.2550     0.1860 C.3   1 <1>   0.0210 
  8 C        3.9810     0.0820    -0.0850 C.3   1 <1>  -0.1600 
  9 C        0.4260    -3.6240     1.3130 C.2   1 <1>   0.7160 
 10 C        3.8630    -1.3410    -0.6710 C.3   1 <1>  -0.1600 
 11 O        1.3090    -4.2310     1.8900 O.2   1 <1>  -0.5700 
 12 N       -0.6470    -4.3330     0.8240 N.am  1 <1>  -0.6600 
 13 C       -1.5710    -3.8320    -0.2280 C.3   1 <1>   0.1400 
 14 C       -0.7380    -5.8120     0.9230 C.3   1 <1>   0.1400 
 15 C       -2.5070    -5.0050    -0.5110 C.3   1 <1>   0.2000 
 16 C       -1.6370    -6.2380    -0.2440 C.3   1 <1>  -0.0800 
 17 O       -3.5430    -4.9610     0.4110 O.3   1 <1>  -0.6800 
 18 C       -2.4160    -7.5420     0.0110 C.3   1 <1>   0.0200 
 19 C       -1.5150    -8.7600     0.1340 C.2   1 <1>  -0.0400 
 20 O       -2.0460    -9.8960     0.4990 O.3   1 <1>  -0.0190 
 21 C       -0.2020    -8.9690    -0.0590 C.2   1 <1>  -0.1500 
 22 N       -1.1630   -10.8500     0.5640 N.2   1 <1>  -0.4100 
 23 C       -0.0420   -10.3200     0.2330 C.2   1 <1>   0.1080 
 24 C        1.2690   -11.0720     0.1730 C.3   1 <1>  -0.0590 
 25 H       -1.4380    -1.4310     1.8400 H     1 <1>   0.1500 
 26 H        2.3160     1.1420    -0.9670 H     1 <1>   0.0800 
 27 H        2.6780     1.6260     0.6730 H     1 <1>   0.0800 
 28 H        3.4880    -2.5550     1.0760 H     1 <1>   0.0800 
 29 H        2.7210    -3.1410    -0.3740 H     1 <1>   0.0800 
 30 H        4.6510     0.6740    -0.6850 H     1 <1>   0.0800 
 31 H        4.3990     0.0130     0.9050 H     1 <1>   0.0800 
 32 H        4.8410    -1.7830    -0.7530 H     1 <1>   0.0800 
 33 H        3.4470    -1.2740    -1.6610 H     1 <1>   0.0800 
 34 H       -2.1180    -2.9630     0.0930 H     1 <1>   0.0800 
 35 H       -1.0010    -3.5920    -1.1090 H     1 <1>   0.0800 
 36 H        0.2370    -6.2650     0.8570 H     1 <1>   0.0800 
 37 H       -1.1840    -6.0720     1.8680 H     1 <1>   0.0800 
 38 H       -2.9290    -4.9820    -1.5010 H     1 <1>   0.0800 
 39 H       -1.0090    -6.3800    -1.1060 H     1 <1>   0.0800 
 40 H       -3.1690    -4.8240     1.3040 H     1 <1>   0.4000 
 41 H       -3.1050    -7.7110    -0.7980 H     1 <1>   0.0800 
 42 H       -2.9920    -7.4560     0.9150 H     1 <1>   0.0800 
 43 H        0.5760    -8.2950    -0.3650 H     1 <1>   0.1500 
 44 H        1.9780   -10.6230     0.8440 H     1 <1>   0.0800 
 45 H        1.6590   -11.0470    -0.8270 H     1 <1>   0.0800 
 46 H        1.1170   -12.0970     0.4620 H     1 <1>   0.0800 
@<TRIPOS>BOND
  1   1   2  1   
  2   1   3  1   
  3   2   4  2   
  4   2   5  1   
  5   3   6  2   
  6   3  25  1   
  7   4   6  1   
  8   4   7  1   
  9   5   8  1   
 10   5  26  1   
 11   5  27  1   
 12   6   9  1   
 13   7  10  1   
 14   7  28  1   
 15   7  29  1   
 16   8  10  1   
 17   8  30  1   
 18   8  31  1   
 19   9  11  2   
 20   9  12  am  
 21  10  32  1   
 22  10  33  1   
 23  12  13  1   
 24  12  14  1   
 25  13  15  1   
 26  13  34  1   
 27  13  35  1   
 28  14  16  1   
 29  14  36  1   
 30  14  37  1   
 31  15  16  1   
 32  15  17  1   
 33  15  38  1   
 34  16  18  1   
 35  16  39  1   
 36  17  40  1   
 37  18  19  1   
 38  18  41  1   
 39  18  42  1   
 40  19  20  1   
 41  19  21  2   
 42  20  22  1   
 43  21  23  1   
 44  21  43  1   
 45  22  23  2   
 46  23  24  1   
 47  24  44  1   
 48  24  45  1   
 49  24  46  1   
@<TRIPOS>SUBSTRUCTURE
  1 ****  12 GROUP 4 **** **** 0

# MOE 2024.06 (io_trps.svl 2023.06)
