@<TRIPOS>MOLECULE
NONAME
47 50 1 0 0 
SMALL
USER_CHARGES


@<TRIPOS>ATOM
  1 O        2.7020    -0.0580     2.0770 O.3   1 <1>  -0.6800 
  2 C        1.9530    -0.2310     0.9140 C.3   1 <1>   0.2000 
  3 C        2.2620    -1.5960     0.2950 C.3   1 <1>  -0.0800 
  4 C        2.4850     0.7330    -0.1500 C.3   1 <1>   0.3430 
  5 C        3.5890    -1.3880    -0.4450 C.3   1 <1>   0.3430 
  6 C        2.2880    -2.8000     1.2600 C.3   1 <1>  -0.0170 
  7 N        3.7100     0.0760    -0.6900 N.4   1 <1>  -0.9590 
  8 C        2.7680    -4.0530     0.5360 C.ar  1 <1>  -0.1440 
  9 C        4.9230     0.6600    -0.0590 C.3   1 <1>   0.5240 
 10 C        1.9590    -4.7550    -0.3900 C.ar  1 <1>   0.0000 
 11 C        4.0300    -4.5260     0.7570 C.ar  1 <1>  -0.1500 
 12 C        5.1430     2.0230    -0.6990 C.2   1 <1>   0.0460 
 13 C        2.5400    -5.8560    -1.0660 C.ar  1 <1>   0.3100 
 14 C        0.6120    -4.4360    -0.6830 C.ar  1 <1>  -0.1500 
 15 C        4.4990    -5.6410     0.0530 C.ar  1 <1>   0.1600 
 16 N        5.0020     2.1590    -2.0360 N.2   1 <1>  -0.5650 
 17 C        5.4590     3.2070    -0.1220 C.2   1 <1>  -0.3320 
 18 N        3.8070    -6.2800    -0.8340 N.ar  1 <1>  -0.6200 
 19 C        1.7770    -6.5500    -2.0180 C.ar  1 <1>  -0.1500 
 20 C       -0.1060    -5.1370    -1.6130 C.ar  1 <1>  -0.1500 
 21 C        5.2490     3.4120    -2.2460 C.2   1 <1>   0.0360 
 22 N        5.5340     4.1050    -1.1240 N.pl3 1 <1>   0.0330 
 23 C        5.7090     3.5820     1.3300 C.3   1 <1>  -0.0600 
 24 C        0.4830    -6.2040    -2.2950 C.ar  1 <1>  -0.1500 
 25 H        2.2390    -0.4380     2.8540 H     1 <1>   0.4000 
 26 H        0.9110    -0.0710     1.1350 H     1 <1>   0.0800 
 27 H        1.5200    -1.7850    -0.4600 H     1 <1>   0.0800 
 28 H        2.6880     1.7080     0.2620 H     1 <1>   0.0800 
 29 H        1.7560     0.8290    -0.9380 H     1 <1>   0.0800 
 30 H        3.6000    -1.9430    -1.3700 H     1 <1>   0.0800 
 31 H        4.4030    -1.7260     0.1740 H     1 <1>   0.0800 
 32 H        1.3120    -2.9680     1.6820 H     1 <1>   0.0800 
 33 H        2.9550    -2.6010     2.0820 H     1 <1>   0.0800 
 34 H        3.8260     0.3300    -1.6880 H     1 <1>   0.4500 
 35 H        4.7980     0.7520     1.0070 H     1 <1>   0.0800 
 36 H        5.7790     0.0420    -0.2660 H     1 <1>   0.0800 
 37 H        4.6970    -4.0670     1.4640 H     1 <1>   0.1500 
 38 H        0.1290    -3.6330    -0.1610 H     1 <1>   0.1500 
 39 H        5.4990    -5.9860     0.2570 H     1 <1>   0.1500 
 40 H        2.2480    -7.3740    -2.5240 H     1 <1>   0.1500 
 41 H       -1.1310    -4.8850    -1.8300 H     1 <1>   0.1500 
 42 H        5.2350     3.8800    -3.2170 H     1 <1>   0.1500 
 43 H        5.7620     5.1030    -1.0600 H     1 <1>   0.2700 
 44 H        5.5940     2.7290     1.9740 H     1 <1>   0.0800 
 45 H        5.0140     4.3400     1.6430 H     1 <1>   0.0800 
 46 H        6.7090     3.9620     1.4470 H     1 <1>   0.0800 
 47 H       -0.0900    -6.7460    -3.0270 H     1 <1>   0.1500 
@<TRIPOS>BOND
  1   1   2  1   
  2   1  25  1   
  3   2   3  1   
  4   2   4  1   
  5   2  26  1   
  6   3   5  1   
  7   3   6  1   
  8   3  27  1   
  9   4   7  1   
 10   4  28  1   
 11   4  29  1   
 12   5   7  1   
 13   5  30  1   
 14   5  31  1   
 15   6   8  1   
 16   6  32  1   
 17   6  33  1   
 18   7   9  1   
 19   7  34  1   
 20   8  10  ar  
 21   8  11  ar  
 22   9  12  1   
 23   9  35  1   
 24   9  36  1   
 25  10  13  ar  
 26  10  14  ar  
 27  11  15  ar  
 28  11  37  1   
 29  12  16  1   
 30  12  17  2   
 31  13  18  ar  
 32  13  19  ar  
 33  14  20  ar  
 34  14  38  1   
 35  15  18  ar  
 36  15  39  1   
 37  16  21  2   
 38  17  22  1   
 39  17  23  1   
 40  19  24  ar  
 41  19  40  1   
 42  20  24  ar  
 43  20  41  1   
 44  21  22  1   
 45  21  42  1   
 46  22  43  1   
 47  23  44  1   
 48  23  45  1   
 49  23  46  1   
 50  24  47  1   
@<TRIPOS>SUBSTRUCTURE
  1 ****   5 GROUP 4 **** **** 0

# MOE 2024.06 (io_trps.svl 2023.06)
