@<TRIPOS>MOLECULE
NONAME
58 62 1 0 0 
SMALL
USER_CHARGES


@<TRIPOS>ATOM
  1 O       -0.9350     3.4400     2.5150 O.2   1 <1>  -0.5700 
  2 C       -0.7100     3.1390     1.3650 C.2   1 <1>   0.5690 
  3 N       -1.7320     3.1220     0.4380 N.am  1 <1>  -0.6600 
  4 C        0.7580     2.7870     1.0580 C.3   1 <1>  -0.0190 
  5 C       -3.1350     3.4470     0.8900 C.3   1 <1>   0.1400 
  6 C       -1.5790     2.8210    -1.0200 C.3   1 <1>   0.1400 
  7 C        1.4250     3.6270    -0.0540 C.3   1 <1>  -0.1600 
  8 C        0.9940     1.2740     0.8630 C.3   1 <1>  -0.1600 
  9 C       -3.9090     4.2440    -0.1770 C.3   1 <1>   0.1440 
 10 C       -2.9050     2.3810    -1.6520 C.3   1 <1>  -0.1600 
 11 C        2.9200     3.2940    -0.1780 C.3   1 <1>  -0.1600 
 12 C        2.4900     0.9540     0.7120 C.3   1 <1>  -0.1600 
 13 C       -5.2920     4.6250     0.3220 C.ar  1 <1>   0.1670 
 14 C       -4.0270     3.4250    -1.4870 C.3   1 <1>  -0.1600 
 15 C       -3.2580     5.6340    -0.4240 C.3   1 <1>  -0.1600 
 16 C        3.1260     1.7930    -0.4010 C.3   1 <1>   0.2000 
 17 N       -6.1510     3.8060     0.8800 N.ar  1 <1>  -0.6200 
 18 C       -5.5570     5.9440     0.1180 C.ar  1 <1>  -0.1440 
 19 C       -4.4030     6.6540    -0.5430 C.3   1 <1>  -0.0170 
 20 O        4.4780     1.5390    -0.4160 O.3   1 <1>  -0.6800 
 21 C       -7.3220     4.3440     1.2470 C.ar  1 <1>   0.6200 
 22 C       -6.7770     6.4200     0.5190 C.ar  1 <1>   0.1600 
 23 N       -7.6640     5.6310     1.0810 N.ar  1 <1>  -0.6200 
 24 C       -8.2990     3.4630     1.8730 C.ar  1 <1>   0.0000 
 25 C       -9.6730     3.6910     1.7550 C.ar  1 <1>  -0.1500 
 26 C       -7.9080     2.3480     2.6200 C.ar  1 <1>  -0.1500 
 27 C      -10.6040     2.8570     2.3480 C.ar  1 <1>  -0.1500 
 28 C       -8.8330     1.5090     3.2150 C.ar  1 <1>  -0.1500 
 29 C      -10.1850     1.7620     3.0800 C.ar  1 <1>  -0.1500 
 30 H        1.2920     3.0430     1.9590 H     1 <1>   0.0800 
 31 H       -3.1190     4.0160     1.8030 H     1 <1>   0.0800 
 32 H       -3.6550     2.5270     1.0940 H     1 <1>   0.0800 
 33 H       -0.8560     2.0430    -1.1670 H     1 <1>   0.0800 
 34 H       -1.2290     3.7060    -1.5210 H     1 <1>   0.0800 
 35 H        1.3070     4.6740     0.1690 H     1 <1>   0.0800 
 36 H        0.9660     3.4380    -1.0050 H     1 <1>   0.0800 
 37 H        0.4730     0.9170    -0.0050 H     1 <1>   0.0800 
 38 H        0.6030     0.7440     1.7150 H     1 <1>   0.0800 
 39 H       -3.2060     1.4570    -1.1860 H     1 <1>   0.0800 
 40 H       -2.7560     2.1760    -2.6970 H     1 <1>   0.0800 
 41 H        3.4230     3.6000     0.7230 H     1 <1>   0.0800 
 42 H        3.3400     3.8380    -1.0060 H     1 <1>   0.0800 
 43 H        2.6100    -0.0910     0.4840 H     1 <1>   0.0800 
 44 H        2.9840     1.1590     1.6460 H     1 <1>   0.0800 
 45 H       -4.0360     4.0900    -2.3320 H     1 <1>   0.0800 
 46 H       -4.9660     2.8980    -1.4960 H     1 <1>   0.0800 
 47 H       -2.6210     5.6470    -1.2900 H     1 <1>   0.0800 
 48 H       -2.6610     5.9010     0.4310 H     1 <1>   0.0800 
 49 H        2.7290     1.5010    -1.3590 H     1 <1>   0.0800 
 50 H       -4.6390     6.8440    -1.5760 H     1 <1>   0.0800 
 51 H       -4.1630     7.5770    -0.0440 H     1 <1>   0.0800 
 52 H        4.8710     1.7840     0.4420 H     1 <1>   0.4000 
 53 H       -7.0320     7.4570     0.3790 H     1 <1>   0.1500 
 54 H      -10.0180     4.5390     1.1890 H     1 <1>   0.1500 
 55 H       -6.8590     2.1360     2.7380 H     1 <1>   0.1500 
 56 H      -11.6550     3.0610     2.2390 H     1 <1>   0.1500 
 57 H       -8.4990     0.6590     3.7840 H     1 <1>   0.1500 
 58 H      -10.9070     1.1110     3.5420 H     1 <1>   0.1500 
@<TRIPOS>BOND
  1   1   2  2   
  2   2   3  am  
  3   2   4  1   
  4   3   5  1   
  5   3   6  1   
  6   4   7  1   
  7   4   8  1   
  8   4  30  1   
  9   5   9  1   
 10   5  31  1   
 11   5  32  1   
 12   6  10  1   
 13   6  33  1   
 14   6  34  1   
 15   7  11  1   
 16   7  35  1   
 17   7  36  1   
 18   8  12  1   
 19   8  37  1   
 20   8  38  1   
 21   9  13  1   
 22   9  14  1   
 23   9  15  1   
 24  10  14  1   
 25  10  39  1   
 26  10  40  1   
 27  11  16  1   
 28  11  41  1   
 29  11  42  1   
 30  12  16  1   
 31  12  43  1   
 32  12  44  1   
 33  13  17  ar  
 34  13  18  ar  
 35  14  45  1   
 36  14  46  1   
 37  15  19  1   
 38  15  47  1   
 39  15  48  1   
 40  16  20  1   
 41  16  49  1   
 42  17  21  ar  
 43  18  19  1   
 44  18  22  ar  
 45  19  50  1   
 46  19  51  1   
 47  20  52  1   
 48  21  23  ar  
 49  21  24  1   
 50  22  23  ar  
 51  22  53  1   
 52  24  25  ar  
 53  24  26  ar  
 54  25  27  ar  
 55  25  54  1   
 56  26  28  ar  
 57  26  55  1   
 58  27  29  ar  
 59  27  56  1   
 60  28  29  ar  
 61  28  57  1   
 62  29  58  1   
@<TRIPOS>SUBSTRUCTURE
  1 ****   5 GROUP 4 **** **** 0

# MOE 2024.06 (io_trps.svl 2023.06)
