@<TRIPOS>MOLECULE
NONAME
59 62 1 0 0 
SMALL
USER_CHARGES


@<TRIPOS>ATOM
  1 N        1.8320     0.0990    -0.3870 N.ar  1 <1>  -0.6200 
  2 C        1.2740     1.2600    -0.1050 C.ar  1 <1>   0.1660 
  3 C        2.9960    -0.1550     0.1840 C.ar  1 <1>   0.1600 
  4 C        1.8640     2.2220     0.7130 C.ar  1 <1>  -0.1440 
  5 C       -0.0830     1.4640    -0.7620 C.3   1 <1>  -0.0960 
  6 C        3.6510     0.7160     1.0330 C.ar  1 <1>  -0.1500 
  7 C        3.0800     1.9380     1.3120 C.ar  1 <1>  -0.1500 
  8 C        1.2250     3.5740     0.9530 C.3   1 <1>   0.4870 
  9 N        2.0310     4.6140     0.2430 N.4   1 <1>  -0.9590 
 10 C        1.6110     6.0090     0.5770 C.3   1 <1>   0.3430 
 11 C        2.0670     4.3570    -1.2360 C.3   1 <1>   0.3430 
 12 C        2.6670     7.0470     0.1000 C.3   1 <1>   0.0000 
 13 C        2.5310     5.6010    -2.0110 C.3   1 <1>  -0.1600 
 14 C        1.9090     8.3620    -0.2400 C.3   1 <1>   0.3430 
 15 C        3.4130     6.5330    -1.1640 C.3   1 <1>  -0.1600 
 16 C        3.7100     7.2860     1.2280 C.3   1 <1>  -0.1600 
 17 N        2.7700     9.5600    -0.0110 N.4   1 <1>  -0.9590 
 18 C        3.2840     8.4260     2.1690 C.3   1 <1>  -0.1600 
 19 C        3.1150     9.7660     1.4350 C.3   1 <1>   0.3430 
 20 C        2.2080    10.8070    -0.6080 C.3   1 <1>   0.4860 
 21 C        3.2770    11.8780    -0.5530 C.ar  1 <1>  -0.1430 
 22 C        3.2060    12.8880     0.3960 C.ar  1 <1>  -0.1500 
 23 C        4.3400    11.8530    -1.4460 C.ar  1 <1>  -0.1500 
 24 C        4.1960    13.8520     0.4620 C.ar  1 <1>  -0.1500 
 25 C        5.3280    12.8190    -1.3780 C.ar  1 <1>  -0.1500 
 26 C        5.2580    13.8160    -0.4230 C.ar  1 <1>  -0.1500 
 27 H        3.4490    -1.1080    -0.0360 H     1 <1>   0.1500 
 28 H       -0.4980     0.5090    -1.0380 H     1 <1>   0.0800 
 29 H        0.0190     2.0480    -1.6560 H     1 <1>   0.0800 
 30 H       -0.7800     1.9300    -0.0920 H     1 <1>   0.0800 
 31 H        4.5940     0.4320     1.4670 H     1 <1>   0.1500 
 32 H        3.5800     2.6220     1.9760 H     1 <1>   0.1500 
 33 H        1.2130     3.7710     2.0130 H     1 <1>   0.0800 
 34 H        0.2090     3.5850     0.5980 H     1 <1>   0.0800 
 35 H        2.9970     4.4810     0.5700 H     1 <1>   0.4500 
 36 H        1.4680     6.1100     1.6410 H     1 <1>   0.0800 
 37 H        0.6670     6.2060     0.0950 H     1 <1>   0.0800 
 38 H        1.0920     4.0670    -1.5910 H     1 <1>   0.0800 
 39 H        2.7430     3.5380    -1.4350 H     1 <1>   0.0800 
 40 H        1.6660     6.1330    -2.3690 H     1 <1>   0.0800 
 41 H        3.0740     5.2760    -2.8830 H     1 <1>   0.0800 
 42 H        1.0340     8.4470     0.3850 H     1 <1>   0.0800 
 43 H        1.5820     8.3310    -1.2670 H     1 <1>   0.0800 
 44 H        4.2880     5.9720    -0.8760 H     1 <1>   0.0800 
 45 H        3.7610     7.3550    -1.7670 H     1 <1>   0.0800 
 46 H        4.6610     7.5640     0.8010 H     1 <1>   0.0800 
 47 H        3.8790     6.3870     1.7960 H     1 <1>   0.0800 
 48 H        3.6680     9.4170    -0.4920 H     1 <1>   0.4500 
 49 H        4.0210     8.5530     2.9450 H     1 <1>   0.0800 
 50 H        2.3600     8.1760     2.6610 H     1 <1>   0.0800 
 51 H        2.3470    10.3420     1.9260 H     1 <1>   0.0800 
 52 H        4.0350    10.3280     1.4990 H     1 <1>   0.0800 
 53 H        1.3350    11.1280    -0.0630 H     1 <1>   0.0800 
 54 H        1.9290    10.6390    -1.6360 H     1 <1>   0.0800 
 55 H        2.3860    12.9440     1.0920 H     1 <1>   0.1500 
 56 H        4.4150    11.0950    -2.2070 H     1 <1>   0.1500 
 57 H        4.1420    14.6370     1.1990 H     1 <1>   0.1500 
 58 H        6.1540    12.8020    -2.0700 H     1 <1>   0.1500 
 59 H        6.0280    14.5680    -0.3710 H     1 <1>   0.1500 
@<TRIPOS>BOND
  1   1   2  ar  
  2   1   3  ar  
  3   2   4  ar  
  4   2   5  1   
  5   3   6  ar  
  6   3  27  1   
  7   4   7  ar  
  8   4   8  1   
  9   5  28  1   
 10   5  29  1   
 11   5  30  1   
 12   6   7  ar  
 13   6  31  1   
 14   7  32  1   
 15   8   9  1   
 16   8  33  1   
 17   8  34  1   
 18   9  10  1   
 19   9  11  1   
 20   9  35  1   
 21  10  12  1   
 22  10  36  1   
 23  10  37  1   
 24  11  13  1   
 25  11  38  1   
 26  11  39  1   
 27  12  14  1   
 28  12  15  1   
 29  12  16  1   
 30  13  15  1   
 31  13  40  1   
 32  13  41  1   
 33  14  17  1   
 34  14  42  1   
 35  14  43  1   
 36  15  44  1   
 37  15  45  1   
 38  16  18  1   
 39  16  46  1   
 40  16  47  1   
 41  17  19  1   
 42  17  20  1   
 43  17  48  1   
 44  18  19  1   
 45  18  49  1   
 46  18  50  1   
 47  19  51  1   
 48  19  52  1   
 49  20  21  1   
 50  20  53  1   
 51  20  54  1   
 52  21  22  ar  
 53  21  23  ar  
 54  22  24  ar  
 55  22  55  1   
 56  23  25  ar  
 57  23  56  1   
 58  24  26  ar  
 59  24  57  1   
 60  25  26  ar  
 61  25  58  1   
 62  26  59  1   
@<TRIPOS>SUBSTRUCTURE
  1 ****  12 GROUP 4 **** **** 0

# MOE 2024.06 (io_trps.svl 2023.06)
