@<TRIPOS>MOLECULE
NONAME
35 35 1 0 0 
SMALL
USER_CHARGES


@<TRIPOS>ATOM
  1 O        9.1170     0.0960     2.3860 O.2   1 <1>  -0.5700 
  2 C        9.2380    -0.2800     1.2460 C.2   1 <1>   0.6590 
  3 O       10.4310    -0.4270     0.6880 O.3   1 <1>  -0.4300 
  4 C        8.0210    -0.6300     0.3570 C.3   1 <1>   0.2510 
  5 C       11.6070    -0.1310     1.4040 C.3   1 <1>   0.2640 
  6 N        6.9940    -1.4130     1.0840 N.3   1 <1>  -0.9900 
  7 C        7.3680     0.6340    -0.2670 C.3   1 <1>  -0.0800 
  8 C       12.7950    -0.3360     0.4800 C.ar  1 <1>  -0.1440 
  9 C        6.1980     0.2590    -1.2110 C.3   1 <1>  -0.1600 
 10 C        8.4090     1.4940    -1.0160 C.3   1 <1>  -0.2400 
 11 C       13.0880     0.6050    -0.4960 C.ar  1 <1>  -0.1500 
 12 C       13.5960    -1.4620     0.6010 C.ar  1 <1>  -0.1500 
 13 C        5.4210     1.4650    -1.7600 C.3   1 <1>  -0.2400 
 14 C       14.1720     0.4250    -1.3380 C.ar  1 <1>  -0.1500 
 15 C       14.6800    -1.6430    -0.2410 C.ar  1 <1>  -0.1500 
 16 C       14.9690    -0.6980    -1.2100 C.ar  1 <1>  -0.1500 
 17 H        8.3870    -1.2420    -0.4490 H     1 <1>   0.0800 
 18 H       11.5580     0.8920     1.7370 H     1 <1>   0.0800 
 19 H       11.6590    -0.7830     2.2590 H     1 <1>   0.0800 
 20 H        6.7030    -0.8500     1.8930 H     1 <1>   0.3600 
 21 H        7.4350    -2.2540     1.4730 H     1 <1>   0.3600 
 22 H        6.9760     1.2280     0.5420 H     1 <1>   0.0800 
 23 H        6.5700    -0.3270    -2.0330 H     1 <1>   0.0800 
 24 H        5.4930    -0.3550    -0.6770 H     1 <1>   0.0800 
 25 H        8.8310     0.9440    -1.8390 H     1 <1>   0.0800 
 26 H        9.2060     1.8010    -0.3640 H     1 <1>   0.0800 
 27 H        7.9620     2.3930    -1.3990 H     1 <1>   0.0800 
 28 H       12.4710     1.4790    -0.6040 H     1 <1>   0.1500 
 29 H       13.3790    -2.2050     1.3490 H     1 <1>   0.1500 
 30 H        6.0150     2.0290    -2.4550 H     1 <1>   0.0800 
 31 H        5.1100     2.1090    -0.9570 H     1 <1>   0.0800 
 32 H        4.5430     1.1220    -2.2790 H     1 <1>   0.0800 
 33 H       14.3940     1.1590    -2.0920 H     1 <1>   0.1500 
 34 H       15.2980    -2.5180    -0.1420 H     1 <1>   0.1500 
 35 H       15.8120    -0.8380    -1.8640 H     1 <1>   0.1500 
@<TRIPOS>BOND
  1   1   2  2   
  2   2   3  1   
  3   2   4  1   
  4   3   5  1   
  5   4   6  1   
  6   4   7  1   
  7   4  17  1   
  8   5   8  1   
  9   5  18  1   
 10   5  19  1   
 11   6  20  1   
 12   6  21  1   
 13   7   9  1   
 14   7  10  1   
 15   7  22  1   
 16   8  11  ar  
 17   8  12  ar  
 18   9  13  1   
 19   9  23  1   
 20   9  24  1   
 21  10  25  1   
 22  10  26  1   
 23  10  27  1   
 24  11  14  ar  
 25  11  28  1   
 26  12  15  ar  
 27  12  29  1   
 28  13  30  1   
 29  13  31  1   
 30  13  32  1   
 31  14  16  ar  
 32  14  33  1   
 33  15  16  ar  
 34  15  34  1   
 35  16  35  1   
@<TRIPOS>SUBSTRUCTURE
  1 ****   3 GROUP 4 **** **** 0

# MOE 2024.06 (io_trps.svl 2023.06)
