@<TRIPOS>MOLECULE
NONAME
48 50 1 0 0 
SMALL
USER_CHARGES


@<TRIPOS>ATOM
  1 S        0.1960    -0.0650     1.5460 S.o2  1 <1>   1.5010 
  2 O        0.7720    -1.1340     2.3400 O.2   1 <1>  -0.6500 
  3 O       -0.6160     0.9280     2.2180 O.2   1 <1>  -0.6500 
  4 N       -0.8130    -0.8340     0.4130 N.am  1 <1>  -0.8490 
  5 C        1.5370     0.7210     0.5560 C.2   1 <1>   0.1640 
  6 C       -1.5820    -1.9480     0.9990 C.3   1 <1>   0.1960 
  7 C       -1.5920     0.0990    -0.4380 C.3   1 <1>   0.1960 
  8 N        1.3670     1.3000    -0.6720 N.2   1 <1>  -0.5650 
  9 C        2.8420     0.8500     0.9140 C.2   1 <1>  -0.3020 
 10 C       -2.5610    -2.4660    -0.0700 C.3   1 <1>   0.4230 
 11 C       -3.1120     0.0050    -0.2140 C.3   1 <1>  -0.1600 
 12 C        2.5350     1.7410    -1.0030 C.2   1 <1>   0.0060 
 13 N        3.4800     1.4960    -0.0750 N.pl3 1 <1>   0.0330 
 14 N       -3.1140    -3.8530     0.0740 N.4   1 <1>  -0.9590 
 15 C       -3.6970    -1.4430    -0.2350 C.3   1 <1>  -0.1060 
 16 C        2.8290     2.4660    -2.3040 C.3   1 <1>   0.0200 
 17 C       -3.8390    -4.2610    -1.1620 C.3   1 <1>   0.3430 
 18 C       -2.1480    -4.8790     0.5470 C.3   1 <1>   0.2630 
 19 C       -4.7130    -1.5730     0.9140 C.2   1 <1>   0.9060 
 20 C       -4.3810    -1.7730    -1.5810 C.3   1 <1>  -0.1600 
 21 C        3.1600     3.9410    -2.0600 C.3   1 <1>  -0.2400 
 22 C       -4.8990    -3.2270    -1.5710 C.3   1 <1>  -0.1600 
 23 O       -5.6990    -0.8390     0.9160 O.co2 1 <1>  -0.9000 
 24 O       -4.5600    -2.4620     1.7660 O.co2 1 <1>  -0.9000 
 25 H       -0.8920    -2.7170     1.2920 H     1 <1>   0.0800 
 26 H       -2.1180    -1.6120     1.8730 H     1 <1>   0.0800 
 27 H       -1.2780     1.1170    -0.2750 H     1 <1>   0.0800 
 28 H       -1.3780    -0.1310    -1.4680 H     1 <1>   0.0800 
 29 H        3.3280     0.5160     1.8140 H     1 <1>   0.1500 
 30 H       -1.9920    -2.4610    -0.9840 H     1 <1>   0.0800 
 31 H       -3.3090     0.4520     0.7480 H     1 <1>   0.0800 
 32 H       -3.6230     0.6220    -0.9310 H     1 <1>   0.0800 
 33 H        4.4690     1.7570    -0.1220 H     1 <1>   0.2700 
 34 H       -3.8320    -3.6980     0.8330 H     1 <1>   0.4500 
 35 H        3.6480     1.9830    -2.8070 H     1 <1>   0.0800 
 36 H        1.9650     2.3980    -2.9420 H     1 <1>   0.0800 
 37 H       -3.1300    -4.3700    -1.9660 H     1 <1>   0.0800 
 38 H       -4.3190    -5.2130    -1.0040 H     1 <1>   0.0800 
 39 H       -1.3300    -4.9730    -0.1470 H     1 <1>   0.0800 
 40 H       -2.6410    -5.8320     0.6430 H     1 <1>   0.0800 
 41 H       -1.7600    -4.6020     1.5140 H     1 <1>   0.0800 
 42 H       -5.2110    -1.1030    -1.7370 H     1 <1>   0.0800 
 43 H       -3.6870    -1.6360    -2.3930 H     1 <1>   0.0800 
 44 H        4.0440     4.0390    -1.4560 H     1 <1>   0.0800 
 45 H        2.3400     4.4200    -1.5530 H     1 <1>   0.0800 
 46 H        3.3240     4.4420    -2.9970 H     1 <1>   0.0800 
 47 H       -5.2760    -3.4760    -2.5470 H     1 <1>   0.0800 
 48 H       -5.7310    -3.3020    -0.8900 H     1 <1>   0.0800 
@<TRIPOS>BOND
  1   1   2  2   
  2   1   3  2   
  3   1   4  am  
  4   1   5  1   
  5   4   6  1   
  6   4   7  1   
  7   5   8  1   
  8   5   9  2   
  9   6  10  1   
 10   6  25  1   
 11   6  26  1   
 12   7  11  1   
 13   7  27  1   
 14   7  28  1   
 15   8  12  2   
 16   9  13  1   
 17   9  29  1   
 18  10  14  1   
 19  10  15  1   
 20  10  30  1   
 21  11  15  1   
 22  11  31  1   
 23  11  32  1   
 24  12  13  1   
 25  12  16  1   
 26  13  33  1   
 27  14  17  1   
 28  14  18  1   
 29  14  34  1   
 30  15  19  1   
 31  15  20  1   
 32  16  21  1   
 33  16  35  1   
 34  16  36  1   
 35  17  22  1   
 36  17  37  1   
 37  17  38  1   
 38  18  39  1   
 39  18  40  1   
 40  18  41  1   
 41  19  23  ar  
 42  19  24  ar  
 43  20  22  1   
 44  20  42  1   
 45  20  43  1   
 46  21  44  1   
 47  21  45  1   
 48  21  46  1   
 49  22  47  1   
 50  22  48  1   
@<TRIPOS>SUBSTRUCTURE
  1 ****   4 GROUP 4 **** **** 0

# MOE 2024.06 (io_trps.svl 2023.06)
