@<TRIPOS>MOLECULE
NONAME
52 56 1 0 0 
SMALL
USER_CHARGES


@<TRIPOS>ATOM
  1 S        0.5230     0.6580    -1.2560 S.3   1 <1>  -0.0800 
  2 C       -0.0480    -0.9600    -0.9110 C.ar  1 <1>   0.0400 
  3 C       -0.8830     1.3190    -0.4220 C.2   1 <1>   0.1980 
  4 C       -1.2320    -0.8540    -0.2060 C.ar  1 <1>   0.2270 
  5 C        0.5300    -2.1690    -1.2520 C.ar  1 <1>  -0.1500 
  6 N       -1.6740     0.4420     0.0520 N.2   1 <1>  -0.5650 
  7 C       -0.9850     2.8380    -0.3710 C.3   1 <1>   0.1000 
  8 C       -1.8740    -2.0210     0.1790 C.ar  1 <1>  -0.1500 
  9 C       -0.1240    -3.3250    -0.8600 C.ar  1 <1>  -0.1500 
 10 C        0.0210     3.3950     0.6450 C.3   1 <1>   0.2090 
 11 C       -2.4140     3.3120    -0.0370 C.3   1 <1>  -0.1600 
 12 C       -1.3200    -3.2500    -0.1480 C.ar  1 <1>  -0.1500 
 13 N       -0.0880     4.8840     0.7260 N.pl3 1 <1>  -0.8380 
 14 C       -2.4690     4.8430     0.1020 C.3   1 <1>  -0.1600 
 15 C        0.9920     5.6060     1.1960 C.ar  1 <1>   0.4100 
 16 C       -1.4420     5.3550     1.1160 C.3   1 <1>   0.2090 
 17 N        1.8050     5.0010     2.0540 N.ar  1 <1>  -0.6200 
 18 C        1.1790     6.9130     0.7690 C.ar  1 <1>  -0.1500 
 19 C        2.8110     5.7260     2.5060 C.ar  1 <1>   0.1600 
 20 C        2.2380     7.6710     1.2280 C.ar  1 <1>   0.0860 
 21 C        3.0670     7.0310     2.1390 C.ar  1 <1>  -0.1500 
 22 C        2.4520     9.0350     0.7910 C.2   1 <1>   0.5440 
 23 O        1.5570     9.8490     0.9130 O.2   1 <1>  -0.5700 
 24 N        3.6450     9.4290     0.2290 N.am  1 <1>  -0.6600 
 25 C        3.8770    10.8090    -0.2570 C.3   1 <1>   0.1400 
 26 C        4.6650     8.5020    -0.3120 C.3   1 <1>   0.1400 
 27 C        4.9070    10.6610    -1.3700 C.3   1 <1>  -0.1600 
 28 C        5.6820     9.3970    -1.0110 C.3   1 <1>  -0.1600 
 29 H        1.4540    -2.2010    -1.8020 H     1 <1>   0.1500 
 30 H       -0.7180     3.2180    -1.3410 H     1 <1>   0.0800 
 31 H       -2.7950    -1.9510     0.7280 H     1 <1>   0.1500 
 32 H        0.2900    -4.2880    -1.1060 H     1 <1>   0.1500 
 33 H        1.0210     3.1250     0.3510 H     1 <1>   0.0800 
 34 H       -0.1680     2.9720     1.6170 H     1 <1>   0.0800 
 35 H       -2.7280     2.8630     0.8900 H     1 <1>   0.0800 
 36 H       -3.0920     2.9880    -0.8070 H     1 <1>   0.0800 
 37 H       -1.8180    -4.1560     0.1500 H     1 <1>   0.1500 
 38 H       -3.4540     5.1420     0.4140 H     1 <1>   0.0800 
 39 H       -2.2720     5.3040    -0.8510 H     1 <1>   0.0800 
 40 H       -1.4680     6.4310     1.1520 H     1 <1>   0.0800 
 41 H       -1.6750     4.9800     2.0990 H     1 <1>   0.0800 
 42 H        0.4870     7.3370     0.0680 H     1 <1>   0.1500 
 43 H        3.4690     5.2490     3.2130 H     1 <1>   0.1500 
 44 H        3.9020     7.5600     2.5590 H     1 <1>   0.1500 
 45 H        4.2710    11.4010     0.5510 H     1 <1>   0.0800 
 46 H        2.9650    11.2550    -0.6190 H     1 <1>   0.0800 
 47 H        4.1990     7.8370    -1.0200 H     1 <1>   0.0800 
 48 H        5.1280     7.9310     0.4740 H     1 <1>   0.0800 
 49 H        5.5410    11.5270    -1.4450 H     1 <1>   0.0800 
 50 H        4.3910    10.5220    -2.3040 H     1 <1>   0.0800 
 51 H        6.1090     8.9180    -1.8750 H     1 <1>   0.0800 
 52 H        6.4700     9.6370    -0.3190 H     1 <1>   0.0800 
@<TRIPOS>BOND
  1   1   2  1   
  2   1   3  1   
  3   2   4  ar  
  4   2   5  ar  
  5   3   6  2   
  6   3   7  1   
  7   4   6  1   
  8   4   8  ar  
  9   5   9  ar  
 10   5  29  1   
 11   7  10  1   
 12   7  11  1   
 13   7  30  1   
 14   8  12  ar  
 15   8  31  1   
 16   9  12  ar  
 17   9  32  1   
 18  10  13  1   
 19  10  33  1   
 20  10  34  1   
 21  11  14  1   
 22  11  35  1   
 23  11  36  1   
 24  12  37  1   
 25  13  15  1   
 26  13  16  1   
 27  14  16  1   
 28  14  38  1   
 29  14  39  1   
 30  15  17  ar  
 31  15  18  ar  
 32  16  40  1   
 33  16  41  1   
 34  17  19  ar  
 35  18  20  ar  
 36  18  42  1   
 37  19  21  ar  
 38  19  43  1   
 39  20  21  ar  
 40  20  22  1   
 41  21  44  1   
 42  22  23  2   
 43  22  24  am  
 44  24  25  1   
 45  24  26  1   
 46  25  27  1   
 47  25  45  1   
 48  25  46  1   
 49  26  28  1   
 50  26  47  1   
 51  26  48  1   
 52  27  28  1   
 53  27  49  1   
 54  27  50  1   
 55  28  51  1   
 56  28  52  1   
@<TRIPOS>SUBSTRUCTURE
  1 ****  13 GROUP 4 **** **** 0

# MOE 2024.06 (io_trps.svl 2023.06)
