@<TRIPOS>MOLECULE
NONAME
43 45 1 0 0 
SMALL
USER_CHARGES


@<TRIPOS>ATOM
  1 O       -0.9350     0.4330    -0.9890 O.2   1 <1>  -0.5700 
  2 C       -1.7730     0.8090    -0.1950 C.2   1 <1>   0.5440 
  3 N       -2.7110    -0.0850     0.2570 N.am  1 <1>  -0.6600 
  4 C       -1.7790     2.1770     0.2630 C.ar  1 <1>   0.0860 
  5 C       -3.8560     0.2380     1.1420 C.3   1 <1>   0.1400 
  6 C       -2.7540    -1.5000    -0.1780 C.3   1 <1>   0.1400 
  7 C       -1.1240     2.5630     1.4230 C.ar  1 <1>   0.1660 
  8 C       -2.4670     3.1780    -0.4090 C.ar  1 <1>   0.1660 
  9 C       -4.7350    -1.0130     1.1110 C.3   1 <1>   0.2000 
 10 C       -3.8060    -2.1600     0.7160 C.3   1 <1>  -0.0800 
 11 N       -1.1780     3.7910     1.8900 N.ar  1 <1>  -0.6200 
 12 C       -0.3030     1.5790     2.2410 C.3   1 <1>  -0.0960 
 13 N       -2.5330     4.4110     0.0410 N.ar  1 <1>  -0.6200 
 14 C       -3.2060     2.9140    -1.7110 C.3   1 <1>  -0.0970 
 15 O       -5.3080    -1.2650     2.3470 O.3   1 <1>  -0.6800 
 16 C       -4.5470    -3.3250     0.0400 C.3   1 <1>  -0.0160 
 17 C       -1.8810     4.6460     1.1670 C.ar  1 <1>   0.4700 
 18 C       -3.5850    -4.4420    -0.3310 C.ar  1 <1>  -0.1440 
 19 C       -3.0430    -4.5560    -1.5960 C.ar  1 <1>  -0.1500 
 20 C       -3.2040    -5.4020     0.5840 C.ar  1 <1>  -0.1500 
 21 C       -2.1670    -5.5920    -1.8740 C.ar  1 <1>   0.1600 
 22 C       -2.3210    -6.3990     0.2030 C.ar  1 <1>   0.1600 
 23 N       -1.7920    -6.5160    -1.0040 N.ar  1 <1>  -0.6200 
 24 H       -3.4930     0.4300     2.1370 H     1 <1>   0.0800 
 25 H       -4.3950     1.0930     0.7720 H     1 <1>   0.0800 
 26 H       -3.0470    -1.5340    -1.2140 H     1 <1>   0.0800 
 27 H       -1.7890    -1.9670    -0.0670 H     1 <1>   0.0800 
 28 H       -5.5260    -0.8820     0.3910 H     1 <1>   0.0800 
 29 H       -3.2940    -2.5230     1.5900 H     1 <1>   0.0800 
 30 H        0.2170     0.8870     1.6020 H     1 <1>   0.0800 
 31 H       -0.9460     1.0320     2.9050 H     1 <1>   0.0800 
 32 H        0.4300     2.1050     2.8260 H     1 <1>   0.0800 
 33 H       -2.7490     2.1190    -2.2700 H     1 <1>   0.0800 
 34 H       -3.1930     3.7980    -2.3230 H     1 <1>   0.0800 
 35 H       -4.2280     2.6580    -1.5020 H     1 <1>   0.0800 
 36 H       -4.6180    -1.4320     3.0180 H     1 <1>   0.4000 
 37 H       -5.0560    -2.9760    -0.8410 H     1 <1>   0.0800 
 38 H       -5.2940    -3.7090     0.7140 H     1 <1>   0.0800 
 39 H       -1.9280     5.6560     1.5410 H     1 <1>   0.1500 
 40 H       -3.2900    -3.8520    -2.3690 H     1 <1>   0.1500 
 41 H       -3.5840    -5.3860     1.5880 H     1 <1>   0.1500 
 42 H       -1.7520    -5.6650    -2.8650 H     1 <1>   0.1500 
 43 H       -2.0340    -7.1400     0.9300 H     1 <1>   0.1500 
@<TRIPOS>BOND
  1   1   2  2   
  2   2   3  am  
  3   2   4  1   
  4   3   5  1   
  5   3   6  1   
  6   4   7  ar  
  7   4   8  ar  
  8   5   9  1   
  9   5  24  1   
 10   5  25  1   
 11   6  10  1   
 12   6  26  1   
 13   6  27  1   
 14   7  11  ar  
 15   7  12  1   
 16   8  13  ar  
 17   8  14  1   
 18   9  10  1   
 19   9  15  1   
 20   9  28  1   
 21  10  16  1   
 22  10  29  1   
 23  11  17  ar  
 24  12  30  1   
 25  12  31  1   
 26  12  32  1   
 27  13  17  ar  
 28  14  33  1   
 29  14  34  1   
 30  14  35  1   
 31  15  36  1   
 32  16  18  1   
 33  16  37  1   
 34  16  38  1   
 35  17  39  1   
 36  18  19  ar  
 37  18  20  ar  
 38  19  21  ar  
 39  19  40  1   
 40  20  22  ar  
 41  20  41  1   
 42  21  23  ar  
 43  21  42  1   
 44  22  23  ar  
 45  22  43  1   
@<TRIPOS>SUBSTRUCTURE
  1 ****   3 GROUP 4 **** **** 0

# MOE 2024.06 (io_trps.svl 2023.06)
