@<TRIPOS>MOLECULE
NONAME
50 52 1 0 0 
SMALL
USER_CHARGES


@<TRIPOS>ATOM
  1 O        2.3490     1.0400     2.5440 O.2   1 <1>  -0.5700 
  2 C        2.9650     1.1170     1.5090 C.2   1 <1>   0.5690 
  3 N        3.0420     2.1990     0.7090 N.am  1 <1>  -0.6600 
  4 C        3.7550    -0.0250     0.9330 C.3   1 <1>  -0.0990 
  5 C        3.8430     1.9700    -0.5010 C.3   1 <1>   0.1400 
  6 C        2.3220     3.4720     0.9280 C.3   1 <1>   0.2840 
  7 C        4.5100     0.6110    -0.2480 C.3   1 <1>  -0.1600 
  8 C        1.1010     3.5420     0.0140 C.ar  1 <1>  -0.1440 
  9 C        1.0670     4.2860    -1.1660 C.ar  1 <1>  -0.1430 
 10 C       -0.0240     2.8260     0.3970 C.ar  1 <1>  -0.1500 
 11 C       -0.0950     4.3080    -1.9260 C.ar  1 <1>  -0.1500 
 12 C        2.2690     5.0770    -1.6580 C.3   1 <1>   0.3530 
 13 C       -1.1760     2.8510    -0.3670 C.ar  1 <1>  -0.1500 
 14 C       -1.2120     3.5950    -1.5300 C.ar  1 <1>  -0.1500 
 15 N        2.3600     6.3230    -0.8670 N.pl3 1 <1>  -0.8690 
 16 C        3.4950     6.7700    -0.2220 C.ar  1 <1>   0.4100 
 17 N        4.6100     6.1040    -0.5130 N.ar  1 <1>  -0.6200 
 18 C        3.4460     7.8360     0.6960 C.ar  1 <1>   0.0860 
 19 C        5.7090     6.4460     0.1270 C.ar  1 <1>   0.1670 
 20 C        2.2430     8.5940     0.9560 C.2   1 <1>   0.5440 
 21 C        4.6180     8.1570     1.3650 C.ar  1 <1>  -0.1500 
 22 C        5.7690     7.4550     1.0830 C.ar  1 <1>  -0.1430 
 23 C        6.9420     5.6420    -0.2440 C.3   1 <1>  -0.0970 
 24 O        1.9870     9.0160     2.0630 O.2   1 <1>  -0.5700 
 25 N        1.3540     8.9140    -0.0150 N.am  1 <1>  -0.8000 
 26 C        7.0520     7.8090     1.8250 C.3   1 <1>  -0.0970 
 27 H        3.0720    -0.7840     0.5970 H     1 <1>   0.0800 
 28 H        4.4250    -0.4300     1.6690 H     1 <1>   0.0800 
 29 H        4.5730     2.7520    -0.6270 H     1 <1>   0.0800 
 30 H        3.1910     1.9270    -1.3570 H     1 <1>   0.0800 
 31 H        2.9950     4.2920     0.7670 H     1 <1>   0.0800 
 32 H        1.9990     3.5220     1.9540 H     1 <1>   0.0800 
 33 H        4.4780    -0.0100    -1.1270 H     1 <1>   0.0800 
 34 H        5.5380     0.7720     0.0240 H     1 <1>   0.0800 
 35 H        0.0000     2.2410     1.3020 H     1 <1>   0.1500 
 36 H       -0.1390     4.8820    -2.8350 H     1 <1>   0.1500 
 37 H        2.1500     5.3320    -2.6970 H     1 <1>   0.0800 
 38 H        3.1580     4.4800    -1.5690 H     1 <1>   0.0800 
 39 H       -2.0400     2.2900    -0.0540 H     1 <1>   0.1500 
 40 H       -2.1080     3.6180    -2.1260 H     1 <1>   0.1500 
 41 H        1.4660     6.5400    -0.4120 H     1 <1>   0.4000 
 42 H        4.6100     8.9510     2.0930 H     1 <1>   0.1500 
 43 H        6.7940     5.1470    -1.1870 H     1 <1>   0.0800 
 44 H        7.1270     4.8990     0.5090 H     1 <1>   0.0800 
 45 H        7.8010     6.2800    -0.3350 H     1 <1>   0.0800 
 46 H        0.5610     9.5160     0.2100 H     1 <1>   0.3700 
 47 H        1.5060     8.6730    -0.9970 H     1 <1>   0.3700 
 48 H        7.4930     6.9250     2.2510 H     1 <1>   0.0800 
 49 H        6.8550     8.5010     2.6240 H     1 <1>   0.0800 
 50 H        7.7550     8.2630     1.1490 H     1 <1>   0.0800 
@<TRIPOS>BOND
  1   1   2  2   
  2   2   3  am  
  3   2   4  1   
  4   3   5  1   
  5   3   6  1   
  6   4   7  1   
  7   4  27  1   
  8   4  28  1   
  9   5   7  1   
 10   5  29  1   
 11   5  30  1   
 12   6   8  1   
 13   6  31  1   
 14   6  32  1   
 15   7  33  1   
 16   7  34  1   
 17   8   9  ar  
 18   8  10  ar  
 19   9  11  ar  
 20   9  12  1   
 21  10  13  ar  
 22  10  35  1   
 23  11  14  ar  
 24  11  36  1   
 25  12  15  1   
 26  12  37  1   
 27  12  38  1   
 28  13  14  ar  
 29  13  39  1   
 30  14  40  1   
 31  15  16  1   
 32  15  41  1   
 33  16  17  ar  
 34  16  18  ar  
 35  17  19  ar  
 36  18  20  1   
 37  18  21  ar  
 38  19  22  ar  
 39  19  23  1   
 40  20  24  2   
 41  20  25  am  
 42  21  22  ar  
 43  21  42  1   
 44  22  26  1   
 45  23  43  1   
 46  23  44  1   
 47  23  45  1   
 48  25  46  1   
 49  25  47  1   
 50  26  48  1   
 51  26  49  1   
 52  26  50  1   
@<TRIPOS>SUBSTRUCTURE
  1 ****   6 GROUP 4 **** **** 0

# MOE 2024.06 (io_trps.svl 2023.06)
