@<TRIPOS>MOLECULE
NONAME
52 55 1 0 0 
SMALL
USER_CHARGES


@<TRIPOS>ATOM
  1 O       -0.4600     0.0570     0.8160 O.2   1 <1>  -0.5700 
  2 C       -1.4870     0.6420     0.5250 C.2   1 <1>   0.5440 
  3 N       -2.5860    -0.1060     0.1640 N.am  1 <1>  -0.6600 
  4 C       -1.5280     2.0910     0.5410 C.ar  1 <1>   0.0860 
  5 C       -3.6960     0.4020    -0.6800 C.3   1 <1>   0.1400 
  6 C       -2.5540    -1.5880     0.1510 C.3   1 <1>   0.1400 
  7 C       -0.5300     2.8400    -0.0790 C.ar  1 <1>  -0.1500 
  8 C       -2.5610     2.7860     1.1720 C.ar  1 <1>  -0.1500 
  9 C       -4.2200    -0.8280    -1.4200 C.3   1 <1>   0.2000 
 10 C       -3.8470    -2.0210    -0.5440 C.3   1 <1>  -0.0800 
 11 C       -0.5620     4.2220    -0.0980 C.ar  1 <1>  -0.1440 
 12 C       -2.6210     4.1690     1.1700 C.ar  1 <1>  -0.1440 
 13 O       -5.5950    -0.7750    -1.5890 O.3   1 <1>  -0.6800 
 14 C       -3.7030    -3.3270    -1.3420 C.3   1 <1>  -0.0170 
 15 C       -1.6150     4.8830     0.5260 C.ar  1 <1>   0.0820 
 16 C        0.5470     5.0000    -0.7920 C.3   1 <1>  -0.0970 
 17 C       -3.7760     4.8710     1.8730 C.3   1 <1>  -0.0970 
 18 C       -3.3750    -4.4980    -0.4200 C.ar  1 <1>  -0.1440 
 19 O       -1.6560     6.2230     0.5100 O.3   1 <1>  -0.5320 
 20 C       -4.3620    -5.1450     0.3610 C.ar  1 <1>   0.0000 
 21 C       -2.0930    -4.9510    -0.3180 C.ar  1 <1>  -0.1500 
 22 C       -3.9440    -6.2060     1.2010 C.ar  1 <1>   0.3100 
 23 C       -5.7360    -4.8060     0.3570 C.ar  1 <1>  -0.1500 
 24 C       -1.7860    -6.0130     0.5410 C.ar  1 <1>   0.1600 
 25 N       -2.6560    -6.6260     1.2790 N.ar  1 <1>  -0.6200 
 26 C       -4.8980    -6.8600     1.9960 C.ar  1 <1>  -0.1500 
 27 C       -6.6410    -5.4670     1.1430 C.ar  1 <1>  -0.1500 
 28 C       -6.2190    -6.5060     1.9750 C.ar  1 <1>  -0.1500 
 29 H       -4.4580     0.8210    -0.0470 H     1 <1>   0.0800 
 30 H       -3.3400     1.1430    -1.3750 H     1 <1>   0.0800 
 31 H       -1.6900    -1.9120    -0.4030 H     1 <1>   0.0800 
 32 H       -2.4950    -1.9760     1.1540 H     1 <1>   0.0800 
 33 H        0.2810     2.3120    -0.5500 H     1 <1>   0.1500 
 34 H       -3.3220     2.2160     1.6740 H     1 <1>   0.1500 
 35 H       -3.7590    -0.8930    -2.3910 H     1 <1>   0.0800 
 36 H       -4.5890    -2.1430     0.2250 H     1 <1>   0.0800 
 37 H       -6.0440    -0.7330    -0.7230 H     1 <1>   0.4000 
 38 H       -2.9210    -3.2130    -2.0730 H     1 <1>   0.0800 
 39 H       -4.6070    -3.5310    -1.8870 H     1 <1>   0.0800 
 40 H        1.2820     4.3380    -1.2130 H     1 <1>   0.0800 
 41 H        1.0340     5.6470    -0.0840 H     1 <1>   0.0800 
 42 H        0.1310     5.6010    -1.5800 H     1 <1>   0.0800 
 43 H       -4.4480     4.1580     2.3150 H     1 <1>   0.0800 
 44 H       -4.3320     5.4640     1.1680 H     1 <1>   0.0800 
 45 H       -3.4000     5.5060     2.6550 H     1 <1>   0.0800 
 46 H       -2.4220     6.5820     0.9880 H     1 <1>   0.4500 
 47 H       -1.2900    -4.5110    -0.8820 H     1 <1>   0.1500 
 48 H       -6.0830    -4.0140    -0.2780 H     1 <1>   0.1500 
 49 H       -0.7610    -6.3380     0.5920 H     1 <1>   0.1500 
 50 H       -4.5510    -7.6570     2.6270 H     1 <1>   0.1500 
 51 H       -7.6840    -5.1990     1.1300 H     1 <1>   0.1500 
 52 H       -6.9400    -7.0170     2.5900 H     1 <1>   0.1500 
@<TRIPOS>BOND
  1   1   2  2   
  2   2   3  am  
  3   2   4  1   
  4   3   5  1   
  5   3   6  1   
  6   4   7  ar  
  7   4   8  ar  
  8   5   9  1   
  9   5  29  1   
 10   5  30  1   
 11   6  10  1   
 12   6  31  1   
 13   6  32  1   
 14   7  11  ar  
 15   7  33  1   
 16   8  12  ar  
 17   8  34  1   
 18   9  10  1   
 19   9  13  1   
 20   9  35  1   
 21  10  14  1   
 22  10  36  1   
 23  11  15  ar  
 24  11  16  1   
 25  12  15  ar  
 26  12  17  1   
 27  13  37  1   
 28  14  18  1   
 29  14  38  1   
 30  14  39  1   
 31  15  19  1   
 32  16  40  1   
 33  16  41  1   
 34  16  42  1   
 35  17  43  1   
 36  17  44  1   
 37  17  45  1   
 38  18  20  ar  
 39  18  21  ar  
 40  19  46  1   
 41  20  22  ar  
 42  20  23  ar  
 43  21  24  ar  
 44  21  47  1   
 45  22  25  ar  
 46  22  26  ar  
 47  23  27  ar  
 48  23  48  1   
 49  24  25  ar  
 50  24  49  1   
 51  26  28  ar  
 52  26  50  1   
 53  27  28  ar  
 54  27  51  1   
 55  28  52  1   
@<TRIPOS>SUBSTRUCTURE
  1 ****   6 GROUP 4 **** **** 0

# MOE 2024.06 (io_trps.svl 2023.06)
