@<TRIPOS>MOLECULE
NONAME
41 42 1 0 0 
SMALL
USER_CHARGES


@<TRIPOS>ATOM
  1 O        0.9860     0.7530     0.8330 O.2   1 <1>  -0.5700 
  2 C        1.2810    -0.4280     0.8090 C.2   1 <1>   0.5440 
  3 N        0.3060    -1.3410     1.0910 N.am  1 <1>  -0.7300 
  4 C        2.6370    -0.8380     0.5150 C.ar  1 <1>   0.0860 
  5 C       -1.1290    -1.0460     1.3190 C.3   1 <1>   0.0600 
  6 C        2.9820    -2.1040    -0.0130 C.ar  1 <1>   0.4100 
  7 C        3.6860     0.0360     0.7750 C.ar  1 <1>  -0.1500 
  8 N        4.2240    -2.5180    -0.2190 N.ar  1 <1>  -0.6200 
  9 N        2.1040    -3.0790    -0.3920 N.pl3 1 <1>  -0.8690 
 10 C        4.9750    -0.3840     0.5410 C.ar  1 <1>  -0.1500 
 11 C        5.1850    -1.6600     0.0560 C.ar  1 <1>   0.1600 
 12 C        1.2750    -2.8800    -1.6000 C.3   1 <1>   0.4690 
 13 C       -0.1740    -3.3220    -1.3950 C.2   1 <1>   0.0060 
 14 C        1.9210    -3.6600    -2.7410 C.3   1 <1>  -0.2400 
 15 N       -1.1730    -2.6900    -1.9080 N.2   1 <1>  -0.5650 
 16 N       -0.5930    -4.3910    -0.6930 N.pl3 1 <1>   0.3140 
 17 C       -2.2090    -3.4180    -1.4840 C.2   1 <1>   0.3660 
 18 N       -1.9180    -4.4420    -0.7560 N.2   1 <1>  -0.7070 
 19 C        0.1550    -5.4390     0.0400 C.3   1 <1>   0.0960 
 20 C        0.2050    -5.1410     1.5470 C.3   1 <1>  -0.1600 
 21 C        0.9790    -6.2250     2.3020 C.3   1 <1>  -0.2400 
 22 H        0.5350    -2.3190     0.8820 H     1 <1>   0.3700 
 23 H       -1.2560    -0.0220     1.6250 H     1 <1>   0.0800 
 24 H       -1.5160    -1.6920     2.0880 H     1 <1>   0.0800 
 25 H       -1.6810    -1.2080     0.4100 H     1 <1>   0.0800 
 26 H        3.4880     1.0230     1.1610 H     1 <1>   0.1500 
 27 H        2.6470    -3.9370    -0.5080 H     1 <1>   0.4000 
 28 H        5.8090     0.2670     0.7360 H     1 <1>   0.1500 
 29 H        6.1980    -1.9860    -0.1150 H     1 <1>   0.1500 
 30 H        1.2690    -1.8330    -1.8590 H     1 <1>   0.0800 
 31 H        1.9320    -4.7130    -2.5310 H     1 <1>   0.0800 
 32 H        2.9250    -3.3110    -2.9040 H     1 <1>   0.0800 
 33 H        1.3560    -3.4990    -3.6410 H     1 <1>   0.0800 
 34 H       -3.2190    -3.1470    -1.7490 H     1 <1>   0.1500 
 35 H        1.1470    -5.5160    -0.3620 H     1 <1>   0.0800 
 36 H       -0.3460    -6.3760    -0.1240 H     1 <1>   0.0800 
 37 H       -0.8010    -5.0910     1.9310 H     1 <1>   0.0800 
 38 H        0.6810    -4.1910     1.7180 H     1 <1>   0.0800 
 39 H        0.5140    -7.1860     2.1680 H     1 <1>   0.0800 
 40 H        0.9930    -5.9990     3.3540 H     1 <1>   0.0800 
 41 H        1.9960    -6.2770     1.9540 H     1 <1>   0.0800 
@<TRIPOS>BOND
  1   1   2  2   
  2   2   3  am  
  3   2   4  1   
  4   3   5  1   
  5   3  22  1   
  6   4   6  ar  
  7   4   7  ar  
  8   5  23  1   
  9   5  24  1   
 10   5  25  1   
 11   6   8  ar  
 12   6   9  1   
 13   7  10  ar  
 14   7  26  1   
 15   8  11  ar  
 16   9  12  1   
 17   9  27  1   
 18  10  11  ar  
 19  10  28  1   
 20  11  29  1   
 21  12  13  1   
 22  12  14  1   
 23  12  30  1   
 24  13  15  2   
 25  13  16  1   
 26  14  31  1   
 27  14  32  1   
 28  14  33  1   
 29  15  17  1   
 30  16  18  1   
 31  16  19  1   
 32  17  18  2   
 33  17  34  1   
 34  19  20  1   
 35  19  35  1   
 36  19  36  1   
 37  20  21  1   
 38  20  37  1   
 39  20  38  1   
 40  21  39  1   
 41  21  40  1   
 42  21  41  1   
@<TRIPOS>SUBSTRUCTURE
  1 ****   9 GROUP 4 **** **** 0

# MOE 2024.06 (io_trps.svl 2023.06)
