@<TRIPOS>MOLECULE
NONAME
50 53 1 0 0 
SMALL
USER_CHARGES


@<TRIPOS>ATOM
  1 O       -0.8710     0.4530     1.3370 O.3   1 <1>  -0.5600 
  2 C       -0.3330     0.8980     0.1280 C.3   1 <1>   0.1200 
  3 C       -2.0230     1.1750     1.6660 C.3   1 <1>   0.1200 
  4 C       -0.8900     2.2990    -0.0960 C.3   1 <1>   0.2890 
  5 C       -2.2640     2.1960     0.5460 C.3   1 <1>  -0.0800 
  6 N       -0.0780     3.2780     0.6670 N.pl3 1 <1>  -0.8690 
  7 C       -3.3240     1.7080    -0.4640 C.3   1 <1>  -0.0170 
  8 C        0.4810     4.4230     0.1550 C.ar  1 <1>   0.4100 
  9 C       -4.7590     1.5760     0.0660 C.ar  1 <1>  -0.1430 
 10 N        0.0870     4.7970    -1.0440 N.ar  1 <1>  -0.6200 
 11 C        1.4190     5.1540     0.8750 C.ar  1 <1>  -0.1430 
 12 C       -5.7420     0.9150    -0.7120 C.ar  1 <1>   0.0000 
 13 C       -5.1620     2.0770     1.2730 C.ar  1 <1>  -0.1500 
 14 C        0.6340     5.8960    -1.5160 C.ar  1 <1>   0.4770 
 15 C        1.9100     6.2820     0.2650 C.ar  1 <1>   0.1600 
 16 C        1.8530     4.6920     2.2700 C.3   1 <1>  -0.0170 
 17 C       -7.0470     0.7940    -0.1730 C.ar  1 <1>   0.3100 
 18 C       -5.5100     0.3710    -1.9980 C.ar  1 <1>  -0.1500 
 19 C       -6.4820     1.9110     1.7080 C.ar  1 <1>   0.1600 
 20 N        1.5290     6.6700    -0.9350 N.ar  1 <1>  -0.6200 
 21 C        0.1800     6.3290    -2.8890 C.3   1 <1>  -0.0970 
 22 C        2.8740     5.5960     2.9730 C.3   1 <1>  -0.2400 
 23 N       -7.4000     1.2950     1.0360 N.ar  1 <1>  -0.6200 
 24 C       -8.0350     0.1290    -0.9190 C.ar  1 <1>  -0.1500 
 25 C       -6.4960    -0.2670    -2.7000 C.ar  1 <1>  -0.1500 
 26 C       -7.7750    -0.3950    -2.1550 C.ar  1 <1>  -0.1500 
 27 H        0.7410     0.8870     0.1810 H     1 <1>   0.0800 
 28 H       -0.6660     0.2280    -0.6440 H     1 <1>   0.0800 
 29 H       -2.8400     0.4850     1.7850 H     1 <1>   0.0800 
 30 H       -1.8340     1.6740     2.6010 H     1 <1>   0.0800 
 31 H       -0.9280     2.5510    -1.1420 H     1 <1>   0.0800 
 32 H       -2.5610     3.1550     0.9330 H     1 <1>   0.0800 
 33 H        0.2850     2.9050     1.5450 H     1 <1>   0.4000 
 34 H       -3.0120     0.7470    -0.8330 H     1 <1>   0.0800 
 35 H       -3.3430     2.3890    -1.2970 H     1 <1>   0.0800 
 36 H       -4.5020     2.6100     1.9300 H     1 <1>   0.1500 
 37 H        2.6390     6.9030     0.7530 H     1 <1>   0.1500 
 38 H        0.9780     4.6230     2.8940 H     1 <1>   0.0800 
 39 H        2.2750     3.7050     2.1870 H     1 <1>   0.0800 
 40 H       -4.5380     0.4610    -2.4450 H     1 <1>   0.1500 
 41 H       -6.7490     2.3210     2.6670 H     1 <1>   0.1500 
 42 H        0.9780     6.8340    -3.3990 H     1 <1>   0.0800 
 43 H       -0.6550     6.9960    -2.7910 H     1 <1>   0.0800 
 44 H       -0.1170     5.4740    -3.4680 H     1 <1>   0.0800 
 45 H        2.4730     6.5850     3.1070 H     1 <1>   0.0800 
 46 H        3.7840     5.6530     2.4010 H     1 <1>   0.0800 
 47 H        3.1100     5.1930     3.9420 H     1 <1>   0.0800 
 48 H       -9.0120     0.0470    -0.4800 H     1 <1>   0.1500 
 49 H       -6.3010    -0.6770    -3.6770 H     1 <1>   0.1500 
 50 H       -8.5420    -0.9010    -2.7150 H     1 <1>   0.1500 
@<TRIPOS>BOND
  1   1   2  1   
  2   1   3  1   
  3   2   4  1   
  4   2  27  1   
  5   2  28  1   
  6   3   5  1   
  7   3  29  1   
  8   3  30  1   
  9   4   5  1   
 10   4   6  1   
 11   4  31  1   
 12   5   7  1   
 13   5  32  1   
 14   6   8  1   
 15   6  33  1   
 16   7   9  1   
 17   7  34  1   
 18   7  35  1   
 19   8  10  ar  
 20   8  11  ar  
 21   9  12  ar  
 22   9  13  ar  
 23  10  14  ar  
 24  11  15  ar  
 25  11  16  1   
 26  12  17  ar  
 27  12  18  ar  
 28  13  19  ar  
 29  13  36  1   
 30  14  20  ar  
 31  14  21  1   
 32  15  20  ar  
 33  15  37  1   
 34  16  22  1   
 35  16  38  1   
 36  16  39  1   
 37  17  23  ar  
 38  17  24  ar  
 39  18  25  ar  
 40  18  40  1   
 41  19  23  ar  
 42  19  41  1   
 43  21  42  1   
 44  21  43  1   
 45  21  44  1   
 46  22  45  1   
 47  22  46  1   
 48  22  47  1   
 49  24  26  ar  
 50  24  48  1   
 51  25  26  ar  
 52  25  49  1   
 53  26  50  1   
@<TRIPOS>SUBSTRUCTURE
  1 ****   5 GROUP 4 **** **** 0

# MOE 2024.06 (io_trps.svl 2023.06)
