@<TRIPOS>MOLECULE
NONAME
58 59 1 0 0 
SMALL
USER_CHARGES


@<TRIPOS>ATOM
  1 O        0.8830    -0.4060     0.5060 O.2   1 <1>  -0.5700 
  2 C        1.9010    -0.9640     0.1610 C.2   1 <1>   0.5690 
  3 N        3.1110    -0.3140     0.1180 N.am  1 <1>  -0.6600 
  4 C        1.7520    -2.4430    -0.2440 C.3   1 <1>   0.4040 
  5 C        4.4270    -0.9740    -0.1870 C.3   1 <1>   0.1400 
  6 C        3.1750     1.1630     0.3590 C.3   1 <1>   0.1400 
  7 N        0.3380    -2.8060    -0.6580 N.4   1 <1>  -0.9590 
  8 C        5.4720    -0.7610     0.9210 C.3   1 <1>   0.1400 
  9 C        3.6920     1.4510     1.7750 C.3   1 <1>  -0.1600 
 10 C        0.0500    -4.2650    -0.6200 C.3   1 <1>   0.4230 
 11 C        0.0110    -2.1770    -1.9780 C.3   1 <1>   0.2630 
 12 N        5.9340     0.6550     0.9400 N.am  1 <1>  -0.6600 
 13 C        5.2200     1.5620     1.8860 C.3   1 <1>   0.1400 
 14 C       -1.4410    -4.5540    -0.8490 C.3   1 <1>  -0.1600 
 15 C        0.3760    -4.8690     0.7480 C.3   1 <1>  -0.1600 
 16 C        6.9170     1.0510     0.0660 C.2   1 <1>   0.5690 
 17 C       -1.9110    -5.4470     0.3040 C.3   1 <1>  -0.1600 
 18 C       -0.6390    -5.9910     0.9390 C.3   1 <1>  -0.1600 
 19 O        7.3380     0.2900    -0.7760 O.2   1 <1>  -0.5700 
 20 C        7.4840     2.4590     0.1240 C.3   1 <1>  -0.0990 
 21 C        8.7070     2.6410    -0.7720 C.3   1 <1>   0.1200 
 22 O        9.1420     3.9530    -0.6310 O.3   1 <1>  -0.5600 
 23 C       10.2520     4.2600    -1.4040 C.3   1 <1>   0.1200 
 24 C       10.6040     5.7190    -1.1420 C.3   1 <1>  -0.2400 
 25 H        2.0460    -3.0330     0.6050 H     1 <1>   0.0800 
 26 H        2.4290    -2.6550    -1.0520 H     1 <1>   0.0800 
 27 H        4.8170    -0.5850    -1.1130 H     1 <1>   0.0800 
 28 H        4.3000    -2.0320    -0.3120 H     1 <1>   0.0800 
 29 H        2.1920     1.5900     0.2570 H     1 <1>   0.0800 
 30 H        3.8040     1.6320    -0.3790 H     1 <1>   0.0800 
 31 H       -0.2630    -2.3440     0.0480 H     1 <1>   0.4500 
 32 H        6.3180    -1.3980     0.7280 H     1 <1>   0.0800 
 33 H        5.0700    -1.0390     1.8790 H     1 <1>   0.0800 
 34 H        3.3230     0.7040     2.4550 H     1 <1>   0.0800 
 35 H        3.2790     2.3890     2.1020 H     1 <1>   0.0800 
 36 H        0.6230    -4.7790    -1.3760 H     1 <1>   0.0800 
 37 H        0.6320    -2.5890    -2.7560 H     1 <1>   0.0800 
 38 H        0.1730    -1.1110    -1.9310 H     1 <1>   0.0800 
 39 H       -1.0220    -2.3470    -2.2330 H     1 <1>   0.0800 
 40 H        5.5270     1.3350     2.8930 H     1 <1>   0.0800 
 41 H        5.4920     2.5840     1.6910 H     1 <1>   0.0800 
 42 H       -1.5540    -5.0870    -1.7780 H     1 <1>   0.0800 
 43 H       -2.0460    -3.6650    -0.8790 H     1 <1>   0.0800 
 44 H        0.2240    -4.1440     1.5300 H     1 <1>   0.0800 
 45 H        1.3800    -5.2520     0.7920 H     1 <1>   0.0800 
 46 H       -2.5600    -6.2390    -0.0330 H     1 <1>   0.0800 
 47 H       -2.4430    -4.8520     1.0280 H     1 <1>   0.0800 
 48 H       -0.7810    -6.2420     1.9770 H     1 <1>   0.0800 
 49 H       -0.3170    -6.8730     0.4080 H     1 <1>   0.0800 
 50 H        7.7700     2.6760     1.1360 H     1 <1>   0.0800 
 51 H        6.7240     3.1480    -0.1910 H     1 <1>   0.0800 
 52 H        8.4510     2.4650    -1.8040 H     1 <1>   0.0800 
 53 H        9.4990     1.9740    -0.4720 H     1 <1>   0.0800 
 54 H       10.0060     4.1090    -2.4420 H     1 <1>   0.0800 
 55 H       11.0660     3.6150    -1.1190 H     1 <1>   0.0800 
 56 H        9.7800     6.3520    -1.4180 H     1 <1>   0.0800 
 57 H       11.4630     5.9970    -1.7250 H     1 <1>   0.0800 
 58 H       10.8330     5.8610    -0.1010 H     1 <1>   0.0800 
@<TRIPOS>BOND
  1   1   2  2   
  2   2   3  am  
  3   2   4  1   
  4   3   5  1   
  5   3   6  1   
  6   4   7  1   
  7   4  25  1   
  8   4  26  1   
  9   5   8  1   
 10   5  27  1   
 11   5  28  1   
 12   6   9  1   
 13   6  29  1   
 14   6  30  1   
 15   7  10  1   
 16   7  11  1   
 17   7  31  1   
 18   8  12  1   
 19   8  32  1   
 20   8  33  1   
 21   9  13  1   
 22   9  34  1   
 23   9  35  1   
 24  10  14  1   
 25  10  15  1   
 26  10  36  1   
 27  11  37  1   
 28  11  38  1   
 29  11  39  1   
 30  12  13  1   
 31  12  16  am  
 32  13  40  1   
 33  13  41  1   
 34  14  17  1   
 35  14  42  1   
 36  14  43  1   
 37  15  18  1   
 38  15  44  1   
 39  15  45  1   
 40  16  19  2   
 41  16  20  1   
 42  17  18  1   
 43  17  46  1   
 44  17  47  1   
 45  18  48  1   
 46  18  49  1   
 47  20  21  1   
 48  20  50  1   
 49  20  51  1   
 50  21  22  1   
 51  21  52  1   
 52  21  53  1   
 53  22  23  1   
 54  23  24  1   
 55  23  54  1   
 56  23  55  1   
 57  24  56  1   
 58  24  57  1   
 59  24  58  1   
@<TRIPOS>SUBSTRUCTURE
  1 ****   3 GROUP 4 **** **** 0

# MOE 2024.06 (io_trps.svl 2023.06)
