@<TRIPOS>MOLECULE
NONAME
53 55 1 0 0 
SMALL
USER_CHARGES


@<TRIPOS>ATOM
  1 O       -0.9780     0.0600    -0.0190 O.3   1 <1>  -0.3630 
  2 C       -0.7190     1.3790    -0.2100 C.ar  1 <1>   0.0830 
  3 C       -2.1210    -0.5490    -0.5640 C.3   1 <1>   0.1200 
  4 C        0.4680     1.8630     0.3130 C.ar  1 <1>  -0.1500 
  5 C       -1.5710     2.2450    -0.8920 C.ar  1 <1>  -0.1500 
  6 C       -2.0660    -2.0350    -0.1980 C.3   1 <1>   0.3430 
  7 C        0.8190     3.1940     0.1640 C.ar  1 <1>   0.0830 
  8 C       -1.2250     3.5770    -1.0430 C.ar  1 <1>  -0.1500 
  9 N       -3.1290    -2.8440    -0.8860 N.4   1 <1>  -0.9590 
 10 O        2.0010     3.5780     0.7080 O.3   1 <1>  -0.3630 
 11 C       -0.0360     4.0540    -0.5200 C.ar  1 <1>  -0.1500 
 12 C       -4.5010    -2.5370    -0.3590 C.3   1 <1>   0.3430 
 13 C       -2.8880    -4.2950    -0.5970 C.3   1 <1>   0.3430 
 14 C        2.4530     4.9080     0.6170 C.3   1 <1>   0.1200 
 15 C       -4.7840    -3.5820     0.7230 C.3   1 <1>   0.2000 
 16 C       -4.1120    -4.8310     0.1560 C.3   1 <1>  -0.0800 
 17 C        3.8010     4.9980     1.3260 C.3   1 <1>  -0.2400 
 18 O       -4.1460    -3.1800     1.8920 O.3   1 <1>  -0.6800 
 19 C       -3.7450    -5.9270     1.1750 C.3   1 <1>   0.0210 
 20 C       -3.1100    -7.1220     0.4870 C.2   1 <1>   0.1080 
 21 N       -2.0260    -7.0350    -0.2210 N.2   1 <1>  -0.7070 
 22 C       -3.6030    -8.4200     0.5390 C.2   1 <1>  -0.1500 
 23 N       -1.7890    -8.2990    -0.6340 N.pl3 1 <1>   0.3000 
 24 C       -2.7350    -9.1510    -0.1910 C.2   1 <1>  -0.3320 
 25 C       -2.7480   -10.6390    -0.4900 C.3   1 <1>  -0.0600 
 26 H       -2.9870    -0.0760    -0.1370 H     1 <1>   0.0800 
 27 H       -2.0890    -0.4150    -1.6310 H     1 <1>   0.0800 
 28 H        1.1290     1.2020     0.8420 H     1 <1>   0.1500 
 29 H       -2.5010     1.9120    -1.3100 H     1 <1>   0.1500 
 30 H       -2.1680    -2.1370     0.8700 H     1 <1>   0.0800 
 31 H       -1.0970    -2.4120    -0.4820 H     1 <1>   0.0800 
 32 H       -1.8830     4.2470    -1.5700 H     1 <1>   0.1500 
 33 H       -3.0780    -2.6880    -1.9010 H     1 <1>   0.4500 
 34 H        0.2060     5.0920    -0.6530 H     1 <1>   0.1500 
 35 H       -4.5750    -1.5400     0.0410 H     1 <1>   0.0800 
 36 H       -5.2210    -2.6550    -1.1520 H     1 <1>   0.0800 
 37 H       -2.7320    -4.8600    -1.5020 H     1 <1>   0.0800 
 38 H       -2.0140    -4.4120     0.0250 H     1 <1>   0.0800 
 39 H        2.5540     5.1630    -0.4240 H     1 <1>   0.0800 
 40 H        1.7300     5.5480     1.0920 H     1 <1>   0.0800 
 41 H       -5.8360    -3.7020     0.9190 H     1 <1>   0.0800 
 42 H       -4.7700    -5.2660    -0.5760 H     1 <1>   0.0800 
 43 H        4.5110     4.3420     0.8540 H     1 <1>   0.0800 
 44 H        3.6920     4.7240     2.3610 H     1 <1>   0.0800 
 45 H        4.1740     6.0040     1.2740 H     1 <1>   0.0800 
 46 H       -4.4420    -3.7100     2.6630 H     1 <1>   0.4000 
 47 H       -4.6270    -6.2500     1.6980 H     1 <1>   0.0800 
 48 H       -3.0430    -5.5540     1.8990 H     1 <1>   0.0800 
 49 H       -4.4860    -8.7520     1.0570 H     1 <1>   0.1500 
 50 H       -0.9750    -8.5520    -1.2090 H     1 <1>   0.2700 
 51 H       -3.6000   -11.1030    -0.0250 H     1 <1>   0.0800 
 52 H       -1.8560   -11.1040    -0.1090 H     1 <1>   0.0800 
 53 H       -2.8060   -10.8070    -1.5510 H     1 <1>   0.0800 
@<TRIPOS>BOND
  1   1   2  1   
  2   1   3  1   
  3   2   4  ar  
  4   2   5  ar  
  5   3   6  1   
  6   3  26  1   
  7   3  27  1   
  8   4   7  ar  
  9   4  28  1   
 10   5   8  ar  
 11   5  29  1   
 12   6   9  1   
 13   6  30  1   
 14   6  31  1   
 15   7  10  1   
 16   7  11  ar  
 17   8  11  ar  
 18   8  32  1   
 19   9  12  1   
 20   9  13  1   
 21   9  33  1   
 22  10  14  1   
 23  11  34  1   
 24  12  15  1   
 25  12  35  1   
 26  12  36  1   
 27  13  16  1   
 28  13  37  1   
 29  13  38  1   
 30  14  17  1   
 31  14  39  1   
 32  14  40  1   
 33  15  16  1   
 34  15  18  1   
 35  15  41  1   
 36  16  19  1   
 37  16  42  1   
 38  17  43  1   
 39  17  44  1   
 40  17  45  1   
 41  18  46  1   
 42  19  20  1   
 43  19  47  1   
 44  19  48  1   
 45  20  21  2   
 46  20  22  1   
 47  21  23  1   
 48  22  24  2   
 49  22  49  1   
 50  23  24  1   
 51  23  50  1   
 52  24  25  1   
 53  25  51  1   
 54  25  52  1   
 55  25  53  1   
@<TRIPOS>SUBSTRUCTURE
  1 ****   6 GROUP 4 **** **** 0

# MOE 2024.06 (io_trps.svl 2023.06)
