@<TRIPOS>MOLECULE
NONAME
43 45 1 0 0 
SMALL
USER_CHARGES


@<TRIPOS>ATOM
  1 O       -0.0670     1.1000    -0.3810 O.2   1 <1>  -0.5700 
  2 C       -0.8620     1.9850    -0.6150 C.2   1 <1>   0.5690 
  3 N       -2.2130     1.8060    -0.4340 N.am  1 <1>  -0.6600 
  4 C       -0.2960     3.3170    -1.1310 C.3   1 <1>   0.1810 
  5 C       -3.2710     2.8230    -0.7340 C.3   1 <1>   0.1400 
  6 C       -2.7610     0.5310     0.1130 C.3   1 <1>   0.1400 
  7 O        1.0510     3.4670    -0.7960 O.3   1 <1>  -0.6800 
  8 C       -4.0790     3.1660     0.5330 C.3   1 <1>   0.1430 
  9 C       -3.5770     0.8150     1.3810 C.3   1 <1>  -0.1600 
 10 C       -5.1500     4.1700     0.1540 C.ar  1 <1>   0.1670 
 11 C       -4.6690     1.8720     1.1350 C.3   1 <1>  -0.1600 
 12 C       -3.2310     3.9540     1.5690 C.3   1 <1>  -0.1600 
 13 N       -6.2150     3.9040    -0.5610 N.ar  1 <1>  -0.6200 
 14 C       -4.8660     5.4140     0.6270 C.ar  1 <1>  -0.1430 
 15 C       -3.5670     5.4460     1.3920 C.3   1 <1>  -0.0170 
 16 C       -7.0250     4.9410    -0.7850 C.ar  1 <1>   0.7200 
 17 C       -5.7550     6.4200     0.3470 C.ar  1 <1>   0.1600 
 18 N       -6.8380     6.1950    -0.3590 N.ar  1 <1>  -0.6200 
 19 N       -8.1600     4.6960    -1.5330 N.pl3 1 <1>  -0.8380 
 20 C       -8.6790     3.3190    -1.7580 C.3   1 <1>   0.1290 
 21 C       -8.9870     5.7980    -2.0980 C.3   1 <1>   0.1290 
 22 H       -0.8220     4.1500    -0.7050 H     1 <1>   0.0800 
 23 H       -0.3750     3.3470    -2.2020 H     1 <1>   0.0800 
 24 H       -3.9420     2.4130    -1.4710 H     1 <1>   0.0800 
 25 H       -2.8550     3.7210    -1.1500 H     1 <1>   0.0800 
 26 H       -1.9670    -0.1590     0.3450 H     1 <1>   0.0800 
 27 H       -3.3890     0.0730    -0.6310 H     1 <1>   0.0800 
 28 H        1.4120     2.5670    -0.6240 H     1 <1>   0.4000 
 29 H       -2.9080     1.1450     2.1560 H     1 <1>   0.0800 
 30 H       -4.0340    -0.1000     1.7160 H     1 <1>   0.0800 
 31 H       -5.3910     1.4680     0.4460 H     1 <1>   0.0800 
 32 H       -5.1890     2.0920     2.0500 H     1 <1>   0.0800 
 33 H       -2.1760     3.7700     1.4710 H     1 <1>   0.0800 
 34 H       -3.5250     3.6670     2.5630 H     1 <1>   0.0800 
 35 H       -2.8120     5.9400     0.8060 H     1 <1>   0.0800 
 36 H       -3.6760     5.9410     2.3410 H     1 <1>   0.0800 
 37 H       -5.5760     7.4210     0.7020 H     1 <1>   0.1500 
 38 H       -8.3650     2.6600    -0.9660 H     1 <1>   0.0800 
 39 H       -8.3070     2.9430    -2.6940 H     1 <1>   0.0800 
 40 H       -9.7550     3.3280    -1.7790 H     1 <1>   0.0800 
 41 H       -8.3750     6.6580    -2.3100 H     1 <1>   0.0800 
 42 H       -9.7470     6.0760    -1.3890 H     1 <1>   0.0800 
 43 H       -9.4510     5.4790    -3.0140 H     1 <1>   0.0800 
@<TRIPOS>BOND
  1   1   2  2   
  2   2   3  am  
  3   2   4  1   
  4   3   5  1   
  5   3   6  1   
  6   4   7  1   
  7   4  22  1   
  8   4  23  1   
  9   5   8  1   
 10   5  24  1   
 11   5  25  1   
 12   6   9  1   
 13   6  26  1   
 14   6  27  1   
 15   7  28  1   
 16   8  10  1   
 17   8  11  1   
 18   8  12  1   
 19   9  11  1   
 20   9  29  1   
 21   9  30  1   
 22  10  13  ar  
 23  10  14  ar  
 24  11  31  1   
 25  11  32  1   
 26  12  15  1   
 27  12  33  1   
 28  12  34  1   
 29  13  16  ar  
 30  14  15  1   
 31  14  17  ar  
 32  15  35  1   
 33  15  36  1   
 34  16  18  ar  
 35  16  19  1   
 36  17  18  ar  
 37  17  37  1   
 38  19  20  1   
 39  19  21  1   
 40  20  38  1   
 41  20  39  1   
 42  20  40  1   
 43  21  41  1   
 44  21  42  1   
 45  21  43  1   
@<TRIPOS>SUBSTRUCTURE
  1 ****   8 GROUP 4 **** **** 0

# MOE 2024.06 (io_trps.svl 2023.06)
