@<TRIPOS>MOLECULE
NONAME
43 46 1 0 0 
SMALL
USER_CHARGES


@<TRIPOS>ATOM
  1 O        1.3310    -0.5260    -2.1970 O.2   1 <1>  -0.5700 
  2 C        1.9280    -0.8640    -1.1940 C.2   1 <1>   0.7150 
  3 N        2.8240     0.0380    -0.6460 N.am  1 <1>  -0.6600 
  4 C        1.7120    -2.1930    -0.6550 C.2   1 <1>   0.0550 
  5 C        3.2310    -0.0190     0.8070 C.3   1 <1>   0.2200 
  6 C        3.3430     1.1520    -1.5010 C.3   1 <1>   0.1400 
  7 O        2.6450    -2.8010     0.1000 O.3   1 <1>  -0.2800 
  8 C        0.6530    -3.0270    -0.8140 C.2   1 <1>  -0.1500 
  9 C        3.1410     1.3450     1.5130 C.3   1 <1>   0.1200 
 10 C        4.6500    -0.6210     0.9530 C.3   1 <1>   0.3430 
 11 C        4.6670     1.7790    -1.0200 C.3   1 <1>  -0.0800 
 12 C        2.1870    -4.0080     0.4310 C.ar  1 <1>   0.1400 
 13 C        0.9340    -4.2110    -0.1140 C.ar  1 <1>   0.0000 
 14 O        4.3250     2.0670     1.3490 O.3   1 <1>  -0.5600 
 15 N        5.4220    -0.5840    -0.3400 N.4   1 <1>  -0.9590 
 16 C        4.4510     2.7510     0.1490 C.3   1 <1>   0.1200 
 17 C        5.8320     0.7990    -0.7520 C.3   1 <1>   0.3430 
 18 C        2.8170    -4.9750     1.2060 C.ar  1 <1>  -0.1500 
 19 C        0.2730    -5.4190     0.1130 C.ar  1 <1>  -0.1500 
 20 C        6.5850    -1.5160    -0.3030 C.3   1 <1>   0.2630 
 21 C        2.1570    -6.1670     1.4270 C.ar  1 <1>  -0.1500 
 22 C        0.8880    -6.3860     0.8810 C.ar  1 <1>  -0.1500 
 23 H        2.5410    -0.6550     1.3320 H     1 <1>   0.0800 
 24 H        3.4850     0.7760    -2.5010 H     1 <1>   0.0800 
 25 H        2.5840     1.9160    -1.5630 H     1 <1>   0.0800 
 26 H       -0.2480    -2.8470    -1.3730 H     1 <1>   0.1500 
 27 H        3.0290     1.1860     2.5710 H     1 <1>   0.0800 
 28 H        2.2990     1.9210     1.1700 H     1 <1>   0.0800 
 29 H        4.5380    -1.6450     1.2670 H     1 <1>   0.0800 
 30 H        5.1890    -0.1010     1.7280 H     1 <1>   0.0800 
 31 H        4.9930     2.4090    -1.8280 H     1 <1>   0.0800 
 32 H        4.7420    -0.9080    -1.0460 H     1 <1>   0.4500 
 33 H        3.5810     3.3710     0.0030 H     1 <1>   0.0800 
 34 H        5.3060     3.3990     0.2500 H     1 <1>   0.0800 
 35 H        6.4760     1.2230     0.0020 H     1 <1>   0.0800 
 36 H        6.4080     0.7210    -1.6600 H     1 <1>   0.0800 
 37 H        3.7910    -4.7910     1.6170 H     1 <1>   0.1500 
 38 H       -0.7020    -5.5800    -0.3120 H     1 <1>   0.1500 
 39 H        7.2920    -1.2030     0.4490 H     1 <1>   0.0800 
 40 H        7.0810    -1.5340    -1.2590 H     1 <1>   0.0800 
 41 H        6.2530    -2.5160    -0.0710 H     1 <1>   0.0800 
 42 H        2.6140    -6.9400     2.0220 H     1 <1>   0.1500 
 43 H        0.3920    -7.3240     1.0660 H     1 <1>   0.1500 
@<TRIPOS>BOND
  1   1   2  2   
  2   2   3  am  
  3   2   4  1   
  4   3   5  1   
  5   3   6  1   
  6   4   7  1   
  7   4   8  2   
  8   5   9  1   
  9   5  10  1   
 10   5  23  1   
 11   6  11  1   
 12   6  24  1   
 13   6  25  1   
 14   7  12  1   
 15   8  13  1   
 16   8  26  1   
 17   9  14  1   
 18   9  27  1   
 19   9  28  1   
 20  10  15  1   
 21  10  29  1   
 22  10  30  1   
 23  11  16  1   
 24  11  17  1   
 25  11  31  1   
 26  12  13  ar  
 27  12  18  ar  
 28  13  19  ar  
 29  14  16  1   
 30  15  17  1   
 31  15  20  1   
 32  15  32  1   
 33  16  33  1   
 34  16  34  1   
 35  17  35  1   
 36  17  36  1   
 37  18  21  ar  
 38  18  37  1   
 39  19  22  ar  
 40  19  38  1   
 41  20  39  1   
 42  20  40  1   
 43  20  41  1   
 44  21  22  ar  
 45  21  42  1   
 46  22  43  1   
@<TRIPOS>SUBSTRUCTURE
  1 ****   7 GROUP 4 **** **** 0

# MOE 2024.06 (io_trps.svl 2023.06)
