@<TRIPOS>MOLECULE
NONAME
52 55 1 0 0 
SMALL
USER_CHARGES


@<TRIPOS>ATOM
  1 O        0.0730     2.4540    -1.7270 O.2   1 <1>  -0.5700 
  2 C       -0.4260     3.5030    -1.3880 C.2   1 <1>   0.5690 
  3 N       -1.0170     3.7050    -0.1710 N.am  1 <1>  -0.5090 
  4 C       -0.3950     4.6710    -2.3650 C.3   1 <1>   0.1810 
  5 C       -1.6440     5.0270     0.1590 C.3   1 <1>   0.3640 
  6 C       -0.8930     2.7300     0.9400 C.3   1 <1>   0.0490 
  7 O       -0.1650     5.8770    -1.6850 O.3   1 <1>  -0.5600 
  8 C       -3.1710     4.9350     0.0570 C.ar  1 <1>  -0.1440 
  9 C       -1.1520     6.2180    -0.7170 C.3   1 <1>   0.2610 
 10 C       -1.4280     1.3470     0.7390 C.3   1 <1>  -0.2000 
 11 C       -2.1030     2.2730     1.6980 C.3   1 <1>  -0.2000 
 12 C       -3.8100     4.1350    -0.8850 C.ar  1 <1>  -0.1500 
 13 C       -3.9480     5.6850     0.9290 C.ar  1 <1>  -0.1500 
 14 C       -0.6400     7.3450     0.1880 C.2   1 <1>   0.5690 
 15 C       -5.1910     4.0820    -0.9520 C.ar  1 <1>  -0.1500 
 16 C       -5.3290     5.6350     0.8640 C.ar  1 <1>  -0.1500 
 17 O       -1.3510     7.7680     1.0690 O.2   1 <1>  -0.5700 
 18 N        0.6020     7.8510    -0.0100 N.am  1 <1>  -0.7300 
 19 C       -5.9610     4.8360    -0.0730 C.ar  1 <1>   0.0820 
 20 C        1.2300     8.9190     0.7800 C.3   1 <1>   0.3210 
 21 O       -7.3180     4.8410    -0.0680 O.3   1 <1>  -0.3620 
 22 C        2.7260     8.6970     0.7660 C.2   1 <1>  -0.1810 
 23 C       -8.0580     4.0370    -0.9590 C.3   1 <1>   0.0400 
 24 C        3.4030     7.6660     1.4060 C.2   1 <1>   0.1390 
 25 C        3.6960     9.4120     0.1570 C.2   1 <1>  -0.3020 
 26 N        4.6860     7.7290     1.2170 N.2   1 <1>  -0.7070 
 27 N        4.8680     8.8120     0.4440 N.pl3 1 <1>   0.3140 
 28 C        6.2050     9.2220     0.0050 C.3   1 <1>   0.0160 
 29 H       -1.3260     4.7400    -2.8980 H     1 <1>   0.0800 
 30 H        0.4060     4.5310    -3.0680 H     1 <1>   0.0800 
 31 H       -1.4010     5.2400     1.1860 H     1 <1>   0.0800 
 32 H        0.0390     2.8330     1.4720 H     1 <1>   0.1000 
 33 H       -1.9900     6.6160    -1.2610 H     1 <1>   0.0800 
 34 H       -1.9090     1.1160    -0.1950 H     1 <1>   0.1000 
 35 H       -0.8650     0.5180     1.1300 H     1 <1>   0.1000 
 36 H       -2.0090     2.0650     2.7490 H     1 <1>   0.1000 
 37 H       -3.0850     2.6220     1.4370 H     1 <1>   0.1000 
 38 H       -3.2420     3.5340    -1.5730 H     1 <1>   0.1500 
 39 H       -3.4860     6.3190     1.6690 H     1 <1>   0.1500 
 40 H       -5.6470     3.4500    -1.6890 H     1 <1>   0.1500 
 41 H       -5.9270     6.2180     1.5420 H     1 <1>   0.1500 
 42 H        1.1780     7.4580    -0.7620 H     1 <1>   0.3700 
 43 H        0.9950     9.8730     0.3410 H     1 <1>   0.0800 
 44 H        0.8590     8.9020     1.7910 H     1 <1>   0.0800 
 45 H       -9.1030     4.1970    -0.7630 H     1 <1>   0.0800 
 46 H       -7.8080     3.0050    -0.7880 H     1 <1>   0.0800 
 47 H       -7.8270     4.3290    -1.9680 H     1 <1>   0.0800 
 48 H        2.9290     6.8960     1.9930 H     1 <1>   0.1500 
 49 H        3.6230    10.2950    -0.4510 H     1 <1>   0.1500 
 50 H        6.1600    10.2060    -0.4210 H     1 <1>   0.0800 
 51 H        6.5620     8.5210    -0.7250 H     1 <1>   0.0800 
 52 H        6.8630     9.2220     0.8540 H     1 <1>   0.0800 
@<TRIPOS>BOND
  1   1   2  2   
  2   2   3  am  
  3   2   4  1   
  4   3   5  1   
  5   3   6  1   
  6   4   7  1   
  7   4  29  1   
  8   4  30  1   
  9   5   8  1   
 10   5   9  1   
 11   5  31  1   
 12   6  10  1   
 13   6  11  1   
 14   6  32  1   
 15   7   9  1   
 16   8  12  ar  
 17   8  13  ar  
 18   9  14  1   
 19   9  33  1   
 20  10  11  1   
 21  10  34  1   
 22  10  35  1   
 23  11  36  1   
 24  11  37  1   
 25  12  15  ar  
 26  12  38  1   
 27  13  16  ar  
 28  13  39  1   
 29  14  17  2   
 30  14  18  am  
 31  15  19  ar  
 32  15  40  1   
 33  16  19  ar  
 34  16  41  1   
 35  18  20  1   
 36  18  42  1   
 37  19  21  1   
 38  20  22  1   
 39  20  43  1   
 40  20  44  1   
 41  21  23  1   
 42  22  24  1   
 43  22  25  2   
 44  23  45  1   
 45  23  46  1   
 46  23  47  1   
 47  24  26  2   
 48  24  48  1   
 49  25  27  1   
 50  25  49  1   
 51  26  27  1   
 52  27  28  1   
 53  28  50  1   
 54  28  51  1   
 55  28  52  1   
@<TRIPOS>SUBSTRUCTURE
  1 ****   9 GROUP 4 **** **** 0

# MOE 2024.06 (io_trps.svl 2023.06)
