@<TRIPOS>MOLECULE
NONAME
46 48 1 0 0 
SMALL
USER_CHARGES


@<TRIPOS>ATOM
  1 CL      -0.9160     0.2600    -0.5820 Cl    1 <1>  -0.1770 
  2 C       -0.8860    -1.4100    -0.0660 C.ar  1 <1>   0.1770 
  3 C       -1.7980    -2.3340    -0.5590 C.ar  1 <1>  -0.0090 
  4 C        0.0870    -1.7600     0.8530 C.ar  1 <1>  -0.1500 
  5 S       -3.0660    -1.8690    -1.7590 S.o2  1 <1>   1.4470 
  6 C       -1.6960    -3.6420    -0.0910 C.ar  1 <1>  -0.1500 
  7 C        0.1680    -3.0650     1.3030 C.ar  1 <1>  -0.1500 
  8 O       -3.9480    -2.9970    -1.9790 O.2   1 <1>  -0.6500 
  9 O       -2.4400    -1.2560    -2.9100 O.2   1 <1>  -0.6500 
 10 N       -3.9860    -0.6920    -0.9530 N.am  1 <1>  -0.8490 
 11 C       -0.7270    -4.0070     0.8290 C.ar  1 <1>  -0.1500 
 12 C       -4.8990    -1.2680     0.0360 C.3   1 <1>   0.1960 
 13 C       -4.6770     0.2000    -1.8870 C.3   1 <1>   0.1960 
 14 C       -5.6030    -0.1590     0.8220 C.3   1 <1>  -0.1600 
 15 C       -5.3380     1.3440    -1.1160 C.3   1 <1>  -0.1600 
 16 C       -6.3650     0.8130    -0.0970 C.3   1 <1>   0.2800 
 17 O       -6.7170     1.8980     0.7290 O.3   1 <1>  -0.5600 
 18 C       -7.6370     0.1380    -0.7440 C.3   1 <1>   0.2000 
 19 C       -7.8220     2.6610     0.3720 C.3   1 <1>   0.1200 
 20 O       -7.8820     0.6410    -2.0350 O.3   1 <1>  -0.6800 
 21 C       -8.9100     0.3350     0.1260 C.3   1 <1>   0.2800 
 22 C       -9.1070     1.8240     0.4780 C.3   1 <1>  -0.1600 
 23 O       -8.7520    -0.3630     1.3090 O.3   1 <1>  -0.6800 
 24 C      -10.1740    -0.2620    -0.5050 C.3   1 <1>  -0.2400 
 25 H        0.7750    -1.0140     1.2100 H     1 <1>   0.1500 
 26 H       -2.3850    -4.3890    -0.4530 H     1 <1>   0.1500 
 27 H        0.9240    -3.3460     2.0180 H     1 <1>   0.1500 
 28 H       -0.6680    -5.0260     1.1740 H     1 <1>   0.1500 
 29 H       -5.6230    -1.9000    -0.4520 H     1 <1>   0.0800 
 30 H       -4.3420    -1.8800     0.7260 H     1 <1>   0.0800 
 31 H       -3.9660     0.6250    -2.5760 H     1 <1>   0.0800 
 32 H       -5.4070    -0.3530    -2.4570 H     1 <1>   0.0800 
 33 H       -4.8570     0.3840     1.3740 H     1 <1>   0.0800 
 34 H       -6.2690    -0.6060     1.5350 H     1 <1>   0.0800 
 35 H       -5.7940     2.0210    -1.8130 H     1 <1>   0.0800 
 36 H       -4.5670     1.8860    -0.5980 H     1 <1>   0.0800 
 37 H       -7.4710    -0.9140    -0.8770 H     1 <1>   0.0800 
 38 H       -7.8690     3.5040     1.0400 H     1 <1>   0.0800 
 39 H       -7.6690     3.0280    -0.6280 H     1 <1>   0.0800 
 40 H       -8.0490     1.6000    -1.9870 H     1 <1>   0.4000 
 41 H       -9.8200     2.2620    -0.1980 H     1 <1>   0.0800 
 42 H       -9.5180     1.9260     1.4660 H     1 <1>   0.0800 
 43 H       -9.5140    -0.1940     1.8920 H     1 <1>   0.4000 
 44 H      -10.3980     0.2280    -1.4360 H     1 <1>   0.0800 
 45 H      -11.0220    -0.1440     0.1460 H     1 <1>   0.0800 
 46 H      -10.0260    -1.3070    -0.7120 H     1 <1>   0.0800 
@<TRIPOS>BOND
  1   1   2  1   
  2   2   3  ar  
  3   2   4  ar  
  4   3   5  1   
  5   3   6  ar  
  6   4   7  ar  
  7   4  25  1   
  8   5   8  2   
  9   5   9  2   
 10   5  10  am  
 11   6  11  ar  
 12   6  26  1   
 13   7  11  ar  
 14   7  27  1   
 15  10  12  1   
 16  10  13  1   
 17  11  28  1   
 18  12  14  1   
 19  12  29  1   
 20  12  30  1   
 21  13  15  1   
 22  13  31  1   
 23  13  32  1   
 24  14  16  1   
 25  14  33  1   
 26  14  34  1   
 27  15  16  1   
 28  15  35  1   
 29  15  36  1   
 30  16  17  1   
 31  16  18  1   
 32  17  19  1   
 33  18  20  1   
 34  18  21  1   
 35  18  37  1   
 36  19  22  1   
 37  19  38  1   
 38  19  39  1   
 39  20  40  1   
 40  21  22  1   
 41  21  23  1   
 42  21  24  1   
 43  22  41  1   
 44  22  42  1   
 45  23  43  1   
 46  24  44  1   
 47  24  45  1   
 48  24  46  1   
@<TRIPOS>SUBSTRUCTURE
  1 ****  12 GROUP 4 **** **** 0

# MOE 2024.06 (io_trps.svl 2023.06)
