@<TRIPOS>MOLECULE
NONAME
47 48 1 0 0 
SMALL
USER_CHARGES


@<TRIPOS>ATOM
  1 O       -4.1990     2.7570    -0.4920 O.2   1 <1>  -0.5700 
  2 C       -3.3470     2.1390     0.1080 C.2   1 <1>   0.5690 
  3 N       -3.3670     0.7680     0.0950 N.am  1 <1>  -0.6600 
  4 C       -2.3040     2.9420     0.8830 C.3   1 <1>   0.0440 
  5 C       -2.5060    -0.0720     0.9930 C.3   1 <1>   0.3210 
  6 C       -4.1310     0.0260    -0.9630 C.3   1 <1>   0.1400 
  7 C       -0.8710     2.4990     0.6040 C.ar  1 <1>  -0.1440 
  8 C       -3.1880    -1.3720     1.4220 C.2   1 <1>   0.0460 
  9 C       -5.5920    -0.2750    -0.5660 C.3   1 <1>   0.3430 
 10 C       -0.4100     2.4100    -0.7010 C.ar  1 <1>  -0.1500 
 11 C       -0.0180     2.1730     1.6490 C.ar  1 <1>  -0.1500 
 12 N       -4.3160    -1.3610     2.1680 N.2   1 <1>  -0.5650 
 13 C       -2.7970    -2.6450     1.1670 C.2   1 <1>  -0.3320 
 14 N       -6.2890     0.9380    -0.0300 N.4   1 <1>  -0.9590 
 15 C        0.8820     1.9860    -0.9600 C.ar  1 <1>  -0.1500 
 16 C        1.2740     1.7490     1.3910 C.ar  1 <1>  -0.1500 
 17 C       -4.5700    -2.6140     2.3680 C.2   1 <1>   0.0360 
 18 N       -3.6850    -3.4460     1.7830 N.pl3 1 <1>   0.0330 
 19 C       -1.6120    -3.1980     0.3900 C.3   1 <1>  -0.0600 
 20 C       -6.3390     0.8910     1.4610 C.3   1 <1>   0.2630 
 21 C       -7.6340     1.1510    -0.6300 C.3   1 <1>   0.2630 
 22 C        1.7240     1.6530     0.0860 C.ar  1 <1>  -0.1500 
 23 H       -2.5260     2.8670     1.9300 H     1 <1>   0.0800 
 24 H       -2.3960     3.9780     0.6100 H     1 <1>   0.0800 
 25 H       -2.2670     0.4730     1.8880 H     1 <1>   0.0800 
 26 H       -1.5850    -0.2920     0.4860 H     1 <1>   0.0800 
 27 H       -3.6300    -0.8980    -1.1930 H     1 <1>   0.0800 
 28 H       -4.1360     0.6110    -1.8660 H     1 <1>   0.0800 
 29 H       -5.6050    -1.0610     0.1710 H     1 <1>   0.0800 
 30 H       -6.1100    -0.6390    -1.4360 H     1 <1>   0.0800 
 31 H       -1.0520     2.6710    -1.5260 H     1 <1>   0.1500 
 32 H       -0.3480     2.2480     2.6710 H     1 <1>   0.1500 
 33 H       -5.6690     1.7430    -0.2810 H     1 <1>   0.4500 
 34 H        1.2340     1.9190    -1.9750 H     1 <1>   0.1500 
 35 H        1.9310     1.4970     2.2050 H     1 <1>   0.1500 
 36 H       -5.3980    -2.9840     2.9480 H     1 <1>   0.1500 
 37 H       -3.6820    -4.4710     1.8220 H     1 <1>   0.2700 
 38 H       -1.0240    -2.4070    -0.0380 H     1 <1>   0.0800 
 39 H       -1.9530    -3.8350    -0.4060 H     1 <1>   0.0800 
 40 H       -0.9780    -3.7730     1.0440 H     1 <1>   0.0800 
 41 H       -6.8930     0.0290     1.7920 H     1 <1>   0.0800 
 42 H       -6.8060     1.7810     1.8490 H     1 <1>   0.0800 
 43 H       -5.3400     0.8270     1.8600 H     1 <1>   0.0800 
 44 H       -8.2860     0.3270    -0.3890 H     1 <1>   0.0800 
 45 H       -7.5540     1.2320    -1.7020 H     1 <1>   0.0800 
 46 H       -8.0690     2.0610    -0.2510 H     1 <1>   0.0800 
 47 H        2.7290     1.3250    -0.1150 H     1 <1>   0.1500 
@<TRIPOS>BOND
  1   1   2  2   
  2   2   3  am  
  3   2   4  1   
  4   3   5  1   
  5   3   6  1   
  6   4   7  1   
  7   4  23  1   
  8   4  24  1   
  9   5   8  1   
 10   5  25  1   
 11   5  26  1   
 12   6   9  1   
 13   6  27  1   
 14   6  28  1   
 15   7  10  ar  
 16   7  11  ar  
 17   8  12  1   
 18   8  13  2   
 19   9  14  1   
 20   9  29  1   
 21   9  30  1   
 22  10  15  ar  
 23  10  31  1   
 24  11  16  ar  
 25  11  32  1   
 26  12  17  2   
 27  13  18  1   
 28  13  19  1   
 29  14  20  1   
 30  14  21  1   
 31  14  33  1   
 32  15  22  ar  
 33  15  34  1   
 34  16  22  ar  
 35  16  35  1   
 36  17  18  1   
 37  17  36  1   
 38  18  37  1   
 39  19  38  1   
 40  19  39  1   
 41  19  40  1   
 42  20  41  1   
 43  20  42  1   
 44  20  43  1   
 45  21  44  1   
 46  21  45  1   
 47  21  46  1   
 48  22  47  1   
@<TRIPOS>SUBSTRUCTURE
  1 ****   5 GROUP 4 **** **** 0

# MOE 2024.06 (io_trps.svl 2023.06)
