@<TRIPOS>MOLECULE
NONAME
42 45 1 0 0 
SMALL
USER_CHARGES


@<TRIPOS>ATOM
  1 S       -1.3590     0.8520     0.0740 S.3   1 <1>  -0.0800 
  2 C       -0.3980     2.2720    -0.2760 C.2   1 <1>  -0.1400 
  3 C       -0.2200     0.3640     1.3190 C.2   1 <1>  -0.1100 
  4 C        0.6980     2.3380     0.4910 C.2   1 <1>  -0.1810 
  5 C       -0.8000     3.2790    -1.3190 C.3   1 <1>   0.0200 
  6 C        0.7970     1.2440     1.4160 C.2   1 <1>  -0.1500 
  7 C        1.6890     3.4910     0.3380 C.3   1 <1>   0.4610 
  8 C       -0.0100     4.5660    -1.0310 C.3   1 <1>   0.1200 
  9 O        1.3510     4.2850    -0.7860 O.3   1 <1>  -0.5600 
 10 C        1.7200     4.3840     1.5820 C.3   1 <1>  -0.1600 
 11 C        3.1020     2.9640     0.0570 C.3   1 <1>  -0.1600 
 12 C        2.6660     5.5790     1.4300 C.3   1 <1>   0.3430 
 13 C        4.2050     4.0150     0.2260 C.3   1 <1>   0.3430 
 14 N        3.6270     5.3790     0.3070 N.4   1 <1>  -0.9590 
 15 C        4.6210     6.4880     0.1750 C.3   1 <1>   0.4860 
 16 C        3.9110     7.7940    -0.1780 C.ar  1 <1>   0.1670 
 17 N        2.9260     7.7080    -1.0660 N.ar  1 <1>  -0.6200 
 18 C        4.3060     8.9770     0.4310 C.ar  1 <1>  -0.1500 
 19 C        2.3220     8.8480    -1.3670 C.ar  1 <1>   0.1600 
 20 C        3.6610    10.1530     0.1120 C.ar  1 <1>  -0.1500 
 21 C        2.6440    10.0750    -0.8140 C.ar  1 <1>  -0.1500 
 22 H       -0.4380    -0.5430     1.8550 H     1 <1>   0.1500 
 23 H       -1.8550     3.4780    -1.2630 H     1 <1>   0.0800 
 24 H       -0.5690     2.9070    -2.3010 H     1 <1>   0.0800 
 25 H        1.6140     1.1560     2.1100 H     1 <1>   0.1500 
 26 H       -0.4170     5.0670    -0.1700 H     1 <1>   0.0800 
 27 H       -0.0650     5.2310    -1.8750 H     1 <1>   0.0800 
 28 H        2.0420     3.7960     2.4210 H     1 <1>   0.0800 
 29 H        0.7300     4.7290     1.8170 H     1 <1>   0.0800 
 30 H        3.1310     2.5590    -0.9390 H     1 <1>   0.0800 
 31 H        3.3260     2.1510     0.7230 H     1 <1>   0.0800 
 32 H        3.1970     5.7370     2.3540 H     1 <1>   0.0800 
 33 H        2.0790     6.4620     1.2260 H     1 <1>   0.0800 
 34 H        4.8840     3.9490    -0.6100 H     1 <1>   0.0800 
 35 H        4.7600     3.8090     1.1270 H     1 <1>   0.0800 
 36 H        3.0240     5.4880    -0.5390 H     1 <1>   0.4500 
 37 H        5.3100     6.2590    -0.6210 H     1 <1>   0.0800 
 38 H        5.1770     6.6040     1.0890 H     1 <1>   0.0800 
 39 H        5.1090     8.9950     1.1460 H     1 <1>   0.1500 
 40 H        1.5260     8.8060    -2.0930 H     1 <1>   0.1500 
 41 H        3.9390    11.0920     0.5610 H     1 <1>   0.1500 
 42 H        2.1060    10.9590    -1.1090 H     1 <1>   0.1500 
@<TRIPOS>BOND
  1   1   2  1   
  2   1   3  1   
  3   2   4  2   
  4   2   5  1   
  5   3   6  2   
  6   3  22  1   
  7   4   6  1   
  8   4   7  1   
  9   5   8  1   
 10   5  23  1   
 11   5  24  1   
 12   6  25  1   
 13   7   9  1   
 14   7  10  1   
 15   7  11  1   
 16   8   9  1   
 17   8  26  1   
 18   8  27  1   
 19  10  12  1   
 20  10  28  1   
 21  10  29  1   
 22  11  13  1   
 23  11  30  1   
 24  11  31  1   
 25  12  14  1   
 26  12  32  1   
 27  12  33  1   
 28  13  14  1   
 29  13  34  1   
 30  13  35  1   
 31  14  15  1   
 32  14  36  1   
 33  15  16  1   
 34  15  37  1   
 35  15  38  1   
 36  16  17  ar  
 37  16  18  ar  
 38  17  19  ar  
 39  18  20  ar  
 40  18  39  1   
 41  19  21  ar  
 42  19  40  1   
 43  20  21  ar  
 44  20  41  1   
 45  21  42  1   
@<TRIPOS>SUBSTRUCTURE
  1 ****   9 GROUP 4 **** **** 0

# MOE 2024.06 (io_trps.svl 2023.06)
