@<TRIPOS>MOLECULE
NONAME
51 53 1 0 0 
SMALL
USER_CHARGES


@<TRIPOS>ATOM
  1 O       -0.2670     1.8670    -2.3900 O.2   1 <1>  -0.5700 
  2 C        0.2250     2.0180    -1.2930 C.2   1 <1>   0.5690 
  3 N       -0.5020     1.8020    -0.1440 N.am  1 <1>  -0.6600 
  4 C        1.6730     2.4980    -1.2470 C.3   1 <1>   0.1810 
  5 C       -1.9340     1.3820    -0.1950 C.3   1 <1>   0.1400 
  6 C        0.0310     1.9470     1.2390 C.3   1 <1>   0.1400 
  7 O        2.5220     1.5380    -0.6340 O.3   1 <1>  -0.3620 
  8 C       -2.8460     2.3850     0.5520 C.3   1 <1>   0.0000 
  9 C       -0.8240     2.9520     2.0160 C.3   1 <1>  -0.1600 
 10 C        3.8270     1.8790    -0.5110 C.ar  1 <1>   0.0820 
 11 C       -4.2990     1.8690     0.4970 C.3   1 <1>   0.2000 
 12 C       -2.3140     2.5740     1.9940 C.3   1 <1>  -0.1600 
 13 C       -2.9310     3.7150    -0.2180 C.3   1 <1>  -0.1600 
 14 C        4.2580     2.8730     0.3750 C.ar  1 <1>   0.0820 
 15 C        4.7410     1.1900    -1.2890 C.ar  1 <1>  -0.1500 
 16 O       -5.0660     2.5060     1.4790 O.3   1 <1>  -0.5600 
 17 C       -4.8220     2.2970    -0.8810 C.3   1 <1>  -0.1600 
 18 C       -3.9750     3.5010    -1.3170 C.3   1 <1>  -0.1600 
 19 O        3.3290     3.5080     1.1480 O.3   1 <1>  -0.3630 
 20 C        5.6180     3.1700     0.4410 C.ar  1 <1>  -0.1500 
 21 C        6.0890     1.4920    -1.2110 C.ar  1 <1>  -0.1500 
 22 C       -6.2070     1.8150     1.8800 C.3   1 <1>   0.0400 
 23 C        3.7070     4.4260     2.1500 C.3   1 <1>   0.0400 
 24 C        6.5250     2.4830    -0.3490 C.ar  1 <1>  -0.1500 
 25 H        1.7240     3.4180    -0.6990 H     1 <1>   0.0800 
 26 H        2.0290     2.6620    -2.2470 H     1 <1>   0.0800 
 27 H       -2.2550     1.2820    -1.2170 H     1 <1>   0.0800 
 28 H       -2.0160     0.4120     0.2630 H     1 <1>   0.0800 
 29 H       -0.0020     0.9880     1.7260 H     1 <1>   0.0800 
 30 H        1.0530     2.2780     1.2370 H     1 <1>   0.0800 
 31 H       -0.4800     2.9940     3.0340 H     1 <1>   0.0800 
 32 H       -0.6880     3.9300     1.5880 H     1 <1>   0.0800 
 33 H       -4.3480     0.8030     0.6480 H     1 <1>   0.0800 
 34 H       -2.8800     3.3360     2.5010 H     1 <1>   0.0800 
 35 H       -2.4500     1.6560     2.5390 H     1 <1>   0.0800 
 36 H       -3.2880     4.4840     0.4450 H     1 <1>   0.0800 
 37 H       -1.9840     4.0250    -0.6230 H     1 <1>   0.0800 
 38 H        4.3920     0.4190    -1.9530 H     1 <1>   0.1500 
 39 H       -4.6710     1.4940    -1.5810 H     1 <1>   0.0800 
 40 H       -5.8690     2.5400    -0.8590 H     1 <1>   0.0800 
 41 H       -3.4860     3.2860    -2.2520 H     1 <1>   0.0800 
 42 H       -4.5830     4.3820    -1.4360 H     1 <1>   0.0800 
 43 H        5.9930     3.9300     1.0990 H     1 <1>   0.1500 
 44 H        6.7970     0.9550    -1.8200 H     1 <1>   0.1500 
 45 H       -6.7220     2.4170     2.6070 H     1 <1>   0.0800 
 46 H       -5.9160     0.8800     2.3250 H     1 <1>   0.0800 
 47 H       -6.8460     1.6490     1.0310 H     1 <1>   0.0800 
 48 H        2.8160     4.7530     2.6560 H     1 <1>   0.0800 
 49 H        4.1940     5.2670     1.6890 H     1 <1>   0.0800 
 50 H        4.3620     3.9330     2.8460 H     1 <1>   0.0800 
 51 H        7.5740     2.7180    -0.2920 H     1 <1>   0.1500 
@<TRIPOS>BOND
  1   1   2  2   
  2   2   3  am  
  3   2   4  1   
  4   3   5  1   
  5   3   6  1   
  6   4   7  1   
  7   4  25  1   
  8   4  26  1   
  9   5   8  1   
 10   5  27  1   
 11   5  28  1   
 12   6   9  1   
 13   6  29  1   
 14   6  30  1   
 15   7  10  1   
 16   8  11  1   
 17   8  12  1   
 18   8  13  1   
 19   9  12  1   
 20   9  31  1   
 21   9  32  1   
 22  10  14  ar  
 23  10  15  ar  
 24  11  16  1   
 25  11  17  1   
 26  11  33  1   
 27  12  34  1   
 28  12  35  1   
 29  13  18  1   
 30  13  36  1   
 31  13  37  1   
 32  14  19  1   
 33  14  20  ar  
 34  15  21  ar  
 35  15  38  1   
 36  16  22  1   
 37  17  18  1   
 38  17  39  1   
 39  17  40  1   
 40  18  41  1   
 41  18  42  1   
 42  19  23  1   
 43  20  24  ar  
 44  20  43  1   
 45  21  24  ar  
 46  21  44  1   
 47  22  45  1   
 48  22  46  1   
 49  22  47  1   
 50  23  48  1   
 51  23  49  1   
 52  23  50  1   
 53  24  51  1   
@<TRIPOS>SUBSTRUCTURE
  1 ****   3 GROUP 4 **** **** 0

# MOE 2024.06 (io_trps.svl 2023.06)
