@<TRIPOS>MOLECULE
NONAME
48 50 1 0 0 
SMALL
USER_CHARGES


@<TRIPOS>ATOM
  1 O       -0.2670     0.6010     0.0110 O.2   1 <1>  -0.5700 
  2 C        0.5160     0.2490     0.8620 C.2   1 <1>   0.5690 
  3 N        1.2860     1.1570     1.5410 N.am  1 <1>  -0.6600 
  4 C        0.6420    -1.2430     1.1580 C.3   1 <1>  -0.0990 
  5 C        1.3110     2.5790     1.1050 C.3   1 <1>   0.3210 
  6 C        2.2580     0.8230     2.6210 C.3   1 <1>   0.0600 
  7 C        0.0510    -2.1490     0.0590 C.3   1 <1>  -0.1600 
  8 C        2.5580     2.8120     0.2750 C.2   1 <1>  -0.1810 
  9 C        0.2490    -3.6340     0.3840 C.3   1 <1>   0.0960 
 10 C        2.8230     2.2190    -0.9520 C.2   1 <1>   0.1390 
 11 C        3.6370     3.5860     0.5160 C.2   1 <1>  -0.3020 
 12 N       -0.2850    -4.4750    -0.7040 N.pl3 1 <1>   0.0480 
 13 N        3.9690     2.5830    -1.4360 N.2   1 <1>  -0.7070 
 14 N        4.4890     3.4500    -0.5310 N.pl3 1 <1>   0.5930 
 15 C        0.3770    -4.9580    -1.7800 C.2   1 <1>   0.0360 
 16 C       -1.5400    -4.9380    -0.8420 C.2   1 <1>  -0.3020 
 17 C        5.7620     4.0700    -0.6680 C.ar  1 <1>  -0.0230 
 18 N       -0.3520    -5.6780    -2.5680 N.2   1 <1>  -0.5650 
 19 C       -1.5620    -5.6660    -1.9790 C.2   1 <1>   0.0770 
 20 C        5.8990     5.4530    -0.8260 C.ar  1 <1>  -0.1440 
 21 C        6.9050     3.2780    -0.6360 C.ar  1 <1>  -0.1500 
 22 C        7.1650     6.0090    -0.9240 C.ar  1 <1>  -0.1500 
 23 C        4.6840     6.3680    -0.9060 C.3   1 <1>  -0.0970 
 24 C        8.1630     3.8410    -0.7370 C.ar  1 <1>  -0.1500 
 25 C        8.2940     5.2100    -0.8780 C.ar  1 <1>  -0.1500 
 26 H        0.1450    -1.4390     2.0900 H     1 <1>   0.0800 
 27 H        1.6840    -1.4800     1.2670 H     1 <1>   0.0800 
 28 H        1.3140     3.2220     1.9670 H     1 <1>   0.0800 
 29 H        0.4400     2.8180     0.5190 H     1 <1>   0.0800 
 30 H        1.9870    -0.0910     3.1170 H     1 <1>   0.0800 
 31 H        2.2750     1.6100     3.3560 H     1 <1>   0.0800 
 32 H        3.2430     0.7200     2.1990 H     1 <1>   0.0800 
 33 H        0.5290    -1.9200    -0.8780 H     1 <1>   0.0800 
 34 H       -1.0020    -1.9440    -0.0420 H     1 <1>   0.0800 
 35 H       -0.2610    -3.8880     1.2960 H     1 <1>   0.0800 
 36 H        1.2950    -3.8530     0.5030 H     1 <1>   0.0800 
 37 H        2.1550     1.5300    -1.4460 H     1 <1>   0.1500 
 38 H        3.8660     4.2190     1.3510 H     1 <1>   0.1500 
 39 H        1.4190    -4.7500    -1.9480 H     1 <1>   0.1500 
 40 H       -2.3310    -4.7310    -0.1450 H     1 <1>   0.1500 
 41 H       -2.3980    -6.1890    -2.4130 H     1 <1>   0.1500 
 42 H        6.8040     2.2110    -0.5340 H     1 <1>   0.1500 
 43 H        7.2830     7.0720    -1.0410 H     1 <1>   0.1500 
 44 H        3.9600     5.9680    -1.5950 H     1 <1>   0.0800 
 45 H        4.9630     7.3480    -1.2520 H     1 <1>   0.0800 
 46 H        4.2290     6.4660     0.0630 H     1 <1>   0.0800 
 47 H        9.0390     3.2160    -0.7090 H     1 <1>   0.1500 
 48 H        9.2710     5.6530    -0.9560 H     1 <1>   0.1500 
@<TRIPOS>BOND
  1   1   2  2   
  2   2   3  am  
  3   2   4  1   
  4   3   5  1   
  5   3   6  1   
  6   4   7  1   
  7   4  26  1   
  8   4  27  1   
  9   5   8  1   
 10   5  28  1   
 11   5  29  1   
 12   6  30  1   
 13   6  31  1   
 14   6  32  1   
 15   7   9  1   
 16   7  33  1   
 17   7  34  1   
 18   8  10  1   
 19   8  11  2   
 20   9  12  1   
 21   9  35  1   
 22   9  36  1   
 23  10  13  2   
 24  10  37  1   
 25  11  14  1   
 26  11  38  1   
 27  12  15  1   
 28  12  16  1   
 29  13  14  1   
 30  14  17  1   
 31  15  18  2   
 32  15  39  1   
 33  16  19  2   
 34  16  40  1   
 35  17  20  ar  
 36  17  21  ar  
 37  18  19  1   
 38  19  41  1   
 39  20  22  ar  
 40  20  23  1   
 41  21  24  ar  
 42  21  42  1   
 43  22  25  ar  
 44  22  43  1   
 45  23  44  1   
 46  23  45  1   
 47  23  46  1   
 48  24  25  ar  
 49  24  47  1   
 50  25  48  1   
@<TRIPOS>SUBSTRUCTURE
  1 ****  10 GROUP 4 **** **** 0

# MOE 2024.06 (io_trps.svl 2023.06)
