@<TRIPOS>MOLECULE
NONAME
52 55 1 0 0 
SMALL
USER_CHARGES


@<TRIPOS>ATOM
  1 S       -1.2360    -0.3940     1.1280 S.o2  1 <1>   1.5760 
  2 O       -0.9460    -1.6930     1.6940 O.2   1 <1>  -0.6500 
  3 O       -1.7330     0.6750     1.9660 O.2   1 <1>  -0.6500 
  4 N       -2.2970    -0.6100    -0.1670 N.am  1 <1>  -0.8490 
  5 N        0.1300     0.1740     0.3170 N.am  1 <1>  -0.8490 
  6 C       -3.6690    -0.7810     0.3440 C.3   1 <1>   0.1960 
  7 C       -1.8690    -1.7290    -1.0170 C.3   1 <1>   0.1960 
  8 C        1.2990     0.1490     1.1950 C.3   1 <1>   0.1960 
  9 C       -0.0900     1.5150    -0.2310 C.3   1 <1>   0.1960 
 10 C       -4.7480    -0.8890    -0.7480 C.3   1 <1>   0.2090 
 11 C       -2.4520    -1.5860    -2.4270 C.3   1 <1>  -0.1600 
 12 C        2.5590     0.5340     0.4110 C.3   1 <1>  -0.1600 
 13 C        1.1150     1.9450    -1.0750 C.3   1 <1>  -0.1600 
 14 N       -4.6820    -2.2030    -1.4500 N.pl3 1 <1>  -0.8220 
 15 C       -3.7880    -2.3090    -2.6320 C.3   1 <1>   0.2090 
 16 C        2.4090     1.9070    -0.2550 C.3   1 <1>  -0.1600 
 17 C       -5.2600    -3.3270    -0.9000 C.2   1 <1>   0.5620 
 18 O       -5.8960    -3.2190     0.2620 O.3   1 <1>  -0.2800 
 19 N       -5.2410    -4.5160    -1.4000 N.2   1 <1>  -0.5650 
 20 C       -6.3180    -4.4360     0.5420 C.ar  1 <1>   0.1400 
 21 C       -5.9200    -5.2510    -0.4850 C.ar  1 <1>   0.2270 
 22 C       -7.0290    -4.9060     1.6330 C.ar  1 <1>  -0.1500 
 23 C       -6.2360    -6.6050    -0.4510 C.ar  1 <1>  -0.1500 
 24 C       -7.3400    -6.2530     1.6660 C.ar  1 <1>  -0.1500 
 25 C       -6.9470    -7.1040     0.6280 C.ar  1 <1>  -0.1430 
 26 C       -7.3100    -8.5770     0.7000 C.3   1 <1>  -0.0970 
 27 H       -3.9180     0.0740     0.9470 H     1 <1>   0.0800 
 28 H       -3.7210    -1.6500     0.9790 H     1 <1>   0.0800 
 29 H       -2.1370    -2.6750    -0.5730 H     1 <1>   0.0800 
 30 H       -0.7960    -1.7110    -1.1120 H     1 <1>   0.0800 
 31 H        1.4310    -0.8440     1.5950 H     1 <1>   0.0800 
 32 H        1.1530     0.8280     2.0190 H     1 <1>   0.0800 
 33 H       -0.2470     2.2200     0.5690 H     1 <1>   0.0800 
 34 H       -0.9690     1.5140    -0.8540 H     1 <1>   0.0800 
 35 H       -4.6400    -0.0820    -1.4500 H     1 <1>   0.0800 
 36 H       -5.7160    -0.7880    -0.2880 H     1 <1>   0.0800 
 37 H       -1.7540    -2.0080    -3.1250 H     1 <1>   0.0800 
 38 H       -2.5490    -0.5450    -2.6770 H     1 <1>   0.0800 
 39 H        2.7400    -0.2160    -0.3390 H     1 <1>   0.0800 
 40 H        3.4040     0.5440     1.0770 H     1 <1>   0.0800 
 41 H        0.9520     2.9390    -1.4500 H     1 <1>   0.0800 
 42 H        1.1970     1.2820    -1.9190 H     1 <1>   0.0800 
 43 H       -3.5830    -3.3460    -2.8360 H     1 <1>   0.0800 
 44 H       -4.2930    -1.9040    -3.4920 H     1 <1>   0.0800 
 45 H        3.2560     2.1040    -0.8900 H     1 <1>   0.0800 
 46 H        2.3740     2.6700     0.5040 H     1 <1>   0.0800 
 47 H       -7.3210    -4.2330     2.4190 H     1 <1>   0.1500 
 48 H       -5.9180    -7.2290    -1.2660 H     1 <1>   0.1500 
 49 H       -7.8910    -6.6520     2.5000 H     1 <1>   0.1500 
 50 H       -6.9480    -9.1050    -0.1640 H     1 <1>   0.0800 
 51 H       -8.3780    -8.6890     0.7460 H     1 <1>   0.0800 
 52 H       -6.8750    -9.0190     1.5780 H     1 <1>   0.0800 
@<TRIPOS>BOND
  1   1   2  2   
  2   1   3  2   
  3   1   4  am  
  4   1   5  am  
  5   4   6  1   
  6   4   7  1   
  7   5   8  1   
  8   5   9  1   
  9   6  10  1   
 10   6  27  1   
 11   6  28  1   
 12   7  11  1   
 13   7  29  1   
 14   7  30  1   
 15   8  12  1   
 16   8  31  1   
 17   8  32  1   
 18   9  13  1   
 19   9  33  1   
 20   9  34  1   
 21  10  14  1   
 22  10  35  1   
 23  10  36  1   
 24  11  15  1   
 25  11  37  1   
 26  11  38  1   
 27  12  16  1   
 28  12  39  1   
 29  12  40  1   
 30  13  16  1   
 31  13  41  1   
 32  13  42  1   
 33  14  15  1   
 34  14  17  1   
 35  15  43  1   
 36  15  44  1   
 37  16  45  1   
 38  16  46  1   
 39  17  18  1   
 40  17  19  2   
 41  18  20  1   
 42  19  21  1   
 43  20  21  ar  
 44  20  22  ar  
 45  21  23  ar  
 46  22  24  ar  
 47  22  47  1   
 48  23  25  ar  
 49  23  48  1   
 50  24  25  ar  
 51  24  49  1   
 52  25  26  1   
 53  26  50  1   
 54  26  51  1   
 55  26  52  1   
@<TRIPOS>SUBSTRUCTURE
  1 ****   6 GROUP 4 **** **** 0

# MOE 2024.06 (io_trps.svl 2023.06)
