@<TRIPOS>MOLECULE
NONAME
49 51 1 0 0 
SMALL
USER_CHARGES


@<TRIPOS>ATOM
  1 CL      -0.1310     0.6010     0.5250 Cl    1 <1>  -0.1770 
  2 C       -1.7710     1.0710     0.1520 C.ar  1 <1>   0.1770 
  3 C       -2.7830     0.1370     0.2440 C.ar  1 <1>  -0.1500 
  4 C       -2.0240     2.3750    -0.2270 C.ar  1 <1>  -0.1500 
  5 C       -4.0920     0.5010    -0.0510 C.ar  1 <1>   0.1170 
  6 C       -3.3240     2.7540    -0.5210 C.ar  1 <1>  -0.1500 
  7 N       -5.1730    -0.3940     0.0200 N.am  1 <1>  -0.5470 
  8 C       -4.3580     1.8240    -0.4330 C.ar  1 <1>   0.0830 
  9 C       -5.2890    -1.7370     0.2180 C.2   1 <1>   0.6900 
 10 O       -5.6600     2.1420    -0.7070 O.3   1 <1>  -0.3630 
 11 O       -4.3150    -2.4550     0.3410 O.2   1 <1>  -0.5700 
 12 N       -6.5450    -2.2750     0.2670 N.am  1 <1>  -0.6600 
 13 C       -6.0200     3.4200    -1.1820 C.3   1 <1>   0.0400 
 14 C       -7.8180    -1.5230     0.3020 C.3   1 <1>   0.1400 
 15 C       -6.7820    -3.7280     0.3770 C.3   1 <1>   0.1400 
 16 C       -8.8670    -2.5320     0.7910 C.3   1 <1>  -0.0800 
 17 C       -8.3040    -3.9030     0.3680 C.3   1 <1>  -0.0800 
 18 C      -10.3400    -2.2600     0.3550 C.3   1 <1>   0.2800 
 19 C       -8.8420    -4.3130    -1.0120 C.3   1 <1>  -0.1600 
 20 O      -10.3680    -1.5410    -0.8250 O.3   1 <1>  -0.6800 
 21 C      -11.0650    -3.5890     0.0730 C.3   1 <1>  -0.1600 
 22 C      -11.1290    -1.4390     1.3990 C.3   1 <1>  -0.1600 
 23 C      -10.3750    -4.4530    -1.0050 C.3   1 <1>  -0.1600 
 24 C      -10.5630    -0.0430     1.7150 C.3   1 <1>  -0.2400 
 25 H       -2.5390    -0.8640     0.5460 H     1 <1>   0.1500 
 26 H       -1.2140     3.0790    -0.2900 H     1 <1>   0.1500 
 27 H       -3.5040     3.7710    -0.8110 H     1 <1>   0.1500 
 28 H       -6.0590     0.0510    -0.2030 H     1 <1>   0.3700 
 29 H       -7.0810     3.4250    -1.3590 H     1 <1>   0.0800 
 30 H       -5.4970     3.6120    -2.1030 H     1 <1>   0.0800 
 31 H       -5.7730     4.1540    -0.4360 H     1 <1>   0.0800 
 32 H       -7.7500    -0.6790     0.9640 H     1 <1>   0.0800 
 33 H       -8.0260    -1.1820    -0.6970 H     1 <1>   0.0800 
 34 H       -6.3090    -4.2480    -0.4390 H     1 <1>   0.0800 
 35 H       -6.3680    -4.0770     1.3070 H     1 <1>   0.0800 
 36 H       -8.8330    -2.5210     1.8660 H     1 <1>   0.0800 
 37 H       -8.5760    -4.6630     1.0800 H     1 <1>   0.0800 
 38 H       -8.5630    -3.5580    -1.7280 H     1 <1>   0.0800 
 39 H       -8.3960    -5.2400    -1.3290 H     1 <1>   0.0800 
 40 H      -11.2880    -1.4640    -1.1320 H     1 <1>   0.4000 
 41 H      -11.0880    -4.1520     0.9900 H     1 <1>   0.0800 
 42 H      -12.0880    -3.4110    -0.2070 H     1 <1>   0.0800 
 43 H      -12.1440    -1.3270     1.0600 H     1 <1>   0.0800 
 44 H      -11.1720    -2.0000     2.3170 H     1 <1>   0.0800 
 45 H      -10.6420    -5.4830    -0.8430 H     1 <1>   0.0800 
 46 H      -10.7440    -4.1740    -1.9780 H     1 <1>   0.0800 
 47 H      -10.4570     0.5380     0.8160 H     1 <1>   0.0800 
 48 H       -9.6070    -0.1170     2.1980 H     1 <1>   0.0800 
 49 H      -11.2310     0.4790     2.3780 H     1 <1>   0.0800 
@<TRIPOS>BOND
  1   1   2  1   
  2   2   3  ar  
  3   2   4  ar  
  4   3   5  ar  
  5   3  25  1   
  6   4   6  ar  
  7   4  26  1   
  8   5   7  1   
  9   5   8  ar  
 10   6   8  ar  
 11   6  27  1   
 12   7   9  am  
 13   7  28  1   
 14   8  10  1   
 15   9  11  2   
 16   9  12  am  
 17  10  13  1   
 18  12  14  1   
 19  12  15  1   
 20  13  29  1   
 21  13  30  1   
 22  13  31  1   
 23  14  16  1   
 24  14  32  1   
 25  14  33  1   
 26  15  17  1   
 27  15  34  1   
 28  15  35  1   
 29  16  17  1   
 30  16  18  1   
 31  16  36  1   
 32  17  19  1   
 33  17  37  1   
 34  18  20  1   
 35  18  21  1   
 36  18  22  1   
 37  19  23  1   
 38  19  38  1   
 39  19  39  1   
 40  20  40  1   
 41  21  23  1   
 42  21  41  1   
 43  21  42  1   
 44  22  24  1   
 45  22  43  1   
 46  22  44  1   
 47  23  45  1   
 48  23  46  1   
 49  24  47  1   
 50  24  48  1   
 51  24  49  1   
@<TRIPOS>SUBSTRUCTURE
  1 ****  12 GROUP 4 **** **** 0

# MOE 2024.06 (io_trps.svl 2023.06)
