@<TRIPOS>MOLECULE
NONAME
50 53 1 0 0 
SMALL
USER_CHARGES


@<TRIPOS>ATOM
  1 F        1.4210    -0.5530    -2.1660 F     1 <1>  -0.1900 
  2 C        2.0510     0.4130    -1.5520 C.ar  1 <1>   0.1900 
  3 C        3.1490     0.1050    -0.7790 C.ar  1 <1>  -0.1500 
  4 C        1.5910     1.7060    -1.7050 C.ar  1 <1>  -0.1500 
  5 C        3.8400     1.1230    -0.1250 C.ar  1 <1>   0.0860 
  6 C        2.2590     2.7260    -1.0520 C.ar  1 <1>  -0.1500 
  7 C        5.0030     0.8060     0.6750 C.2   1 <1>   0.5440 
  8 C        3.3730     2.4430    -0.2580 C.ar  1 <1>   0.0830 
  9 O        4.8780     0.0980     1.6560 O.2   1 <1>  -0.5700 
 10 N        6.2510     1.2980     0.3580 N.am  1 <1>  -0.6600 
 11 O        4.0390     3.4200     0.4120 O.3   1 <1>  -0.3630 
 12 C        7.0580     1.8340     1.5010 C.3   1 <1>   0.1400 
 13 C        6.5070     1.8040    -1.0270 C.3   1 <1>   0.1400 
 14 C        3.5180     4.7190     0.5940 C.3   1 <1>   0.1200 
 15 C        8.4950     2.1980     1.1240 C.3   1 <1>  -0.1600 
 16 C        7.9850     2.0760    -1.2920 C.3   1 <1>  -0.1600 
 17 C        4.3270     5.4570     1.6660 C.3   1 <1>   0.0960 
 18 C        8.5000     2.9740    -0.1820 C.3   1 <1>   0.2200 
 19 N        5.7490     5.6370     1.3090 N.pl3 1 <1>   0.3140 
 20 N        9.8490     3.4710    -0.4820 N.am  1 <1>  -0.7300 
 21 N        6.7360     5.3500     2.1630 N.2   1 <1>  -0.4180 
 22 C        6.2690     6.2030     0.2150 C.2   1 <1>  -0.3020 
 23 C       10.1970     4.7200    -0.8710 C.2   1 <1>   0.5690 
 24 N        7.8550     5.7070     1.6360 N.2   1 <1>  -0.2270 
 25 C        7.5930     6.2330     0.4360 C.2   1 <1>   0.0460 
 26 O       11.3470     5.0690    -0.7880 O.2   1 <1>  -0.5700 
 27 C        9.1950     5.6960    -1.4670 C.3   1 <1>  -0.0990 
 28 C        8.6910     6.7560    -0.4730 C.3   1 <1>   0.0210 
 29 H        3.4730    -0.9150    -0.6780 H     1 <1>   0.1500 
 30 H        0.7300     1.9000    -2.3200 H     1 <1>   0.1500 
 31 H        1.8970     3.7300    -1.1750 H     1 <1>   0.1500 
 32 H        7.0750     1.1110     2.2990 H     1 <1>   0.0800 
 33 H        6.5620     2.7130     1.8740 H     1 <1>   0.0800 
 34 H        5.9620     2.7210    -1.1670 H     1 <1>   0.0800 
 35 H        6.1440     1.0840    -1.7410 H     1 <1>   0.0800 
 36 H        2.4970     4.6280     0.9190 H     1 <1>   0.0800 
 37 H        3.5550     5.2410    -0.3470 H     1 <1>   0.0800 
 38 H        9.0770     1.2980     1.0360 H     1 <1>   0.0800 
 39 H        8.9090     2.8040     1.9100 H     1 <1>   0.0800 
 40 H        8.0860     2.5660    -2.2430 H     1 <1>   0.0800 
 41 H        8.5290     1.1480    -1.3210 H     1 <1>   0.0800 
 42 H        4.2730     4.9100     2.5900 H     1 <1>   0.0800 
 43 H        3.9040     6.4300     1.8310 H     1 <1>   0.0800 
 44 H        7.8290     3.8030    -0.0870 H     1 <1>   0.0800 
 45 H       10.6130     2.9000    -0.1190 H     1 <1>   0.3700 
 46 H        5.6920     6.5420    -0.6230 H     1 <1>   0.1500 
 47 H        8.3680     5.1670    -1.8990 H     1 <1>   0.0800 
 48 H        9.6990     6.2030    -2.2690 H     1 <1>   0.0800 
 49 H        9.5100     7.1280     0.1190 H     1 <1>   0.0800 
 50 H        8.2920     7.5840    -1.0300 H     1 <1>   0.0800 
@<TRIPOS>BOND
  1   1   2  1   
  2   2   3  ar  
  3   2   4  ar  
  4   3   5  ar  
  5   3  29  1   
  6   4   6  ar  
  7   4  30  1   
  8   5   7  1   
  9   5   8  ar  
 10   6   8  ar  
 11   6  31  1   
 12   7   9  2   
 13   7  10  am  
 14   8  11  1   
 15  10  12  1   
 16  10  13  1   
 17  11  14  1   
 18  12  15  1   
 19  12  32  1   
 20  12  33  1   
 21  13  16  1   
 22  13  34  1   
 23  13  35  1   
 24  14  17  1   
 25  14  36  1   
 26  14  37  1   
 27  15  18  1   
 28  15  38  1   
 29  15  39  1   
 30  16  18  1   
 31  16  40  1   
 32  16  41  1   
 33  17  19  1   
 34  17  42  1   
 35  17  43  1   
 36  18  20  1   
 37  18  44  1   
 38  19  21  1   
 39  19  22  1   
 40  20  23  am  
 41  20  45  1   
 42  21  24  2   
 43  22  25  2   
 44  22  46  1   
 45  23  26  2   
 46  23  27  1   
 47  24  25  1   
 48  25  28  1   
 49  27  28  1   
 50  27  47  1   
 51  27  48  1   
 52  28  49  1   
 53  28  50  1   
@<TRIPOS>SUBSTRUCTURE
  1 ****  13 GROUP 4 **** **** 0

# MOE 2024.06 (io_trps.svl 2023.06)
