@<TRIPOS>MOLECULE
NONAME
45 46 1 0 0 
SMALL
USER_CHARGES


@<TRIPOS>ATOM
  1 O       -0.7110    -0.5870    -1.2560 O.2   1 <1>  -0.5700 
  2 C       -1.2540     0.0670    -0.3920 C.2   1 <1>   0.5690 
  3 N       -2.1040    -0.5200     0.4920 N.am  1 <1>  -0.7300 
  4 C       -0.9930     1.5980    -0.2790 C.3   1 <1>   0.3410 
  5 C       -2.4880    -1.9460     0.5260 C.3   1 <1>   0.2200 
  6 O       -1.8030     2.1070     0.7700 O.3   1 <1>  -0.5600 
  7 C       -1.3830     2.2940    -1.5950 C.3   1 <1>  -0.2400 
  8 C        0.4870     1.8480     0.0570 C.3   1 <1>  -0.2400 
  9 C       -3.9350    -2.0810     0.0870 C.3   1 <1>  -0.0800 
 10 C       -2.5360    -2.4400     1.9720 C.3   1 <1>   0.1200 
 11 C       -1.7560     3.4600     1.1080 C.3   1 <1>   0.1200 
 12 C       -4.6770    -1.8060     1.3950 C.3   1 <1>   0.1200 
 13 C       -4.2280    -3.4890    -0.4650 C.3   1 <1>  -0.0170 
 14 O       -3.8510    -2.2690     2.4210 O.3   1 <1>  -0.5600 
 15 C       -2.7410     3.6690     2.2510 C.3   1 <1>  -0.2400 
 16 C       -5.6740    -3.6200    -0.9170 C.ar  1 <1>  -0.1430 
 17 C       -6.1200    -3.0570    -2.0950 C.ar  1 <1>  -0.1500 
 18 C       -6.6150    -4.3060    -0.1750 C.ar  1 <1>  -0.1500 
 19 C       -7.4480    -3.1980    -2.4620 C.ar  1 <1>   0.1600 
 20 C       -7.9200    -4.3890    -0.6330 C.ar  1 <1>   0.1600 
 21 N       -8.3600    -3.8500    -1.7580 N.ar  1 <1>  -0.6200 
 22 H       -2.5350     0.0960     1.1900 H     1 <1>   0.3700 
 23 H       -1.8070    -2.5250    -0.0750 H     1 <1>   0.0800 
 24 H       -0.8690     1.8250    -2.4150 H     1 <1>   0.0800 
 25 H       -1.1090     3.3320    -1.5930 H     1 <1>   0.0800 
 26 H       -2.4400     2.1940    -1.7630 H     1 <1>   0.0800 
 27 H        1.1070     1.3470    -0.6650 H     1 <1>   0.0800 
 28 H        0.7160     1.4490     1.0280 H     1 <1>   0.0800 
 29 H        0.7320     2.8930     0.0240 H     1 <1>   0.0800 
 30 H       -4.1860    -1.3520    -0.6640 H     1 <1>   0.0800 
 31 H       -1.8640    -1.8990     2.6130 H     1 <1>   0.0800 
 32 H       -2.3160    -3.4920     2.0190 H     1 <1>   0.0800 
 33 H       -0.7620     3.7180     1.4280 H     1 <1>   0.0800 
 34 H       -2.0440     4.0560     0.2610 H     1 <1>   0.0800 
 35 H       -5.6320    -2.2970     1.4580 H     1 <1>   0.0800 
 36 H       -4.8090    -0.7480     1.5380 H     1 <1>   0.0800 
 37 H       -4.0150    -4.2340     0.2820 H     1 <1>   0.0800 
 38 H       -3.5860    -3.6820    -1.3070 H     1 <1>   0.0800 
 39 H       -2.4600     3.0670     3.0970 H     1 <1>   0.0800 
 40 H       -3.7340     3.4050     1.9360 H     1 <1>   0.0800 
 41 H       -2.7380     4.7020     2.5500 H     1 <1>   0.0800 
 42 H       -5.4480    -2.5090    -2.7300 H     1 <1>   0.1500 
 43 H       -6.3470    -4.7740     0.7550 H     1 <1>   0.1500 
 44 H       -7.7770    -2.7510    -3.3850 H     1 <1>   0.1500 
 45 H       -8.6400    -4.9270    -0.0400 H     1 <1>   0.1500 
@<TRIPOS>BOND
  1   1   2  2   
  2   2   3  am  
  3   2   4  1   
  4   3   5  1   
  5   3  22  1   
  6   4   6  1   
  7   4   7  1   
  8   4   8  1   
  9   5   9  1   
 10   5  10  1   
 11   5  23  1   
 12   6  11  1   
 13   7  24  1   
 14   7  25  1   
 15   7  26  1   
 16   8  27  1   
 17   8  28  1   
 18   8  29  1   
 19   9  12  1   
 20   9  13  1   
 21   9  30  1   
 22  10  14  1   
 23  10  31  1   
 24  10  32  1   
 25  11  15  1   
 26  11  33  1   
 27  11  34  1   
 28  12  14  1   
 29  12  35  1   
 30  12  36  1   
 31  13  16  1   
 32  13  37  1   
 33  13  38  1   
 34  15  39  1   
 35  15  40  1   
 36  15  41  1   
 37  16  17  ar  
 38  16  18  ar  
 39  17  19  ar  
 40  17  42  1   
 41  18  20  ar  
 42  18  43  1   
 43  19  21  ar  
 44  19  44  1   
 45  20  21  ar  
 46  20  45  1   
@<TRIPOS>SUBSTRUCTURE
  1 ****   9 GROUP 4 **** **** 0

# MOE 2024.06 (io_trps.svl 2023.06)
